MODEL        1
REMARK 921   NORMALIZED FREE ENERGY PREDICTED BY IDOCK:   -6.47 KCAL/MOL
REMARK 922        TOTAL FREE ENERGY PREDICTED BY IDOCK:  -15.14 KCAL/MOL
REMARK 923 INTER-LIGAND FREE ENERGY PREDICTED BY IDOCK:  -12.91 KCAL/MOL
REMARK 924 INTRA-LIGAND FREE ENERGY PREDICTED BY IDOCK:   -2.23 KCAL/MOL
REMARK 927      BINDING AFFINITY PREDICTED BY RF-SCORE:    0.00 PKD
ROOT
HETATM    1  C   UNL     1     -11.193  15.378  70.362  1.00  0.00    -0.323 C  
HETATM    2  N   UNL     1     -10.740  15.129  69.004  1.00  0.00    -0.230 N  
HETATM    3  O   UNL     1     -10.398  16.022  66.894  1.00  0.00    -0.279 OA 
HETATM    4  C   UNL     1     -10.644  16.167  68.088  1.00  0.00    -0.290 C  
ENDROOT
BRANCH   2   5
HETATM    5  C   UNL     1     -10.617  13.745  68.548  1.00  0.00    -0.253 C  
BRANCH   5   6
HETATM    6  C   UNL     1     -11.931  13.176  67.996  1.00  0.00    -0.345 C  
BRANCH   6   7
HETATM    7  C   UNL     1     -11.742  12.606  66.585  1.00  0.00    -0.464 C  
BRANCH   7   8
HETATM    8  C   UNL     1     -12.504  13.420  65.531  1.00  0.00    -0.534 C  
BRANCH   8   9
HETATM    9  C   UNL     1     -11.786  13.389  64.179  1.00  0.00    -0.466 C  
BRANCH   9  10
HETATM   10  C   UNL     1     -11.755  11.977  63.587  1.00  0.00    -0.587 C  
BRANCH  10  11
HETATM   11  C   UNL     1     -10.335  11.444  63.367  1.00  0.00    -0.458 C  
BRANCH  11  12
HETATM   12  C   UNL     1      -9.932  10.374  64.379  1.00  0.00    -0.388 C  
BRANCH  12  13
HETATM   13  C   UNL     1      -8.874  10.891  65.351  1.00  0.00    -0.192 C  
BRANCH  13  14
HETATM   14  C   UNL     1      -8.584   9.845  66.417  1.00  0.00    -0.128 C  
BRANCH  14  15
HETATM   15  N   UNL     1      -8.796  10.369  67.758  1.00  0.00    -0.128 N  
HETATM   16  C   UNL     1      -9.970  10.074  68.426  1.00  0.00    -0.160 C  
HETATM   17  C   UNL     1      -7.743  11.155  68.385  1.00  0.00    -0.125 C  
HETATM   18  O   UNL     1     -10.906   9.449  67.938  1.00  0.00    -0.236 OA 
BRANCH  16  19
HETATM   19  O   UNL     1     -10.026  10.686  69.670  1.00  0.00    -0.177 OA 
BRANCH  19  20
HETATM   20  C   UNL     1     -10.766   9.962  70.611  1.00  0.00    -0.303 A  
HETATM   21  C   UNL     1     -12.058  10.400  70.877  1.00  0.00    -0.477 A  
HETATM   22  C   UNL     1     -12.857   9.632  71.716  1.00  0.00    -0.514 A  
HETATM   23  C   UNL     1     -12.367   8.449  72.280  1.00  0.00    -0.436 A  
HETATM   24  C   UNL     1     -11.057   8.009  72.023  1.00  0.00    -0.293 A  
HETATM   25  C   UNL     1     -10.275   8.764  71.149  1.00  0.00    -0.316 A  
BRANCH  24  26
HETATM   26  N   UNL     1     -10.527   6.696  72.576  1.00  0.00    -0.199 N  
HETATM   27  C   UNL     1      -9.400   6.149  71.706  1.00  0.00    -0.151 C  
HETATM   28  C   UNL     1     -11.633   5.633  72.599  1.00  0.00    -0.251 C  
HETATM   29  C   UNL     1     -10.021   6.959  73.987  1.00  0.00    -0.336 C  
ENDBRANCH  24  26
ENDBRANCH  19  20
ENDBRANCH  16  19
ENDBRANCH  14  15
ENDBRANCH  13  14
ENDBRANCH  12  13
ENDBRANCH  11  12
ENDBRANCH  10  11
ENDBRANCH   9  10
ENDBRANCH   8   9
ENDBRANCH   7   8
ENDBRANCH   6   7
ENDBRANCH   5   6
ENDBRANCH   2   5
BRANCH   4  30
HETATM   30  O   UNL     1     -10.930  17.411  68.657  1.00  0.00    -0.224 OA 
BRANCH  30  31
HETATM   31  C   UNL     1     -10.147  18.457  68.139  1.00  0.00    -0.382 A  
HETATM   32  C   UNL     1     -10.715  19.379  67.257  1.00  0.00    -0.603 A  
HETATM   33  C   UNL     1      -8.839  18.611  68.608  1.00  0.00    -0.333 A  
HETATM   34  C   UNL     1      -8.062  19.689  68.150  1.00  0.00    -0.318 A  
HETATM   35  C   UNL     1      -9.953  20.435  66.791  1.00  0.00    -0.525 A  
HETATM   36  C   UNL     1      -8.636  20.583  67.226  1.00  0.00    -0.372 A  
BRANCH  34  37
HETATM   37  N   UNL     1      -6.598  19.826  68.549  1.00  0.00    -0.270 N  
HETATM   38  C   UNL     1      -5.988  21.121  68.009  1.00  0.00    -0.339 C  
HETATM   39  C   UNL     1      -6.450  19.867  70.070  1.00  0.00    -0.315 C  
HETATM   40  C   UNL     1      -5.854  18.630  67.954  1.00  0.00    -0.189 C  
ENDBRANCH  34  37
ENDBRANCH  30  31
ENDBRANCH   4  30
TORSDOF 17
ENDMDL
MODEL        2
REMARK 921   NORMALIZED FREE ENERGY PREDICTED BY IDOCK:   -6.31 KCAL/MOL
REMARK 922        TOTAL FREE ENERGY PREDICTED BY IDOCK:  -14.81 KCAL/MOL
REMARK 923 INTER-LIGAND FREE ENERGY PREDICTED BY IDOCK:  -13.01 KCAL/MOL
REMARK 924 INTRA-LIGAND FREE ENERGY PREDICTED BY IDOCK:   -1.80 KCAL/MOL
REMARK 927      BINDING AFFINITY PREDICTED BY RF-SCORE:    0.00 PKD
ROOT
HETATM    1  C   UNL     1     -11.698  14.247  66.742  1.00  0.00    -0.405 C  
HETATM    2  N   UNL     1     -11.519  14.967  65.493  1.00  0.00    -0.335 N  
HETATM    3  O   UNL     1     -10.979  16.987  64.496  1.00  0.00    -1.031 OA 
HETATM    4  C   UNL     1     -11.035  16.268  65.489  1.00  0.00    -0.149 C  
ENDROOT
BRANCH   2   5
HETATM    5  C   UNL     1     -12.074  14.395  64.268  1.00  0.00    -0.436 C  
BRANCH   5   6
HETATM    6  C   UNL     1     -12.441  12.912  64.412  1.00  0.00    -0.447 C  
BRANCH   6   7
HETATM    7  C   UNL     1     -11.854  12.079  63.266  1.00  0.00    -0.450 C  
BRANCH   7   8
HETATM    8  C   UNL     1     -10.324  11.998  63.342  1.00  0.00    -0.468 C  
BRANCH   8   9
HETATM    9  C   UNL     1      -9.814  10.639  62.854  1.00  0.00    -0.271 C  
BRANCH   9  10
HETATM   10  C   UNL     1      -8.329  10.444  63.172  1.00  0.00    -0.167 C  
BRANCH  10  11
HETATM   11  C   UNL     1      -8.056   9.231  64.069  1.00  0.00    -0.150 C  
BRANCH  11  12
HETATM   12  C   UNL     1      -9.134   9.014  65.129  1.00  0.00    -0.203 C  
BRANCH  12  13
HETATM   13  C   UNL     1      -8.764   9.682  66.451  1.00  0.00    -0.148 C  
BRANCH  13  14
HETATM   14  C   UNL     1      -9.604  10.932  66.661  1.00  0.00    -0.185 C  
BRANCH  14  15
HETATM   15  N   UNL     1      -9.845  11.190  68.073  1.00  0.00    -0.170 N  
HETATM   16  C   UNL     1     -11.139  11.156  68.560  1.00  0.00    -0.244 C  
HETATM   17  C   UNL     1      -8.709  11.432  68.951  1.00  0.00    -0.004 C  
HETATM   18  O   UNL     1     -12.136  10.994  67.865  1.00  0.00    -0.600 OA 
BRANCH  16  19
HETATM   19  O   UNL     1     -11.191  11.466  69.911  1.00  0.00    -0.235 OA 
BRANCH  19  20
HETATM   20  C   UNL     1     -11.670  10.415  70.701  1.00  0.00    -0.351 A  
HETATM   21  C   UNL     1     -12.856  10.629  71.393  1.00  0.00    -0.556 A  
HETATM   22  C   UNL     1     -13.417   9.564  72.089  1.00  0.00    -0.535 A  
HETATM   23  C   UNL     1     -12.797   8.310  72.094  1.00  0.00    -0.348 A  
HETATM   24  C   UNL     1     -11.591   8.093  71.406  1.00  0.00    -0.278 A  
HETATM   25  C   UNL     1     -11.055   9.155  70.678  1.00  0.00    -0.320 A  
BRANCH  24  26
HETATM   26  N   UNL     1     -10.934   6.723  71.348  1.00  0.00    -0.236 N  
HETATM   27  C   UNL     1     -11.230   6.028  70.023  1.00  0.00    -0.355 C  
HETATM   28  C   UNL     1     -11.475   5.816  72.461  1.00  0.00    -0.296 C  
HETATM   29  C   UNL     1      -9.434   6.922  71.513  1.00  0.00    -0.155 C  
ENDBRANCH  24  26
ENDBRANCH  19  20
ENDBRANCH  16  19
ENDBRANCH  14  15
ENDBRANCH  13  14
ENDBRANCH  12  13
ENDBRANCH  11  12
ENDBRANCH  10  11
ENDBRANCH   9  10
ENDBRANCH   8   9
ENDBRANCH   7   8
ENDBRANCH   6   7
ENDBRANCH   5   6
ENDBRANCH   2   5
BRANCH   4  30
HETATM   30  O   UNL     1     -10.677  16.710  66.766  1.00  0.00    -0.253 OA 
BRANCH  30  31
HETATM   31  C   UNL     1     -10.027  17.956  66.765  1.00  0.00    -0.339 A  
HETATM   32  C   UNL     1     -10.730  19.106  67.126  1.00  0.00    -0.567 A  
HETATM   33  C   UNL     1      -8.654  17.994  66.505  1.00  0.00    -0.280 A  
HETATM   34  C   UNL     1      -7.973  19.223  66.563  1.00  0.00    -0.294 A  
HETATM   35  C   UNL     1     -10.070  20.321  67.172  1.00  0.00    -0.556 A  
HETATM   36  C   UNL     1      -8.707  20.380  66.884  1.00  0.00    -0.345 A  
BRANCH  34  37
HETATM   37  N   UNL     1      -6.502  19.324  66.175  1.00  0.00    -0.190 N  
HETATM   38  C   UNL     1      -6.289  20.328  65.041  1.00  0.00    -0.283 C  
HETATM   39  C   UNL     1      -5.660  19.804  67.358  1.00  0.00    -0.173 C  
HETATM   40  C   UNL     1      -6.062  17.935  65.711  1.00  0.00    -0.198 C  
ENDBRANCH  34  37
ENDBRANCH  30  31
ENDBRANCH   4  30
TORSDOF 17
ENDMDL
MODEL        3
REMARK 921   NORMALIZED FREE ENERGY PREDICTED BY IDOCK:   -6.27 KCAL/MOL
REMARK 922        TOTAL FREE ENERGY PREDICTED BY IDOCK:  -14.74 KCAL/MOL
REMARK 923 INTER-LIGAND FREE ENERGY PREDICTED BY IDOCK:  -13.16 KCAL/MOL
REMARK 924 INTRA-LIGAND FREE ENERGY PREDICTED BY IDOCK:   -1.58 KCAL/MOL
REMARK 927      BINDING AFFINITY PREDICTED BY RF-SCORE:    0.00 PKD
ROOT
HETATM    1  C   UNL     1     -10.247   8.222  68.419  1.00  0.00    -0.209 C  
HETATM    2  N   UNL     1      -9.446   9.423  68.587  1.00  0.00    -0.145 N  
HETATM    3  O   UNL     1      -9.435  11.739  68.634  1.00  0.00    -0.178 OA 
HETATM    4  C   UNL     1     -10.045  10.675  68.627  1.00  0.00    -0.183 C  
ENDROOT
BRANCH   2   5
HETATM    5  C   UNL     1      -7.993   9.318  68.476  1.00  0.00    -0.101 C  
BRANCH   5   6
HETATM    6  C   UNL     1      -7.465   9.732  67.096  1.00  0.00    -0.088 C  
BRANCH   6   7
HETATM    7  C   UNL     1      -7.415   8.536  66.136  1.00  0.00    -0.089 C  
BRANCH   7   8
HETATM    8  C   UNL     1      -8.520   8.607  65.075  1.00  0.00    -0.192 C  
BRANCH   8   9
HETATM    9  C   UNL     1      -8.291   9.776  64.112  1.00  0.00    -0.169 C  
BRANCH   9  10
HETATM   10  C   UNL     1      -9.598  10.236  63.460  1.00  0.00    -0.321 C  
BRANCH  10  11
HETATM   11  C   UNL     1     -10.355  11.278  64.290  1.00  0.00    -0.399 C  
BRANCH  11  12
HETATM   12  C   UNL     1     -11.431  12.014  63.494  1.00  0.00    -0.536 C  
BRANCH  12  13
HETATM   13  C   UNL     1     -12.308  12.875  64.400  1.00  0.00    -0.468 C  
BRANCH  13  14
HETATM   14  C   UNL     1     -11.953  14.345  64.232  1.00  0.00    -0.410 C  
BRANCH  14  15
HETATM   15  N   UNL     1     -11.361  14.899  65.440  1.00  0.00    -0.349 N  
HETATM   16  C   UNL     1     -10.997  16.232  65.469  1.00  0.00    -0.149 C  
HETATM   17  C   UNL     1     -11.207  14.043  66.608  1.00  0.00    -0.323 C  
HETATM   18  O   UNL     1     -11.068  16.991  64.508  1.00  0.00    -1.098 OA 
BRANCH  16  19
HETATM   19  O   UNL     1     -10.410  16.581  66.677  1.00  0.00    -0.293 OA 
BRANCH  19  20
HETATM   20  C   UNL     1      -9.829  17.854  66.663  1.00  0.00    -0.342 A  
HETATM   21  C   UNL     1     -10.648  18.930  66.984  1.00  0.00    -0.510 A  
HETATM   22  C   UNL     1     -10.072  20.191  67.094  1.00  0.00    -0.590 A  
HETATM   23  C   UNL     1      -8.700  20.368  66.883  1.00  0.00    -0.345 A  
HETATM   24  C   UNL     1      -7.871  19.284  66.545  1.00  0.00    -0.278 A  
HETATM   25  C   UNL     1      -8.449  18.017  66.474  1.00  0.00    -0.285 A  
BRANCH  24  26
HETATM   26  N   UNL     1      -6.369  19.445  66.371  1.00  0.00    -0.181 N  
HETATM   27  C   UNL     1      -5.972  20.918  66.372  1.00  0.00    -0.248 C  
HETATM   28  C   UNL     1      -5.914  18.859  65.029  1.00  0.00    -0.278 C  
HETATM   29  C   UNL     1      -5.689  18.718  67.522  1.00  0.00    -0.157 C  
ENDBRANCH  24  26
ENDBRANCH  19  20
ENDBRANCH  16  19
ENDBRANCH  14  15
ENDBRANCH  13  14
ENDBRANCH  12  13
ENDBRANCH  11  12
ENDBRANCH  10  11
ENDBRANCH   9  10
ENDBRANCH   8   9
ENDBRANCH   7   8
ENDBRANCH   6   7
ENDBRANCH   5   6
ENDBRANCH   2   5
BRANCH   4  30
HETATM   30  O   UNL     1     -11.441  10.602  68.585  1.00  0.00    -0.274 OA 
BRANCH  30  31
HETATM   31  C   UNL     1     -12.066  11.180  69.702  1.00  0.00    -0.336 A  
HETATM   32  C   UNL     1     -12.599  10.363  70.700  1.00  0.00    -0.435 A  
HETATM   33  C   UNL     1     -12.040  12.572  69.839  1.00  0.00    -0.322 A  
HETATM   34  C   UNL     1     -12.604  13.165  70.982  1.00  0.00    -0.312 A  
HETATM   35  C   UNL     1     -13.168  10.939  71.822  1.00  0.00    -0.513 A  
HETATM   36  C   UNL     1     -13.179  12.327  71.956  1.00  0.00    -0.508 A  
BRANCH  34  37
HETATM   37  N   UNL     1     -12.698  14.680  71.114  1.00  0.00    -0.317 N  
HETATM   38  C   UNL     1     -11.685  15.219  72.125  1.00  0.00    -0.448 C  
HETATM   39  C   UNL     1     -12.399  15.363  69.779  1.00  0.00    -0.255 C  
HETATM   40  C   UNL     1     -14.114  15.004  71.594  1.00  0.00    -0.525 C  
ENDBRANCH  34  37
ENDBRANCH  30  31
ENDBRANCH   4  30
TORSDOF 17
ENDMDL
MODEL        4
REMARK 921   NORMALIZED FREE ENERGY PREDICTED BY IDOCK:   -6.26 KCAL/MOL
REMARK 922        TOTAL FREE ENERGY PREDICTED BY IDOCK:  -14.72 KCAL/MOL
REMARK 923 INTER-LIGAND FREE ENERGY PREDICTED BY IDOCK:  -12.66 KCAL/MOL
REMARK 924 INTRA-LIGAND FREE ENERGY PREDICTED BY IDOCK:   -2.06 KCAL/MOL
REMARK 927      BINDING AFFINITY PREDICTED BY RF-SCORE:    0.00 PKD
ROOT
HETATM    1  C   UNL     1     -13.824   8.813  71.386  1.00  0.00    -0.263 C  
HETATM    2  N   UNL     1     -12.475   9.351  71.429  1.00  0.00    -0.333 N  
HETATM    3  O   UNL     1     -10.277   8.992  72.070  1.00  0.00    -0.339 OA 
HETATM    4  C   UNL     1     -11.416   8.575  71.880  1.00  0.00    -0.335 C  
ENDROOT
BRANCH   2   5
HETATM    5  C   UNL     1     -12.284  10.785  71.217  1.00  0.00    -0.321 C  
BRANCH   5   6
HETATM    6  C   UNL     1     -12.276  11.176  69.733  1.00  0.00    -0.369 C  
BRANCH   6   7
HETATM    7  C   UNL     1     -10.928  10.850  69.078  1.00  0.00    -0.285 C  
BRANCH   7   8
HETATM    8  C   UNL     1     -11.103  10.227  67.687  1.00  0.00    -0.319 C  
BRANCH   8   9
HETATM    9  C   UNL     1      -9.804  10.300  66.878  1.00  0.00    -0.244 C  
BRANCH   9  10
HETATM   10  C   UNL     1      -9.830  11.452  65.869  1.00  0.00    -0.262 C  
BRANCH  10  11
HETATM   11  C   UNL     1     -10.336  11.033  64.485  1.00  0.00    -0.420 C  
BRANCH  11  12
HETATM   12  C   UNL     1     -11.315  12.034  63.875  1.00  0.00    -0.503 C  
BRANCH  12  13
HETATM   13  C   UNL     1     -12.331  12.524  64.904  1.00  0.00    -0.539 C  
BRANCH  13  14
HETATM   14  C   UNL     1     -12.410  14.043  64.883  1.00  0.00    -0.427 C  
BRANCH  14  15
HETATM   15  N   UNL     1     -11.614  14.640  65.945  1.00  0.00    -0.349 N  
HETATM   16  C   UNL     1     -10.776  15.701  65.653  1.00  0.00    -0.364 C  
HETATM   17  C   UNL     1     -11.754  14.134  67.303  1.00  0.00    -0.392 C  
HETATM   18  O   UNL     1     -10.589  16.145  64.525  1.00  0.00    -0.509 OA 
BRANCH  16  19
HETATM   19  O   UNL     1     -10.062  16.117  66.767  1.00  0.00    -0.255 OA 
BRANCH  19  20
HETATM   20  C   UNL     1      -9.816  17.494  66.783  1.00  0.00    -0.306 A  
HETATM   21  C   UNL     1     -10.856  18.321  67.191  1.00  0.00    -0.239 A  
HETATM   22  C   UNL     1     -10.604  19.681  67.331  1.00  0.00    -0.589 A  
HETATM   23  C   UNL     1      -9.334  20.202  67.064  1.00  0.00    -0.523 A  
HETATM   24  C   UNL     1      -8.283  19.371  66.639  1.00  0.00    -0.306 A  
HETATM   25  C   UNL     1      -8.533  18.003  66.538  1.00  0.00    -0.285 A  
BRANCH  24  26
HETATM   26  N   UNL     1      -6.880  19.907  66.403  1.00  0.00    -0.211 N  
HETATM   27  C   UNL     1      -6.611  21.138  67.262  1.00  0.00    -0.359 C  
HETATM   28  C   UNL     1      -6.703  20.334  64.940  1.00  0.00    -0.257 C  
HETATM   29  C   UNL     1      -5.896  18.799  66.751  1.00  0.00    -0.157 C  
ENDBRANCH  24  26
ENDBRANCH  19  20
ENDBRANCH  16  19
ENDBRANCH  14  15
ENDBRANCH  13  14
ENDBRANCH  12  13
ENDBRANCH  11  12
ENDBRANCH  10  11
ENDBRANCH   9  10
ENDBRANCH   8   9
ENDBRANCH   7   8
ENDBRANCH   6   7
ENDBRANCH   5   6
ENDBRANCH   2   5
BRANCH   4  30
HETATM   30  O   UNL     1     -11.801   7.263  72.171  1.00  0.00    -0.288 OA 
BRANCH  30  31
HETATM   31  C   UNL     1     -11.080   6.295  71.450  1.00  0.00    -0.284 A  
HETATM   32  C   UNL     1     -10.699   5.106  72.074  1.00  0.00    -0.236 A  
HETATM   33  C   UNL     1     -10.855   6.505  70.086  1.00  0.00    -0.336 A  
HETATM   34  C   UNL     1     -10.192   5.519  69.335  1.00  0.00    -0.259 A  
HETATM   35  C   UNL     1     -10.034   4.137  71.345  1.00  0.00    -0.223 A  
HETATM   36  C   UNL     1      -9.775   4.346  69.991  1.00  0.00    -0.286 A  
BRANCH  34  37
HETATM   37  N   UNL     1      -9.828   5.759  67.874  1.00  0.00    -0.120 N  
HETATM   38  C   UNL     1      -9.355   4.472  67.196  1.00  0.00    -0.147 C  
HETATM   39  C   UNL     1     -11.040   6.257  67.086  1.00  0.00    -0.303 C  
HETATM   40  C   UNL     1      -8.696   6.787  67.854  1.00  0.00    -0.120 C  
ENDBRANCH  34  37
ENDBRANCH  30  31
ENDBRANCH   4  30
TORSDOF 17
ENDMDL
MODEL        5
REMARK 921   NORMALIZED FREE ENERGY PREDICTED BY IDOCK:   -6.25 KCAL/MOL
REMARK 922        TOTAL FREE ENERGY PREDICTED BY IDOCK:  -14.69 KCAL/MOL
REMARK 923 INTER-LIGAND FREE ENERGY PREDICTED BY IDOCK:  -11.98 KCAL/MOL
REMARK 924 INTRA-LIGAND FREE ENERGY PREDICTED BY IDOCK:   -2.71 KCAL/MOL
REMARK 927      BINDING AFFINITY PREDICTED BY RF-SCORE:    0.00 PKD
ROOT
HETATM    1  C   UNL     1     -11.660  14.915  67.888  1.00  0.00    -0.344 C  
HETATM    2  N   UNL     1     -12.080  13.683  67.242  1.00  0.00    -0.371 N  
HETATM    3  O   UNL     1     -11.962  11.370  67.246  1.00  0.00    -0.580 OA 
HETATM    4  C   UNL     1     -11.760  12.450  67.793  1.00  0.00    -0.350 C  
ENDROOT
BRANCH   2   5
HETATM    5  C   UNL     1     -12.635  13.753  65.892  1.00  0.00    -0.447 C  
BRANCH   5   6
HETATM    6  C   UNL     1     -11.556  13.874  64.806  1.00  0.00    -0.383 C  
BRANCH   6   7
HETATM    7  C   UNL     1     -11.760  12.833  63.699  1.00  0.00    -0.587 C  
BRANCH   7   8
HETATM    8  C   UNL     1     -10.472  12.055  63.400  1.00  0.00    -0.474 C  
BRANCH   8   9
HETATM    9  C   UNL     1     -10.391  10.774  64.235  1.00  0.00    -0.401 C  
BRANCH   9  10
HETATM   10  C   UNL     1      -9.165   9.934  63.865  1.00  0.00    -0.295 C  
BRANCH  10  11
HETATM   11  C   UNL     1      -8.497   9.271  65.075  1.00  0.00    -0.178 C  
BRANCH  11  12
HETATM   12  C   UNL     1      -9.339   9.356  66.346  1.00  0.00    -0.241 C  
BRANCH  12  13
HETATM   13  C   UNL     1      -8.570  10.022  67.484  1.00  0.00    -0.122 C  
BRANCH  13  14
HETATM   14  C   UNL     1      -7.701  11.148  66.943  1.00  0.00    -0.148 C  
BRANCH  14  15
HETATM   15  N   UNL     1      -7.578  12.241  67.897  1.00  0.00    -0.115 N  
HETATM   16  C   UNL     1      -8.181  13.454  67.622  1.00  0.00    -0.177 C  
HETATM   17  C   UNL     1      -6.860  12.014  69.143  1.00  0.00    -0.090 C  
HETATM   18  O   UNL     1      -8.766  13.716  66.576  1.00  0.00    -0.068 OA 
BRANCH  16  19
HETATM   19  O   UNL     1      -7.928  14.393  68.611  1.00  0.00    -0.137 OA 
BRANCH  19  20
HETATM   20  C   UNL     1      -7.602  15.656  68.105  1.00  0.00    -0.120 A  
HETATM   21  C   UNL     1      -6.341  15.810  67.540  1.00  0.00    -0.192 A  
HETATM   22  C   UNL     1      -6.036  17.018  66.923  1.00  0.00    -0.226 A  
HETATM   23  C   UNL     1      -6.976  18.052  66.876  1.00  0.00    -0.218 A  
HETATM   24  C   UNL     1      -8.248  17.905  67.457  1.00  0.00    -0.227 A  
HETATM   25  C   UNL     1      -8.561  16.678  68.040  1.00  0.00    -0.193 A  
BRANCH  24  26
HETATM   26  N   UNL     1      -9.304  18.994  67.363  1.00  0.00    -0.300 N  
HETATM   27  C   UNL     1      -8.685  20.325  66.946  1.00  0.00    -0.295 C  
HETATM   28  C   UNL     1      -9.974  19.218  68.725  1.00  0.00    -0.440 C  
HETATM   29  C   UNL     1     -10.336  18.551  66.336  1.00  0.00    -0.423 C  
ENDBRANCH  24  26
ENDBRANCH  19  20
ENDBRANCH  16  19
ENDBRANCH  14  15
ENDBRANCH  13  14
ENDBRANCH  12  13
ENDBRANCH  11  12
ENDBRANCH  10  11
ENDBRANCH   9  10
ENDBRANCH   8   9
ENDBRANCH   7   8
ENDBRANCH   6   7
ENDBRANCH   5   6
ENDBRANCH   2   5
BRANCH   4  30
HETATM   30  O   UNL     1     -11.107  12.566  69.023  1.00  0.00    -0.247 OA 
BRANCH  30  31
HETATM   31  C   UNL     1     -11.664  11.760  70.031  1.00  0.00    -0.305 A  
HETATM   32  C   UNL     1     -12.657  12.278  70.865  1.00  0.00    -0.334 A  
HETATM   33  C   UNL     1     -11.283  10.417  70.102  1.00  0.00    -0.393 A  
HETATM   34  C   UNL     1     -11.876   9.580  71.062  1.00  0.00    -0.330 A  
HETATM   35  C   UNL     1     -13.236  11.463  71.821  1.00  0.00    -0.472 A  
HETATM   36  C   UNL     1     -12.843  10.130  71.925  1.00  0.00    -0.526 A  
BRANCH  34  37
HETATM   37  N   UNL     1     -11.406   8.141  71.246  1.00  0.00    -0.259 N  
HETATM   38  C   UNL     1     -12.581   7.162  71.232  1.00  0.00    -0.380 C  
HETATM   39  C   UNL     1     -10.468   7.726  70.114  1.00  0.00    -0.231 C  
HETATM   40  C   UNL     1     -10.702   8.068  72.602  1.00  0.00    -0.358 C  
ENDBRANCH  34  37
ENDBRANCH  30  31
ENDBRANCH   4  30
TORSDOF 17
ENDMDL
MODEL        6
REMARK 921   NORMALIZED FREE ENERGY PREDICTED BY IDOCK:   -6.18 KCAL/MOL
REMARK 922        TOTAL FREE ENERGY PREDICTED BY IDOCK:  -14.55 KCAL/MOL
REMARK 923 INTER-LIGAND FREE ENERGY PREDICTED BY IDOCK:  -13.18 KCAL/MOL
REMARK 924 INTRA-LIGAND FREE ENERGY PREDICTED BY IDOCK:   -1.37 KCAL/MOL
REMARK 927      BINDING AFFINITY PREDICTED BY RF-SCORE:    0.00 PKD
ROOT
HETATM    1  C   UNL     1     -11.290  14.045  66.905  1.00  0.00    -0.329 C  
HETATM    2  N   UNL     1     -11.387  14.752  65.640  1.00  0.00    -0.345 N  
HETATM    3  O   UNL     1     -10.993  16.733  64.505  1.00  0.00    -0.921 OA 
HETATM    4  C   UNL     1     -10.841  16.019  65.492  1.00  0.00    -0.292 C  
ENDROOT
BRANCH   2   5
HETATM    5  C   UNL     1     -12.266  14.215  64.602  1.00  0.00    -0.445 C  
BRANCH   5   6
HETATM    6  C   UNL     1     -12.397  12.687  64.659  1.00  0.00    -0.546 C  
BRANCH   6   7
HETATM    7  C   UNL     1     -11.921  12.038  63.353  1.00  0.00    -0.571 C  
BRANCH   7   8
HETATM    8  C   UNL     1     -10.394  12.082  63.214  1.00  0.00    -0.398 C  
BRANCH   8   9
HETATM    9  C   UNL     1      -9.843  10.744  62.711  1.00  0.00    -0.239 C  
BRANCH   9  10
HETATM   10  C   UNL     1      -8.314  10.756  62.632  1.00  0.00    -0.212 C  
BRANCH  10  11
HETATM   11  C   UNL     1      -7.660   9.593  63.385  1.00  0.00    -0.124 C  
BRANCH  11  12
HETATM   12  C   UNL     1      -8.497   9.092  64.560  1.00  0.00    -0.195 C  
BRANCH  12  13
HETATM   13  C   UNL     1      -8.676  10.173  65.623  1.00  0.00    -0.173 C  
BRANCH  13  14
HETATM   14  C   UNL     1     -10.069  10.090  66.228  1.00  0.00    -0.243 C  
BRANCH  14  15
HETATM   15  N   UNL     1     -10.028  10.105  67.683  1.00  0.00    -0.174 N  
HETATM   16  C   UNL     1     -11.139  10.525  68.391  1.00  0.00    -0.281 C  
HETATM   17  C   UNL     1      -8.829   9.632  68.361  1.00  0.00    -0.123 C  
HETATM   18  O   UNL     1     -12.161  10.967  67.877  1.00  0.00    -0.527 OA 
BRANCH  16  19
HETATM   19  O   UNL     1     -10.913  10.517  69.760  1.00  0.00    -0.257 OA 
BRANCH  19  20
HETATM   20  C   UNL     1     -11.852  11.265  70.479  1.00  0.00    -0.324 A  
HETATM   21  C   UNL     1     -12.756  10.561  71.267  1.00  0.00    -0.532 A  
HETATM   22  C   UNL     1     -13.621  11.280  72.084  1.00  0.00    -0.077 A  
HETATM   23  C   UNL     1     -13.581  12.678  72.107  1.00  0.00    -0.510 A  
HETATM   24  C   UNL     1     -12.677  13.393  71.303  1.00  0.00    -0.338 A  
HETATM   25  C   UNL     1     -11.787  12.665  70.515  1.00  0.00    -0.140 A  
BRANCH  24  26
HETATM   26  N   UNL     1     -12.577  14.910  71.360  1.00  0.00    -0.309 N  
HETATM   27  C   UNL     1     -11.993  15.470  70.067  1.00  0.00    -0.364 C  
HETATM   28  C   UNL     1     -11.649  15.349  72.499  1.00  0.00    -0.425 C  
HETATM   29  C   UNL     1     -13.980  15.458  71.582  1.00  0.00    -0.516 C  
ENDBRANCH  24  26
ENDBRANCH  19  20
ENDBRANCH  16  19
ENDBRANCH  14  15
ENDBRANCH  13  14
ENDBRANCH  12  13
ENDBRANCH  11  12
ENDBRANCH  10  11
ENDBRANCH   9  10
ENDBRANCH   8   9
ENDBRANCH   7   8
ENDBRANCH   6   7
ENDBRANCH   5   6
ENDBRANCH   2   5
BRANCH   4  30
HETATM   30  O   UNL     1     -10.149  16.439  66.632  1.00  0.00    -0.263 OA 
BRANCH  30  31
HETATM   31  C   UNL     1      -9.635  17.743  66.526  1.00  0.00    -0.308 A  
HETATM   32  C   UNL     1     -10.489  18.839  66.661  1.00  0.00    -0.483 A  
HETATM   33  C   UNL     1      -8.253  17.910  66.394  1.00  0.00    -0.287 A  
HETATM   34  C   UNL     1      -7.714  19.207  66.350  1.00  0.00    -0.276 A  
HETATM   35  C   UNL     1      -9.967  20.119  66.606  1.00  0.00    -0.595 A  
HETATM   36  C   UNL     1      -8.595  20.301  66.443  1.00  0.00    -0.226 A  
BRANCH  34  37
HETATM   37  N   UNL     1      -6.228  19.432  66.094  1.00  0.00    -0.175 N  
HETATM   38  C   UNL     1      -5.818  20.873  66.398  1.00  0.00    -0.232 C  
HETATM   39  C   UNL     1      -5.379  18.530  66.989  1.00  0.00    -0.130 C  
HETATM   40  C   UNL     1      -5.977  19.135  64.614  1.00  0.00    -0.273 C  
ENDBRANCH  34  37
ENDBRANCH  30  31
ENDBRANCH   4  30
TORSDOF 17
ENDMDL
MODEL        7
REMARK 921   NORMALIZED FREE ENERGY PREDICTED BY IDOCK:   -6.18 KCAL/MOL
REMARK 922        TOTAL FREE ENERGY PREDICTED BY IDOCK:  -14.55 KCAL/MOL
REMARK 923 INTER-LIGAND FREE ENERGY PREDICTED BY IDOCK:  -12.81 KCAL/MOL
REMARK 924 INTRA-LIGAND FREE ENERGY PREDICTED BY IDOCK:   -1.74 KCAL/MOL
REMARK 927      BINDING AFFINITY PREDICTED BY RF-SCORE:    0.00 PKD
ROOT
HETATM    1  C   UNL     1     -10.827   6.124  68.159  1.00  0.00    -0.306 C  
HETATM    2  N   UNL     1      -9.694   6.817  68.749  1.00  0.00    -0.132 N  
HETATM    3  O   UNL     1      -7.968   8.324  68.406  1.00  0.00    -0.115 OA 
HETATM    4  C   UNL     1      -9.008   7.789  68.034  1.00  0.00    -0.126 C  
ENDROOT
BRANCH   2   5
HETATM    5  C   UNL     1      -9.141   6.315  70.005  1.00  0.00    -0.148 C  
BRANCH   5   6
HETATM    6  C   UNL     1      -9.621   7.106  71.230  1.00  0.00    -0.163 C  
BRANCH   6   7
HETATM    7  C   UNL     1     -10.894   6.492  71.826  1.00  0.00    -0.277 C  
BRANCH   7   8
HETATM    8  C   UNL     1     -12.145   7.298  71.456  1.00  0.00    -0.365 C  
BRANCH   8   9
HETATM    9  C   UNL     1     -11.986   8.775  71.829  1.00  0.00    -0.418 C  
BRANCH   9  10
HETATM   10  C   UNL     1     -13.232   9.588  71.468  1.00  0.00    -0.468 C  
BRANCH  10  11
HETATM   11  C   UNL     1     -13.129  11.064  71.867  1.00  0.00    -0.525 C  
BRANCH  11  12
HETATM   12  C   UNL     1     -12.312  11.896  70.881  1.00  0.00    -0.400 C  
BRANCH  12  13
HETATM   13  C   UNL     1     -12.634  13.384  71.001  1.00  0.00    -0.425 C  
BRANCH  13  14
HETATM   14  C   UNL     1     -12.228  14.114  69.730  1.00  0.00    -0.344 C  
BRANCH  14  15
HETATM   15  N   UNL     1     -11.710  15.444  70.013  1.00  0.00    -0.300 N  
HETATM   16  C   UNL     1     -10.968  16.104  69.051  1.00  0.00    -0.312 C  
HETATM   17  C   UNL     1     -12.025  16.068  71.290  1.00  0.00    -0.424 C  
HETATM   18  O   UNL     1     -10.640  15.617  67.974  1.00  0.00    -0.256 OA 
BRANCH  16  19
HETATM   19  O   UNL     1     -10.517  17.336  69.501  1.00  0.00    -0.276 OA 
BRANCH  19  20
HETATM   20  C   UNL     1      -9.982  18.135  68.484  1.00  0.00    -0.395 A  
HETATM   21  C   UNL     1     -10.878  18.722  67.599  1.00  0.00    -0.382 A  
HETATM   22  C   UNL     1     -10.384  19.615  66.654  1.00  0.00    -0.598 A  
HETATM   23  C   UNL     1      -9.018  19.909  66.596  1.00  0.00    -0.452 A  
HETATM   24  C   UNL     1      -8.108  19.307  67.482  1.00  0.00    -0.276 A  
HETATM   25  C   UNL     1      -8.614  18.443  68.452  1.00  0.00    -0.345 A  
BRANCH  24  26
HETATM   26  N   UNL     1      -6.628  19.660  67.475  1.00  0.00    -0.207 N  
HETATM   27  C   UNL     1      -5.895  18.969  68.621  1.00  0.00    -0.211 C  
HETATM   28  C   UNL     1      -6.431  21.169  67.662  1.00  0.00    -0.340 C  
HETATM   29  C   UNL     1      -6.052  19.214  66.139  1.00  0.00    -0.173 C  
ENDBRANCH  24  26
ENDBRANCH  19  20
ENDBRANCH  16  19
ENDBRANCH  14  15
ENDBRANCH  13  14
ENDBRANCH  12  13
ENDBRANCH  11  12
ENDBRANCH  10  11
ENDBRANCH   9  10
ENDBRANCH   8   9
ENDBRANCH   7   8
ENDBRANCH   6   7
ENDBRANCH   5   6
ENDBRANCH   2   5
BRANCH   4  30
HETATM   30  O   UNL     1      -9.592   8.052  66.791  1.00  0.00    -0.183 OA 
BRANCH  30  31
HETATM   31  C   UNL     1     -10.242   9.296  66.730  1.00  0.00    -0.255 A  
HETATM   32  C   UNL     1     -10.862   9.812  67.869  1.00  0.00    -0.298 A  
HETATM   33  C   UNL     1     -10.157  10.040  65.549  1.00  0.00    -0.325 A  
HETATM   34  C   UNL     1     -10.747  11.314  65.490  1.00  0.00    -0.220 A  
HETATM   35  C   UNL     1     -11.457  11.060  67.815  1.00  0.00    -0.339 A  
HETATM   36  C   UNL     1     -11.407  11.800  66.634  1.00  0.00    -0.381 A  
BRANCH  34  37
HETATM   37  N   UNL     1     -10.774  12.106  64.188  1.00  0.00    -0.327 N  
HETATM   38  C   UNL     1      -9.731  11.590  63.196  1.00  0.00    -0.390 C  
HETATM   39  C   UNL     1     -12.136  11.985  63.505  1.00  0.00    -0.526 C  
HETATM   40  C   UNL     1     -10.461  13.562  64.540  1.00  0.00    -0.407 C  
ENDBRANCH  34  37
ENDBRANCH  30  31
ENDBRANCH   4  30
TORSDOF 17
ENDMDL
MODEL        8
REMARK 921   NORMALIZED FREE ENERGY PREDICTED BY IDOCK:   -6.12 KCAL/MOL
REMARK 922        TOTAL FREE ENERGY PREDICTED BY IDOCK:  -14.43 KCAL/MOL
REMARK 923 INTER-LIGAND FREE ENERGY PREDICTED BY IDOCK:  -12.51 KCAL/MOL
REMARK 924 INTRA-LIGAND FREE ENERGY PREDICTED BY IDOCK:   -1.93 KCAL/MOL
REMARK 927      BINDING AFFINITY PREDICTED BY RF-SCORE:    0.00 PKD
ROOT
HETATM    1  C   UNL     1     -13.826   8.812  71.387  1.00  0.00    -0.263 C  
HETATM    2  N   UNL     1     -12.473   9.342  71.426  1.00  0.00    -0.333 N  
HETATM    3  O   UNL     1     -10.276   8.966  72.055  1.00  0.00    -0.334 OA 
HETATM    4  C   UNL     1     -11.417   8.557  71.868  1.00  0.00    -0.335 C  
ENDROOT
BRANCH   2   5
HETATM    5  C   UNL     1     -12.276  10.776  71.223  1.00  0.00    -0.321 C  
BRANCH   5   6
HETATM    6  C   UNL     1     -12.277  11.176  69.741  1.00  0.00    -0.369 C  
BRANCH   6   7
HETATM    7  C   UNL     1     -10.937  10.846  69.073  1.00  0.00    -0.285 C  
BRANCH   7   8
HETATM    8  C   UNL     1     -11.127  10.238  67.677  1.00  0.00    -0.319 C  
BRANCH   8   9
HETATM    9  C   UNL     1      -9.834  10.309  66.859  1.00  0.00    -0.244 C  
BRANCH   9  10
HETATM   10  C   UNL     1      -9.857  11.475  65.866  1.00  0.00    -0.262 C  
BRANCH  10  11
HETATM   11  C   UNL     1     -10.380  11.081  64.481  1.00  0.00    -0.420 C  
BRANCH  11  12
HETATM   12  C   UNL     1     -11.356  12.099  63.895  1.00  0.00    -0.501 C  
BRANCH  12  13
HETATM   13  C   UNL     1     -12.360  12.579  64.939  1.00  0.00    -0.539 C  
BRANCH  13  14
HETATM   14  C   UNL     1     -12.424  14.099  64.948  1.00  0.00    -0.401 C  
BRANCH  14  15
HETATM   15  N   UNL     1     -11.618  14.667  66.018  1.00  0.00    -0.351 N  
HETATM   16  C   UNL     1     -10.771  15.725  65.743  1.00  0.00    -0.327 C  
HETATM   17  C   UNL     1     -11.758  14.136  67.367  1.00  0.00    -0.391 C  
HETATM   18  O   UNL     1     -10.584  16.189  64.624  1.00  0.00    -0.597 OA 
BRANCH  16  19
HETATM   19  O   UNL     1     -10.049  16.113  66.862  1.00  0.00    -0.258 OA 
BRANCH  19  20
HETATM   20  C   UNL     1      -9.788  17.487  66.903  1.00  0.00    -0.302 A  
HETATM   21  C   UNL     1     -10.818  18.317  67.330  1.00  0.00    -0.281 A  
HETATM   22  C   UNL     1     -10.551  19.671  67.495  1.00  0.00    -0.577 A  
HETATM   23  C   UNL     1      -9.276  20.183  67.234  1.00  0.00    -0.504 A  
HETATM   24  C   UNL     1      -8.235  19.349  66.790  1.00  0.00    -0.292 A  
HETATM   25  C   UNL     1      -8.500  17.986  66.664  1.00  0.00    -0.283 A  
BRANCH  24  26
HETATM   26  N   UNL     1      -6.827  19.875  66.558  1.00  0.00    -0.210 N  
HETATM   27  C   UNL     1      -6.542  21.086  67.440  1.00  0.00    -0.376 C  
HETATM   28  C   UNL     1      -6.651  20.327  65.103  1.00  0.00    -0.295 C  
HETATM   29  C   UNL     1      -5.854  18.750  66.882  1.00  0.00    -0.158 C  
ENDBRANCH  24  26
ENDBRANCH  19  20
ENDBRANCH  16  19
ENDBRANCH  14  15
ENDBRANCH  13  14
ENDBRANCH  12  13
ENDBRANCH  11  12
ENDBRANCH  10  11
ENDBRANCH   9  10
ENDBRANCH   8   9
ENDBRANCH   7   8
ENDBRANCH   6   7
ENDBRANCH   5   6
ENDBRANCH   2   5
BRANCH   4  30
HETATM   30  O   UNL     1     -11.808   7.245  72.152  1.00  0.00    -0.288 OA 
BRANCH  30  31
HETATM   31  C   UNL     1     -11.099   6.278  71.420  1.00  0.00    -0.284 A  
HETATM   32  C   UNL     1     -11.065   6.350  70.026  1.00  0.00    -0.442 A  
HETATM   33  C   UNL     1     -10.350   5.326  72.117  1.00  0.00    -0.268 A  
HETATM   34  C   UNL     1      -9.583   4.390  71.401  1.00  0.00    -0.165 A  
HETATM   35  C   UNL     1     -10.323   5.425  69.314  1.00  0.00    -0.322 A  
HETATM   36  C   UNL     1      -9.597   4.449  69.995  1.00  0.00    -0.273 A  
BRANCH  34  37
HETATM   37  N   UNL     1      -8.844   3.267  72.120  1.00  0.00    -0.089 N  
HETATM   38  C   UNL     1      -7.879   2.540  71.182  1.00  0.00    -0.043 C  
HETATM   39  C   UNL     1      -8.010   3.817  73.277  1.00  0.00    -0.083 C  
HETATM   40  C   UNL     1      -9.902   2.282  72.621  1.00  0.00    -0.121 C  
ENDBRANCH  34  37
ENDBRANCH  30  31
ENDBRANCH   4  30
TORSDOF 17
ENDMDL
MODEL        9
REMARK 921   NORMALIZED FREE ENERGY PREDICTED BY IDOCK:   -6.11 KCAL/MOL
REMARK 922        TOTAL FREE ENERGY PREDICTED BY IDOCK:  -14.42 KCAL/MOL
REMARK 923 INTER-LIGAND FREE ENERGY PREDICTED BY IDOCK:  -11.76 KCAL/MOL
REMARK 924 INTRA-LIGAND FREE ENERGY PREDICTED BY IDOCK:   -2.66 KCAL/MOL
REMARK 927      BINDING AFFINITY PREDICTED BY RF-SCORE:    0.00 PKD
ROOT
HETATM    1  C   UNL     1      -7.778  11.023  68.839  1.00  0.00    -0.140 C  
HETATM    2  N   UNL     1      -8.676  10.297  67.958  1.00  0.00    -0.122 N  
HETATM    3  O   UNL     1     -10.825   9.491  67.638  1.00  0.00    -0.279 OA 
HETATM    4  C   UNL     1     -10.028  10.192  68.255  1.00  0.00    -0.148 C  
ENDROOT
BRANCH   2   5
HETATM    5  C   UNL     1      -8.104   9.483  66.887  1.00  0.00    -0.109 C  
BRANCH   5   6
HETATM    6  C   UNL     1      -7.954  10.251  65.566  1.00  0.00    -0.151 C  
BRANCH   6   7
HETATM    7  C   UNL     1      -8.220   9.342  64.360  1.00  0.00    -0.151 C  
BRANCH   7   8
HETATM    8  C   UNL     1      -9.209   9.976  63.373  1.00  0.00    -0.317 C  
BRANCH   8   9
HETATM    9  C   UNL     1     -10.269  10.806  64.104  1.00  0.00    -0.412 C  
BRANCH   9  10
HETATM   10  C   UNL     1     -10.821  11.925  63.217  1.00  0.00    -0.408 C  
BRANCH  10  11
HETATM   11  C   UNL     1     -12.166  12.475  63.704  1.00  0.00    -0.642 C  
BRANCH  11  12
HETATM   12  C   UNL     1     -12.098  13.943  64.121  1.00  0.00    -0.464 C  
BRANCH  12  13
HETATM   13  C   UNL     1     -12.562  14.138  65.563  1.00  0.00    -0.501 C  
BRANCH  13  14
HETATM   14  C   UNL     1     -11.968  13.058  66.456  1.00  0.00    -0.391 C  
BRANCH  14  15
HETATM   15  N   UNL     1     -11.332  13.624  67.637  1.00  0.00    -0.286 N  
HETATM   16  C   UNL     1      -9.967  13.844  67.635  1.00  0.00    -0.237 C  
HETATM   17  C   UNL     1     -12.160  13.989  68.778  1.00  0.00    -0.303 C  
HETATM   18  O   UNL     1      -9.215  13.525  66.721  1.00  0.00    -0.246 OA 
BRANCH  16  19
HETATM   19  O   UNL     1      -9.523  14.344  68.851  1.00  0.00    -0.188 OA 
BRANCH  19  20
HETATM   20  C   UNL     1      -8.894  15.589  68.740  1.00  0.00    -0.203 A  
HETATM   21  C   UNL     1      -7.562  15.665  69.130  1.00  0.00    -0.206 A  
HETATM   22  C   UNL     1      -6.878  16.857  68.919  1.00  0.00    -0.209 A  
HETATM   23  C   UNL     1      -7.520  17.952  68.331  1.00  0.00    -0.272 A  
HETATM   24  C   UNL     1      -8.870  17.883  67.946  1.00  0.00    -0.260 A  
HETATM   25  C   UNL     1      -9.538  16.672  68.125  1.00  0.00    -0.228 A  
BRANCH  24  26
HETATM   26  N   UNL     1      -9.568  19.041  67.251  1.00  0.00    -0.308 N  
HETATM   27  C   UNL     1      -8.555  20.004  66.640  1.00  0.00    -0.321 C  
HETATM   28  C   UNL     1     -10.407  19.847  68.251  1.00  0.00    -0.393 C  
HETATM   29  C   UNL     1     -10.460  18.458  66.164  1.00  0.00    -0.395 C  
ENDBRANCH  24  26
ENDBRANCH  19  20
ENDBRANCH  16  19
ENDBRANCH  14  15
ENDBRANCH  13  14
ENDBRANCH  12  13
ENDBRANCH  11  12
ENDBRANCH  10  11
ENDBRANCH   9  10
ENDBRANCH   8   9
ENDBRANCH   7   8
ENDBRANCH   6   7
ENDBRANCH   5   6
ENDBRANCH   2   5
BRANCH   4  30
HETATM   30  O   UNL     1     -10.384  10.921  69.394  1.00  0.00    -0.212 OA 
BRANCH  30  31
HETATM   31  C   UNL     1     -10.983  10.138  70.395  1.00  0.00    -0.319 A  
HETATM   32  C   UNL     1     -12.251  10.474  70.873  1.00  0.00    -0.490 A  
HETATM   33  C   UNL     1     -10.334   8.973  70.813  1.00  0.00    -0.305 A  
HETATM   34  C   UNL     1     -10.948   8.144  71.768  1.00  0.00    -0.261 A  
HETATM   35  C   UNL     1     -12.856   9.671  71.823  1.00  0.00    -0.514 A  
HETATM   36  C   UNL     1     -12.207   8.522  72.272  1.00  0.00    -0.454 A  
BRANCH  34  37
HETATM   37  N   UNL     1     -10.224   6.927  72.332  1.00  0.00    -0.185 N  
HETATM   38  C   UNL     1     -10.803   5.624  71.780  1.00  0.00    -0.239 C  
HETATM   39  C   UNL     1      -8.743   6.951  71.954  1.00  0.00    -0.126 C  
HETATM   40  C   UNL     1     -10.405   6.959  73.851  1.00  0.00    -0.365 C  
ENDBRANCH  34  37
ENDBRANCH  30  31
ENDBRANCH   4  30
TORSDOF 17
ENDMDL
MODEL       10
REMARK 921   NORMALIZED FREE ENERGY PREDICTED BY IDOCK:   -6.10 KCAL/MOL
REMARK 922        TOTAL FREE ENERGY PREDICTED BY IDOCK:  -14.39 KCAL/MOL
REMARK 923 INTER-LIGAND FREE ENERGY PREDICTED BY IDOCK:  -12.19 KCAL/MOL
REMARK 924 INTRA-LIGAND FREE ENERGY PREDICTED BY IDOCK:   -2.21 KCAL/MOL
REMARK 927      BINDING AFFINITY PREDICTED BY RF-SCORE:    0.00 PKD
ROOT
HETATM    1  C   UNL     1     -12.136  12.669  63.338  1.00  0.00    -0.525 C  
HETATM    2  N   UNL     1     -11.007  12.379  64.205  1.00  0.00    -0.324 N  
HETATM    3  O   UNL     1      -9.345  13.256  65.560  1.00  0.00     0.098 OA 
HETATM    4  C   UNL     1     -10.379  13.395  64.914  1.00  0.00    -0.366 C  
ENDROOT
BRANCH   2   5
HETATM    5  C   UNL     1     -10.394  11.054  64.140  1.00  0.00    -0.369 C  
BRANCH   5   6
HETATM    6  C   UNL     1      -9.492  10.871  62.912  1.00  0.00    -0.377 C  
BRANCH   6   7
HETATM    7  C   UNL     1      -8.462   9.757  63.138  1.00  0.00    -0.179 C  
BRANCH   7   8
HETATM    8  C   UNL     1      -7.165  10.295  63.756  1.00  0.00    -0.060 C  
BRANCH   8   9
HETATM    9  C   UNL     1      -6.442   9.210  64.561  1.00  0.00    -0.075 C  
BRANCH   9  10
HETATM   10  C   UNL     1      -7.164   7.863  64.471  1.00  0.00    -0.080 C  
BRANCH  10  11
HETATM   11  C   UNL     1      -7.487   7.256  65.840  1.00  0.00    -0.080 C  
BRANCH  11  12
HETATM   12  C   UNL     1      -8.969   7.342  66.201  1.00  0.00    -0.182 C  
BRANCH  12  13
HETATM   13  C   UNL     1      -9.406   8.786  66.433  1.00  0.00    -0.264 C  
BRANCH  13  14
HETATM   14  C   UNL     1     -10.448   8.848  67.541  1.00  0.00    -0.269 C  
BRANCH  14  15
HETATM   15  N   UNL     1     -10.255  10.007  68.400  1.00  0.00    -0.165 N  
HETATM   16  C   UNL     1     -11.115  11.084  68.293  1.00  0.00    -0.257 C  
HETATM   17  C   UNL     1      -9.184   9.985  69.386  1.00  0.00    -0.216 C  
HETATM   18  O   UNL     1     -12.010  11.175  67.459  1.00  0.00    -0.580 OA 
BRANCH  16  19
HETATM   19  O   UNL     1     -10.762  12.115  69.151  1.00  0.00    -0.173 OA 
BRANCH  19  20
HETATM   20  C   UNL     1     -11.702  12.339  70.162  1.00  0.00    -0.198 A  
HETATM   21  C   UNL     1     -12.394  11.234  70.644  1.00  0.00    -0.477 A  
HETATM   22  C   UNL     1     -13.245  11.408  71.729  1.00  0.00    -0.472 A  
HETATM   23  C   UNL     1     -13.401  12.667  72.318  1.00  0.00    -0.527 A  
HETATM   24  C   UNL     1     -12.713  13.789  71.826  1.00  0.00    -0.282 A  
HETATM   25  C   UNL     1     -11.832  13.600  70.762  1.00  0.00    -0.169 A  
BRANCH  24  26
HETATM   26  N   UNL     1     -12.823  15.154  72.489  1.00  0.00    -0.332 N  
HETATM   27  C   UNL     1     -11.891  16.163  71.825  1.00  0.00    -0.506 C  
HETATM   28  C   UNL     1     -12.417  15.071  73.966  1.00  0.00    -0.496 C  
HETATM   29  C   UNL     1     -14.268  15.613  72.365  1.00  0.00    -0.434 C  
ENDBRANCH  24  26
ENDBRANCH  19  20
ENDBRANCH  16  19
ENDBRANCH  14  15
ENDBRANCH  13  14
ENDBRANCH  12  13
ENDBRANCH  11  12
ENDBRANCH  10  11
ENDBRANCH   9  10
ENDBRANCH   8   9
ENDBRANCH   7   8
ENDBRANCH   6   7
ENDBRANCH   5   6
ENDBRANCH   2   5
BRANCH   4  30
HETATM   30  O   UNL     1     -11.015  14.630  64.755  1.00  0.00    -0.392 OA 
BRANCH  30  31
HETATM   31  C   UNL     1     -11.004  15.418  65.918  1.00  0.00    -0.293 A  
HETATM   32  C   UNL     1     -11.602  14.941  67.086  1.00  0.00    -0.327 A  
HETATM   33  C   UNL     1     -10.294  16.623  65.905  1.00  0.00    -0.355 A  
HETATM   34  C   UNL     1     -10.218  17.394  67.078  1.00  0.00    -0.323 A  
HETATM   35  C   UNL     1     -11.543  15.700  68.241  1.00  0.00    -0.326 A  
HETATM   36  C   UNL     1     -10.866  16.919  68.234  1.00  0.00    -0.357 A  
BRANCH  34  37
HETATM   37  N   UNL     1      -9.552  18.765  67.074  1.00  0.00    -0.295 N  
HETATM   38  C   UNL     1     -10.396  19.796  66.324  1.00  0.00    -0.519 C  
HETATM   39  C   UNL     1      -9.374  19.288  68.499  1.00  0.00    -0.388 C  
HETATM   40  C   UNL     1      -8.203  18.607  66.371  1.00  0.00    -0.277 C  
ENDBRANCH  34  37
ENDBRANCH  30  31
ENDBRANCH   4  30
TORSDOF 17
ENDMDL
MODEL       11
REMARK 921   NORMALIZED FREE ENERGY PREDICTED BY IDOCK:   -6.10 KCAL/MOL
REMARK 922        TOTAL FREE ENERGY PREDICTED BY IDOCK:  -14.39 KCAL/MOL
REMARK 923 INTER-LIGAND FREE ENERGY PREDICTED BY IDOCK:  -11.54 KCAL/MOL
REMARK 924 INTRA-LIGAND FREE ENERGY PREDICTED BY IDOCK:   -2.86 KCAL/MOL
REMARK 927      BINDING AFFINITY PREDICTED BY RF-SCORE:    0.00 PKD
ROOT
HETATM    1  C   UNL     1     -10.020  14.164  64.968  1.00  0.00    -0.181 C  
HETATM    2  N   UNL     1     -11.418  13.890  64.683  1.00  0.00    -0.362 N  
HETATM    3  O   UNL     1     -13.573  13.792  65.528  1.00  0.00    -0.511 OA 
HETATM    4  C   UNL     1     -12.395  14.118  65.642  1.00  0.00    -0.456 C  
ENDROOT
BRANCH   2   5
HETATM    5  C   UNL     1     -11.755  13.153  63.466  1.00  0.00    -0.415 C  
BRANCH   5   6
HETATM    6  C   UNL     1     -11.519  11.642  63.595  1.00  0.00    -0.458 C  
BRANCH   6   7
HETATM    7  C   UNL     1     -10.177  11.232  62.975  1.00  0.00    -0.293 C  
BRANCH   7   8
HETATM    8  C   UNL     1      -9.432  10.213  63.845  1.00  0.00    -0.332 C  
BRANCH   8   9
HETATM    9  C   UNL     1      -9.960  10.217  65.283  1.00  0.00    -0.387 C  
BRANCH   9  10
HETATM   10  C   UNL     1      -9.546   8.953  66.042  1.00  0.00    -0.320 C  
BRANCH  10  11
HETATM   11  C   UNL     1      -9.767   9.056  67.555  1.00  0.00    -0.206 C  
BRANCH  11  12
HETATM   12  C   UNL     1      -8.494   8.822  68.365  1.00  0.00    -0.130 C  
BRANCH  12  13
HETATM   13  C   UNL     1      -7.454   9.909  68.102  1.00  0.00    -0.080 C  
BRANCH  13  14
HETATM   14  C   UNL     1      -8.032  11.278  68.429  1.00  0.00    -0.140 C  
BRANCH  14  15
HETATM   15  N   UNL     1      -7.276  12.348  67.795  1.00  0.00    -0.107 N  
HETATM   16  C   UNL     1      -7.711  13.655  67.919  1.00  0.00    -0.157 C  
HETATM   17  C   UNL     1      -6.049  12.020  67.082  1.00  0.00    -0.155 C  
HETATM   18  O   UNL     1      -8.753  13.988  68.474  1.00  0.00    -0.181 OA 
BRANCH  16  19
HETATM   19  O   UNL     1      -6.902  14.538  67.220  1.00  0.00    -0.252 OA 
BRANCH  19  20
HETATM   20  C   UNL     1      -6.915  15.834  67.745  1.00  0.00    -0.152 A  
HETATM   21  C   UNL     1      -5.803  16.235  68.477  1.00  0.00    -0.109 A  
HETATM   22  C   UNL     1      -5.736  17.555  68.909  1.00  0.00    -0.173 A  
HETATM   23  C   UNL     1      -6.766  18.454  68.614  1.00  0.00    -0.265 A  
HETATM   24  C   UNL     1      -7.898  18.049  67.885  1.00  0.00    -0.235 A  
HETATM   25  C   UNL     1      -7.940  16.735  67.422  1.00  0.00    -0.191 A  
BRANCH  24  26
HETATM   26  N   UNL     1      -8.999  19.026  67.503  1.00  0.00    -0.290 N  
HETATM   27  C   UNL     1      -8.415  20.324  66.955  1.00  0.00    -0.285 C  
HETATM   28  C   UNL     1      -9.843  19.397  68.729  1.00  0.00    -0.456 C  
HETATM   29  C   UNL     1      -9.867  18.355  66.449  1.00  0.00    -0.360 C  
ENDBRANCH  24  26
ENDBRANCH  19  20
ENDBRANCH  16  19
ENDBRANCH  14  15
ENDBRANCH  13  14
ENDBRANCH  12  13
ENDBRANCH  11  12
ENDBRANCH  10  11
ENDBRANCH   9  10
ENDBRANCH   8   9
ENDBRANCH   7   8
ENDBRANCH   6   7
ENDBRANCH   5   6
ENDBRANCH   2   5
BRANCH   4  30
HETATM   30  O   UNL     1     -11.880  14.702  66.803  1.00  0.00    -0.377 OA 
BRANCH  30  31
HETATM   31  C   UNL     1     -12.028  13.900  67.947  1.00  0.00    -0.358 A  
HETATM   32  C   UNL     1     -11.713  12.541  67.888  1.00  0.00    -0.416 A  
HETATM   33  C   UNL     1     -12.389  14.511  69.152  1.00  0.00    -0.152 A  
HETATM   34  C   UNL     1     -12.480  13.735  70.320  1.00  0.00    -0.289 A  
HETATM   35  C   UNL     1     -11.813  11.768  69.031  1.00  0.00    -0.379 A  
HETATM   36  C   UNL     1     -12.202  12.358  70.233  1.00  0.00    -0.345 A  
BRANCH  34  37
HETATM   37  N   UNL     1     -12.979  14.341  71.627  1.00  0.00    -0.328 N  
HETATM   38  C   UNL     1     -14.219  15.209  71.405  1.00  0.00    -0.498 C  
HETATM   39  C   UNL     1     -13.374  13.247  72.619  1.00  0.00    -0.337 C  
HETATM   40  C   UNL     1     -11.848  15.207  72.183  1.00  0.00    -0.415 C  
ENDBRANCH  34  37
ENDBRANCH  30  31
ENDBRANCH   4  30
TORSDOF 17
ENDMDL
MODEL       12
REMARK 921   NORMALIZED FREE ENERGY PREDICTED BY IDOCK:   -6.08 KCAL/MOL
REMARK 922        TOTAL FREE ENERGY PREDICTED BY IDOCK:  -14.35 KCAL/MOL
REMARK 923 INTER-LIGAND FREE ENERGY PREDICTED BY IDOCK:  -11.91 KCAL/MOL
REMARK 924 INTRA-LIGAND FREE ENERGY PREDICTED BY IDOCK:   -2.44 KCAL/MOL
REMARK 927      BINDING AFFINITY PREDICTED BY RF-SCORE:    0.00 PKD
ROOT
HETATM    1  C   UNL     1      -8.497  11.682  68.782  1.00  0.00    -0.025 C  
HETATM    2  N   UNL     1      -7.483  12.141  67.848  1.00  0.00    -0.107 N  
HETATM    3  O   UNL     1      -6.097  13.886  67.214  1.00  0.00    -0.314 OA 
HETATM    4  C   UNL     1      -6.862  13.370  68.023  1.00  0.00    -0.132 C  
ENDROOT
BRANCH   2   5
HETATM    5  C   UNL     1      -7.296  11.406  66.598  1.00  0.00    -0.107 C  
BRANCH   5   6
HETATM    6  C   UNL     1      -8.521  10.567  66.207  1.00  0.00    -0.150 C  
BRANCH   6   7
HETATM    7  C   UNL     1      -8.678  10.486  64.684  1.00  0.00    -0.193 C  
BRANCH   7   8
HETATM    8  C   UNL     1     -10.151  10.523  64.258  1.00  0.00    -0.380 C  
BRANCH   8   9
HETATM    9  C   UNL     1     -10.458  11.772  63.426  1.00  0.00    -0.485 C  
BRANCH   9  10
HETATM   10  C   UNL     1     -11.936  12.162  63.516  1.00  0.00    -0.619 C  
BRANCH  10  11
HETATM   11  C   UNL     1     -12.192  13.359  64.439  1.00  0.00    -0.444 C  
BRANCH  11  12
HETATM   12  C   UNL     1     -10.907  14.008  64.950  1.00  0.00    -0.421 C  
BRANCH  12  13
HETATM   13  C   UNL     1     -10.693  13.735  66.437  1.00  0.00    -0.281 C  
BRANCH  13  14
HETATM   14  C   UNL     1     -12.033  13.650  67.153  1.00  0.00    -0.393 C  
BRANCH  14  15
HETATM   15  N   UNL     1     -11.870  13.351  68.568  1.00  0.00    -0.353 N  
HETATM   16  C   UNL     1     -11.981  12.044  69.004  1.00  0.00    -0.264 C  
HETATM   17  C   UNL     1     -11.548  14.434  69.487  1.00  0.00    -0.304 C  
HETATM   18  O   UNL     1     -12.286  11.098  68.286  1.00  0.00    -0.532 OA 
BRANCH  16  19
HETATM   19  O   UNL     1     -11.843  11.945  70.381  1.00  0.00    -0.332 OA 
BRANCH  19  20
HETATM   20  C   UNL     1     -12.066  10.653  70.868  1.00  0.00    -0.385 A  
HETATM   21  C   UNL     1     -13.279  10.414  71.504  1.00  0.00    -0.485 A  
HETATM   22  C   UNL     1     -13.578   9.112  71.890  1.00  0.00    -0.493 A  
HETATM   23  C   UNL     1     -12.676   8.071  71.647  1.00  0.00    -0.347 A  
HETATM   24  C   UNL     1     -11.443   8.311  71.015  1.00  0.00    -0.275 A  
HETATM   25  C   UNL     1     -11.167   9.612  70.596  1.00  0.00    -0.385 A  
BRANCH  24  26
HETATM   26  N   UNL     1     -10.476   7.185  70.687  1.00  0.00    -0.208 N  
HETATM   27  C   UNL     1     -10.012   6.473  71.954  1.00  0.00    -0.177 C  
HETATM   28  C   UNL     1      -9.222   7.733  69.995  1.00  0.00    -0.153 C  
HETATM   29  C   UNL     1     -11.199   6.207  69.771  1.00  0.00    -0.423 C  
ENDBRANCH  24  26
ENDBRANCH  19  20
ENDBRANCH  16  19
ENDBRANCH  14  15
ENDBRANCH  13  14
ENDBRANCH  12  13
ENDBRANCH  11  12
ENDBRANCH  10  11
ENDBRANCH   9  10
ENDBRANCH   8   9
ENDBRANCH   7   8
ENDBRANCH   6   7
ENDBRANCH   5   6
ENDBRANCH   2   5
BRANCH   4  30
HETATM   30  O   UNL     1      -7.259  14.006  69.203  1.00  0.00    -0.110 OA 
BRANCH  30  31
HETATM   31  C   UNL     1      -7.235  15.409  69.119  1.00  0.00    -0.171 A  
HETATM   32  C   UNL     1      -6.113  16.111  69.562  1.00  0.00    -0.170 A  
HETATM   33  C   UNL     1      -8.299  16.061  68.489  1.00  0.00    -0.191 A  
HETATM   34  C   UNL     1      -8.262  17.458  68.338  1.00  0.00    -0.262 A  
HETATM   35  C   UNL     1      -6.074  17.488  69.429  1.00  0.00    -0.245 A  
HETATM   36  C   UNL     1      -7.143  18.155  68.832  1.00  0.00    -0.282 A  
BRANCH  34  37
HETATM   37  N   UNL     1      -9.451  18.217  67.760  1.00  0.00    -0.264 N  
HETATM   38  C   UNL     1     -10.578  17.266  67.353  1.00  0.00    -0.303 C  
HETATM   39  C   UNL     1     -10.035  19.182  68.792  1.00  0.00    -0.427 C  
HETATM   40  C   UNL     1      -8.949  18.966  66.525  1.00  0.00    -0.323 C  
ENDBRANCH  34  37
ENDBRANCH  30  31
ENDBRANCH   4  30
TORSDOF 17
ENDMDL
MODEL       13
REMARK 921   NORMALIZED FREE ENERGY PREDICTED BY IDOCK:   -6.07 KCAL/MOL
REMARK 922        TOTAL FREE ENERGY PREDICTED BY IDOCK:  -14.34 KCAL/MOL
REMARK 923 INTER-LIGAND FREE ENERGY PREDICTED BY IDOCK:  -12.11 KCAL/MOL
REMARK 924 INTRA-LIGAND FREE ENERGY PREDICTED BY IDOCK:   -2.22 KCAL/MOL
REMARK 927      BINDING AFFINITY PREDICTED BY RF-SCORE:    0.00 PKD
ROOT
HETATM    1  C   UNL     1     -12.030  13.159  66.223  1.00  0.00    -0.415 C  
HETATM    2  N   UNL     1     -11.749  13.935  65.027  1.00  0.00    -0.343 N  
HETATM    3  O   UNL     1     -11.233  16.022  64.163  1.00  0.00    -0.529 OA 
HETATM    4  C   UNL     1     -11.361  15.265  65.120  1.00  0.00    -0.321 C  
ENDROOT
BRANCH   2   5
HETATM    5  C   UNL     1     -12.106  13.373  63.726  1.00  0.00    -0.456 C  
BRANCH   5   6
HETATM    6  C   UNL     1     -11.626  11.926  63.546  1.00  0.00    -0.537 C  
BRANCH   6   7
HETATM    7  C   UNL     1     -10.102  11.860  63.385  1.00  0.00    -0.464 C  
BRANCH   7   8
HETATM    8  C   UNL     1      -9.599  10.413  63.296  1.00  0.00    -0.353 C  
BRANCH   8   9
HETATM    9  C   UNL     1      -8.086  10.337  63.523  1.00  0.00    -0.152 C  
BRANCH   9  10
HETATM   10  C   UNL     1      -7.726   9.302  64.593  1.00  0.00    -0.116 C  
BRANCH  10  11
HETATM   11  C   UNL     1      -7.682   9.886  66.009  1.00  0.00    -0.108 C  
BRANCH  11  12
HETATM   12  C   UNL     1      -6.766   9.108  66.951  1.00  0.00    -0.076 C  
BRANCH  12  13
HETATM   13  C   UNL     1      -7.560   8.397  68.044  1.00  0.00    -0.098 C  
BRANCH  13  14
HETATM   14  C   UNL     1      -8.129   9.411  69.025  1.00  0.00    -0.106 C  
BRANCH  14  15
HETATM   15  N   UNL     1      -9.570   9.557  68.876  1.00  0.00    -0.153 N  
HETATM   16  C   UNL     1     -10.112  10.818  68.708  1.00  0.00    -0.191 C  
HETATM   17  C   UNL     1     -10.403   8.363  68.861  1.00  0.00    -0.215 C  
HETATM   18  O   UNL     1      -9.467  11.860  68.748  1.00  0.00    -0.120 OA 
BRANCH  16  19
HETATM   19  O   UNL     1     -11.496  10.778  68.626  1.00  0.00    -0.273 OA 
BRANCH  19  20
HETATM   20  C   UNL     1     -12.133  11.372  69.721  1.00  0.00    -0.320 A  
HETATM   21  C   UNL     1     -12.622  10.526  70.708  1.00  0.00    -0.474 A  
HETATM   22  C   UNL     1     -13.151  11.092  71.863  1.00  0.00    -0.513 A  
HETATM   23  C   UNL     1     -13.191  12.481  72.021  1.00  0.00    -0.524 A  
HETATM   24  C   UNL     1     -12.708  13.341  71.019  1.00  0.00    -0.293 A  
HETATM   25  C   UNL     1     -12.144  12.765  69.882  1.00  0.00    -0.329 A  
BRANCH  24  26
HETATM   26  N   UNL     1     -12.687  14.851  71.198  1.00  0.00    -0.317 N  
HETATM   27  C   UNL     1     -11.833  15.249  72.398  1.00  0.00    -0.434 C  
HETATM   28  C   UNL     1     -14.101  15.386  71.457  1.00  0.00    -0.491 C  
HETATM   29  C   UNL     1     -12.118  15.460  69.925  1.00  0.00    -0.355 C  
ENDBRANCH  24  26
ENDBRANCH  19  20
ENDBRANCH  16  19
ENDBRANCH  14  15
ENDBRANCH  13  14
ENDBRANCH  12  13
ENDBRANCH  11  12
ENDBRANCH  10  11
ENDBRANCH   9  10
ENDBRANCH   8   9
ENDBRANCH   7   8
ENDBRANCH   6   7
ENDBRANCH   5   6
ENDBRANCH   2   5
BRANCH   4  30
HETATM   30  O   UNL     1     -11.197  15.683  66.444  1.00  0.00    -0.201 OA 
BRANCH  30  31
HETATM   31  C   UNL     1      -9.903  16.152  66.728  1.00  0.00    -0.245 A  
HETATM   32  C   UNL     1      -8.830  15.260  66.744  1.00  0.00    -0.302 A  
HETATM   33  C   UNL     1      -9.708  17.528  66.880  1.00  0.00    -0.291 A  
HETATM   34  C   UNL     1      -8.411  18.022  67.101  1.00  0.00    -0.233 A  
HETATM   35  C   UNL     1      -7.551  15.737  66.973  1.00  0.00    -0.257 A  
HETATM   36  C   UNL     1      -7.346  17.104  67.159  1.00  0.00    -0.198 A  
BRANCH  34  37
HETATM   37  N   UNL     1      -8.172  19.501  67.385  1.00  0.00    -0.279 N  
HETATM   38  C   UNL     1      -9.489  20.266  67.518  1.00  0.00    -0.406 C  
HETATM   39  C   UNL     1      -7.415  19.687  68.700  1.00  0.00    -0.333 C  
HETATM   40  C   UNL     1      -7.377  20.063  66.205  1.00  0.00    -0.289 C  
ENDBRANCH  34  37
ENDBRANCH  30  31
ENDBRANCH   4  30
TORSDOF 17
ENDMDL
MODEL       14
REMARK 921   NORMALIZED FREE ENERGY PREDICTED BY IDOCK:   -6.03 KCAL/MOL
REMARK 922        TOTAL FREE ENERGY PREDICTED BY IDOCK:  -14.27 KCAL/MOL
REMARK 923 INTER-LIGAND FREE ENERGY PREDICTED BY IDOCK:  -11.97 KCAL/MOL
REMARK 924 INTRA-LIGAND FREE ENERGY PREDICTED BY IDOCK:   -2.30 KCAL/MOL
REMARK 927      BINDING AFFINITY PREDICTED BY RF-SCORE:    0.00 PKD
ROOT
HETATM    1  C   UNL     1     -10.579   9.105  66.654  1.00  0.00    -0.087 C  
HETATM    2  N   UNL     1      -9.821   9.236  67.886  1.00  0.00    -0.160 N  
HETATM    3  O   UNL     1      -9.658  10.286  69.945  1.00  0.00    -0.176 OA 
HETATM    4  C   UNL     1     -10.294  10.019  68.930  1.00  0.00    -0.202 C  
ENDROOT
BRANCH   2   5
HETATM    5  C   UNL     1      -8.450   8.730  67.924  1.00  0.00    -0.126 C  
BRANCH   5   6
HETATM    6  C   UNL     1      -7.494   9.519  67.018  1.00  0.00    -0.091 C  
BRANCH   6   7
HETATM    7  C   UNL     1      -6.785   8.597  66.019  1.00  0.00    -0.061 C  
BRANCH   7   8
HETATM    8  C   UNL     1      -7.703   8.197  64.857  1.00  0.00    -0.116 C  
BRANCH   8   9
HETATM    9  C   UNL     1      -7.188   8.750  63.525  1.00  0.00    -0.094 C  
BRANCH   9  10
HETATM   10  C   UNL     1      -7.802  10.115  63.204  1.00  0.00    -0.150 C  
BRANCH  10  11
HETATM   11  C   UNL     1      -9.334  10.119  63.263  1.00  0.00    -0.332 C  
BRANCH  11  12
HETATM   12  C   UNL     1      -9.933  11.523  63.199  1.00  0.00    -0.404 C  
BRANCH  12  13
HETATM   13  C   UNL     1     -11.447  11.496  63.397  1.00  0.00    -0.274 C  
BRANCH  13  14
HETATM   14  C   UNL     1     -11.990  12.914  63.484  1.00  0.00    -0.556 C  
BRANCH  14  15
HETATM   15  N   UNL     1     -11.879  13.454  64.831  1.00  0.00    -0.355 N  
HETATM   16  C   UNL     1     -11.717  14.816  65.006  1.00  0.00    -0.364 C  
HETATM   17  C   UNL     1     -11.988  12.549  65.966  1.00  0.00    -0.392 C  
HETATM   18  O   UNL     1     -11.582  15.621  64.091  1.00  0.00    -0.343 OA 
BRANCH  16  19
HETATM   19  O   UNL     1     -11.584  15.152  66.346  1.00  0.00    -0.240 OA 
BRANCH  19  20
HETATM   20  C   UNL     1     -10.416  15.869  66.623  1.00  0.00    -0.306 A  
HETATM   21  C   UNL     1      -9.209  15.189  66.506  1.00  0.00    -0.318 A  
HETATM   22  C   UNL     1      -8.028  15.906  66.658  1.00  0.00    -0.270 A  
HETATM   23  C   UNL     1      -8.057  17.279  66.926  1.00  0.00    -0.258 A  
HETATM   24  C   UNL     1      -9.275  17.968  67.058  1.00  0.00    -0.265 A  
HETATM   25  C   UNL     1     -10.455  17.250  66.865  1.00  0.00    -0.272 A  
BRANCH  24  26
HETATM   26  N   UNL     1      -9.328  19.470  67.288  1.00  0.00    -0.308 N  
HETATM   27  C   UNL     1     -10.160  20.161  66.213  1.00  0.00    -0.431 C  
HETATM   28  C   UNL     1      -7.920  20.077  67.225  1.00  0.00    -0.313 C  
HETATM   29  C   UNL     1      -9.942  19.706  68.660  1.00  0.00    -0.458 C  
ENDBRANCH  24  26
ENDBRANCH  19  20
ENDBRANCH  16  19
ENDBRANCH  14  15
ENDBRANCH  13  14
ENDBRANCH  12  13
ENDBRANCH  11  12
ENDBRANCH  10  11
ENDBRANCH   9  10
ENDBRANCH   8   9
ENDBRANCH   7   8
ENDBRANCH   6   7
ENDBRANCH   5   6
ENDBRANCH   2   5
BRANCH   4  30
HETATM   30  O   UNL     1     -11.565  10.542  68.672  1.00  0.00    -0.258 OA 
BRANCH  30  31
HETATM   31  C   UNL     1     -12.146  11.176  69.784  1.00  0.00    -0.344 A  
HETATM   32  C   UNL     1     -12.708  10.408  70.806  1.00  0.00    -0.460 A  
HETATM   33  C   UNL     1     -12.047  12.566  69.890  1.00  0.00    -0.322 A  
HETATM   34  C   UNL     1     -12.565  13.212  71.026  1.00  0.00    -0.312 A  
HETATM   35  C   UNL     1     -13.232  11.037  71.921  1.00  0.00    -0.503 A  
HETATM   36  C   UNL     1     -13.169  12.426  72.025  1.00  0.00    -0.514 A  
BRANCH  34  37
HETATM   37  N   UNL     1     -12.579  14.733  71.126  1.00  0.00    -0.313 N  
HETATM   38  C   UNL     1     -12.013  15.383  69.863  1.00  0.00    -0.359 C  
HETATM   39  C   UNL     1     -14.006  15.255  71.294  1.00  0.00    -0.457 C  
HETATM   40  C   UNL     1     -11.708  15.113  72.324  1.00  0.00    -0.401 C  
ENDBRANCH  34  37
ENDBRANCH  30  31
ENDBRANCH   4  30
TORSDOF 17
ENDMDL
MODEL       15
REMARK 921   NORMALIZED FREE ENERGY PREDICTED BY IDOCK:   -6.02 KCAL/MOL
REMARK 922        TOTAL FREE ENERGY PREDICTED BY IDOCK:  -14.23 KCAL/MOL
REMARK 923 INTER-LIGAND FREE ENERGY PREDICTED BY IDOCK:  -12.32 KCAL/MOL
REMARK 924 INTRA-LIGAND FREE ENERGY PREDICTED BY IDOCK:   -1.91 KCAL/MOL
REMARK 927      BINDING AFFINITY PREDICTED BY RF-SCORE:    0.00 PKD
ROOT
HETATM    1  C   UNL     1      -9.640  16.252  67.584  1.00  0.00    -0.227 C  
HETATM    2  N   UNL     1     -10.438  15.289  68.323  1.00  0.00    -0.240 N  
HETATM    3  O   UNL     1     -12.281  13.885  68.289  1.00  0.00    -0.332 OA 
HETATM    4  C   UNL     1     -11.481  14.611  67.706  1.00  0.00    -0.340 C  
ENDROOT
BRANCH   2   5
HETATM    5  C   UNL     1     -10.285  15.218  69.775  1.00  0.00    -0.229 C  
BRANCH   5   6
HETATM    6  C   UNL     1     -11.185  16.213  70.522  1.00  0.00    -0.381 C  
BRANCH   6   7
HETATM    7  C   UNL     1     -12.020  15.509  71.599  1.00  0.00    -0.478 C  
BRANCH   7   8
HETATM    8  C   UNL     1     -13.505  15.446  71.222  1.00  0.00    -0.598 C  
BRANCH   8   9
HETATM    9  C   UNL     1     -14.083  14.049  71.470  1.00  0.00    -0.270 C  
BRANCH   9  10
HETATM   10  C   UNL     1     -13.129  13.181  72.296  1.00  0.00    -0.458 C  
BRANCH  10  11
HETATM   11  C   UNL     1     -13.159  11.701  71.897  1.00  0.00    -0.490 C  
BRANCH  11  12
HETATM   12  C   UNL     1     -12.420  11.417  70.591  1.00  0.00    -0.419 C  
BRANCH  12  13
HETATM   13  C   UNL     1     -11.491  10.212  70.723  1.00  0.00    -0.442 C  
BRANCH  13  14
HETATM   14  C   UNL     1     -12.029   9.246  71.768  1.00  0.00    -0.385 C  
BRANCH  14  15
HETATM   15  N   UNL     1     -11.080   8.182  72.058  1.00  0.00    -0.284 N  
HETATM   16  C   UNL     1     -11.500   6.865  72.016  1.00  0.00    -0.274 C  
HETATM   17  C   UNL     1      -9.694   8.528  72.340  1.00  0.00    -0.287 C  
HETATM   18  O   UNL     1     -12.659   6.514  71.820  1.00  0.00    -0.335 OA 
BRANCH  16  19
HETATM   19  O   UNL     1     -10.483   5.986  72.360  1.00  0.00    -0.191 OA 
BRANCH  19  20
HETATM   20  C   UNL     1     -10.071   5.175  71.297  1.00  0.00    -0.210 A  
HETATM   21  C   UNL     1      -9.792   3.844  71.584  1.00  0.00    -0.247 A  
HETATM   22  C   UNL     1      -9.496   2.988  70.529  1.00  0.00    -0.221 A  
HETATM   23  C   UNL     1      -9.477   3.460  69.212  1.00  0.00    -0.212 A  
HETATM   24  C   UNL     1      -9.747   4.808  68.919  1.00  0.00    -0.174 A  
HETATM   25  C   UNL     1     -10.081   5.652  69.978  1.00  0.00    -0.295 A  
BRANCH  24  26
HETATM   26  N   UNL     1      -9.792   5.326  67.490  1.00  0.00    -0.146 N  
HETATM   27  C   UNL     1      -9.729   4.178  66.488  1.00  0.00    -0.209 C  
HETATM   28  C   UNL     1      -8.590   6.236  67.207  1.00  0.00    -0.107 C  
HETATM   29  C   UNL     1     -11.091   6.101  67.320  1.00  0.00    -0.236 C  
ENDBRANCH  24  26
ENDBRANCH  19  20
ENDBRANCH  16  19
ENDBRANCH  14  15
ENDBRANCH  13  14
ENDBRANCH  12  13
ENDBRANCH  11  12
ENDBRANCH  10  11
ENDBRANCH   9  10
ENDBRANCH   8   9
ENDBRANCH   7   8
ENDBRANCH   6   7
ENDBRANCH   5   6
ENDBRANCH   2   5
BRANCH   4  30
HETATM   30  O   UNL     1     -11.574  14.899  66.342  1.00  0.00    -0.330 OA 
BRANCH  30  31
HETATM   31  C   UNL     1     -11.431  13.769  65.519  1.00  0.00    -0.311 A  
HETATM   32  C   UNL     1     -12.111  13.705  64.302  1.00  0.00    -0.480 A  
HETATM   33  C   UNL     1     -10.519  12.778  65.895  1.00  0.00    -0.295 A  
HETATM   34  C   UNL     1     -10.315  11.671  65.053  1.00  0.00    -0.281 A  
HETATM   35  C   UNL     1     -11.926  12.613  63.474  1.00  0.00    -0.630 A  
HETATM   36  C   UNL     1     -11.043  11.601  63.851  1.00  0.00    -0.477 A  
BRANCH  34  37
HETATM   37  N   UNL     1      -9.416  10.516  65.480  1.00  0.00    -0.200 N  
HETATM   38  C   UNL     1      -8.119  11.019  66.115  1.00  0.00    -0.141 C  
HETATM   39  C   UNL     1     -10.112   9.642  66.524  1.00  0.00    -0.244 C  
HETATM   40  C   UNL     1      -9.086   9.713  64.221  1.00  0.00    -0.218 C  
ENDBRANCH  34  37
ENDBRANCH  30  31
ENDBRANCH   4  30
TORSDOF 17
ENDMDL
MODEL       16
REMARK 921   NORMALIZED FREE ENERGY PREDICTED BY IDOCK:   -6.00 KCAL/MOL
REMARK 922        TOTAL FREE ENERGY PREDICTED BY IDOCK:  -14.19 KCAL/MOL
REMARK 923 INTER-LIGAND FREE ENERGY PREDICTED BY IDOCK:  -12.46 KCAL/MOL
REMARK 924 INTRA-LIGAND FREE ENERGY PREDICTED BY IDOCK:   -1.73 KCAL/MOL
REMARK 927      BINDING AFFINITY PREDICTED BY RF-SCORE:    0.00 PKD
ROOT
HETATM    1  C   UNL     1      -9.289  15.776  65.907  1.00  0.00    -0.321 C  
HETATM    2  N   UNL     1     -10.560  15.373  66.485  1.00  0.00    -0.301 N  
HETATM    3  O   UNL     1     -12.562  14.257  66.147  1.00  0.00    -0.436 OA 
HETATM    4  C   UNL     1     -11.421  14.537  65.789  1.00  0.00    -0.342 C  
ENDROOT
BRANCH   2   5
HETATM    5  C   UNL     1     -11.023  16.043  67.699  1.00  0.00    -0.284 C  
BRANCH   5   6
HETATM    6  C   UNL     1     -10.286  15.573  68.961  1.00  0.00    -0.235 C  
BRANCH   6   7
HETATM    7  C   UNL     1     -11.240  14.868  69.933  1.00  0.00    -0.307 C  
BRANCH   7   8
HETATM    8  C   UNL     1     -11.953  15.863  70.859  1.00  0.00    -0.432 C  
BRANCH   8   9
HETATM    9  C   UNL     1     -13.350  15.364  71.239  1.00  0.00    -0.598 C  
BRANCH   9  10
HETATM   10  C   UNL     1     -13.328  14.556  72.540  1.00  0.00    -0.565 C  
BRANCH  10  11
HETATM   11  C   UNL     1     -13.890  13.139  72.382  1.00  0.00    -0.583 C  
BRANCH  11  12
HETATM   12  C   UNL     1     -12.952  12.204  71.621  1.00  0.00    -0.427 C  
BRANCH  12  13
HETATM   13  C   UNL     1     -13.273  10.738  71.902  1.00  0.00    -0.524 C  
BRANCH  13  14
HETATM   14  C   UNL     1     -12.145   9.848  71.402  1.00  0.00    -0.413 C  
BRANCH  14  15
HETATM   15  N   UNL     1     -12.374   8.449  71.733  1.00  0.00    -0.313 N  
HETATM   16  C   UNL     1     -11.383   7.731  72.376  1.00  0.00    -0.346 C  
HETATM   17  C   UNL     1     -13.664   7.850  71.418  1.00  0.00    -0.263 C  
HETATM   18  O   UNL     1     -10.267   8.169  72.634  1.00  0.00    -0.283 OA 
BRANCH  16  19
HETATM   19  O   UNL     1     -11.750   6.408  72.575  1.00  0.00    -0.261 OA 
BRANCH  19  20
HETATM   20  C   UNL     1     -10.871   5.495  71.981  1.00  0.00    -0.226 A  
HETATM   21  C   UNL     1     -10.515   4.377  72.726  1.00  0.00    -0.253 A  
HETATM   22  C   UNL     1      -9.740   3.396  72.118  1.00  0.00    -0.228 A  
HETATM   23  C   UNL     1      -9.328   3.536  70.789  1.00  0.00    -0.227 A  
HETATM   24  C   UNL     1      -9.675   4.671  70.036  1.00  0.00    -0.207 A  
HETATM   25  C   UNL     1     -10.484   5.632  70.640  1.00  0.00    -0.340 A  
BRANCH  24  26
HETATM   26  N   UNL     1      -9.287   4.813  68.572  1.00  0.00    -0.125 N  
HETATM   27  C   UNL     1      -7.933   5.498  68.427  1.00  0.00    -0.096 C  
HETATM   28  C   UNL     1     -10.310   5.677  67.824  1.00  0.00    -0.206 C  
HETATM   29  C   UNL     1      -9.236   3.416  67.970  1.00  0.00    -0.187 C  
ENDBRANCH  24  26
ENDBRANCH  19  20
ENDBRANCH  16  19
ENDBRANCH  14  15
ENDBRANCH  13  14
ENDBRANCH  12  13
ENDBRANCH  11  12
ENDBRANCH  10  11
ENDBRANCH   9  10
ENDBRANCH   8   9
ENDBRANCH   7   8
ENDBRANCH   6   7
ENDBRANCH   5   6
ENDBRANCH   2   5
BRANCH   4  30
HETATM   30  O   UNL     1     -10.877  14.094  64.580  1.00  0.00    -0.394 OA 
BRANCH  30  31
HETATM   31  C   UNL     1     -10.490  12.743  64.601  1.00  0.00    -0.350 A  
HETATM   32  C   UNL     1     -10.347  12.043  63.401  1.00  0.00    -0.468 A  
HETATM   33  C   UNL     1     -10.151  12.162  65.826  1.00  0.00    -0.272 A  
HETATM   34  C   UNL     1      -9.702  10.831  65.860  1.00  0.00    -0.224 A  
HETATM   35  C   UNL     1      -9.917  10.729  63.427  1.00  0.00    -0.385 A  
HETATM   36  C   UNL     1      -9.607  10.126  64.645  1.00  0.00    -0.379 A  
BRANCH  34  37
HETATM   37  N   UNL     1      -9.432  10.127  67.185  1.00  0.00    -0.156 N  
HETATM   38  C   UNL     1     -10.727   9.634  67.831  1.00  0.00    -0.247 C  
HETATM   39  C   UNL     1      -8.543   8.900  66.978  1.00  0.00    -0.116 C  
HETATM   40  C   UNL     1      -8.761  11.145  68.108  1.00  0.00    -0.144 C  
ENDBRANCH  34  37
ENDBRANCH  30  31
ENDBRANCH   4  30
TORSDOF 17
ENDMDL
MODEL       17
REMARK 921   NORMALIZED FREE ENERGY PREDICTED BY IDOCK:   -5.98 KCAL/MOL
REMARK 922        TOTAL FREE ENERGY PREDICTED BY IDOCK:  -14.16 KCAL/MOL
REMARK 923 INTER-LIGAND FREE ENERGY PREDICTED BY IDOCK:  -11.82 KCAL/MOL
REMARK 924 INTRA-LIGAND FREE ENERGY PREDICTED BY IDOCK:   -2.33 KCAL/MOL
REMARK 927      BINDING AFFINITY PREDICTED BY RF-SCORE:    0.00 PKD
ROOT
HETATM    1  C   UNL     1     -14.120   7.506  71.480  1.00  0.00    -0.427 C  
HETATM    2  N   UNL     1     -12.925   8.277  71.779  1.00  0.00    -0.336 N  
HETATM    3  O   UNL     1     -10.778   8.242  72.647  1.00  0.00    -0.343 OA 
HETATM    4  C   UNL     1     -11.778   7.653  72.249  1.00  0.00    -0.324 C  
ENDROOT
BRANCH   2   5
HETATM    5  C   UNL     1     -13.020   9.735  71.805  1.00  0.00    -0.438 C  
BRANCH   5   6
HETATM    6  C   UNL     1     -12.855  10.371  70.418  1.00  0.00    -0.249 C  
BRANCH   6   7
HETATM    7  C   UNL     1     -11.402  10.792  70.167  1.00  0.00    -0.390 C  
BRANCH   7   8
HETATM    8  C   UNL     1     -10.606   9.698  69.445  1.00  0.00    -0.243 C  
BRANCH   8   9
HETATM    9  C   UNL     1      -9.100   9.969  69.514  1.00  0.00    -0.236 C  
BRANCH   9  10
HETATM   10  C   UNL     1      -8.680  11.083  68.550  1.00  0.00    -0.159 C  
BRANCH  10  11
HETATM   11  C   UNL     1      -8.040  10.559  67.261  1.00  0.00    -0.115 C  
BRANCH  11  12
HETATM   12  C   UNL     1      -8.693  11.117  65.997  1.00  0.00    -0.185 C  
BRANCH  12  13
HETATM   13  C   UNL     1     -10.129  10.622  65.842  1.00  0.00    -0.321 C  
BRANCH  13  14
HETATM   14  C   UNL     1     -10.882  11.497  64.851  1.00  0.00    -0.283 C  
BRANCH  14  15
HETATM   15  N   UNL     1     -11.208  12.797  65.418  1.00  0.00    -0.285 N  
HETATM   16  C   UNL     1     -11.827  12.865  66.653  1.00  0.00    -0.395 C  
HETATM   17  C   UNL     1     -10.831  14.000  64.690  1.00  0.00    -0.403 C  
HETATM   18  O   UNL     1     -12.200  11.889  67.295  1.00  0.00    -0.495 OA 
BRANCH  16  19
HETATM   19  O   UNL     1     -12.103  14.174  67.021  1.00  0.00    -0.427 OA 
BRANCH  19  20
HETATM   20  C   UNL     1     -11.662  14.491  68.310  1.00  0.00    -0.335 A  
HETATM   21  C   UNL     1     -10.390  15.038  68.430  1.00  0.00    -0.231 A  
HETATM   22  C   UNL     1      -9.973  15.473  69.683  1.00  0.00    -0.287 A  
HETATM   23  C   UNL     1     -10.815  15.357  70.794  1.00  0.00    -0.292 A  
HETATM   24  C   UNL     1     -12.097  14.793  70.679  1.00  0.00    -0.310 A  
HETATM   25  C   UNL     1     -12.523  14.395  69.413  1.00  0.00    -0.113 A  
BRANCH  24  26
HETATM   26  N   UNL     1     -13.049  14.715  71.862  1.00  0.00    -0.314 N  
HETATM   27  C   UNL     1     -14.398  15.342  71.523  1.00  0.00    -0.527 C  
HETATM   28  C   UNL     1     -12.486  15.485  73.063  1.00  0.00    -0.442 C  
HETATM   29  C   UNL     1     -13.228  13.245  72.215  1.00  0.00    -0.467 C  
ENDBRANCH  24  26
ENDBRANCH  19  20
ENDBRANCH  16  19
ENDBRANCH  14  15
ENDBRANCH  13  14
ENDBRANCH  12  13
ENDBRANCH  11  12
ENDBRANCH  10  11
ENDBRANCH   9  10
ENDBRANCH   8   9
ENDBRANCH   7   8
ENDBRANCH   6   7
ENDBRANCH   5   6
ENDBRANCH   2   5
BRANCH   4  30
HETATM   30  O   UNL     1     -11.905   6.261  72.292  1.00  0.00    -0.311 OA 
BRANCH  30  31
HETATM   31  C   UNL     1     -11.033   5.592  71.417  1.00  0.00    -0.137 A  
HETATM   32  C   UNL     1     -10.315   4.482  71.866  1.00  0.00    -0.198 A  
HETATM   33  C   UNL     1     -10.989   5.992  70.078  1.00  0.00    -0.450 A  
HETATM   34  C   UNL     1     -10.170   5.294  69.174  1.00  0.00    -0.210 A  
HETATM   35  C   UNL     1      -9.497   3.798  70.986  1.00  0.00    -0.239 A  
HETATM   36  C   UNL     1      -9.418   4.206  69.655  1.00  0.00    -0.259 A  
BRANCH  34  37
HETATM   37  N   UNL     1     -10.008   5.769  67.734  1.00  0.00    -0.130 N  
HETATM   38  C   UNL     1      -8.682   6.503  67.532  1.00  0.00    -0.114 C  
HETATM   39  C   UNL     1     -10.013   4.585  66.767  1.00  0.00    -0.215 C  
HETATM   40  C   UNL     1     -11.166   6.725  67.443  1.00  0.00    -0.188 C  
ENDBRANCH  34  37
ENDBRANCH  30  31
ENDBRANCH   4  30
TORSDOF 17
ENDMDL
MODEL       18
REMARK 921   NORMALIZED FREE ENERGY PREDICTED BY IDOCK:   -5.93 KCAL/MOL
REMARK 922        TOTAL FREE ENERGY PREDICTED BY IDOCK:  -14.06 KCAL/MOL
REMARK 923 INTER-LIGAND FREE ENERGY PREDICTED BY IDOCK:  -12.28 KCAL/MOL
REMARK 924 INTRA-LIGAND FREE ENERGY PREDICTED BY IDOCK:   -1.78 KCAL/MOL
REMARK 927      BINDING AFFINITY PREDICTED BY RF-SCORE:    0.00 PKD
ROOT
HETATM    1  C   UNL     1      -8.335  11.737  68.452  1.00  0.00    -0.153 C  
HETATM    2  N   UNL     1      -9.347  11.180  67.571  1.00  0.00    -0.166 N  
HETATM    3  O   UNL     1     -11.600  10.734  67.264  1.00  0.00    -0.439 OA 
HETATM    4  C   UNL     1     -10.696  11.288  67.883  1.00  0.00    -0.207 C  
ENDROOT
BRANCH   2   5
HETATM    5  C   UNL     1      -8.923  10.303  66.482  1.00  0.00    -0.144 C  
BRANCH   5   6
HETATM    6  C   UNL     1      -7.599  10.742  65.839  1.00  0.00    -0.106 C  
BRANCH   6   7
HETATM    7  C   UNL     1      -7.456  10.183  64.418  1.00  0.00    -0.123 C  
BRANCH   7   8
HETATM    8  C   UNL     1      -8.817   9.848  63.795  1.00  0.00    -0.254 C  
BRANCH   8   9
HETATM    9  C   UNL     1      -9.314  10.988  62.900  1.00  0.00    -0.380 C  
BRANCH   9  10
HETATM   10  C   UNL     1     -10.805  11.267  63.115  1.00  0.00    -0.107 C  
BRANCH  10  11
HETATM   11  C   UNL     1     -11.076  12.289  64.224  1.00  0.00    -0.401 C  
BRANCH  11  12
HETATM   12  C   UNL     1     -12.564  12.502  64.494  1.00  0.00    -0.503 C  
BRANCH  12  13
HETATM   13  C   UNL     1     -12.813  13.782  65.287  1.00  0.00    -0.430 C  
BRANCH  13  14
HETATM   14  C   UNL     1     -11.594  14.122  66.132  1.00  0.00    -0.370 C  
BRANCH  14  15
HETATM   15  N   UNL     1     -10.904  15.303  65.634  1.00  0.00    -0.348 N  
HETATM   16  C   UNL     1      -9.731  15.713  66.241  1.00  0.00    -0.301 C  
HETATM   17  C   UNL     1     -11.443  16.000  64.474  1.00  0.00    -0.271 C  
HETATM   18  O   UNL     1      -9.250  15.189  67.240  1.00  0.00    -0.189 OA 
BRANCH  16  19
HETATM   19  O   UNL     1      -9.232  16.875  65.671  1.00  0.00    -0.512 OA 
BRANCH  19  20
HETATM   20  C   UNL     1      -9.090  17.923  66.586  1.00  0.00    -0.267 A  
HETATM   21  C   UNL     1     -10.253  18.447  67.138  1.00  0.00    -0.396 A  
HETATM   22  C   UNL     1     -10.137  19.406  68.138  1.00  0.00    -0.526 A  
HETATM   23  C   UNL     1      -8.877  19.833  68.573  1.00  0.00    -0.278 A  
HETATM   24  C   UNL     1      -7.699  19.314  68.009  1.00  0.00    -0.288 A  
HETATM   25  C   UNL     1      -7.823  18.325  67.034  1.00  0.00    -0.237 A  
BRANCH  24  26
HETATM   26  N   UNL     1      -6.322  19.720  68.509  1.00  0.00    -0.258 N  
HETATM   27  C   UNL     1      -5.285  18.648  68.192  1.00  0.00    -0.176 C  
HETATM   28  C   UNL     1      -6.331  19.899  70.033  1.00  0.00    -0.346 C  
HETATM   29  C   UNL     1      -5.949  21.029  67.828  1.00  0.00    -0.340 C  
ENDBRANCH  24  26
ENDBRANCH  19  20
ENDBRANCH  16  19
ENDBRANCH  14  15
ENDBRANCH  13  14
ENDBRANCH  12  13
ENDBRANCH  11  12
ENDBRANCH  10  11
ENDBRANCH   9  10
ENDBRANCH   8   9
ENDBRANCH   7   8
ENDBRANCH   6   7
ENDBRANCH   5   6
ENDBRANCH   2   5
BRANCH   4  30
HETATM   30  O   UNL     1     -10.919  12.045  69.036  1.00  0.00    -0.225 OA 
BRANCH  30  31
HETATM   31  C   UNL     1     -11.512  11.315  70.080  1.00  0.00    -0.275 A  
HETATM   32  C   UNL     1     -12.529  11.893  70.842  1.00  0.00    -0.397 A  
HETATM   33  C   UNL     1     -11.139   9.979  70.259  1.00  0.00    -0.381 A  
HETATM   34  C   UNL     1     -11.767   9.214  71.257  1.00  0.00    -0.326 A  
HETATM   35  C   UNL     1     -13.142  11.151  71.835  1.00  0.00    -0.513 A  
HETATM   36  C   UNL     1     -12.758   9.827  72.046  1.00  0.00    -0.463 A  
BRANCH  34  37
HETATM   37  N   UNL     1     -11.309   7.791  71.559  1.00  0.00    -0.250 N  
HETATM   38  C   UNL     1     -10.052   7.427  70.768  1.00  0.00    -0.189 C  
HETATM   39  C   UNL     1     -10.964   7.633  73.039  1.00  0.00    -0.400 C  
HETATM   40  C   UNL     1     -12.450   6.857  71.155  1.00  0.00    -0.349 C  
ENDBRANCH  34  37
ENDBRANCH  30  31
ENDBRANCH   4  30
TORSDOF 17
ENDMDL
MODEL       19
REMARK 921   NORMALIZED FREE ENERGY PREDICTED BY IDOCK:   -5.93 KCAL/MOL
REMARK 922        TOTAL FREE ENERGY PREDICTED BY IDOCK:  -14.06 KCAL/MOL
REMARK 923 INTER-LIGAND FREE ENERGY PREDICTED BY IDOCK:  -12.50 KCAL/MOL
REMARK 924 INTRA-LIGAND FREE ENERGY PREDICTED BY IDOCK:   -1.56 KCAL/MOL
REMARK 927      BINDING AFFINITY PREDICTED BY RF-SCORE:    0.00 PKD
ROOT
HETATM    1  C   UNL     1     -10.572  14.558  67.065  1.00  0.00    -0.278 C  
HETATM    2  N   UNL     1     -10.614  15.063  65.703  1.00  0.00    -0.322 N  
HETATM    3  O   UNL     1     -11.064  16.878  64.336  1.00  0.00    -1.128 OA 
HETATM    4  C   UNL     1     -10.882  16.402  65.452  1.00  0.00    -0.239 C  
ENDROOT
BRANCH   2   5
HETATM    5  C   UNL     1     -10.604  14.106  64.599  1.00  0.00    -0.368 C  
BRANCH   5   6
HETATM    6  C   UNL     1     -11.934  13.353  64.447  1.00  0.00    -0.460 C  
BRANCH   6   7
HETATM    7  C   UNL     1     -11.745  11.843  64.637  1.00  0.00    -0.306 C  
BRANCH   7   8
HETATM    8  C   UNL     1     -10.306  11.492  65.036  1.00  0.00    -0.333 C  
BRANCH   8   9
HETATM    9  C   UNL     1     -10.278  10.569  66.258  1.00  0.00    -0.296 C  
BRANCH   9  10
HETATM   10  C   UNL     1     -11.248  11.040  67.346  1.00  0.00    -0.355 C  
BRANCH  10  11
HETATM   11  C   UNL     1     -10.553  11.396  68.664  1.00  0.00    -0.229 C  
BRANCH  11  12
HETATM   12  C   UNL     1     -11.516  11.913  69.730  1.00  0.00    -0.303 C  
BRANCH  12  13
HETATM   13  C   UNL     1     -12.639  10.916  70.003  1.00  0.00    -0.253 C  
BRANCH  13  14
HETATM   14  C   UNL     1     -12.794  10.696  71.500  1.00  0.00    -0.462 C  
BRANCH  14  15
HETATM   15  N   UNL     1     -12.845   9.280  71.836  1.00  0.00    -0.372 N  
HETATM   16  C   UNL     1     -11.670   8.605  72.113  1.00  0.00    -0.371 C  
HETATM   17  C   UNL     1     -14.139   8.619  71.917  1.00  0.00    -0.443 C  
HETATM   18  O   UNL     1     -10.551   9.098  72.026  1.00  0.00    -0.333 OA 
BRANCH  16  19
HETATM   19  O   UNL     1     -11.896   7.260  72.368  1.00  0.00    -0.272 OA 
BRANCH  19  20
HETATM   20  C   UNL     1     -11.280   6.410  71.443  1.00  0.00    -0.288 A  
HETATM   21  C   UNL     1     -11.484   6.684  70.095  1.00  0.00    -0.444 A  
HETATM   22  C   UNL     1     -10.790   5.931  69.155  1.00  0.00    -0.406 A  
HETATM   23  C   UNL     1      -9.910   4.921  69.560  1.00  0.00    -0.287 A  
HETATM   24  C   UNL     1      -9.711   4.633  70.921  1.00  0.00    -0.192 A  
HETATM   25  C   UNL     1     -10.381   5.418  71.859  1.00  0.00    -0.270 A  
BRANCH  24  26
HETATM   26  N   UNL     1      -8.714   3.582  71.382  1.00  0.00    -0.082 N  
HETATM   27  C   UNL     1      -8.773   3.396  72.895  1.00  0.00    -0.085 C  
HETATM   28  C   UNL     1      -7.281   4.006  71.038  1.00  0.00    -0.033 C  
HETATM   29  C   UNL     1      -9.060   2.277  70.680  1.00  0.00    -0.102 C  
ENDBRANCH  24  26
ENDBRANCH  19  20
ENDBRANCH  16  19
ENDBRANCH  14  15
ENDBRANCH  13  14
ENDBRANCH  12  13
ENDBRANCH  11  12
ENDBRANCH  10  11
ENDBRANCH   9  10
ENDBRANCH   8   9
ENDBRANCH   7   8
ENDBRANCH   6   7
ENDBRANCH   5   6
ENDBRANCH   2   5
BRANCH   4  30
HETATM   30  O   UNL     1     -10.999  17.153  66.625  1.00  0.00    -0.031 OA 
BRANCH  30  31
HETATM   31  C   UNL     1     -10.100  18.231  66.691  1.00  0.00    -0.375 A  
HETATM   32  C   UNL     1     -10.549  19.486  67.105  1.00  0.00    -0.605 A  
HETATM   33  C   UNL     1      -8.745  17.991  66.442  1.00  0.00    -0.249 A  
HETATM   34  C   UNL     1      -7.822  19.043  66.565  1.00  0.00    -0.268 A  
HETATM   35  C   UNL     1      -9.649  20.530  67.216  1.00  0.00    -0.580 A  
HETATM   36  C   UNL     1      -8.300  20.313  66.939  1.00  0.00    -0.348 A  
BRANCH  34  37
HETATM   37  N   UNL     1      -6.356  18.849  66.192  1.00  0.00    -0.184 N  
HETATM   38  C   UNL     1      -5.453  19.831  66.939  1.00  0.00    -0.169 C  
HETATM   39  C   UNL     1      -5.883  17.442  66.559  1.00  0.00    -0.208 C  
HETATM   40  C   UNL     1      -6.238  19.096  64.687  1.00  0.00    -0.175 C  
ENDBRANCH  34  37
ENDBRANCH  30  31
ENDBRANCH   4  30
TORSDOF 17
ENDMDL
MODEL       20
REMARK 921   NORMALIZED FREE ENERGY PREDICTED BY IDOCK:   -5.90 KCAL/MOL
REMARK 922        TOTAL FREE ENERGY PREDICTED BY IDOCK:  -14.00 KCAL/MOL
REMARK 923 INTER-LIGAND FREE ENERGY PREDICTED BY IDOCK:  -12.06 KCAL/MOL
REMARK 924 INTRA-LIGAND FREE ENERGY PREDICTED BY IDOCK:   -1.94 KCAL/MOL
REMARK 927      BINDING AFFINITY PREDICTED BY RF-SCORE:    0.00 PKD
ROOT
HETATM    1  C   UNL     1     -12.262  15.682  70.211  1.00  0.00    -0.386 C  
HETATM    2  N   UNL     1     -11.193  15.231  69.336  1.00  0.00    -0.265 N  
HETATM    3  O   UNL     1      -9.487  15.857  67.900  1.00  0.00    -0.211 OA 
HETATM    4  C   UNL     1     -10.327  16.142  68.748  1.00  0.00    -0.248 C  
ENDROOT
BRANCH   2   5
HETATM    5  C   UNL     1     -11.187  13.837  68.897  1.00  0.00    -0.272 C  
BRANCH   5   6
HETATM    6  C   UNL     1     -12.159  13.569  67.739  1.00  0.00    -0.316 C  
BRANCH   6   7
HETATM    7  C   UNL     1     -11.409  13.360  66.418  1.00  0.00    -0.338 C  
BRANCH   7   8
HETATM    8  C   UNL     1     -11.415  11.890  65.982  1.00  0.00    -0.344 C  
BRANCH   8   9
HETATM    9  C   UNL     1     -10.338  11.087  66.717  1.00  0.00    -0.284 C  
BRANCH   9  10
HETATM   10  C   UNL     1     -10.906   9.802  67.327  1.00  0.00    -0.247 C  
BRANCH  10  11
HETATM   11  C   UNL     1     -10.437   9.555  68.764  1.00  0.00    -0.243 C  
BRANCH  11  12
HETATM   12  C   UNL     1     -10.852  10.662  69.731  1.00  0.00    -0.317 C  
BRANCH  12  13
HETATM   13  C   UNL     1     -12.350  10.619  70.022  1.00  0.00    -0.341 C  
BRANCH  13  14
HETATM   14  C   UNL     1     -12.591  10.300  71.490  1.00  0.00    -0.440 C  
BRANCH  14  15
HETATM   15  N   UNL     1     -12.765   8.872  71.711  1.00  0.00    -0.342 N  
HETATM   16  C   UNL     1     -11.713   8.127  72.210  1.00  0.00    -0.379 C  
HETATM   17  C   UNL     1     -14.063   8.269  71.443  1.00  0.00    -0.305 C  
HETATM   18  O   UNL     1     -10.589   8.571  72.421  1.00  0.00    -0.329 OA 
BRANCH  16  19
HETATM   19  O   UNL     1     -12.036   6.782  72.317  1.00  0.00    -0.262 OA 
BRANCH  19  20
HETATM   20  C   UNL     1     -11.157   5.946  71.621  1.00  0.00    -0.258 A  
HETATM   21  C   UNL     1     -10.654   4.844  72.303  1.00  0.00    -0.251 A  
HETATM   22  C   UNL     1      -9.875   3.931  71.601  1.00  0.00    -0.247 A  
HETATM   23  C   UNL     1      -9.604   4.122  70.242  1.00  0.00    -0.269 A  
HETATM   24  C   UNL     1     -10.100   5.241  69.552  1.00  0.00    -0.252 A  
HETATM   25  C   UNL     1     -10.913   6.132  70.253  1.00  0.00    -0.417 A  
BRANCH  24  26
HETATM   26  N   UNL     1      -9.867   5.435  68.062  1.00  0.00    -0.137 N  
HETATM   27  C   UNL     1      -8.718   6.406  67.808  1.00  0.00    -0.114 C  
HETATM   28  C   UNL     1     -11.113   6.030  67.393  1.00  0.00    -0.132 C  
HETATM   29  C   UNL     1      -9.546   4.074  67.463  1.00  0.00    -0.168 C  
ENDBRANCH  24  26
ENDBRANCH  19  20
ENDBRANCH  16  19
ENDBRANCH  14  15
ENDBRANCH  13  14
ENDBRANCH  12  13
ENDBRANCH  11  12
ENDBRANCH  10  11
ENDBRANCH   9  10
ENDBRANCH   8   9
ENDBRANCH   7   8
ENDBRANCH   6   7
ENDBRANCH   5   6
ENDBRANCH   2   5
BRANCH   4  30
HETATM   30  O   UNL     1     -10.559  17.453  69.173  1.00  0.00    -0.321 OA 
BRANCH  30  31
HETATM   31  C   UNL     1      -9.876  18.418  68.414  1.00  0.00    -0.371 A  
HETATM   32  C   UNL     1     -10.565  19.160  67.452  1.00  0.00    -0.577 A  
HETATM   33  C   UNL     1      -8.538  18.687  68.719  1.00  0.00    -0.292 A  
HETATM   34  C   UNL     1      -7.857  19.693  68.012  1.00  0.00    -0.306 A  
HETATM   35  C   UNL     1      -9.897  20.143  66.744  1.00  0.00    -0.591 A  
HETATM   36  C   UNL     1      -8.554  20.400  67.015  1.00  0.00    -0.370 A  
BRANCH  34  37
HETATM   37  N   UNL     1      -6.369  19.938  68.236  1.00  0.00    -0.250 N  
HETATM   38  C   UNL     1      -5.900  21.216  67.540  1.00  0.00    -0.335 C  
HETATM   39  C   UNL     1      -6.062  20.104  69.724  1.00  0.00    -0.357 C  
HETATM   40  C   UNL     1      -5.622  18.739  67.649  1.00  0.00    -0.176 C  
ENDBRANCH  34  37
ENDBRANCH  30  31
ENDBRANCH   4  30
TORSDOF 17
ENDMDL
MODEL       21
REMARK 921   NORMALIZED FREE ENERGY PREDICTED BY IDOCK:   -5.90 KCAL/MOL
REMARK 922        TOTAL FREE ENERGY PREDICTED BY IDOCK:  -13.99 KCAL/MOL
REMARK 923 INTER-LIGAND FREE ENERGY PREDICTED BY IDOCK:  -12.11 KCAL/MOL
REMARK 924 INTRA-LIGAND FREE ENERGY PREDICTED BY IDOCK:   -1.88 KCAL/MOL
REMARK 927      BINDING AFFINITY PREDICTED BY RF-SCORE:    0.00 PKD
ROOT
HETATM    1  C   UNL     1     -11.890  14.216  67.338  1.00  0.00    -0.413 C  
HETATM    2  N   UNL     1     -11.621  14.704  65.996  1.00  0.00    -0.351 N  
HETATM    3  O   UNL     1     -10.558  16.309  64.708  1.00  0.00    -0.658 OA 
HETATM    4  C   UNL     1     -10.739  15.755  65.788  1.00  0.00    -0.327 C  
ENDROOT
BRANCH   2   5
HETATM    5  C   UNL     1     -12.464  14.235  64.897  1.00  0.00    -0.390 C  
BRANCH   5   6
HETATM    6  C   UNL     1     -12.631  12.710  64.879  1.00  0.00    -0.525 C  
BRANCH   6   7
HETATM    7  C   UNL     1     -12.075  12.103  63.585  1.00  0.00    -0.648 C  
BRANCH   7   8
HETATM    8  C   UNL     1     -10.545  12.190  63.524  1.00  0.00    -0.501 C  
BRANCH   8   9
HETATM    9  C   UNL     1      -9.922  10.823  63.225  1.00  0.00    -0.369 C  
BRANCH   9  10
HETATM   10  C   UNL     1      -9.651  10.031  64.507  1.00  0.00    -0.346 C  
BRANCH  10  11
HETATM   11  C   UNL     1      -8.210  10.169  65.010  1.00  0.00    -0.152 C  
BRANCH  11  12
HETATM   12  C   UNL     1      -8.122  10.669  66.451  1.00  0.00    -0.148 C  
BRANCH  12  13
HETATM   13  C   UNL     1      -9.465  11.203  66.942  1.00  0.00    -0.203 C  
BRANCH  13  14
HETATM   14  C   UNL     1      -9.385  11.544  68.423  1.00  0.00    -0.194 C  
BRANCH  14  15
HETATM   15  N   UNL     1     -10.345  10.779  69.205  1.00  0.00    -0.218 N  
HETATM   16  C   UNL     1      -9.891   9.922  70.191  1.00  0.00    -0.219 C  
HETATM   17  C   UNL     1     -11.768  10.971  68.962  1.00  0.00    -0.333 C  
HETATM   18  O   UNL     1      -8.708   9.692  70.417  1.00  0.00    -0.221 OA 
BRANCH  16  19
HETATM   19  O   UNL     1     -10.933   9.244  70.806  1.00  0.00    -0.240 OA 
BRANCH  19  20
HETATM   20  C   UNL     1     -10.813   7.852  70.720  1.00  0.00    -0.232 A  
HETATM   21  C   UNL     1     -10.952   7.278  69.462  1.00  0.00    -0.182 A  
HETATM   22  C   UNL     1     -10.719   5.914  69.328  1.00  0.00    -0.401 A  
HETATM   23  C   UNL     1     -10.358   5.141  70.437  1.00  0.00    -0.326 A  
HETATM   24  C   UNL     1     -10.230   5.715  71.713  1.00  0.00    -0.202 A  
HETATM   25  C   UNL     1     -10.426   7.091  71.832  1.00  0.00    -0.223 A  
BRANCH  24  26
HETATM   26  N   UNL     1      -9.779   4.904  72.918  1.00  0.00    -0.143 N  
HETATM   27  C   UNL     1     -10.975   4.416  73.728  1.00  0.00    -0.280 C  
HETATM   28  C   UNL     1      -8.920   5.761  73.857  1.00  0.00    -0.126 C  
HETATM   29  C   UNL     1      -8.975   3.719  72.403  1.00  0.00    -0.104 C  
ENDBRANCH  24  26
ENDBRANCH  19  20
ENDBRANCH  16  19
ENDBRANCH  14  15
ENDBRANCH  13  14
ENDBRANCH  12  13
ENDBRANCH  11  12
ENDBRANCH  10  11
ENDBRANCH   9  10
ENDBRANCH   8   9
ENDBRANCH   7   8
ENDBRANCH   6   7
ENDBRANCH   5   6
ENDBRANCH   2   5
BRANCH   4  30
HETATM   30  O   UNL     1     -10.119  16.175  66.969  1.00  0.00    -0.257 OA 
BRANCH  30  31
HETATM   31  C   UNL     1      -9.767  17.535  66.963  1.00  0.00    -0.284 A  
HETATM   32  C   UNL     1     -10.765  18.511  66.995  1.00  0.00    -0.363 A  
HETATM   33  C   UNL     1      -8.413  17.877  67.035  1.00  0.00    -0.248 A  
HETATM   34  C   UNL     1      -8.045  19.233  67.095  1.00  0.00    -0.266 A  
HETATM   35  C   UNL     1     -10.410  19.847  67.040  1.00  0.00    -0.592 A  
HETATM   36  C   UNL     1      -9.063  20.204  67.080  1.00  0.00    -0.489 A  
BRANCH  34  37
HETATM   37  N   UNL     1      -6.579  19.649  67.060  1.00  0.00    -0.193 N  
HETATM   38  C   UNL     1      -6.390  21.076  67.577  1.00  0.00    -0.351 C  
HETATM   39  C   UNL     1      -5.733  18.738  67.949  1.00  0.00    -0.190 C  
HETATM   40  C   UNL     1      -6.125  19.575  65.601  1.00  0.00    -0.198 C  
ENDBRANCH  34  37
ENDBRANCH  30  31
ENDBRANCH   4  30
TORSDOF 17
ENDMDL
MODEL       22
REMARK 921   NORMALIZED FREE ENERGY PREDICTED BY IDOCK:   -5.88 KCAL/MOL
REMARK 922        TOTAL FREE ENERGY PREDICTED BY IDOCK:  -13.97 KCAL/MOL
REMARK 923 INTER-LIGAND FREE ENERGY PREDICTED BY IDOCK:  -11.77 KCAL/MOL
REMARK 924 INTRA-LIGAND FREE ENERGY PREDICTED BY IDOCK:   -2.20 KCAL/MOL
REMARK 927      BINDING AFFINITY PREDICTED BY RF-SCORE:    0.00 PKD
ROOT
HETATM    1  C   UNL     1     -11.264  15.679  70.769  1.00  0.00    -0.367 C  
HETATM    2  N   UNL     1     -11.033  15.220  69.410  1.00  0.00    -0.255 N  
HETATM    3  O   UNL     1     -10.966  15.798  67.168  1.00  0.00    -0.314 OA 
HETATM    4  C   UNL     1     -11.022  16.117  68.352  1.00  0.00    -0.341 C  
ENDROOT
BRANCH   2   5
HETATM    5  C   UNL     1     -11.049  13.783  69.143  1.00  0.00    -0.240 C  
BRANCH   5   6
HETATM    6  C   UNL     1     -12.101  13.031  69.971  1.00  0.00    -0.367 C  
BRANCH   6   7
HETATM    7  C   UNL     1     -11.789  11.531  70.039  1.00  0.00    -0.435 C  
BRANCH   7   8
HETATM    8  C   UNL     1     -12.801  10.775  70.908  1.00  0.00    -0.443 C  
BRANCH   8   9
HETATM    9  C   UNL     1     -12.109   9.718  71.775  1.00  0.00    -0.425 C  
BRANCH   9  10
HETATM   10  C   UNL     1     -11.580   8.553  70.933  1.00  0.00    -0.295 C  
BRANCH  10  11
HETATM   11  C   UNL     1     -10.403   7.820  71.584  1.00  0.00    -0.236 C  
BRANCH  11  12
HETATM   12  C   UNL     1      -9.126   8.657  71.631  1.00  0.00    -0.318 C  
BRANCH  12  13
HETATM   13  C   UNL     1      -8.808   9.271  70.270  1.00  0.00    -0.254 C  
BRANCH  13  14
HETATM   14  C   UNL     1      -7.968   8.309  69.443  1.00  0.00    -0.113 C  
BRANCH  14  15
HETATM   15  N   UNL     1      -8.593   8.010  68.163  1.00  0.00    -0.126 N  
HETATM   16  C   UNL     1      -8.232   8.738  67.044  1.00  0.00    -0.103 C  
HETATM   17  C   UNL     1      -9.552   6.917  68.082  1.00  0.00    -0.124 C  
HETATM   18  O   UNL     1      -7.460   9.691  67.057  1.00  0.00    -0.091 OA 
BRANCH  16  19
HETATM   19  O   UNL     1      -8.953   8.353  65.923  1.00  0.00    -0.172 OA 
BRANCH  19  20
HETATM   20  C   UNL     1      -9.154   9.395  65.010  1.00  0.00    -0.215 A  
HETATM   21  C   UNL     1      -8.461   9.328  63.808  1.00  0.00    -0.197 A  
HETATM   22  C   UNL     1      -8.731  10.284  62.835  1.00  0.00    -0.212 A  
HETATM   23  C   UNL     1      -9.676  11.289  63.066  1.00  0.00    -0.389 A  
HETATM   24  C   UNL     1     -10.370  11.367  64.286  1.00  0.00    -0.328 A  
HETATM   25  C   UNL     1     -10.122  10.382  65.242  1.00  0.00    -0.370 A  
BRANCH  24  26
HETATM   26  N   UNL     1     -11.444  12.414  64.534  1.00  0.00    -0.323 N  
HETATM   27  C   UNL     1     -11.944  12.358  65.974  1.00  0.00    -0.350 C  
HETATM   28  C   UNL     1     -12.657  12.170  63.628  1.00  0.00    -0.504 C  
HETATM   29  C   UNL     1     -10.835  13.779  64.243  1.00  0.00    -0.223 C  
ENDBRANCH  24  26
ENDBRANCH  19  20
ENDBRANCH  16  19
ENDBRANCH  14  15
ENDBRANCH  13  14
ENDBRANCH  12  13
ENDBRANCH  11  12
ENDBRANCH  10  11
ENDBRANCH   9  10
ENDBRANCH   8   9
ENDBRANCH   7   8
ENDBRANCH   6   7
ENDBRANCH   5   6
ENDBRANCH   2   5
BRANCH   4  30
HETATM   30  O   UNL     1     -11.156  17.444  68.773  1.00  0.00    -0.080 OA 
BRANCH  30  31
HETATM   31  C   UNL     1     -10.276  18.328  68.126  1.00  0.00    -0.387 A  
HETATM   32  C   UNL     1     -10.777  19.276  67.232  1.00  0.00    -0.594 A  
HETATM   33  C   UNL     1      -8.924  18.307  68.481  1.00  0.00    -0.329 A  
HETATM   34  C   UNL     1      -8.040  19.227  67.892  1.00  0.00    -0.290 A  
HETATM   35  C   UNL     1      -9.912  20.177  66.638  1.00  0.00    -0.595 A  
HETATM   36  C   UNL     1      -8.555  20.146  66.958  1.00  0.00    -0.408 A  
BRANCH  34  37
HETATM   37  N   UNL     1      -6.542  19.162  68.165  1.00  0.00    -0.226 N  
HETATM   38  C   UNL     1      -6.039  20.440  68.837  1.00  0.00    -0.337 C  
HETATM   39  C   UNL     1      -6.211  18.004  69.108  1.00  0.00    -0.237 C  
HETATM   40  C   UNL     1      -5.844  18.991  66.815  1.00  0.00    -0.158 C  
ENDBRANCH  34  37
ENDBRANCH  30  31
ENDBRANCH   4  30
TORSDOF 17
ENDMDL
MODEL       23
REMARK 921   NORMALIZED FREE ENERGY PREDICTED BY IDOCK:   -5.85 KCAL/MOL
REMARK 922        TOTAL FREE ENERGY PREDICTED BY IDOCK:  -13.89 KCAL/MOL
REMARK 923 INTER-LIGAND FREE ENERGY PREDICTED BY IDOCK:  -11.12 KCAL/MOL
REMARK 924 INTRA-LIGAND FREE ENERGY PREDICTED BY IDOCK:   -2.78 KCAL/MOL
REMARK 927      BINDING AFFINITY PREDICTED BY RF-SCORE:    0.00 PKD
ROOT
HETATM    1  C   UNL     1     -11.703   6.290  70.818  1.00  0.00    -0.220 C  
HETATM    2  N   UNL     1     -11.410   7.629  71.300  1.00  0.00    -0.259 N  
HETATM    3  O   UNL     1      -9.843   9.331  71.424  1.00  0.00    -0.295 OA 
HETATM    4  C   UNL     1     -10.224   8.262  70.956  1.00  0.00    -0.191 C  
ENDROOT
BRANCH   2   5
HETATM    5  C   UNL     1     -12.265   8.204  72.337  1.00  0.00    -0.319 C  
BRANCH   5   6
HETATM    6  C   UNL     1     -13.668   8.562  71.828  1.00  0.00    -0.444 C  
BRANCH   6   7
HETATM    7  C   UNL     1     -13.628   9.775  70.891  1.00  0.00    -0.081 C  
BRANCH   7   8
HETATM    8  C   UNL     1     -12.930  10.977  71.540  1.00  0.00    -0.553 C  
BRANCH   8   9
HETATM    9  C   UNL     1     -12.156  11.797  70.504  1.00  0.00    -0.439 C  
BRANCH   9  10
HETATM   10  C   UNL     1     -11.921  11.004  69.215  1.00  0.00    -0.410 C  
BRANCH  10  11
HETATM   11  C   UNL     1     -11.051  11.748  68.196  1.00  0.00    -0.297 C  
BRANCH  11  12
HETATM   12  C   UNL     1     -11.635  13.096  67.778  1.00  0.00    -0.379 C  
BRANCH  12  13
HETATM   13  C   UNL     1     -12.089  13.083  66.321  1.00  0.00    -0.453 C  
BRANCH  13  14
HETATM   14  C   UNL     1     -10.930  13.450  65.407  1.00  0.00    -0.286 C  
BRANCH  14  15
HETATM   15  N   UNL     1     -10.873  14.883  65.155  1.00  0.00    -0.384 N  
HETATM   16  C   UNL     1      -9.789  15.611  65.608  1.00  0.00    -0.333 C  
HETATM   17  C   UNL     1     -11.942  15.508  64.389  1.00  0.00    -0.183 C  
HETATM   18  O   UNL     1      -8.879  15.148  66.288  1.00  0.00    -0.278 OA 
BRANCH  16  19
HETATM   19  O   UNL     1      -9.918  16.962  65.322  1.00  0.00    -0.526 OA 
BRANCH  19  20
HETATM   20  C   UNL     1      -9.611  17.789  66.408  1.00  0.00    -0.283 A  
HETATM   21  C   UNL     1     -10.584  17.936  67.390  1.00  0.00    -0.370 A  
HETATM   22  C   UNL     1     -10.263  18.654  68.537  1.00  0.00    -0.398 A  
HETATM   23  C   UNL     1      -8.991  19.216  68.693  1.00  0.00    -0.411 A  
HETATM   24  C   UNL     1      -8.009  19.080  67.697  1.00  0.00    -0.259 A  
HETATM   25  C   UNL     1      -8.326  18.326  66.567  1.00  0.00    -0.287 A  
BRANCH  24  26
HETATM   26  N   UNL     1      -6.603  19.631  67.875  1.00  0.00    -0.231 N  
HETATM   27  C   UNL     1      -6.269  19.816  69.351  1.00  0.00    -0.320 C  
HETATM   28  C   UNL     1      -6.473  21.007  67.209  1.00  0.00    -0.351 C  
HETATM   29  C   UNL     1      -5.636  18.644  67.237  1.00  0.00    -0.138 C  
ENDBRANCH  24  26
ENDBRANCH  19  20
ENDBRANCH  16  19
ENDBRANCH  14  15
ENDBRANCH  13  14
ENDBRANCH  12  13
ENDBRANCH  11  12
ENDBRANCH  10  11
ENDBRANCH   9  10
ENDBRANCH   8   9
ENDBRANCH   7   8
ENDBRANCH   6   7
ENDBRANCH   5   6
ENDBRANCH   2   5
BRANCH   4  30
HETATM   30  O   UNL     1      -9.457   7.511  70.060  1.00  0.00    -0.161 OA 
BRANCH  30  31
HETATM   31  C   UNL     1      -9.319   8.115  68.799  1.00  0.00    -0.143 A  
HETATM   32  C   UNL     1     -10.278   7.885  67.810  1.00  0.00    -0.276 A  
HETATM   33  C   UNL     1      -8.274   9.022  68.601  1.00  0.00    -0.118 A  
HETATM   34  C   UNL     1      -8.157   9.684  67.367  1.00  0.00    -0.110 A  
HETATM   35  C   UNL     1     -10.162   8.523  66.588  1.00  0.00    -0.345 A  
HETATM   36  C   UNL     1      -9.107   9.407  66.366  1.00  0.00    -0.199 A  
BRANCH  34  37
HETATM   37  N   UNL     1      -6.969  10.593  67.073  1.00  0.00    -0.090 N  
HETATM   38  C   UNL     1      -5.840  10.384  68.083  1.00  0.00    -0.044 C  
HETATM   39  C   UNL     1      -6.388  10.300  65.690  1.00  0.00    -0.118 C  
HETATM   40  C   UNL     1      -7.471  12.035  67.166  1.00  0.00    -0.138 C  
ENDBRANCH  34  37
ENDBRANCH  30  31
ENDBRANCH   4  30
TORSDOF 17
ENDMDL
MODEL       24
REMARK 921   NORMALIZED FREE ENERGY PREDICTED BY IDOCK:   -5.84 KCAL/MOL
REMARK 922        TOTAL FREE ENERGY PREDICTED BY IDOCK:  -13.87 KCAL/MOL
REMARK 923 INTER-LIGAND FREE ENERGY PREDICTED BY IDOCK:  -12.10 KCAL/MOL
REMARK 924 INTRA-LIGAND FREE ENERGY PREDICTED BY IDOCK:   -1.77 KCAL/MOL
REMARK 927      BINDING AFFINITY PREDICTED BY RF-SCORE:    0.00 PKD
ROOT
HETATM    1  C   UNL     1     -11.452  14.190  66.820  1.00  0.00    -0.369 C  
HETATM    2  N   UNL     1     -11.337  14.919  65.568  1.00  0.00    -0.350 N  
HETATM    3  O   UNL     1     -11.042  16.985  64.562  1.00  0.00    -1.098 OA 
HETATM    4  C   UNL     1     -11.029  16.272  65.561  1.00  0.00    -0.149 C  
ENDROOT
BRANCH   2   5
HETATM    5  C   UNL     1     -11.780  14.270  64.335  1.00  0.00    -0.389 C  
BRANCH   5   6
HETATM    6  C   UNL     1     -12.227  12.817  64.550  1.00  0.00    -0.500 C  
BRANCH   6   7
HETATM    7  C   UNL     1     -11.538  11.870  63.561  1.00  0.00    -0.537 C  
BRANCH   7   8
HETATM    8  C   UNL     1     -10.095  11.558  63.977  1.00  0.00    -0.366 C  
BRANCH   8   9
HETATM    9  C   UNL     1     -10.003  11.245  65.473  1.00  0.00    -0.293 C  
BRANCH   9  10
HETATM   10  C   UNL     1     -10.147   9.745  65.747  1.00  0.00    -0.308 C  
BRANCH  10  11
HETATM   11  C   UNL     1     -10.472   9.425  67.210  1.00  0.00    -0.332 C  
BRANCH  11  12
HETATM   12  C   UNL     1     -11.174  10.572  67.933  1.00  0.00    -0.358 C  
BRANCH  12  13
HETATM   13  C   UNL     1     -10.671  10.723  69.367  1.00  0.00    -0.272 C  
BRANCH  13  14
HETATM   14  C   UNL     1     -11.486   9.847  70.305  1.00  0.00    -0.281 C  
BRANCH  14  15
HETATM   15  N   UNL     1     -10.691   8.758  70.854  1.00  0.00    -0.214 N  
HETATM   16  C   UNL     1     -11.228   7.485  70.911  1.00  0.00    -0.269 C  
HETATM   17  C   UNL     1      -9.328   9.027  71.288  1.00  0.00    -0.254 C  
HETATM   18  O   UNL     1     -12.379   7.204  70.595  1.00  0.00    -0.272 OA 
BRANCH  16  19
HETATM   19  O   UNL     1     -10.355   6.582  71.500  1.00  0.00    -0.208 OA 
BRANCH  19  20
HETATM   20  C   UNL     1      -9.971   5.545  70.643  1.00  0.00    -0.207 A  
HETATM   21  C   UNL     1      -9.917   4.264  71.178  1.00  0.00    -0.226 A  
HETATM   22  C   UNL     1      -9.655   3.199  70.323  1.00  0.00    -0.180 A  
HETATM   23  C   UNL     1      -9.448   3.417  68.957  1.00  0.00    -0.202 A  
HETATM   24  C   UNL     1      -9.489   4.713  68.414  1.00  0.00    -0.145 A  
HETATM   25  C   UNL     1      -9.791   5.771  69.270  1.00  0.00    -0.220 A  
BRANCH  24  26
HETATM   26  N   UNL     1      -9.328   4.964  66.923  1.00  0.00    -0.125 N  
HETATM   27  C   UNL     1      -8.470   6.199  66.664  1.00  0.00    -0.116 C  
HETATM   28  C   UNL     1     -10.690   5.219  66.265  1.00  0.00    -0.196 C  
HETATM   29  C   UNL     1      -8.671   3.733  66.314  1.00  0.00    -0.118 C  
ENDBRANCH  24  26
ENDBRANCH  19  20
ENDBRANCH  16  19
ENDBRANCH  14  15
ENDBRANCH  13  14
ENDBRANCH  12  13
ENDBRANCH  11  12
ENDBRANCH  10  11
ENDBRANCH   9  10
ENDBRANCH   8   9
ENDBRANCH   7   8
ENDBRANCH   6   7
ENDBRANCH   5   6
ENDBRANCH   2   5
BRANCH   4  30
HETATM   30  O   UNL     1     -10.767  16.767  66.842  1.00  0.00    -0.257 OA 
BRANCH  30  31
HETATM   31  C   UNL     1     -10.037  17.968  66.840  1.00  0.00    -0.348 A  
HETATM   32  C   UNL     1     -10.665  19.164  67.192  1.00  0.00    -0.567 A  
HETATM   33  C   UNL     1      -8.662  17.916  66.588  1.00  0.00    -0.280 A  
HETATM   34  C   UNL     1      -7.904  19.098  66.644  1.00  0.00    -0.267 A  
HETATM   35  C   UNL     1      -9.928  20.333  67.236  1.00  0.00    -0.580 A  
HETATM   36  C   UNL     1      -8.563  20.302  66.956  1.00  0.00    -0.398 A  
BRANCH  34  37
HETATM   37  N   UNL     1      -6.427  19.101  66.264  1.00  0.00    -0.188 N  
HETATM   38  C   UNL     1      -6.202  19.745  64.895  1.00  0.00    -0.276 C  
HETATM   39  C   UNL     1      -5.608  19.905  67.273  1.00  0.00    -0.165 C  
HETATM   40  C   UNL     1      -5.971  17.642  66.219  1.00  0.00    -0.220 C  
ENDBRANCH  34  37
ENDBRANCH  30  31
ENDBRANCH   4  30
TORSDOF 17
ENDMDL
MODEL       25
REMARK 921   NORMALIZED FREE ENERGY PREDICTED BY IDOCK:   -5.83 KCAL/MOL
REMARK 922        TOTAL FREE ENERGY PREDICTED BY IDOCK:  -13.85 KCAL/MOL
REMARK 923 INTER-LIGAND FREE ENERGY PREDICTED BY IDOCK:  -11.62 KCAL/MOL
REMARK 924 INTRA-LIGAND FREE ENERGY PREDICTED BY IDOCK:   -2.24 KCAL/MOL
REMARK 927      BINDING AFFINITY PREDICTED BY RF-SCORE:    0.00 PKD
ROOT
HETATM    1  C   UNL     1     -11.420  14.706  69.199  1.00  0.00    -0.294 C  
HETATM    2  N   UNL     1     -10.824  14.747  67.874  1.00  0.00    -0.263 N  
HETATM    3  O   UNL     1     -10.206  16.078  66.081  1.00  0.00    -0.288 OA 
HETATM    4  C   UNL     1     -10.581  15.960  67.244  1.00  0.00    -0.314 C  
ENDROOT
BRANCH   2   5
HETATM    5  C   UNL     1     -10.702  13.501  67.120  1.00  0.00    -0.279 C  
BRANCH   5   6
HETATM    6  C   UNL     1     -12.060  12.869  66.783  1.00  0.00    -0.335 C  
BRANCH   6   7
HETATM    7  C   UNL     1     -12.536  13.285  65.386  1.00  0.00    -0.526 C  
BRANCH   7   8
HETATM    8  C   UNL     1     -12.411  12.139  64.374  1.00  0.00    -0.422 C  
BRANCH   8   9
HETATM    9  C   UNL     1     -11.369  12.460  63.298  1.00  0.00    -0.399 C  
BRANCH   9  10
HETATM   10  C   UNL     1     -10.274  11.391  63.234  1.00  0.00    -0.430 C  
BRANCH  10  11
HETATM   11  C   UNL     1      -9.980  10.743  64.591  1.00  0.00    -0.386 C  
BRANCH  11  12
HETATM   12  C   UNL     1      -9.008   9.569  64.497  1.00  0.00    -0.256 C  
BRANCH  12  13
HETATM   13  C   UNL     1      -7.574  10.002  64.792  1.00  0.00    -0.143 C  
BRANCH  13  14
HETATM   14  C   UNL     1      -6.871   8.951  65.638  1.00  0.00    -0.076 C  
BRANCH  14  15
HETATM   15  N   UNL     1      -6.923   9.276  67.055  1.00  0.00    -0.084 N  
HETATM   16  C   UNL     1      -7.808   8.601  67.876  1.00  0.00    -0.103 C  
HETATM   17  C   UNL     1      -6.006  10.276  67.586  1.00  0.00    -0.052 C  
HETATM   18  O   UNL     1      -8.627   7.778  67.482  1.00  0.00    -0.122 OA 
BRANCH  16  19
HETATM   19  O   UNL     1      -7.757   9.064  69.183  1.00  0.00    -0.088 OA 
BRANCH  19  20
HETATM   20  C   UNL     1      -9.005   9.453  69.681  1.00  0.00    -0.173 A  
HETATM   21  C   UNL     1      -9.550  10.631  69.184  1.00  0.00    -0.193 A  
HETATM   22  C   UNL     1     -10.840  10.978  69.570  1.00  0.00    -0.267 A  
HETATM   23  C   UNL     1     -11.567  10.161  70.441  1.00  0.00    -0.396 A  
HETATM   24  C   UNL     1     -11.015   8.975  70.956  1.00  0.00    -0.284 A  
HETATM   25  C   UNL     1      -9.736   8.613  70.533  1.00  0.00    -0.210 A  
BRANCH  24  26
HETATM   26  N   UNL     1     -11.811   8.042  71.855  1.00  0.00    -0.290 N  
HETATM   27  C   UNL     1     -13.103   8.703  72.324  1.00  0.00    -0.372 C  
HETATM   28  C   UNL     1     -11.007   7.685  73.112  1.00  0.00    -0.353 C  
HETATM   29  C   UNL     1     -12.125   6.785  71.056  1.00  0.00    -0.372 C  
ENDBRANCH  24  26
ENDBRANCH  19  20
ENDBRANCH  16  19
ENDBRANCH  14  15
ENDBRANCH  13  14
ENDBRANCH  12  13
ENDBRANCH  11  12
ENDBRANCH  10  11
ENDBRANCH   9  10
ENDBRANCH   8   9
ENDBRANCH   7   8
ENDBRANCH   6   7
ENDBRANCH   5   6
ENDBRANCH   2   5
BRANCH   4  30
HETATM   30  O   UNL     1     -10.883  17.056  68.058  1.00  0.00    -0.371 OA 
BRANCH  30  31
HETATM   31  C   UNL     1     -10.126  18.201  67.757  1.00  0.00    -0.362 A  
HETATM   32  C   UNL     1     -10.696  19.232  67.008  1.00  0.00    -0.565 A  
HETATM   33  C   UNL     1      -8.849  18.326  68.313  1.00  0.00    -0.301 A  
HETATM   34  C   UNL     1      -8.103  19.493  68.076  1.00  0.00    -0.312 A  
HETATM   35  C   UNL     1      -9.962  20.379  66.759  1.00  0.00    -0.525 A  
HETATM   36  C   UNL     1      -8.675  20.503  67.280  1.00  0.00    -0.387 A  
BRANCH  34  37
HETATM   37  N   UNL     1      -6.666  19.619  68.568  1.00  0.00    -0.287 N  
HETATM   38  C   UNL     1      -5.944  20.789  67.898  1.00  0.00    -0.294 C  
HETATM   39  C   UNL     1      -6.627  19.876  70.075  1.00  0.00    -0.266 C  
HETATM   40  C   UNL     1      -5.952  18.314  68.213  1.00  0.00    -0.175 C  
ENDBRANCH  34  37
ENDBRANCH  30  31
ENDBRANCH   4  30
TORSDOF 17
ENDMDL
MODEL       26
REMARK 921   NORMALIZED FREE ENERGY PREDICTED BY IDOCK:   -5.77 KCAL/MOL
REMARK 922        TOTAL FREE ENERGY PREDICTED BY IDOCK:  -13.73 KCAL/MOL
REMARK 923 INTER-LIGAND FREE ENERGY PREDICTED BY IDOCK:  -10.92 KCAL/MOL
REMARK 924 INTRA-LIGAND FREE ENERGY PREDICTED BY IDOCK:   -2.81 KCAL/MOL
REMARK 927      BINDING AFFINITY PREDICTED BY RF-SCORE:    0.00 PKD
ROOT
HETATM    1  C   UNL     1      -9.852  14.116  66.573  1.00  0.00    -0.290 C  
HETATM    2  N   UNL     1     -10.824  13.317  67.300  1.00  0.00    -0.262 N  
HETATM    3  O   UNL     1     -11.802  11.232  67.549  1.00  0.00    -0.613 OA 
HETATM    4  C   UNL     1     -10.927  11.951  67.077  1.00  0.00    -0.278 C  
ENDROOT
BRANCH   2   5
HETATM    5  C   UNL     1     -11.846  14.003  68.089  1.00  0.00    -0.367 C  
BRANCH   5   6
HETATM    6  C   UNL     1     -11.368  15.350  68.648  1.00  0.00    -0.337 C  
BRANCH   6   7
HETATM    7  C   UNL     1     -10.828  15.201  70.076  1.00  0.00    -0.275 C  
BRANCH   7   8
HETATM    8  C   UNL     1     -11.650  16.010  71.087  1.00  0.00    -0.492 C  
BRANCH   8   9
HETATM    9  C   UNL     1     -13.128  15.610  71.047  1.00  0.00    -0.487 C  
BRANCH   9  10
HETATM   10  C   UNL     1     -13.608  15.082  72.402  1.00  0.00    -0.565 C  
BRANCH  10  11
HETATM   11  C   UNL     1     -13.963  13.592  72.381  1.00  0.00    -0.638 C  
BRANCH  11  12
HETATM   12  C   UNL     1     -12.955  12.746  71.605  1.00  0.00    -0.402 C  
BRANCH  12  13
HETATM   13  C   UNL     1     -13.159  11.255  71.861  1.00  0.00    -0.510 C  
BRANCH  13  14
HETATM   14  C   UNL     1     -12.043  10.453  71.209  1.00  0.00    -0.362 C  
BRANCH  14  15
HETATM   15  N   UNL     1     -12.310   9.023  71.252  1.00  0.00    -0.310 N  
HETATM   16  C   UNL     1     -11.560   8.166  70.466  1.00  0.00    -0.127 C  
HETATM   17  C   UNL     1     -13.332   8.522  72.160  1.00  0.00    -0.351 C  
HETATM   18  O   UNL     1     -10.713   8.532  69.658  1.00  0.00    -0.229 OA 
BRANCH  16  19
HETATM   19  O   UNL     1     -11.975   6.849  70.597  1.00  0.00    -0.369 OA 
BRANCH  19  20
HETATM   20  C   UNL     1     -10.921   5.930  70.550  1.00  0.00    -0.292 A  
HETATM   21  C   UNL     1     -10.416   5.478  71.764  1.00  0.00    -0.287 A  
HETATM   22  C   UNL     1      -9.451   4.477  71.747  1.00  0.00    -0.206 A  
HETATM   23  C   UNL     1      -9.000   3.943  70.536  1.00  0.00    -0.160 A  
HETATM   24  C   UNL     1      -9.498   4.406  69.306  1.00  0.00    -0.179 A  
HETATM   25  C   UNL     1     -10.493   5.383  69.332  1.00  0.00    -0.331 A  
BRANCH  24  26
HETATM   26  N   UNL     1      -9.065   3.796  67.983  1.00  0.00    -0.131 N  
HETATM   27  C   UNL     1      -7.598   4.099  67.693  1.00  0.00    -0.069 C  
HETATM   28  C   UNL     1      -9.881   4.382  66.824  1.00  0.00    -0.218 C  
HETATM   29  C   UNL     1      -9.282   2.293  68.073  1.00  0.00    -0.201 C  
ENDBRANCH  24  26
ENDBRANCH  19  20
ENDBRANCH  16  19
ENDBRANCH  14  15
ENDBRANCH  13  14
ENDBRANCH  12  13
ENDBRANCH  11  12
ENDBRANCH  10  11
ENDBRANCH   9  10
ENDBRANCH   8   9
ENDBRANCH   7   8
ENDBRANCH   6   7
ENDBRANCH   5   6
ENDBRANCH   2   5
BRANCH   4  30
HETATM   30  O   UNL     1      -9.957  11.480  66.187  1.00  0.00    -0.210 OA 
BRANCH  30  31
HETATM   31  C   UNL     1      -9.390  10.254  66.575  1.00  0.00    -0.166 A  
HETATM   32  C   UNL     1      -9.671   9.097  65.846  1.00  0.00    -0.336 A  
HETATM   33  C   UNL     1      -8.465  10.246  67.623  1.00  0.00    -0.118 A  
HETATM   34  C   UNL     1      -7.839   9.040  67.984  1.00  0.00    -0.101 A  
HETATM   35  C   UNL     1      -9.069   7.904  66.203  1.00  0.00    -0.210 A  
HETATM   36  C   UNL     1      -8.169   7.875  67.267  1.00  0.00    -0.122 A  
BRANCH  34  37
HETATM   37  N   UNL     1      -6.913   8.968  69.193  1.00  0.00    -0.058 N  
HETATM   38  C   UNL     1      -7.209   7.738  70.053  1.00  0.00    -0.067 C  
HETATM   39  C   UNL     1      -5.452   8.863  68.754  1.00  0.00    -0.040 C  
HETATM   40  C   UNL     1      -7.151  10.233  70.019  1.00  0.00    -0.158 C  
ENDBRANCH  34  37
ENDBRANCH  30  31
ENDBRANCH   4  30
TORSDOF 17
ENDMDL
MODEL       27
REMARK 921   NORMALIZED FREE ENERGY PREDICTED BY IDOCK:   -5.76 KCAL/MOL
REMARK 922        TOTAL FREE ENERGY PREDICTED BY IDOCK:  -13.72 KCAL/MOL
REMARK 923 INTER-LIGAND FREE ENERGY PREDICTED BY IDOCK:  -11.84 KCAL/MOL
REMARK 924 INTRA-LIGAND FREE ENERGY PREDICTED BY IDOCK:   -1.89 KCAL/MOL
REMARK 927      BINDING AFFINITY PREDICTED BY RF-SCORE:    0.00 PKD
ROOT
HETATM    1  C   UNL     1     -11.705  14.454  67.554  1.00  0.00    -0.387 C  
HETATM    2  N   UNL     1     -11.205  14.955  66.286  1.00  0.00    -0.342 N  
HETATM    3  O   UNL     1     -10.593  16.823  65.059  1.00  0.00    -0.695 OA 
HETATM    4  C   UNL     1     -10.894  16.298  66.127  1.00  0.00    -0.105 C  
ENDROOT
BRANCH   2   5
HETATM    5  C   UNL     1     -11.257  14.080  65.116  1.00  0.00    -0.329 C  
BRANCH   5   6
HETATM    6  C   UNL     1     -12.439  13.102  65.151  1.00  0.00    -0.539 C  
BRANCH   6   7
HETATM    7  C   UNL     1     -12.290  12.007  64.088  1.00  0.00    -0.452 C  
BRANCH   7   8
HETATM    8  C   UNL     1     -10.943  12.097  63.360  1.00  0.00    -0.480 C  
BRANCH   8   9
HETATM    9  C   UNL     1     -10.162  10.783  63.471  1.00  0.00    -0.315 C  
BRANCH   9  10
HETATM   10  C   UNL     1      -9.248  10.770  64.699  1.00  0.00    -0.249 C  
BRANCH  10  11
HETATM   11  C   UNL     1      -9.397   9.506  65.551  1.00  0.00    -0.317 C  
BRANCH  11  12
HETATM   12  C   UNL     1     -10.513   9.608  66.588  1.00  0.00    -0.233 C  
BRANCH  12  13
HETATM   13  C   UNL     1     -10.386  10.877  67.427  1.00  0.00    -0.248 C  
BRANCH  13  14
HETATM   14  C   UNL     1     -11.195  10.744  68.708  1.00  0.00    -0.272 C  
BRANCH  14  15
HETATM   15  N   UNL     1     -10.406  10.173  69.789  1.00  0.00    -0.249 N  
HETATM   16  C   UNL     1     -11.048   9.591  70.866  1.00  0.00    -0.336 C  
HETATM   17  C   UNL     1      -8.953  10.188  69.687  1.00  0.00    -0.169 C  
HETATM   18  O   UNL     1     -12.264   9.581  71.024  1.00  0.00    -0.301 OA 
BRANCH  16  19
HETATM   19  O   UNL     1     -10.148   9.138  71.821  1.00  0.00    -0.329 OA 
BRANCH  19  20
HETATM   20  C   UNL     1     -10.198   7.754  72.014  1.00  0.00    -0.201 A  
HETATM   21  C   UNL     1     -10.981   7.286  73.063  1.00  0.00    -0.388 A  
HETATM   22  C   UNL     1     -11.145   5.912  73.205  1.00  0.00    -0.259 A  
HETATM   23  C   UNL     1     -10.530   5.026  72.314  1.00  0.00    -0.275 A  
HETATM   24  C   UNL     1      -9.727   5.495  71.260  1.00  0.00    -0.166 A  
HETATM   25  C   UNL     1      -9.600   6.874  71.101  1.00  0.00    -0.167 A  
BRANCH  24  26
HETATM   26  N   UNL     1      -9.101   4.551  70.246  1.00  0.00    -0.094 N  
HETATM   27  C   UNL     1      -9.840   4.610  68.912  1.00  0.00    -0.140 C  
HETATM   28  C   UNL     1      -9.178   3.100  70.737  1.00  0.00    -0.135 C  
HETATM   29  C   UNL     1      -7.649   4.968  70.060  1.00  0.00    -0.060 C  
ENDBRANCH  24  26
ENDBRANCH  19  20
ENDBRANCH  16  19
ENDBRANCH  14  15
ENDBRANCH  13  14
ENDBRANCH  12  13
ENDBRANCH  11  12
ENDBRANCH  10  11
ENDBRANCH   9  10
ENDBRANCH   8   9
ENDBRANCH   7   8
ENDBRANCH   6   7
ENDBRANCH   5   6
ENDBRANCH   2   5
BRANCH   4  30
HETATM   30  O   UNL     1     -11.030  17.023  67.315  1.00  0.00    -0.181 OA 
BRANCH  30  31
HETATM   31  C   UNL     1     -10.177  18.137  67.393  1.00  0.00    -0.372 A  
HETATM   32  C   UNL     1     -10.633  19.391  66.983  1.00  0.00    -0.586 A  
HETATM   33  C   UNL     1      -8.920  17.978  67.985  1.00  0.00    -0.274 A  
HETATM   34  C   UNL     1      -8.078  19.094  68.129  1.00  0.00    -0.316 A  
HETATM   35  C   UNL     1      -9.805  20.492  67.110  1.00  0.00    -0.567 A  
HETATM   36  C   UNL     1      -8.537  20.343  67.669  1.00  0.00    -0.302 A  
BRANCH  34  37
HETATM   37  N   UNL     1      -6.659  18.942  68.664  1.00  0.00    -0.255 N  
HETATM   38  C   UNL     1      -6.415  19.846  69.873  1.00  0.00    -0.337 C  
HETATM   39  C   UNL     1      -6.400  17.507  69.123  1.00  0.00    -0.235 C  
HETATM   40  C   UNL     1      -5.707  19.340  67.535  1.00  0.00    -0.179 C  
ENDBRANCH  34  37
ENDBRANCH  30  31
ENDBRANCH   4  30
TORSDOF 17
ENDMDL
MODEL       28
REMARK 921   NORMALIZED FREE ENERGY PREDICTED BY IDOCK:   -5.75 KCAL/MOL
REMARK 922        TOTAL FREE ENERGY PREDICTED BY IDOCK:  -13.69 KCAL/MOL
REMARK 923 INTER-LIGAND FREE ENERGY PREDICTED BY IDOCK:  -11.44 KCAL/MOL
REMARK 924 INTRA-LIGAND FREE ENERGY PREDICTED BY IDOCK:   -2.26 KCAL/MOL
REMARK 927      BINDING AFFINITY PREDICTED BY RF-SCORE:    0.00 PKD
ROOT
HETATM    1  C   UNL     1     -11.558  14.576  69.382  1.00  0.00    -0.303 C  
HETATM    2  N   UNL     1     -11.943  13.507  68.478  1.00  0.00    -0.363 N  
HETATM    3  O   UNL     1     -12.061  11.217  68.142  1.00  0.00    -0.635 OA 
HETATM    4  C   UNL     1     -11.880  12.180  68.882  1.00  0.00    -0.304 C  
ENDROOT
BRANCH   2   5
HETATM    5  C   UNL     1     -12.169  13.826  67.069  1.00  0.00    -0.340 C  
BRANCH   5   6
HETATM    6  C   UNL     1     -11.199  14.887  66.532  1.00  0.00    -0.335 C  
BRANCH   6   7
HETATM    7  C   UNL     1     -11.207  14.924  64.999  1.00  0.00    -0.408 C  
BRANCH   7   8
HETATM    8  C   UNL     1     -12.396  14.152  64.413  1.00  0.00    -0.410 C  
BRANCH   8   9
HETATM    9  C   UNL     1     -11.937  13.139  63.360  1.00  0.00    -0.552 C  
BRANCH   9  10
HETATM   10  C   UNL     1     -11.875  11.719  63.929  1.00  0.00    -0.449 C  
BRANCH  10  11
HETATM   11  C   UNL     1     -10.584  11.433  64.702  1.00  0.00    -0.380 C  
BRANCH  11  12
HETATM   12  C   UNL     1      -9.599  10.562  63.924  1.00  0.00    -0.363 C  
BRANCH  12  13
HETATM   13  C   UNL     1      -8.760   9.693  64.858  1.00  0.00    -0.207 C  
BRANCH  13  14
HETATM   14  C   UNL     1      -8.745  10.288  66.257  1.00  0.00    -0.146 C  
BRANCH  14  15
HETATM   15  N   UNL     1      -7.586  11.144  66.467  1.00  0.00    -0.146 N  
HETATM   16  C   UNL     1      -7.706  12.268  67.264  1.00  0.00    -0.161 C  
HETATM   17  C   UNL     1      -6.313  10.769  65.869  1.00  0.00    -0.109 C  
HETATM   18  O   UNL     1      -8.757  12.653  67.763  1.00  0.00    -0.159 OA 
BRANCH  16  19
HETATM   19  O   UNL     1      -6.523  12.990  67.320  1.00  0.00    -0.212 OA 
BRANCH  19  20
HETATM   20  C   UNL     1      -6.628  14.166  68.070  1.00  0.00    -0.151 A  
HETATM   21  C   UNL     1      -6.145  14.134  69.373  1.00  0.00    -0.104 A  
HETATM   22  C   UNL     1      -6.127  15.319  70.101  1.00  0.00    -0.141 A  
HETATM   23  C   UNL     1      -6.587  16.511  69.532  1.00  0.00    -0.217 A  
HETATM   24  C   UNL     1      -7.088  16.545  68.219  1.00  0.00    -0.151 A  
HETATM   25  C   UNL     1      -7.067  15.361  67.483  1.00  0.00    -0.221 A  
BRANCH  24  26
HETATM   26  N   UNL     1      -7.535  17.841  67.563  1.00  0.00    -0.201 N  
HETATM   27  C   UNL     1      -8.238  18.750  68.566  1.00  0.00    -0.346 C  
HETATM   28  C   UNL     1      -8.537  17.559  66.435  1.00  0.00    -0.240 C  
HETATM   29  C   UNL     1      -6.297  18.531  67.008  1.00  0.00    -0.178 C  
ENDBRANCH  24  26
ENDBRANCH  19  20
ENDBRANCH  16  19
ENDBRANCH  14  15
ENDBRANCH  13  14
ENDBRANCH  12  13
ENDBRANCH  11  12
ENDBRANCH  10  11
ENDBRANCH   9  10
ENDBRANCH   8   9
ENDBRANCH   7   8
ENDBRANCH   6   7
ENDBRANCH   5   6
ENDBRANCH   2   5
BRANCH   4  30
HETATM   30  O   UNL     1     -11.513  12.047  70.224  1.00  0.00    -0.144 OA 
BRANCH  30  31
HETATM   31  C   UNL     1     -11.811  10.783  70.763  1.00  0.00    -0.339 A  
HETATM   32  C   UNL     1     -12.957  10.614  71.543  1.00  0.00    -0.566 A  
HETATM   33  C   UNL     1     -11.004   9.697  70.411  1.00  0.00    -0.356 A  
HETATM   34  C   UNL     1     -11.323   8.415  70.890  1.00  0.00    -0.268 A  
HETATM   35  C   UNL     1     -13.271   9.357  72.028  1.00  0.00    -0.529 A  
HETATM   36  C   UNL     1     -12.457   8.270  71.712  1.00  0.00    -0.367 A  
BRANCH  34  37
HETATM   37  N   UNL     1     -10.406   7.227  70.623  1.00  0.00    -0.203 N  
HETATM   38  C   UNL     1      -9.173   7.641  69.818  1.00  0.00    -0.147 C  
HETATM   39  C   UNL     1      -9.900   6.625  71.934  1.00  0.00    -0.166 C  
HETATM   40  C   UNL     1     -11.214   6.205  69.822  1.00  0.00    -0.423 C  
ENDBRANCH  34  37
ENDBRANCH  30  31
ENDBRANCH   4  30
TORSDOF 17
ENDMDL
MODEL       29
REMARK 921   NORMALIZED FREE ENERGY PREDICTED BY IDOCK:   -5.72 KCAL/MOL
REMARK 922        TOTAL FREE ENERGY PREDICTED BY IDOCK:  -13.63 KCAL/MOL
REMARK 923 INTER-LIGAND FREE ENERGY PREDICTED BY IDOCK:  -11.06 KCAL/MOL
REMARK 924 INTRA-LIGAND FREE ENERGY PREDICTED BY IDOCK:   -2.57 KCAL/MOL
REMARK 927      BINDING AFFINITY PREDICTED BY RF-SCORE:    0.00 PKD
ROOT
HETATM    1  C   UNL     1     -13.701   9.041  72.159  1.00  0.00    -0.480 C  
HETATM    2  N   UNL     1     -12.273   9.086  71.897  1.00  0.00    -0.358 N  
HETATM    3  O   UNL     1     -10.587   9.933  70.553  1.00  0.00    -0.285 OA 
HETATM    4  C   UNL     1     -11.757   9.931  70.924  1.00  0.00    -0.364 C  
ENDROOT
BRANCH   2   5
HETATM    5  C   UNL     1     -11.417   8.067  72.501  1.00  0.00    -0.409 C  
BRANCH   5   6
HETATM    6  C   UNL     1     -11.465   6.726  71.755  1.00  0.00    -0.320 C  
BRANCH   6   7
HETATM    7  C   UNL     1     -11.606   5.550  72.730  1.00  0.00    -0.298 C  
BRANCH   7   8
HETATM    8  C   UNL     1     -10.250   5.102  73.288  1.00  0.00    -0.217 C  
BRANCH   8   9
HETATM    9  C   UNL     1      -9.974   3.631  72.964  1.00  0.00    -0.204 C  
BRANCH   9  10
HETATM   10  C   UNL     1      -8.998   3.483  71.793  1.00  0.00    -0.154 C  
BRANCH  10  11
HETATM   11  C   UNL     1      -9.477   2.492  70.727  1.00  0.00    -0.210 C  
BRANCH  11  12
HETATM   12  C   UNL     1      -9.402   3.053  69.309  1.00  0.00    -0.217 C  
BRANCH  12  13
HETATM   13  C   UNL     1      -9.629   4.562  69.290  1.00  0.00    -0.258 C  
BRANCH  13  14
HETATM   14  C   UNL     1      -9.249   5.134  67.932  1.00  0.00    -0.115 C  
BRANCH  14  15
HETATM   15  N   UNL     1      -8.949   6.556  68.010  1.00  0.00    -0.117 N  
HETATM   16  C   UNL     1      -9.883   7.474  67.566  1.00  0.00    -0.162 C  
HETATM   17  C   UNL     1      -7.686   6.981  68.597  1.00  0.00    -0.120 C  
HETATM   18  O   UNL     1     -10.945   7.176  67.030  1.00  0.00    -0.369 OA 
BRANCH  16  19
HETATM   19  O   UNL     1      -9.419   8.777  67.672  1.00  0.00    -0.138 OA 
BRANCH  19  20
HETATM   20  C   UNL     1      -9.436   9.470  66.457  1.00  0.00    -0.182 A  
HETATM   21  C   UNL     1      -8.680   8.947  65.415  1.00  0.00    -0.224 A  
HETATM   22  C   UNL     1      -8.773   9.547  64.164  1.00  0.00    -0.239 A  
HETATM   23  C   UNL     1      -9.607  10.653  63.964  1.00  0.00    -0.351 A  
HETATM   24  C   UNL     1     -10.363  11.192  65.019  1.00  0.00    -0.301 A  
HETATM   25  C   UNL     1     -10.294  10.562  66.261  1.00  0.00    -0.276 A  
BRANCH  24  26
HETATM   26  N   UNL     1     -11.320  12.355  64.808  1.00  0.00    -0.305 N  
HETATM   27  C   UNL     1     -12.256  12.519  66.001  1.00  0.00    -0.190 C  
HETATM   28  C   UNL     1     -12.202  12.114  63.576  1.00  0.00    -0.567 C  
HETATM   29  C   UNL     1     -10.485  13.613  64.620  1.00  0.00    -0.423 C  
ENDBRANCH  24  26
ENDBRANCH  19  20
ENDBRANCH  16  19
ENDBRANCH  14  15
ENDBRANCH  13  14
ENDBRANCH  12  13
ENDBRANCH  11  12
ENDBRANCH  10  11
ENDBRANCH   9  10
ENDBRANCH   8   9
ENDBRANCH   7   8
ENDBRANCH   6   7
ENDBRANCH   5   6
ENDBRANCH   2   5
BRANCH   4  30
HETATM   30  O   UNL     1     -12.737  10.744  70.347  1.00  0.00    -0.327 OA 
BRANCH  30  31
HETATM   31  C   UNL     1     -12.519  12.116  70.556  1.00  0.00    -0.198 A  
HETATM   32  C   UNL     1     -13.032  12.735  71.697  1.00  0.00    -0.402 A  
HETATM   33  C   UNL     1     -11.696  12.808  69.662  1.00  0.00    -0.372 A  
HETATM   34  C   UNL     1     -11.416  14.167  69.890  1.00  0.00    -0.226 A  
HETATM   35  C   UNL     1     -12.771  14.075  71.922  1.00  0.00    -0.388 A  
HETATM   36  C   UNL     1     -11.979  14.785  71.022  1.00  0.00    -0.389 A  
BRANCH  34  37
HETATM   37  N   UNL     1     -10.618  14.983  68.879  1.00  0.00    -0.234 N  
HETATM   38  C   UNL     1      -9.740  16.027  69.571  1.00  0.00    -0.216 C  
HETATM   39  C   UNL     1      -9.686  14.085  68.068  1.00  0.00    -0.221 C  
HETATM   40  C   UNL     1     -11.628  15.691  67.975  1.00  0.00    -0.239 C  
ENDBRANCH  34  37
ENDBRANCH  30  31
ENDBRANCH   4  30
TORSDOF 17
ENDMDL
MODEL       30
REMARK 921   NORMALIZED FREE ENERGY PREDICTED BY IDOCK:   -5.71 KCAL/MOL
REMARK 922        TOTAL FREE ENERGY PREDICTED BY IDOCK:  -13.63 KCAL/MOL
REMARK 923 INTER-LIGAND FREE ENERGY PREDICTED BY IDOCK:  -11.35 KCAL/MOL
REMARK 924 INTRA-LIGAND FREE ENERGY PREDICTED BY IDOCK:   -2.27 KCAL/MOL
REMARK 927      BINDING AFFINITY PREDICTED BY RF-SCORE:    0.00 PKD
ROOT
HETATM    1  C   UNL     1      -7.326  10.672  67.038  1.00  0.00    -0.102 C  
HETATM    2  N   UNL     1      -8.521   9.903  67.339  1.00  0.00    -0.118 N  
HETATM    3  O   UNL     1     -10.753   9.537  66.837  1.00  0.00    -0.207 OA 
HETATM    4  C   UNL     1      -9.669  10.047  66.572  1.00  0.00    -0.200 C  
ENDROOT
BRANCH   2   5
HETATM    5  C   UNL     1      -8.578   9.157  68.595  1.00  0.00    -0.128 C  
BRANCH   5   6
HETATM    6  C   UNL     1      -8.090   7.709  68.454  1.00  0.00    -0.124 C  
BRANCH   6   7
HETATM    7  C   UNL     1      -8.515   6.858  69.656  1.00  0.00    -0.133 C  
BRANCH   7   8
HETATM    8  C   UNL     1      -8.409   5.356  69.361  1.00  0.00    -0.096 C  
BRANCH   8   9
HETATM    9  C   UNL     1      -7.971   4.575  70.604  1.00  0.00    -0.061 C  
BRANCH   9  10
HETATM   10  C   UNL     1      -9.170   3.995  71.360  1.00  0.00    -0.193 C  
BRANCH  10  11
HETATM   11  C   UNL     1      -9.650   4.886  72.510  1.00  0.00    -0.176 C  
BRANCH  11  12
HETATM   12  C   UNL     1     -10.994   4.447  73.089  1.00  0.00    -0.332 C  
BRANCH  12  13
HETATM   13  C   UNL     1     -12.091   5.467  72.795  1.00  0.00     0.007 C  
BRANCH  13  14
HETATM   14  C   UNL     1     -11.587   6.513  71.813  1.00  0.00    -0.312 C  
BRANCH  14  15
HETATM   15  N   UNL     1     -12.496   7.646  71.717  1.00  0.00    -0.319 N  
HETATM   16  C   UNL     1     -11.982   8.929  71.670  1.00  0.00    -0.345 C  
HETATM   17  C   UNL     1     -13.928   7.398  71.626  1.00  0.00    -0.403 C  
HETATM   18  O   UNL     1     -10.791   9.202  71.779  1.00  0.00    -0.351 OA 
BRANCH  16  19
HETATM   19  O   UNL     1     -12.985   9.886  71.624  1.00  0.00    -0.367 OA 
BRANCH  19  20
HETATM   20  C   UNL     1     -12.576  11.087  71.034  1.00  0.00    -0.411 A  
HETATM   21  C   UNL     1     -12.061  11.019  69.745  1.00  0.00    -0.424 A  
HETATM   22  C   UNL     1     -11.759  12.208  69.089  1.00  0.00    -0.384 A  
HETATM   23  C   UNL     1     -11.967  13.441  69.718  1.00  0.00    -0.396 A  
HETATM   24  C   UNL     1     -12.475  13.513  71.026  1.00  0.00    -0.369 A  
HETATM   25  C   UNL     1     -12.812  12.318  71.662  1.00  0.00    -0.378 A  
BRANCH  24  26
HETATM   26  N   UNL     1     -12.764  14.843  71.704  1.00  0.00    -0.310 N  
HETATM   27  C   UNL     1     -11.892  15.953  71.127  1.00  0.00    -0.438 C  
HETATM   28  C   UNL     1     -12.457  14.764  73.205  1.00  0.00    -0.373 C  
HETATM   29  C   UNL     1     -14.236  15.164  71.484  1.00  0.00    -0.549 C  
ENDBRANCH  24  26
ENDBRANCH  19  20
ENDBRANCH  16  19
ENDBRANCH  14  15
ENDBRANCH  13  14
ENDBRANCH  12  13
ENDBRANCH  11  12
ENDBRANCH  10  11
ENDBRANCH   9  10
ENDBRANCH   8   9
ENDBRANCH   7   8
ENDBRANCH   6   7
ENDBRANCH   5   6
ENDBRANCH   2   5
BRANCH   4  30
HETATM   30  O   UNL     1      -9.481  10.906  65.485  1.00  0.00    -0.191 OA 
BRANCH  30  31
HETATM   31  C   UNL     1     -10.322  12.033  65.510  1.00  0.00    -0.263 A  
HETATM   32  C   UNL     1     -11.654  11.913  65.111  1.00  0.00    -0.278 A  
HETATM   33  C   UNL     1      -9.825  13.227  66.040  1.00  0.00    -0.271 A  
HETATM   34  C   UNL     1     -10.670  14.347  66.131  1.00  0.00    -0.304 A  
HETATM   35  C   UNL     1     -12.489  13.014  65.187  1.00  0.00    -0.552 A  
HETATM   36  C   UNL     1     -11.999  14.221  65.683  1.00  0.00    -0.390 A  
BRANCH  34  37
HETATM   37  N   UNL     1     -10.136  15.697  66.596  1.00  0.00    -0.264 N  
HETATM   38  C   UNL     1     -10.830  16.163  67.877  1.00  0.00    -0.332 C  
HETATM   39  C   UNL     1      -8.642  15.614  66.906  1.00  0.00    -0.248 C  
HETATM   40  C   UNL     1     -10.413  16.701  65.476  1.00  0.00    -0.267 C  
ENDBRANCH  34  37
ENDBRANCH  30  31
ENDBRANCH   4  30
TORSDOF 17
ENDMDL
MODEL       31
REMARK 921   NORMALIZED FREE ENERGY PREDICTED BY IDOCK:   -5.69 KCAL/MOL
REMARK 922        TOTAL FREE ENERGY PREDICTED BY IDOCK:  -13.58 KCAL/MOL
REMARK 923 INTER-LIGAND FREE ENERGY PREDICTED BY IDOCK:  -11.69 KCAL/MOL
REMARK 924 INTRA-LIGAND FREE ENERGY PREDICTED BY IDOCK:   -1.90 KCAL/MOL
REMARK 927      BINDING AFFINITY PREDICTED BY RF-SCORE:    0.00 PKD
ROOT
HETATM    1  C   UNL     1     -11.047  14.508  69.092  1.00  0.00    -0.263 C  
HETATM    2  N   UNL     1     -10.691  14.604  67.687  1.00  0.00    -0.267 N  
HETATM    3  O   UNL     1     -10.551  15.975  65.825  1.00  0.00    -0.343 OA 
HETATM    4  C   UNL     1     -10.709  15.828  67.033  1.00  0.00    -0.306 C  
ENDROOT
BRANCH   2   5
HETATM    5  C   UNL     1     -10.543  13.372  66.915  1.00  0.00    -0.273 C  
BRANCH   5   6
HETATM    6  C   UNL     1     -11.883  12.681  66.626  1.00  0.00    -0.449 C  
BRANCH   6   7
HETATM    7  C   UNL     1     -12.195  12.674  65.125  1.00  0.00    -0.539 C  
BRANCH   7   8
HETATM    8  C   UNL     1     -10.919  12.726  64.275  1.00  0.00    -0.414 C  
BRANCH   8   9
HETATM    9  C   UNL     1     -10.771  11.465  63.417  1.00  0.00    -0.405 C  
BRANCH   9  10
HETATM   10  C   UNL     1      -9.423  10.778  63.650  1.00  0.00    -0.325 C  
BRANCH  10  11
HETATM   11  C   UNL     1      -9.106  10.551  65.132  1.00  0.00    -0.227 C  
BRANCH  11  12
HETATM   12  C   UNL     1      -9.898   9.398  65.746  1.00  0.00    -0.345 C  
BRANCH  12  13
HETATM   13  C   UNL     1      -9.029   8.553  66.674  1.00  0.00    -0.178 C  
BRANCH  13  14
HETATM   14  C   UNL     1      -8.671   7.236  66.003  1.00  0.00    -0.151 C  
BRANCH  14  15
HETATM   15  N   UNL     1      -9.246   6.098  66.706  1.00  0.00    -0.131 N  
HETATM   16  C   UNL     1      -8.612   5.603  67.831  1.00  0.00    -0.101 C  
HETATM   17  C   UNL     1     -10.503   5.537  66.234  1.00  0.00    -0.174 C  
HETATM   18  O   UNL     1      -7.535   6.009  68.255  1.00  0.00    -0.083 OA 
BRANCH  16  19
HETATM   19  O   UNL     1      -9.268   4.495  68.348  1.00  0.00    -0.117 OA 
BRANCH  19  20
HETATM   20  C   UNL     1      -9.823   4.722  69.612  1.00  0.00    -0.221 A  
HETATM   21  C   UNL     1      -9.548   3.789  70.605  1.00  0.00    -0.259 A  
HETATM   22  C   UNL     1      -9.986   4.050  71.898  1.00  0.00    -0.246 A  
HETATM   23  C   UNL     1     -10.690   5.223  72.189  1.00  0.00    -0.271 A  
HETATM   24  C   UNL     1     -10.981   6.164  71.186  1.00  0.00    -0.284 A  
HETATM   25  C   UNL     1     -10.505   5.914  69.899  1.00  0.00    -0.337 A  
BRANCH  24  26
HETATM   26  N   UNL     1     -11.691   7.473  71.493  1.00  0.00    -0.270 N  
HETATM   27  C   UNL     1     -13.204   7.284  71.516  1.00  0.00    -0.379 C  
HETATM   28  C   UNL     1     -11.386   8.520  70.414  1.00  0.00    -0.182 C  
HETATM   29  C   UNL     1     -11.201   7.957  72.850  1.00  0.00    -0.366 C  
ENDBRANCH  24  26
ENDBRANCH  19  20
ENDBRANCH  16  19
ENDBRANCH  14  15
ENDBRANCH  13  14
ENDBRANCH  12  13
ENDBRANCH  11  12
ENDBRANCH  10  11
ENDBRANCH   9  10
ENDBRANCH   8   9
ENDBRANCH   7   8
ENDBRANCH   6   7
ENDBRANCH   5   6
ENDBRANCH   2   5
BRANCH   4  30
HETATM   30  O   UNL     1     -11.004  16.890  67.893  1.00  0.00    -0.342 OA 
BRANCH  30  31
HETATM   31  C   UNL     1     -10.185  18.015  67.696  1.00  0.00    -0.368 A  
HETATM   32  C   UNL     1     -10.737  19.197  67.199  1.00  0.00    -0.567 A  
HETATM   33  C   UNL     1      -8.850  17.952  68.107  1.00  0.00    -0.265 A  
HETATM   34  C   UNL     1      -8.032  19.088  67.975  1.00  0.00    -0.289 A  
HETATM   35  C   UNL     1      -9.936  20.315  67.055  1.00  0.00    -0.601 A  
HETATM   36  C   UNL     1      -8.594  20.258  67.431  1.00  0.00    -0.420 A  
BRANCH  34  37
HETATM   37  N   UNL     1      -6.545  19.027  68.305  1.00  0.00    -0.238 N  
HETATM   38  C   UNL     1      -5.687  19.384  67.091  1.00  0.00    -0.174 C  
HETATM   39  C   UNL     1      -6.191  20.023  69.409  1.00  0.00    -0.330 C  
HETATM   40  C   UNL     1      -6.239  17.592  68.738  1.00  0.00    -0.188 C  
ENDBRANCH  34  37
ENDBRANCH  30  31
ENDBRANCH   4  30
TORSDOF 17
ENDMDL
MODEL       32
REMARK 921   NORMALIZED FREE ENERGY PREDICTED BY IDOCK:   -5.63 KCAL/MOL
REMARK 922        TOTAL FREE ENERGY PREDICTED BY IDOCK:  -13.47 KCAL/MOL
REMARK 923 INTER-LIGAND FREE ENERGY PREDICTED BY IDOCK:  -11.61 KCAL/MOL
REMARK 924 INTRA-LIGAND FREE ENERGY PREDICTED BY IDOCK:   -1.86 KCAL/MOL
REMARK 927      BINDING AFFINITY PREDICTED BY RF-SCORE:    0.00 PKD
ROOT
HETATM    1  C   UNL     1      -9.831   6.737  67.227  1.00  0.00    -0.145 C  
HETATM    2  N   UNL     1      -8.715   7.615  67.533  1.00  0.00    -0.125 N  
HETATM    3  O   UNL     1      -6.987   8.902  66.681  1.00  0.00    -0.078 OA 
HETATM    4  C   UNL     1      -8.016   8.254  66.518  1.00  0.00    -0.100 C  
ENDROOT
BRANCH   2   5
HETATM    5  C   UNL     1      -8.189   7.632  68.897  1.00  0.00    -0.128 C  
BRANCH   5   6
HETATM    6  C   UNL     1      -9.056   8.449  69.864  1.00  0.00    -0.146 C  
BRANCH   6   7
HETATM    7  C   UNL     1      -9.486   7.610  71.073  1.00  0.00    -0.164 C  
BRANCH   7   8
HETATM    8  C   UNL     1     -11.005   7.645  71.284  1.00  0.00    -0.260 C  
BRANCH   8   9
HETATM    9  C   UNL     1     -11.572   9.041  71.012  1.00  0.00    -0.360 C  
BRANCH   9  10
HETATM   10  C   UNL     1     -12.630   9.433  72.047  1.00  0.00    -0.462 C  
BRANCH  10  11
HETATM   11  C   UNL     1     -13.100  10.886  71.913  1.00  0.00    -0.537 C  
BRANCH  11  12
HETATM   12  C   UNL     1     -12.304  11.681  70.880  1.00  0.00    -0.436 C  
BRANCH  12  13
HETATM   13  C   UNL     1     -12.508  13.184  71.050  1.00  0.00    -0.406 C  
BRANCH  13  14
HETATM   14  C   UNL     1     -12.282  13.898  69.726  1.00  0.00    -0.332 C  
BRANCH  14  15
HETATM   15  N   UNL     1     -11.738  15.235  69.920  1.00  0.00    -0.299 N  
HETATM   16  C   UNL     1     -11.175  15.902  68.848  1.00  0.00    -0.343 C  
HETATM   17  C   UNL     1     -11.843  15.857  71.232  1.00  0.00    -0.449 C  
HETATM   18  O   UNL     1     -11.026  15.417  67.731  1.00  0.00    -0.294 OA 
BRANCH  16  19
HETATM   19  O   UNL     1     -10.670  17.140  69.217  1.00  0.00    -0.300 OA 
BRANCH  19  20
HETATM   20  C   UNL     1     -10.031  17.812  68.169  1.00  0.00    -0.342 A  
HETATM   21  C   UNL     1     -10.783  18.740  67.458  1.00  0.00    -0.474 A  
HETATM   22  C   UNL     1     -10.143  19.508  66.491  1.00  0.00    -0.539 A  
HETATM   23  C   UNL     1      -8.776  19.344  66.241  1.00  0.00    -0.364 A  
HETATM   24  C   UNL     1      -8.016  18.398  66.950  1.00  0.00    -0.236 A  
HETATM   25  C   UNL     1      -8.656  17.659  67.944  1.00  0.00    -0.238 A  
BRANCH  24  26
HETATM   26  N   UNL     1      -6.518  18.248  66.736  1.00  0.00    -0.176 N  
HETATM   27  C   UNL     1      -5.733  19.059  67.761  1.00  0.00    -0.190 C  
HETATM   28  C   UNL     1      -6.115  18.766  65.349  1.00  0.00    -0.263 C  
HETATM   29  C   UNL     1      -6.178  16.770  66.865  1.00  0.00    -0.187 C  
ENDBRANCH  24  26
ENDBRANCH  19  20
ENDBRANCH  16  19
ENDBRANCH  14  15
ENDBRANCH  13  14
ENDBRANCH  12  13
ENDBRANCH  11  12
ENDBRANCH  10  11
ENDBRANCH   9  10
ENDBRANCH   8   9
ENDBRANCH   7   8
ENDBRANCH   6   7
ENDBRANCH   5   6
ENDBRANCH   2   5
BRANCH   4  30
HETATM   30  O   UNL     1      -8.573   8.020  65.257  1.00  0.00    -0.153 OA 
BRANCH  30  31
HETATM   31  C   UNL     1      -8.821   9.196  64.528  1.00  0.00    -0.125 A  
HETATM   32  C   UNL     1      -8.195   9.394  63.296  1.00  0.00    -0.166 A  
HETATM   33  C   UNL     1      -9.780  10.092  65.009  1.00  0.00    -0.384 A  
HETATM   34  C   UNL     1     -10.088  11.242  64.262  1.00  0.00    -0.313 A  
HETATM   35  C   UNL     1      -8.484  10.530  62.561  1.00  0.00    -0.233 A  
HETATM   36  C   UNL     1      -9.414  11.449  63.044  1.00  0.00    -0.380 A  
BRANCH  34  37
HETATM   37  N   UNL     1     -11.042  12.299  64.806  1.00  0.00    -0.302 N  
HETATM   38  C   UNL     1     -10.506  13.712  64.572  1.00  0.00    -0.390 C  
HETATM   39  C   UNL     1     -12.400  12.218  64.108  1.00  0.00    -0.451 C  
HETATM   40  C   UNL     1     -11.179  12.052  66.309  1.00  0.00    -0.342 C  
ENDBRANCH  34  37
ENDBRANCH  30  31
ENDBRANCH   4  30
TORSDOF 17
ENDMDL
MODEL       33
REMARK 921   NORMALIZED FREE ENERGY PREDICTED BY IDOCK:   -5.60 KCAL/MOL
REMARK 922        TOTAL FREE ENERGY PREDICTED BY IDOCK:  -13.39 KCAL/MOL
REMARK 923 INTER-LIGAND FREE ENERGY PREDICTED BY IDOCK:  -10.79 KCAL/MOL
REMARK 924 INTRA-LIGAND FREE ENERGY PREDICTED BY IDOCK:   -2.60 KCAL/MOL
REMARK 927      BINDING AFFINITY PREDICTED BY RF-SCORE:    0.00 PKD
ROOT
HETATM    1  C   UNL     1      -6.254   8.670  66.997  1.00  0.00    -0.056 C  
HETATM    2  N   UNL     1      -7.197   9.762  67.166  1.00  0.00    -0.086 N  
HETATM    3  O   UNL     1      -9.058  10.541  68.305  1.00  0.00    -0.137 OA 
HETATM    4  C   UNL     1      -8.147   9.728  68.177  1.00  0.00    -0.108 C  
ENDROOT
BRANCH   2   5
HETATM    5  C   UNL     1      -7.287  10.780  66.121  1.00  0.00    -0.127 C  
BRANCH   5   6
HETATM    6  C   UNL     1      -7.390  10.183  64.710  1.00  0.00    -0.134 C  
BRANCH   6   7
HETATM    7  C   UNL     1      -8.716   9.438  64.516  1.00  0.00    -0.233 C  
BRANCH   7   8
HETATM    8  C   UNL     1      -9.921  10.304  64.904  1.00  0.00    -0.393 C  
BRANCH   8   9
HETATM    9  C   UNL     1     -10.528  10.994  63.678  1.00  0.00    -0.388 C  
BRANCH   9  10
HETATM   10  C   UNL     1     -10.475  12.519  63.803  1.00  0.00    -0.451 C  
BRANCH  10  11
HETATM   11  C   UNL     1     -11.854  13.182  63.720  1.00  0.00    -0.546 C  
BRANCH  11  12
HETATM   12  C   UNL     1     -12.723  12.917  64.948  1.00  0.00    -0.474 C  
BRANCH  12  13
HETATM   13  C   UNL     1     -12.258  13.735  66.150  1.00  0.00    -0.499 C  
BRANCH  13  14
HETATM   14  C   UNL     1     -11.762  12.812  67.253  1.00  0.00    -0.378 C  
BRANCH  14  15
HETATM   15  N   UNL     1     -11.146  13.555  68.343  1.00  0.00    -0.259 N  
HETATM   16  C   UNL     1      -9.824  13.947  68.237  1.00  0.00    -0.231 C  
HETATM   17  C   UNL     1     -11.953  13.909  69.502  1.00  0.00    -0.343 C  
HETATM   18  O   UNL     1      -9.086  13.648  67.305  1.00  0.00    -0.208 OA 
BRANCH  16  19
HETATM   19  O   UNL     1      -9.387  14.605  69.378  1.00  0.00    -0.048 OA 
BRANCH  19  20
HETATM   20  C   UNL     1      -8.701  15.793  69.104  1.00  0.00    -0.253 A  
HETATM   21  C   UNL     1      -7.333  15.808  69.349  1.00  0.00    -0.217 A  
HETATM   22  C   UNL     1      -6.607  16.933  68.974  1.00  0.00    -0.209 A  
HETATM   23  C   UNL     1      -7.242  18.022  68.368  1.00  0.00    -0.255 A  
HETATM   24  C   UNL     1      -8.627  18.015  68.129  1.00  0.00    -0.273 A  
HETATM   25  C   UNL     1      -9.343  16.868  68.473  1.00  0.00    -0.259 A  
BRANCH  24  26
HETATM   26  N   UNL     1      -9.326  19.162  67.417  1.00  0.00    -0.301 N  
HETATM   27  C   UNL     1     -10.155  18.655  66.242  1.00  0.00    -0.400 C  
HETATM   28  C   UNL     1      -8.300  20.151  66.848  1.00  0.00    -0.315 C  
HETATM   29  C   UNL     1     -10.223  19.858  68.430  1.00  0.00    -0.433 C  
ENDBRANCH  24  26
ENDBRANCH  19  20
ENDBRANCH  16  19
ENDBRANCH  14  15
ENDBRANCH  13  14
ENDBRANCH  12  13
ENDBRANCH  11  12
ENDBRANCH  10  11
ENDBRANCH   9  10
ENDBRANCH   8   9
ENDBRANCH   7   8
ENDBRANCH   6   7
ENDBRANCH   5   6
ENDBRANCH   2   5
BRANCH   4  30
HETATM   30  O   UNL     1      -8.005   8.612  69.007  1.00  0.00    -0.110 OA 
BRANCH  30  31
HETATM   31  C   UNL     1      -9.179   7.849  69.127  1.00  0.00    -0.144 A  
HETATM   32  C   UNL     1      -9.632   7.098  68.041  1.00  0.00    -0.140 A  
HETATM   33  C   UNL     1      -9.808   7.777  70.373  1.00  0.00    -0.183 A  
HETATM   34  C   UNL     1     -10.947   6.968  70.527  1.00  0.00    -0.265 A  
HETATM   35  C   UNL     1     -10.760   6.310  68.181  1.00  0.00    -0.364 A  
HETATM   36  C   UNL     1     -11.416   6.253  69.409  1.00  0.00    -0.348 A  
BRANCH  34  37
HETATM   37  N   UNL     1     -11.726   6.952  71.837  1.00  0.00    -0.285 N  
HETATM   38  C   UNL     1     -11.443   5.683  72.642  1.00  0.00    -0.285 C  
HETATM   39  C   UNL     1     -11.332   8.136  72.721  1.00  0.00    -0.336 C  
HETATM   40  C   UNL     1     -13.212   7.003  71.478  1.00  0.00    -0.317 C  
ENDBRANCH  34  37
ENDBRANCH  30  31
ENDBRANCH   4  30
TORSDOF 17
ENDMDL
MODEL       34
REMARK 921   NORMALIZED FREE ENERGY PREDICTED BY IDOCK:   -5.59 KCAL/MOL
REMARK 922        TOTAL FREE ENERGY PREDICTED BY IDOCK:  -13.37 KCAL/MOL
REMARK 923 INTER-LIGAND FREE ENERGY PREDICTED BY IDOCK:  -11.26 KCAL/MOL
REMARK 924 INTRA-LIGAND FREE ENERGY PREDICTED BY IDOCK:   -2.11 KCAL/MOL
REMARK 927      BINDING AFFINITY PREDICTED BY RF-SCORE:    0.00 PKD
ROOT
HETATM    1  C   UNL     1     -12.263  14.228  67.336  1.00  0.00    -0.232 C  
HETATM    2  N   UNL     1     -12.218  12.855  66.863  1.00  0.00    -0.229 N  
HETATM    3  O   UNL     1     -11.594  10.675  67.335  1.00  0.00    -0.445 OA 
HETATM    4  C   UNL     1     -11.785  11.833  67.695  1.00  0.00    -0.250 C  
ENDROOT
BRANCH   2   5
HETATM    5  C   UNL     1     -12.408  12.599  65.437  1.00  0.00    -0.436 C  
BRANCH   5   6
HETATM    6  C   UNL     1     -11.104  12.697  64.632  1.00  0.00    -0.348 C  
BRANCH   6   7
HETATM    7  C   UNL     1     -11.001  11.568  63.599  1.00  0.00    -0.482 C  
BRANCH   7   8
HETATM    8  C   UNL     1      -9.555  11.343  63.140  1.00  0.00    -0.398 C  
BRANCH   8   9
HETATM    9  C   UNL     1      -9.036   9.972  63.584  1.00  0.00    -0.301 C  
BRANCH   9  10
HETATM   10  C   UNL     1      -9.059   9.826  65.109  1.00  0.00    -0.270 C  
BRANCH  10  11
HETATM   11  C   UNL     1      -7.952  10.621  65.809  1.00  0.00    -0.152 C  
BRANCH  11  12
HETATM   12  C   UNL     1      -8.242  10.879  67.287  1.00  0.00    -0.123 C  
BRANCH  12  13
HETATM   13  C   UNL     1      -7.706  12.237  67.735  1.00  0.00    -0.139 C  
BRANCH  13  14
HETATM   14  C   UNL     1      -8.317  13.347  66.893  1.00  0.00     0.004 C  
BRANCH  14  15
HETATM   15  N   UNL     1      -8.824  14.433  67.718  1.00  0.00    -0.178 N  
HETATM   16  C   UNL     1      -9.409  15.531  67.114  1.00  0.00    -0.216 C  
HETATM   17  C   UNL     1      -8.743  14.317  69.167  1.00  0.00     0.165 C  
HETATM   18  O   UNL     1      -9.473  15.701  65.901  1.00  0.00    -0.330 OA 
BRANCH  16  19
HETATM   19  O   UNL     1      -9.795  16.487  68.042  1.00  0.00    -0.233 OA 
BRANCH  19  20
HETATM   20  C   UNL     1      -9.421  17.787  67.684  1.00  0.00    -0.255 A  
HETATM   21  C   UNL     1     -10.432  18.652  67.283  1.00  0.00    -0.468 A  
HETATM   22  C   UNL     1     -10.106  19.981  67.037  1.00  0.00    -0.594 A  
HETATM   23  C   UNL     1      -8.791  20.432  67.188  1.00  0.00    -0.435 A  
HETATM   24  C   UNL     1      -7.763  19.558  67.582  1.00  0.00    -0.273 A  
HETATM   25  C   UNL     1      -8.104  18.235  67.864  1.00  0.00    -0.260 A  
BRANCH  24  26
HETATM   26  N   UNL     1      -6.340  20.041  67.810  1.00  0.00    -0.211 N  
HETATM   27  C   UNL     1      -6.104  20.377  69.279  1.00  0.00    -0.332 C  
HETATM   28  C   UNL     1      -6.068  21.320  67.009  1.00  0.00    -0.338 C  
HETATM   29  C   UNL     1      -5.398  18.931  67.368  1.00  0.00    -0.158 C  
ENDBRANCH  24  26
ENDBRANCH  19  20
ENDBRANCH  16  19
ENDBRANCH  14  15
ENDBRANCH  13  14
ENDBRANCH  12  13
ENDBRANCH  11  12
ENDBRANCH  10  11
ENDBRANCH   9  10
ENDBRANCH   8   9
ENDBRANCH   7   8
ENDBRANCH   6   7
ENDBRANCH   5   6
ENDBRANCH   2   5
BRANCH   4  30
HETATM   30  O   UNL     1     -11.514  12.277  68.993  1.00  0.00    -0.254 OA 
BRANCH  30  31
HETATM   31  C   UNL     1     -11.679  11.283  69.972  1.00  0.00    -0.346 A  
HETATM   32  C   UNL     1     -12.887  11.187  70.666  1.00  0.00    -0.271 A  
HETATM   33  C   UNL     1     -10.662  10.340  70.148  1.00  0.00    -0.334 A  
HETATM   34  C   UNL     1     -10.837   9.300  71.078  1.00  0.00    -0.314 A  
HETATM   35  C   UNL     1     -13.061  10.174  71.592  1.00  0.00    -0.550 A  
HETATM   36  C   UNL     1     -12.042   9.246  71.802  1.00  0.00    -0.457 A  
BRANCH  34  37
HETATM   37  N   UNL     1      -9.708   8.322  71.382  1.00  0.00    -0.171 N  
HETATM   38  C   UNL     1      -9.596   8.043  72.881  1.00  0.00    -0.279 C  
HETATM   39  C   UNL     1      -9.954   6.977  70.697  1.00  0.00    -0.186 C  
HETATM   40  C   UNL     1      -8.410   8.963  70.887  1.00  0.00    -0.182 C  
ENDBRANCH  34  37
ENDBRANCH  30  31
ENDBRANCH   4  30
TORSDOF 17
ENDMDL
MODEL       35
REMARK 921   NORMALIZED FREE ENERGY PREDICTED BY IDOCK:   -5.56 KCAL/MOL
REMARK 922        TOTAL FREE ENERGY PREDICTED BY IDOCK:  -13.32 KCAL/MOL
REMARK 923 INTER-LIGAND FREE ENERGY PREDICTED BY IDOCK:  -11.84 KCAL/MOL
REMARK 924 INTRA-LIGAND FREE ENERGY PREDICTED BY IDOCK:   -1.48 KCAL/MOL
REMARK 927      BINDING AFFINITY PREDICTED BY RF-SCORE:    0.00 PKD
ROOT
HETATM    1  C   UNL     1      -8.564   6.533  71.158  1.00  0.00    -0.130 C  
HETATM    2  N   UNL     1      -9.769   6.235  70.403  1.00  0.00    -0.164 N  
HETATM    3  O   UNL     1     -12.053   6.571  70.210  1.00  0.00    -0.348 OA 
HETATM    4  C   UNL     1     -10.969   6.861  70.708  1.00  0.00    -0.259 C  
ENDROOT
BRANCH   2   5
HETATM    5  C   UNL     1      -9.756   5.101  69.481  1.00  0.00    -0.192 C  
BRANCH   5   6
HETATM    6  C   UNL     1      -9.759   5.528  68.006  1.00  0.00    -0.159 C  
BRANCH   6   7
HETATM    7  C   UNL     1      -9.139   6.920  67.827  1.00  0.00    -0.118 C  
BRANCH   7   8
HETATM    8  C   UNL     1      -9.166   7.374  66.362  1.00  0.00    -0.203 C  
BRANCH   8   9
HETATM    9  C   UNL     1      -9.879   8.721  66.211  1.00  0.00    -0.342 C  
BRANCH   9  10
HETATM   10  C   UNL     1      -9.389   9.485  64.978  1.00  0.00    -0.294 C  
BRANCH  10  11
HETATM   11  C   UNL     1      -9.830  10.953  64.960  1.00  0.00    -0.336 C  
BRANCH  11  12
HETATM   12  C   UNL     1     -10.490  11.366  63.647  1.00  0.00    -0.472 C  
BRANCH  12  13
HETATM   13  C   UNL     1     -11.101  12.762  63.740  1.00  0.00    -0.475 C  
BRANCH  13  14
HETATM   14  C   UNL     1     -10.649  13.448  65.021  1.00  0.00    -0.358 C  
BRANCH  14  15
HETATM   15  N   UNL     1     -10.790  14.894  64.937  1.00  0.00    -0.410 N  
HETATM   16  C   UNL     1      -9.818  15.706  65.494  1.00  0.00    -0.291 C  
HETATM   17  C   UNL     1     -11.931  15.453  64.226  1.00  0.00    -0.188 C  
HETATM   18  O   UNL     1      -8.857  15.295  66.134  1.00  0.00    -0.284 OA 
BRANCH  16  19
HETATM   19  O   UNL     1     -10.131  17.051  65.362  1.00  0.00    -0.581 OA 
BRANCH  19  20
HETATM   20  C   UNL     1      -9.778  17.813  66.481  1.00  0.00    -0.320 A  
HETATM   21  C   UNL     1     -10.647  17.790  67.566  1.00  0.00    -0.365 A  
HETATM   22  C   UNL     1     -10.265  18.440  68.734  1.00  0.00    -0.333 A  
HETATM   23  C   UNL     1      -9.035  19.102  68.811  1.00  0.00    -0.388 A  
HETATM   24  C   UNL     1      -8.159  19.138  67.712  1.00  0.00    -0.278 A  
HETATM   25  C   UNL     1      -8.532  18.451  66.557  1.00  0.00    -0.287 A  
BRANCH  24  26
HETATM   26  N   UNL     1      -6.792  19.800  67.795  1.00  0.00    -0.237 N  
HETATM   27  C   UNL     1      -6.325  19.913  69.243  1.00  0.00    -0.330 C  
HETATM   28  C   UNL     1      -6.846  21.224  67.228  1.00  0.00    -0.271 C  
HETATM   29  C   UNL     1      -5.817  18.950  66.994  1.00  0.00    -0.155 C  
ENDBRANCH  24  26
ENDBRANCH  19  20
ENDBRANCH  16  19
ENDBRANCH  14  15
ENDBRANCH  13  14
ENDBRANCH  12  13
ENDBRANCH  11  12
ENDBRANCH  10  11
ENDBRANCH   9  10
ENDBRANCH   8   9
ENDBRANCH   7   8
ENDBRANCH   6   7
ENDBRANCH   5   6
ENDBRANCH   2   5
BRANCH   4  30
HETATM   30  O   UNL     1     -10.830   7.824  71.712  1.00  0.00    -0.228 OA 
BRANCH  30  31
HETATM   31  C   UNL     1     -11.467   9.041  71.412  1.00  0.00    -0.330 A  
HETATM   32  C   UNL     1     -12.527   9.483  72.206  1.00  0.00    -0.299 A  
HETATM   33  C   UNL     1     -10.948   9.834  70.385  1.00  0.00    -0.371 A  
HETATM   34  C   UNL     1     -11.532  11.083  70.113  1.00  0.00    -0.296 A  
HETATM   35  C   UNL     1     -13.116  10.706  71.936  1.00  0.00    -0.563 A  
HETATM   36  C   UNL     1     -12.629  11.493  70.894  1.00  0.00    -0.438 A  
BRANCH  34  37
HETATM   37  N   UNL     1     -11.068  11.925  68.930  1.00  0.00    -0.233 N  
HETATM   38  C   UNL     1     -11.889  11.627  67.674  1.00  0.00    -0.143 C  
HETATM   39  C   UNL     1     -11.233  13.416  69.225  1.00  0.00    -0.219 C  
HETATM   40  C   UNL     1      -9.603  11.572  68.672  1.00  0.00    -0.152 C  
ENDBRANCH  34  37
ENDBRANCH  30  31
ENDBRANCH   4  30
TORSDOF 17
ENDMDL
MODEL       36
REMARK 921   NORMALIZED FREE ENERGY PREDICTED BY IDOCK:   -5.55 KCAL/MOL
REMARK 922        TOTAL FREE ENERGY PREDICTED BY IDOCK:  -13.30 KCAL/MOL
REMARK 923 INTER-LIGAND FREE ENERGY PREDICTED BY IDOCK:  -11.70 KCAL/MOL
REMARK 924 INTRA-LIGAND FREE ENERGY PREDICTED BY IDOCK:   -1.60 KCAL/MOL
REMARK 927      BINDING AFFINITY PREDICTED BY RF-SCORE:    0.00 PKD
ROOT
HETATM    1  C   UNL     1     -11.003  14.791  66.149  1.00  0.00    -0.332 C  
HETATM    2  N   UNL     1     -11.177  13.826  67.222  1.00  0.00    -0.301 N  
HETATM    3  O   UNL     1     -12.130  11.817  67.869  1.00  0.00    -0.592 OA 
HETATM    4  C   UNL     1     -11.828  12.622  66.994  1.00  0.00    -0.345 C  
ENDROOT
BRANCH   2   5
HETATM    5  C   UNL     1     -10.870  14.237  68.590  1.00  0.00    -0.253 C  
BRANCH   5   6
HETATM    6  C   UNL     1     -11.663  15.473  69.037  1.00  0.00    -0.392 C  
BRANCH   6   7
HETATM    7  C   UNL     1     -11.704  15.587  70.566  1.00  0.00    -0.377 C  
BRANCH   7   8
HETATM    8  C   UNL     1     -13.090  15.247  71.129  1.00  0.00    -0.546 C  
BRANCH   8   9
HETATM    9  C   UNL     1     -13.034  14.016  72.038  1.00  0.00    -0.450 C  
BRANCH   9  10
HETATM   10  C   UNL     1     -12.744  12.739  71.245  1.00  0.00    -0.364 C  
BRANCH  10  11
HETATM   11  C   UNL     1     -13.328  11.478  71.892  1.00  0.00    -0.408 C  
BRANCH  11  12
HETATM   12  C   UNL     1     -13.047  10.208  71.092  1.00  0.00    -0.480 C  
BRANCH  12  13
HETATM   13  C   UNL     1     -11.549   9.968  70.928  1.00  0.00    -0.463 C  
BRANCH  13  14
HETATM   14  C   UNL     1     -11.051   9.009  71.999  1.00  0.00    -0.301 C  
BRANCH  14  15
HETATM   15  N   UNL     1     -11.182   7.620  71.584  1.00  0.00    -0.243 N  
HETATM   16  C   UNL     1     -10.101   6.976  71.010  1.00  0.00    -0.195 C  
HETATM   17  C   UNL     1     -12.439   6.926  71.826  1.00  0.00    -0.356 C  
HETATM   18  O   UNL     1      -9.032   7.517  70.748  1.00  0.00    -0.147 OA 
BRANCH  16  19
HETATM   19  O   UNL     1     -10.413   5.677  70.635  1.00  0.00    -0.236 OA 
BRANCH  19  20
HETATM   20  C   UNL     1     -10.349   5.470  69.253  1.00  0.00    -0.265 A  
HETATM   21  C   UNL     1     -11.052   6.354  68.444  1.00  0.00    -0.374 A  
HETATM   22  C   UNL     1     -10.910   6.245  67.065  1.00  0.00    -0.458 A  
HETATM   23  C   UNL     1     -10.081   5.265  66.509  1.00  0.00    -0.260 A  
HETATM   24  C   UNL     1      -9.378   4.361  67.324  1.00  0.00    -0.155 A  
HETATM   25  C   UNL     1      -9.494   4.502  68.706  1.00  0.00    -0.221 A  
BRANCH  24  26
HETATM   26  N   UNL     1      -8.424   3.329  66.742  1.00  0.00    -0.102 N  
HETATM   27  C   UNL     1      -8.990   1.920  66.882  1.00  0.00    -0.111 C  
HETATM   28  C   UNL     1      -7.083   3.351  67.486  1.00  0.00    -0.058 C  
HETATM   29  C   UNL     1      -8.217   3.668  65.273  1.00  0.00    -0.097 C  
ENDBRANCH  24  26
ENDBRANCH  19  20
ENDBRANCH  16  19
ENDBRANCH  14  15
ENDBRANCH  13  14
ENDBRANCH  12  13
ENDBRANCH  11  12
ENDBRANCH  10  11
ENDBRANCH   9  10
ENDBRANCH   8   9
ENDBRANCH   7   8
ENDBRANCH   6   7
ENDBRANCH   5   6
ENDBRANCH   2   5
BRANCH   4  30
HETATM   30  O   UNL     1     -12.177  12.449  65.651  1.00  0.00    -0.599 OA 
BRANCH  30  31
HETATM   31  C   UNL     1     -11.185  11.801  64.894  1.00  0.00    -0.266 A  
HETATM   32  C   UNL     1     -11.087  12.047  63.523  1.00  0.00    -0.519 A  
HETATM   33  C   UNL     1     -10.247  11.006  65.559  1.00  0.00    -0.327 A  
HETATM   34  C   UNL     1      -9.210  10.402  64.828  1.00  0.00    -0.230 A  
HETATM   35  C   UNL     1     -10.077  11.445  62.794  1.00  0.00    -0.115 A  
HETATM   36  C   UNL     1      -9.153  10.624  63.439  1.00  0.00    -0.253 A  
BRANCH  34  37
HETATM   37  N   UNL     1      -8.237   9.438  65.496  1.00  0.00    -0.122 N  
HETATM   38  C   UNL     1      -8.647   9.137  66.939  1.00  0.00    -0.123 C  
HETATM   39  C   UNL     1      -8.201   8.100  64.757  1.00  0.00    -0.133 C  
HETATM   40  C   UNL     1      -6.862  10.109  65.490  1.00  0.00    -0.130 C  
ENDBRANCH  34  37
ENDBRANCH  30  31
ENDBRANCH   4  30
TORSDOF 17
ENDMDL
MODEL       37
REMARK 921   NORMALIZED FREE ENERGY PREDICTED BY IDOCK:   -5.54 KCAL/MOL
REMARK 922        TOTAL FREE ENERGY PREDICTED BY IDOCK:  -13.27 KCAL/MOL
REMARK 923 INTER-LIGAND FREE ENERGY PREDICTED BY IDOCK:  -11.08 KCAL/MOL
REMARK 924 INTRA-LIGAND FREE ENERGY PREDICTED BY IDOCK:   -2.19 KCAL/MOL
REMARK 927      BINDING AFFINITY PREDICTED BY RF-SCORE:    0.00 PKD
ROOT
HETATM    1  C   UNL     1      -8.952   4.711  71.550  1.00  0.00    -0.133 C  
HETATM    2  N   UNL     1     -10.234   5.290  71.185  1.00  0.00    -0.215 N  
HETATM    3  O   UNL     1     -11.429   6.473  69.592  1.00  0.00    -0.382 OA 
HETATM    4  C   UNL     1     -10.426   5.851  69.930  1.00  0.00    -0.270 C  
ENDROOT
BRANCH   2   5
HETATM    5  C   UNL     1     -11.238   5.485  72.229  1.00  0.00    -0.220 C  
BRANCH   5   6
HETATM    6  C   UNL     1     -10.777   6.450  73.330  1.00  0.00    -0.286 C  
BRANCH   6   7
HETATM    7  C   UNL     1     -10.663   7.885  72.803  1.00  0.00    -0.435 C  
BRANCH   7   8
HETATM    8  C   UNL     1     -12.009   8.416  72.293  1.00  0.00    -0.455 C  
BRANCH   8   9
HETATM    9  C   UNL     1     -11.826   9.700  71.478  1.00  0.00    -0.483 C  
BRANCH   9  10
HETATM   10  C   UNL     1     -10.481   9.721  70.748  1.00  0.00    -0.339 C  
BRANCH  10  11
HETATM   11  C   UNL     1     -10.472  10.638  69.520  1.00  0.00    -0.236 C  
BRANCH  11  12
HETATM   12  C   UNL     1     -11.832  11.270  69.233  1.00  0.00    -0.423 C  
BRANCH  12  13
HETATM   13  C   UNL     1     -11.899  12.711  69.735  1.00  0.00    -0.379 C  
BRANCH  13  14
HETATM   14  C   UNL     1     -11.755  13.679  68.570  1.00  0.00    -0.357 C  
BRANCH  14  15
HETATM   15  N   UNL     1     -11.665  15.059  69.024  1.00  0.00    -0.315 N  
HETATM   16  C   UNL     1     -11.040  15.999  68.225  1.00  0.00    -0.351 C  
HETATM   17  C   UNL     1     -12.279  15.428  70.292  1.00  0.00    -0.380 C  
HETATM   18  O   UNL     1     -10.474  15.742  67.168  1.00  0.00    -0.296 OA 
BRANCH  16  19
HETATM   19  O   UNL     1     -11.005  17.248  68.827  1.00  0.00    -0.232 OA 
BRANCH  19  20
HETATM   20  C   UNL     1     -10.124  18.138  68.204  1.00  0.00    -0.378 A  
HETATM   21  C   UNL     1     -10.665  19.027  67.282  1.00  0.00    -0.556 A  
HETATM   22  C   UNL     1      -9.836  20.001  66.737  1.00  0.00    -0.574 A  
HETATM   23  C   UNL     1      -8.489  20.078  67.107  1.00  0.00    -0.390 A  
HETATM   24  C   UNL     1      -7.935  19.173  68.029  1.00  0.00    -0.296 A  
HETATM   25  C   UNL     1      -8.782  18.224  68.601  1.00  0.00    -0.290 A  
BRANCH  24  26
HETATM   26  N   UNL     1      -6.490  19.279  68.489  1.00  0.00    -0.241 N  
HETATM   27  C   UNL     1      -5.896  17.899  68.752  1.00  0.00    -0.188 C  
HETATM   28  C   UNL     1      -6.397  20.065  69.803  1.00  0.00    -0.354 C  
HETATM   29  C   UNL     1      -5.706  19.987  67.394  1.00  0.00    -0.174 C  
ENDBRANCH  24  26
ENDBRANCH  19  20
ENDBRANCH  16  19
ENDBRANCH  14  15
ENDBRANCH  13  14
ENDBRANCH  12  13
ENDBRANCH  11  12
ENDBRANCH  10  11
ENDBRANCH   9  10
ENDBRANCH   8   9
ENDBRANCH   7   8
ENDBRANCH   6   7
ENDBRANCH   5   6
ENDBRANCH   2   5
BRANCH   4  30
HETATM   30  O   UNL     1      -9.313   5.697  69.098  1.00  0.00    -0.120 OA 
BRANCH  30  31
HETATM   31  C   UNL     1      -8.685   6.912  68.773  1.00  0.00    -0.129 A  
HETATM   32  C   UNL     1      -7.848   7.531  69.703  1.00  0.00    -0.119 A  
HETATM   33  C   UNL     1      -8.830   7.416  67.477  1.00  0.00    -0.127 A  
HETATM   34  C   UNL     1      -8.158   8.595  67.115  1.00  0.00    -0.100 A  
HETATM   35  C   UNL     1      -7.193   8.699  69.358  1.00  0.00    -0.057 A  
HETATM   36  C   UNL     1      -7.354   9.231  68.080  1.00  0.00    -0.080 A  
BRANCH  34  37
HETATM   37  N   UNL     1      -8.380   9.238  65.750  1.00  0.00    -0.119 N  
HETATM   38  C   UNL     1      -8.087   8.256  64.615  1.00  0.00    -0.150 C  
HETATM   39  C   UNL     1      -9.834   9.684  65.589  1.00  0.00    -0.299 C  
HETATM   40  C   UNL     1      -7.424  10.427  65.651  1.00  0.00    -0.149 C  
ENDBRANCH  34  37
ENDBRANCH  30  31
ENDBRANCH   4  30
TORSDOF 17
ENDMDL
MODEL       38
REMARK 921   NORMALIZED FREE ENERGY PREDICTED BY IDOCK:   -5.52 KCAL/MOL
REMARK 922        TOTAL FREE ENERGY PREDICTED BY IDOCK:  -13.23 KCAL/MOL
REMARK 923 INTER-LIGAND FREE ENERGY PREDICTED BY IDOCK:  -10.41 KCAL/MOL
REMARK 924 INTRA-LIGAND FREE ENERGY PREDICTED BY IDOCK:   -2.82 KCAL/MOL
REMARK 927      BINDING AFFINITY PREDICTED BY RF-SCORE:    0.00 PKD
ROOT
HETATM    1  C   UNL     1      -6.953  10.970  69.564  1.00  0.00    -0.126 C  
HETATM    2  N   UNL     1      -7.908  11.104  68.477  1.00  0.00    -0.128 N  
HETATM    3  O   UNL     1      -9.139  10.008  66.849  1.00  0.00    -0.138 OA 
HETATM    4  C   UNL     1      -8.433   9.981  67.853  1.00  0.00    -0.118 C  
ENDROOT
BRANCH   2   5
HETATM    5  C   UNL     1      -8.126  12.427  67.894  1.00  0.00    -0.161 C  
BRANCH   5   6
HETATM    6  C   UNL     1      -7.127  13.477  68.400  1.00  0.00    -0.107 C  
BRANCH   6   7
HETATM    7  C   UNL     1      -7.835  14.590  69.180  1.00  0.00    -0.071 C  
BRANCH   7   8
HETATM    8  C   UNL     1      -7.367  15.984  68.743  1.00  0.00    -0.165 C  
BRANCH   8   9
HETATM    9  C   UNL     1      -7.108  16.035  67.234  1.00  0.00    -0.238 C  
BRANCH   9  10
HETATM   10  C   UNL     1      -5.725  16.610  66.916  1.00  0.00    -0.116 C  
BRANCH  10  11
HETATM   11  C   UNL     1      -5.490  17.996  67.525  1.00  0.00    -0.142 C  
BRANCH  11  12
HETATM   12  C   UNL     1      -5.567  19.124  66.497  1.00  0.00    -0.165 C  
BRANCH  12  13
HETATM   13  C   UNL     1      -6.696  20.100  66.818  1.00  0.00    -0.255 C  
BRANCH  13  14
HETATM   14  C   UNL     1      -8.000  19.614  66.203  1.00  0.00    -0.343 C  
BRANCH  14  15
HETATM   15  N   UNL     1      -8.936  19.153  67.218  1.00  0.00    -0.292 N  
HETATM   16  C   UNL     1     -10.034  18.402  66.840  1.00  0.00    -0.353 C  
HETATM   17  C   UNL     1      -8.668  19.455  68.617  1.00  0.00    -0.363 C  
HETATM   18  O   UNL     1     -10.332  18.147  65.678  1.00  0.00    -0.603 OA 
BRANCH  16  19
HETATM   19  O   UNL     1     -10.841  18.085  67.923  1.00  0.00    -0.367 OA 
BRANCH  19  20
HETATM   20  C   UNL     1     -10.978  16.708  68.126  1.00  0.00    -0.327 A  
HETATM   21  C   UNL     1     -11.111  16.269  69.438  1.00  0.00    -0.328 A  
HETATM   22  C   UNL     1     -11.368  14.921  69.662  1.00  0.00    -0.311 A  
HETATM   23  C   UNL     1     -11.487  14.031  68.589  1.00  0.00    -0.337 A  
HETATM   24  C   UNL     1     -11.341  14.469  67.262  1.00  0.00    -0.350 A  
HETATM   25  C   UNL     1     -11.122  15.828  67.043  1.00  0.00    -0.152 A  
BRANCH  24  26
HETATM   26  N   UNL     1     -11.527  13.529  66.081  1.00  0.00    -0.317 N  
HETATM   27  C   UNL     1     -11.760  12.097  66.550  1.00  0.00    -0.321 C  
HETATM   28  C   UNL     1     -10.272  13.514  65.198  1.00  0.00    -0.316 C  
HETATM   29  C   UNL     1     -12.726  14.021  65.283  1.00  0.00    -0.439 C  
ENDBRANCH  24  26
ENDBRANCH  19  20
ENDBRANCH  16  19
ENDBRANCH  14  15
ENDBRANCH  13  14
ENDBRANCH  12  13
ENDBRANCH  11  12
ENDBRANCH  10  11
ENDBRANCH   9  10
ENDBRANCH   8   9
ENDBRANCH   7   8
ENDBRANCH   6   7
ENDBRANCH   5   6
ENDBRANCH   2   5
BRANCH   4  30
HETATM   30  O   UNL     1      -8.012   8.790  68.451  1.00  0.00    -0.106 OA 
BRANCH  30  31
HETATM   31  C   UNL     1      -9.073   7.975  68.882  1.00  0.00    -0.144 A  
HETATM   32  C   UNL     1      -9.266   6.721  68.298  1.00  0.00    -0.122 A  
HETATM   33  C   UNL     1      -9.846   8.398  69.967  1.00  0.00    -0.182 A  
HETATM   34  C   UNL     1     -10.870   7.567  70.453  1.00  0.00    -0.244 A  
HETATM   35  C   UNL     1     -10.280   5.903  68.761  1.00  0.00    -0.243 A  
HETATM   36  C   UNL     1     -11.080   6.326  69.822  1.00  0.00    -0.473 A  
BRANCH  34  37
HETATM   37  N   UNL     1     -11.807   8.040  71.558  1.00  0.00    -0.283 N  
HETATM   38  C   UNL     1     -12.077   9.542  71.459  1.00  0.00    -0.389 C  
HETATM   39  C   UNL     1     -13.162   7.338  71.462  1.00  0.00    -0.379 C  
HETATM   40  C   UNL     1     -11.121   7.735  72.891  1.00  0.00    -0.398 C  
ENDBRANCH  34  37
ENDBRANCH  30  31
ENDBRANCH   4  30
TORSDOF 17
ENDMDL
MODEL       39
REMARK 921   NORMALIZED FREE ENERGY PREDICTED BY IDOCK:   -5.50 KCAL/MOL
REMARK 922        TOTAL FREE ENERGY PREDICTED BY IDOCK:  -13.20 KCAL/MOL
REMARK 923 INTER-LIGAND FREE ENERGY PREDICTED BY IDOCK:  -10.94 KCAL/MOL
REMARK 924 INTRA-LIGAND FREE ENERGY PREDICTED BY IDOCK:   -2.26 KCAL/MOL
REMARK 927      BINDING AFFINITY PREDICTED BY RF-SCORE:    0.00 PKD
ROOT
HETATM    1  C   UNL     1     -12.617  12.910  64.953  1.00  0.00    -0.458 C  
HETATM    2  N   UNL     1     -11.469  12.504  65.746  1.00  0.00    -0.346 N  
HETATM    3  O   UNL     1     -10.132  12.972  67.578  1.00  0.00    -0.214 OA 
HETATM    4  C   UNL     1     -11.152  13.165  66.924  1.00  0.00    -0.282 C  
ENDROOT
BRANCH   2   5
HETATM    5  C   UNL     1     -10.522  11.551  65.171  1.00  0.00    -0.286 C  
BRANCH   5   6
HETATM    6  C   UNL     1     -10.512  11.568  63.636  1.00  0.00    -0.483 C  
BRANCH   6   7
HETATM    7  C   UNL     1      -9.262  10.875  63.079  1.00  0.00    -0.329 C  
BRANCH   7   8
HETATM    8  C   UNL     1      -9.032   9.503  63.725  1.00  0.00    -0.211 C  
BRANCH   8   9
HETATM    9  C   UNL     1      -7.590   9.029  63.524  1.00  0.00    -0.111 C  
BRANCH   9  10
HETATM   10  C   UNL     1      -7.362   7.639  64.125  1.00  0.00    -0.094 C  
BRANCH  10  11
HETATM   11  C   UNL     1      -8.172   7.391  65.402  1.00  0.00    -0.135 C  
BRANCH  11  12
HETATM   12  C   UNL     1      -7.298   7.185  66.637  1.00  0.00    -0.084 C  
BRANCH  12  13
HETATM   13  C   UNL     1      -7.101   8.487  67.409  1.00  0.00    -0.080 C  
BRANCH  13  14
HETATM   14  C   UNL     1      -8.306   9.396  67.220  1.00  0.00    -0.125 C  
BRANCH  14  15
HETATM   15  N   UNL     1      -8.749   9.975  68.480  1.00  0.00    -0.120 N  
HETATM   16  C   UNL     1     -10.097   9.983  68.789  1.00  0.00    -0.185 C  
HETATM   17  C   UNL     1      -7.754  10.492  69.409  1.00  0.00    -0.155 C  
HETATM   18  O   UNL     1     -10.982   9.597  68.033  1.00  0.00    -0.227 OA 
BRANCH  16  19
HETATM   19  O   UNL     1     -10.346  10.609  70.001  1.00  0.00    -0.143 OA 
BRANCH  19  20
HETATM   20  C   UNL     1     -10.928   9.763  70.951  1.00  0.00    -0.341 A  
HETATM   21  C   UNL     1     -12.283   9.934  71.209  1.00  0.00    -0.480 A  
HETATM   22  C   UNL     1     -12.914   9.031  72.057  1.00  0.00    -0.470 A  
HETATM   23  C   UNL     1     -12.198   7.979  72.639  1.00  0.00    -0.228 A  
HETATM   24  C   UNL     1     -10.825   7.811  72.390  1.00  0.00    -0.303 A  
HETATM   25  C   UNL     1     -10.207   8.697  71.508  1.00  0.00    -0.345 A  
BRANCH  24  26
HETATM   26  N   UNL     1     -10.042   6.640  72.964  1.00  0.00    -0.176 N  
HETATM   27  C   UNL     1      -9.000   6.137  71.970  1.00  0.00    -0.139 C  
HETATM   28  C   UNL     1     -10.977   5.462  73.269  1.00  0.00    -0.307 C  
HETATM   29  C   UNL     1      -9.363   7.118  74.239  1.00  0.00    -0.207 C  
ENDBRANCH  24  26
ENDBRANCH  19  20
ENDBRANCH  16  19
ENDBRANCH  14  15
ENDBRANCH  13  14
ENDBRANCH  12  13
ENDBRANCH  11  12
ENDBRANCH  10  11
ENDBRANCH   9  10
ENDBRANCH   8   9
ENDBRANCH   7   8
ENDBRANCH   6   7
ENDBRANCH   5   6
ENDBRANCH   2   5
BRANCH   4  30
HETATM   30  O   UNL     1     -12.092  14.144  67.258  1.00  0.00    -0.417 OA 
BRANCH  30  31
HETATM   31  C   UNL     1     -11.810  14.802  68.467  1.00  0.00    -0.306 A  
HETATM   32  C   UNL     1     -10.897  15.859  68.486  1.00  0.00    -0.298 A  
HETATM   33  C   UNL     1     -12.537  14.450  69.608  1.00  0.00    -0.102 A  
HETATM   34  C   UNL     1     -12.313  15.140  70.812  1.00  0.00    -0.360 A  
HETATM   35  C   UNL     1     -10.662  16.535  69.669  1.00  0.00    -0.323 A  
HETATM   36  C   UNL     1     -11.356  16.173  70.823  1.00  0.00    -0.397 A  
BRANCH  34  37
HETATM   37  N   UNL     1     -13.002  14.712  72.102  1.00  0.00    -0.324 N  
HETATM   38  C   UNL     1     -13.270  13.206  72.121  1.00  0.00    -0.462 C  
HETATM   39  C   UNL     1     -12.125  15.022  73.316  1.00  0.00    -0.348 C  
HETATM   40  C   UNL     1     -14.331  15.464  72.175  1.00  0.00    -0.544 C  
ENDBRANCH  34  37
ENDBRANCH  30  31
ENDBRANCH   4  30
TORSDOF 17
ENDMDL
MODEL       40
REMARK 921   NORMALIZED FREE ENERGY PREDICTED BY IDOCK:   -5.50 KCAL/MOL
REMARK 922        TOTAL FREE ENERGY PREDICTED BY IDOCK:  -13.19 KCAL/MOL
REMARK 923 INTER-LIGAND FREE ENERGY PREDICTED BY IDOCK:  -10.34 KCAL/MOL
REMARK 924 INTRA-LIGAND FREE ENERGY PREDICTED BY IDOCK:   -2.85 KCAL/MOL
REMARK 927      BINDING AFFINITY PREDICTED BY RF-SCORE:    0.00 PKD
ROOT
HETATM    1  C   UNL     1     -12.530  13.589  70.850  1.00  0.00    -0.369 C  
HETATM    2  N   UNL     1     -12.058  12.515  69.992  1.00  0.00    -0.301 N  
HETATM    3  O   UNL     1     -11.675  11.814  67.818  1.00  0.00    -0.464 OA 
HETATM    4  C   UNL     1     -11.938  12.703  68.622  1.00  0.00    -0.223 C  
ENDROOT
BRANCH   2   5
HETATM    5  C   UNL     1     -11.939  11.171  70.554  1.00  0.00    -0.380 C  
BRANCH   5   6
HETATM    6  C   UNL     1     -13.062  10.833  71.545  1.00  0.00    -0.517 C  
BRANCH   6   7
HETATM    7  C   UNL     1     -12.853   9.451  72.175  1.00  0.00    -0.480 C  
BRANCH   7   8
HETATM    8  C   UNL     1     -13.936   8.455  71.742  1.00  0.00    -0.482 C  
BRANCH   8   9
HETATM    9  C   UNL     1     -13.325   7.105  71.350  1.00  0.00    -0.380 C  
BRANCH   9  10
HETATM   10  C   UNL     1     -11.888   7.260  70.846  1.00  0.00    -0.351 C  
BRANCH  10  11
HETATM   11  C   UNL     1     -11.024   6.017  71.088  1.00  0.00    -0.341 C  
BRANCH  11  12
HETATM   12  C   UNL     1     -11.112   5.496  72.521  1.00  0.00    -0.324 C  
BRANCH  12  13
HETATM   13  C   UNL     1      -9.757   5.004  73.023  1.00  0.00    -0.167 C  
BRANCH  13  14
HETATM   14  C   UNL     1      -8.952   6.166  73.586  1.00  0.00    -0.127 C  
BRANCH  14  15
HETATM   15  N   UNL     1      -7.983   6.668  72.622  1.00  0.00    -0.102 N  
HETATM   16  C   UNL     1      -8.081   7.974  72.176  1.00  0.00    -0.134 C  
HETATM   17  C   UNL     1      -6.904   5.795  72.184  1.00  0.00    -0.073 C  
HETATM   18  O   UNL     1      -8.987   8.743  72.480  1.00  0.00    -0.386 OA 
BRANCH  16  19
HETATM   19  O   UNL     1      -7.109   8.272  71.233  1.00  0.00    -0.052 OA 
BRANCH  19  20
HETATM   20  C   UNL     1      -7.607   8.975  70.130  1.00  0.00    -0.082 A  
HETATM   21  C   UNL     1      -7.350  10.340  70.077  1.00  0.00    -0.157 A  
HETATM   22  C   UNL     1      -7.728  11.040  68.937  1.00  0.00    -0.140 A  
HETATM   23  C   UNL     1      -8.353  10.384  67.872  1.00  0.00    -0.114 A  
HETATM   24  C   UNL     1      -8.625   9.006  67.927  1.00  0.00    -0.125 A  
HETATM   25  C   UNL     1      -8.209   8.303  69.056  1.00  0.00    -0.119 A  
BRANCH  24  26
HETATM   26  N   UNL     1      -9.248   8.263  66.755  1.00  0.00    -0.159 N  
HETATM   27  C   UNL     1      -9.777   9.237  65.707  1.00  0.00    -0.269 C  
HETATM   28  C   UNL     1     -10.440   7.417  67.223  1.00  0.00    -0.315 C  
HETATM   29  C   UNL     1      -8.175   7.371  66.149  1.00  0.00    -0.130 C  
ENDBRANCH  24  26
ENDBRANCH  19  20
ENDBRANCH  16  19
ENDBRANCH  14  15
ENDBRANCH  13  14
ENDBRANCH  12  13
ENDBRANCH  11  12
ENDBRANCH  10  11
ENDBRANCH   9  10
ENDBRANCH   8   9
ENDBRANCH   7   8
ENDBRANCH   6   7
ENDBRANCH   5   6
ENDBRANCH   2   5
BRANCH   4  30
HETATM   30  O   UNL     1     -12.223  14.015  68.235  1.00  0.00    -0.328 OA 
BRANCH  30  31
HETATM   31  C   UNL     1     -11.194  14.614  67.487  1.00  0.00    -0.333 A  
HETATM   32  C   UNL     1     -11.326  14.740  66.103  1.00  0.00    -0.330 A  
HETATM   33  C   UNL     1     -10.106  15.168  68.168  1.00  0.00    -0.222 A  
HETATM   34  C   UNL     1      -9.099  15.827  67.441  1.00  0.00    -0.197 A  
HETATM   35  C   UNL     1     -10.333  15.376  65.380  1.00  0.00    -0.422 A  
HETATM   36  C   UNL     1      -9.226  15.905  66.042  1.00  0.00    -0.372 A  
BRANCH  34  37
HETATM   37  N   UNL     1      -7.843  16.344  68.133  1.00  0.00    -0.154 N  
HETATM   38  C   UNL     1      -8.000  17.804  68.562  1.00  0.00    -0.294 C  
HETATM   39  C   UNL     1      -7.547  15.539  69.398  1.00  0.00    -0.225 C  
HETATM   40  C   UNL     1      -6.696  16.232  67.127  1.00  0.00    -0.201 C  
ENDBRANCH  34  37
ENDBRANCH  30  31
ENDBRANCH   4  30
TORSDOF 17
ENDMDL
MODEL       41
REMARK 921   NORMALIZED FREE ENERGY PREDICTED BY IDOCK:   -5.48 KCAL/MOL
REMARK 922        TOTAL FREE ENERGY PREDICTED BY IDOCK:  -13.17 KCAL/MOL
REMARK 923 INTER-LIGAND FREE ENERGY PREDICTED BY IDOCK:  -11.21 KCAL/MOL
REMARK 924 INTRA-LIGAND FREE ENERGY PREDICTED BY IDOCK:   -1.96 KCAL/MOL
REMARK 927      BINDING AFFINITY PREDICTED BY RF-SCORE:    0.00 PKD
ROOT
HETATM    1  C   UNL     1      -9.650   9.739  70.191  1.00  0.00    -0.237 C  
HETATM    2  N   UNL     1     -10.382   9.139  71.293  1.00  0.00    -0.311 N  
HETATM    3  O   UNL     1     -12.402   9.011  72.420  1.00  0.00    -0.349 OA 
HETATM    4  C   UNL     1     -11.742   9.370  71.450  1.00  0.00    -0.378 C  
ENDROOT
BRANCH   2   5
HETATM    5  C   UNL     1      -9.630   8.485  72.361  1.00  0.00    -0.286 C  
BRANCH   5   6
HETATM    6  C   UNL     1      -8.303   7.883  71.878  1.00  0.00    -0.151 C  
BRANCH   6   7
HETATM    7  C   UNL     1      -8.140   6.435  72.358  1.00  0.00    -0.103 C  
BRANCH   7   8
HETATM    8  C   UNL     1      -9.452   5.865  72.911  1.00  0.00    -0.154 C  
BRANCH   8   9
HETATM    9  C   UNL     1     -10.181   5.025  71.858  1.00  0.00    -0.267 C  
BRANCH   9  10
HETATM   10  C   UNL     1     -11.330   5.804  71.209  1.00  0.00    -0.154 C  
BRANCH  10  11
HETATM   11  C   UNL     1     -11.154   5.995  69.699  1.00  0.00    -0.474 C  
BRANCH  11  12
HETATM   12  C   UNL     1      -9.847   5.411  69.168  1.00  0.00    -0.242 C  
BRANCH  12  13
HETATM   13  C   UNL     1     -10.042   4.742  67.810  1.00  0.00    -0.129 C  
BRANCH  13  14
HETATM   14  C   UNL     1     -10.585   5.745  66.803  1.00  0.00    -0.306 C  
BRANCH  14  15
HETATM   15  N   UNL     1      -9.560   6.682  66.368  1.00  0.00    -0.137 N  
HETATM   16  C   UNL     1      -9.738   8.035  66.587  1.00  0.00    -0.243 C  
HETATM   17  C   UNL     1      -8.345   6.165  65.752  1.00  0.00    -0.143 C  
HETATM   18  O   UNL     1     -10.752   8.531  67.066  1.00  0.00    -0.275 OA 
BRANCH  16  19
HETATM   19  O   UNL     1      -8.690   8.785  66.073  1.00  0.00    -0.146 OA 
BRANCH  19  20
HETATM   20  C   UNL     1      -9.104   9.759  65.158  1.00  0.00    -0.222 A  
HETATM   21  C   UNL     1      -8.892   9.495  63.810  1.00  0.00    -0.238 A  
HETATM   22  C   UNL     1      -9.399  10.389  62.873  1.00  0.00    -0.342 A  
HETATM   23  C   UNL     1     -10.103  11.526  63.282  1.00  0.00    -0.439 A  
HETATM   24  C   UNL     1     -10.308  11.803  64.645  1.00  0.00    -0.290 A  
HETATM   25  C   UNL     1      -9.830  10.882  65.577  1.00  0.00    -0.298 A  
BRANCH  24  26
HETATM   26  N   UNL     1     -11.123  13.001  65.108  1.00  0.00    -0.287 N  
HETATM   27  C   UNL     1     -12.017  13.522  63.988  1.00  0.00    -0.449 C  
HETATM   28  C   UNL     1     -10.200  14.155  65.520  1.00  0.00    -0.351 C  
HETATM   29  C   UNL     1     -11.970  12.555  66.291  1.00  0.00    -0.343 C  
ENDBRANCH  24  26
ENDBRANCH  19  20
ENDBRANCH  16  19
ENDBRANCH  14  15
ENDBRANCH  13  14
ENDBRANCH  12  13
ENDBRANCH  11  12
ENDBRANCH  10  11
ENDBRANCH   9  10
ENDBRANCH   8   9
ENDBRANCH   7   8
ENDBRANCH   6   7
ENDBRANCH   5   6
ENDBRANCH   2   5
BRANCH   4  30
HETATM   30  O   UNL     1     -12.279  10.131  70.407  1.00  0.00    -0.266 OA 
BRANCH  30  31
HETATM   31  C   UNL     1     -12.514  11.472  70.756  1.00  0.00    -0.349 A  
HETATM   32  C   UNL     1     -13.341  11.773  71.840  1.00  0.00    -0.401 A  
HETATM   33  C   UNL     1     -11.822  12.474  70.070  1.00  0.00    -0.363 A  
HETATM   34  C   UNL     1     -11.996  13.817  70.446  1.00  0.00    -0.315 A  
HETATM   35  C   UNL     1     -13.527  13.093  72.209  1.00  0.00    -0.665 A  
HETATM   36  C   UNL     1     -12.868  14.105  71.513  1.00  0.00    -0.430 A  
BRANCH  34  37
HETATM   37  N   UNL     1     -11.349  14.945  69.651  1.00  0.00    -0.268 N  
HETATM   38  C   UNL     1     -11.181  16.206  70.501  1.00  0.00    -0.363 C  
HETATM   39  C   UNL     1      -9.953  14.543  69.173  1.00  0.00    -0.106 C  
HETATM   40  C   UNL     1     -12.271  15.250  68.470  1.00  0.00     0.059 C  
ENDBRANCH  34  37
ENDBRANCH  30  31
ENDBRANCH   4  30
TORSDOF 17
ENDMDL
MODEL       42
REMARK 921   NORMALIZED FREE ENERGY PREDICTED BY IDOCK:   -5.47 KCAL/MOL
REMARK 922        TOTAL FREE ENERGY PREDICTED BY IDOCK:  -13.13 KCAL/MOL
REMARK 923 INTER-LIGAND FREE ENERGY PREDICTED BY IDOCK:  -10.39 KCAL/MOL
REMARK 924 INTRA-LIGAND FREE ENERGY PREDICTED BY IDOCK:   -2.75 KCAL/MOL
REMARK 927      BINDING AFFINITY PREDICTED BY RF-SCORE:    0.00 PKD
ROOT
HETATM    1  C   UNL     1     -14.092   7.393  71.512  1.00  0.00    -0.409 C  
HETATM    2  N   UNL     1     -12.923   8.125  71.967  1.00  0.00    -0.321 N  
HETATM    3  O   UNL     1     -10.755   7.983  72.772  1.00  0.00    -0.331 OA 
HETATM    4  C   UNL     1     -11.740   7.460  72.260  1.00  0.00    -0.286 C  
ENDROOT
BRANCH   2   5
HETATM    5  C   UNL     1     -13.076   9.530  72.338  1.00  0.00    -0.349 C  
BRANCH   5   6
HETATM    6  C   UNL     1     -13.283  10.451  71.127  1.00  0.00    -0.399 C  
BRANCH   6   7
HETATM    7  C   UNL     1     -11.959  11.074  70.668  1.00  0.00    -0.464 C  
BRANCH   7   8
HETATM    8  C   UNL     1     -11.594  10.654  69.239  1.00  0.00    -0.346 C  
BRANCH   8   9
HETATM    9  C   UNL     1     -10.644   9.452  69.239  1.00  0.00    -0.239 C  
BRANCH   9  10
HETATM   10  C   UNL     1      -9.452   9.672  70.175  1.00  0.00    -0.298 C  
BRANCH  10  11
HETATM   11  C   UNL     1      -8.203   8.888  69.760  1.00  0.00    -0.119 C  
BRANCH  11  12
HETATM   12  C   UNL     1      -7.090   9.779  69.212  1.00  0.00    -0.066 C  
BRANCH  12  13
HETATM   13  C   UNL     1      -7.226   9.984  67.705  1.00  0.00    -0.087 C  
BRANCH  13  14
HETATM   14  C   UNL     1      -7.255  11.470  67.378  1.00  0.00    -0.119 C  
BRANCH  14  15
HETATM   15  N   UNL     1      -8.606  11.936  67.104  1.00  0.00    -0.165 N  
HETATM   16  C   UNL     1      -9.099  13.032  67.787  1.00  0.00    -0.200 C  
HETATM   17  C   UNL     1      -9.392  11.263  66.080  1.00  0.00    -0.214 C  
HETATM   18  O   UNL     1      -8.500  13.617  68.684  1.00  0.00    -0.134 OA 
BRANCH  16  19
HETATM   19  O   UNL     1     -10.412  13.312  67.437  1.00  0.00    -0.241 OA 
BRANCH  19  20
HETATM   20  C   UNL     1     -10.537  14.442  66.620  1.00  0.00    -0.282 A  
HETATM   21  C   UNL     1     -11.256  14.296  65.439  1.00  0.00    -0.329 A  
HETATM   22  C   UNL     1     -11.498  15.427  64.668  1.00  0.00    -0.339 A  
HETATM   23  C   UNL     1     -11.026  16.680  65.074  1.00  0.00    -0.172 A  
HETATM   24  C   UNL     1     -10.288  16.829  66.261  1.00  0.00    -0.310 A  
HETATM   25  C   UNL     1     -10.083  15.697  67.048  1.00  0.00    -0.253 A  
BRANCH  24  26
HETATM   26  N   UNL     1      -9.819  18.191  66.749  1.00  0.00    -0.319 N  
HETATM   27  C   UNL     1     -10.073  18.355  68.244  1.00  0.00    -0.383 C  
HETATM   28  C   UNL     1     -10.583  19.314  66.037  1.00  0.00    -0.461 C  
HETATM   29  C   UNL     1      -8.329  18.299  66.456  1.00  0.00    -0.266 C  
ENDBRANCH  24  26
ENDBRANCH  19  20
ENDBRANCH  16  19
ENDBRANCH  14  15
ENDBRANCH  13  14
ENDBRANCH  12  13
ENDBRANCH  11  12
ENDBRANCH  10  11
ENDBRANCH   9  10
ENDBRANCH   8   9
ENDBRANCH   7   8
ENDBRANCH   6   7
ENDBRANCH   5   6
ENDBRANCH   2   5
BRANCH   4  30
HETATM   30  O   UNL     1     -11.810   6.093  71.975  1.00  0.00    -0.318 OA 
BRANCH  30  31
HETATM   31  C   UNL     1     -10.762   5.637  71.158  1.00  0.00    -0.241 A  
HETATM   32  C   UNL     1      -9.721   4.891  71.715  1.00  0.00    -0.223 A  
HETATM   33  C   UNL     1     -10.845   5.851  69.779  1.00  0.00    -0.447 A  
HETATM   34  C   UNL     1      -9.838   5.346  68.939  1.00  0.00    -0.166 A  
HETATM   35  C   UNL     1      -8.719   4.403  70.897  1.00  0.00    -0.126 A  
HETATM   36  C   UNL     1      -8.772   4.636  69.523  1.00  0.00    -0.111 A  
BRANCH  34  37
HETATM   37  N   UNL     1      -9.833   5.656  67.446  1.00  0.00    -0.133 N  
HETATM   38  C   UNL     1      -9.945   4.381  66.609  1.00  0.00    -0.210 C  
HETATM   39  C   UNL     1     -11.022   6.541  67.070  1.00  0.00    -0.396 C  
HETATM   40  C   UNL     1      -8.507   6.351  67.135  1.00  0.00    -0.112 C  
ENDBRANCH  34  37
ENDBRANCH  30  31
ENDBRANCH   4  30
TORSDOF 17
ENDMDL
MODEL       43
REMARK 921   NORMALIZED FREE ENERGY PREDICTED BY IDOCK:   -5.46 KCAL/MOL
REMARK 922        TOTAL FREE ENERGY PREDICTED BY IDOCK:  -13.11 KCAL/MOL
REMARK 923 INTER-LIGAND FREE ENERGY PREDICTED BY IDOCK:  -10.68 KCAL/MOL
REMARK 924 INTRA-LIGAND FREE ENERGY PREDICTED BY IDOCK:   -2.44 KCAL/MOL
REMARK 927      BINDING AFFINITY PREDICTED BY RF-SCORE:    0.00 PKD
ROOT
HETATM    1  C   UNL     1     -10.143  14.371  64.850  1.00  0.00    -0.218 C  
HETATM    2  N   UNL     1     -11.465  13.808  64.630  1.00  0.00    -0.356 N  
HETATM    3  O   UNL     1     -13.534  13.333  65.556  1.00  0.00    -0.336 OA 
HETATM    4  C   UNL     1     -12.443  13.893  65.611  1.00  0.00    -0.505 C  
ENDROOT
BRANCH   2   5
HETATM    5  C   UNL     1     -11.676  12.950  63.466  1.00  0.00    -0.512 C  
BRANCH   5   6
HETATM    6  C   UNL     1     -10.653  11.810  63.368  1.00  0.00    -0.479 C  
BRANCH   6   7
HETATM    7  C   UNL     1     -10.758  10.861  64.568  1.00  0.00    -0.258 C  
BRANCH   7   8
HETATM    8  C   UNL     1      -9.394  10.276  64.957  1.00  0.00    -0.290 C  
BRANCH   8   9
HETATM    9  C   UNL     1      -8.845  10.943  66.222  1.00  0.00    -0.187 C  
BRANCH   9  10
HETATM   10  C   UNL     1      -7.366  10.610  66.440  1.00  0.00    -0.138 C  
BRANCH  10  11
HETATM   11  C   UNL     1      -7.147   9.353  67.289  1.00  0.00    -0.086 C  
BRANCH  11  12
HETATM   12  C   UNL     1      -6.620   8.168  66.482  1.00  0.00    -0.055 C  
BRANCH  12  13
HETATM   13  C   UNL     1      -7.393   6.889  66.794  1.00  0.00    -0.078 C  
BRANCH  13  14
HETATM   14  C   UNL     1      -8.798   6.970  66.218  1.00  0.00    -0.148 C  
BRANCH  14  15
HETATM   15  N   UNL     1      -9.780   6.357  67.101  1.00  0.00    -0.135 N  
HETATM   16  C   UNL     1     -10.495   7.152  67.978  1.00  0.00    -0.201 C  
HETATM   17  C   UNL     1     -10.018   4.924  67.007  1.00  0.00    -0.208 C  
HETATM   18  O   UNL     1     -10.313   8.355  68.128  1.00  0.00    -0.205 OA 
BRANCH  16  19
HETATM   19  O   UNL     1     -11.352   6.404  68.773  1.00  0.00    -0.327 OA 
BRANCH  19  20
HETATM   20  C   UNL     1     -11.146   6.597  70.143  1.00  0.00    -0.329 A  
HETATM   21  C   UNL     1     -12.131   7.283  70.843  1.00  0.00    -0.326 A  
HETATM   22  C   UNL     1     -12.011   7.385  72.225  1.00  0.00    -0.277 A  
HETATM   23  C   UNL     1     -10.921   6.814  72.889  1.00  0.00    -0.297 A  
HETATM   24  C   UNL     1      -9.916   6.130  72.183  1.00  0.00    -0.167 A  
HETATM   25  C   UNL     1     -10.063   5.998  70.803  1.00  0.00    -0.248 A  
BRANCH  24  26
HETATM   26  N   UNL     1      -8.756   5.450  72.893  1.00  0.00    -0.119 N  
HETATM   27  C   UNL     1      -8.934   3.935  72.907  1.00  0.00    -0.101 C  
HETATM   28  C   UNL     1      -8.674   5.906  74.355  1.00  0.00    -0.123 C  
HETATM   29  C   UNL     1      -7.479   5.821  72.153  1.00  0.00    -0.096 C  
ENDBRANCH  24  26
ENDBRANCH  19  20
ENDBRANCH  16  19
ENDBRANCH  14  15
ENDBRANCH  13  14
ENDBRANCH  12  13
ENDBRANCH  11  12
ENDBRANCH  10  11
ENDBRANCH   9  10
ENDBRANCH   8   9
ENDBRANCH   7   8
ENDBRANCH   6   7
ENDBRANCH   5   6
ENDBRANCH   2   5
BRANCH   4  30
HETATM   30  O   UNL     1     -12.027  14.635  66.720  1.00  0.00    -0.373 OA 
BRANCH  30  31
HETATM   31  C   UNL     1     -12.049  13.907  67.921  1.00  0.00    -0.283 A  
HETATM   32  C   UNL     1     -11.652  12.568  67.929  1.00  0.00    -0.403 A  
HETATM   33  C   UNL     1     -12.368  14.578  69.106  1.00  0.00    -0.152 A  
HETATM   34  C   UNL     1     -12.334  13.881  70.326  1.00  0.00    -0.345 A  
HETATM   35  C   UNL     1     -11.629  11.872  69.124  1.00  0.00    -0.373 A  
HETATM   36  C   UNL     1     -11.975  12.520  70.309  1.00  0.00    -0.364 A  
BRANCH  34  37
HETATM   37  N   UNL     1     -12.785  14.545  71.622  1.00  0.00    -0.326 N  
HETATM   38  C   UNL     1     -11.637  15.302  72.292  1.00  0.00    -0.435 C  
HETATM   39  C   UNL     1     -13.893  15.563  71.355  1.00  0.00    -0.405 C  
HETATM   40  C   UNL     1     -13.269  13.433  72.553  1.00  0.00    -0.413 C  
ENDBRANCH  34  37
ENDBRANCH  30  31
ENDBRANCH   4  30
TORSDOF 17
ENDMDL
MODEL       44
REMARK 921   NORMALIZED FREE ENERGY PREDICTED BY IDOCK:   -5.44 KCAL/MOL
REMARK 922        TOTAL FREE ENERGY PREDICTED BY IDOCK:  -13.08 KCAL/MOL
REMARK 923 INTER-LIGAND FREE ENERGY PREDICTED BY IDOCK:  -10.89 KCAL/MOL
REMARK 924 INTRA-LIGAND FREE ENERGY PREDICTED BY IDOCK:   -2.19 KCAL/MOL
REMARK 927      BINDING AFFINITY PREDICTED BY RF-SCORE:    0.00 PKD
ROOT
HETATM    1  C   UNL     1      -8.368   5.443  70.602  1.00  0.00    -0.115 C  
HETATM    2  N   UNL     1      -9.800   5.690  70.622  1.00  0.00    -0.179 N  
HETATM    3  O   UNL     1     -11.642   6.437  69.432  1.00  0.00    -0.382 OA 
HETATM    4  C   UNL     1     -10.467   6.083  69.470  1.00  0.00    -0.266 C  
ENDROOT
BRANCH   2   5
HETATM    5  C   UNL     1     -10.483   5.751  71.913  1.00  0.00    -0.221 C  
BRANCH   5   6
HETATM    6  C   UNL     1      -9.806   6.706  72.906  1.00  0.00    -0.179 C  
BRANCH   6   7
HETATM    7  C   UNL     1     -10.672   7.944  73.168  1.00  0.00    -0.331 C  
BRANCH   7   8
HETATM    8  C   UNL     1     -11.851   8.035  72.192  1.00  0.00    -0.401 C  
BRANCH   8   9
HETATM    9  C   UNL     1     -12.013   9.457  71.647  1.00  0.00    -0.465 C  
BRANCH   9  10
HETATM   10  C   UNL     1     -10.902   9.813  70.655  1.00  0.00    -0.396 C  
BRANCH  10  11
HETATM   11  C   UNL     1     -11.245  11.015  69.768  1.00  0.00    -0.339 C  
BRANCH  11  12
HETATM   12  C   UNL     1     -12.470  11.788  70.251  1.00  0.00    -0.237 C  
BRANCH  12  13
HETATM   13  C   UNL     1     -12.126  13.239  70.579  1.00  0.00    -0.391 C  
BRANCH  13  14
HETATM   14  C   UNL     1     -11.843  14.013  69.300  1.00  0.00    -0.344 C  
BRANCH  14  15
HETATM   15  N   UNL     1     -11.391  15.368  69.579  1.00  0.00    -0.278 N  
HETATM   16  C   UNL     1     -11.067  16.207  68.528  1.00  0.00    -0.357 C  
HETATM   17  C   UNL     1     -11.334  15.825  70.961  1.00  0.00    -0.392 C  
HETATM   18  O   UNL     1     -11.061  15.869  67.349  1.00  0.00    -0.301 OA 
BRANCH  16  19
HETATM   19  O   UNL     1     -10.615  17.441  68.972  1.00  0.00    -0.323 OA 
BRANCH  19  20
HETATM   20  C   UNL     1      -9.942  18.171  67.986  1.00  0.00    -0.345 A  
HETATM   21  C   UNL     1     -10.629  19.225  67.395  1.00  0.00    -0.594 A  
HETATM   22  C   UNL     1      -9.945  20.040  66.500  1.00  0.00    -0.603 A  
HETATM   23  C   UNL     1      -8.600  19.800  66.202  1.00  0.00    -0.367 A  
HETATM   24  C   UNL     1      -7.906  18.728  66.789  1.00  0.00    -0.245 A  
HETATM   25  C   UNL     1      -8.586  17.938  67.714  1.00  0.00    -0.242 A  
BRANCH  24  26
HETATM   26  N   UNL     1      -6.427  18.488  66.525  1.00  0.00    -0.181 N  
HETATM   27  C   UNL     1      -5.561  19.262  67.513  1.00  0.00    -0.173 C  
HETATM   28  C   UNL     1      -6.043  18.968  65.119  1.00  0.00    -0.279 C  
HETATM   29  C   UNL     1      -6.171  16.994  66.660  1.00  0.00    -0.205 C  
ENDBRANCH  24  26
ENDBRANCH  19  20
ENDBRANCH  16  19
ENDBRANCH  14  15
ENDBRANCH  13  14
ENDBRANCH  12  13
ENDBRANCH  11  12
ENDBRANCH  10  11
ENDBRANCH   9  10
ENDBRANCH   8   9
ENDBRANCH   7   8
ENDBRANCH   6   7
ENDBRANCH   5   6
ENDBRANCH   2   5
BRANCH   4  30
HETATM   30  O   UNL     1      -9.632   6.106  68.349  1.00  0.00    -0.118 OA 
BRANCH  30  31
HETATM   31  C   UNL     1      -9.457   7.390  67.807  1.00  0.00    -0.140 A  
HETATM   32  C   UNL     1     -10.271   7.816  66.755  1.00  0.00    -0.346 A  
HETATM   33  C   UNL     1      -8.539   8.254  68.411  1.00  0.00    -0.133 A  
HETATM   34  C   UNL     1      -8.396   9.564  67.922  1.00  0.00    -0.115 A  
HETATM   35  C   UNL     1     -10.127   9.100  66.260  1.00  0.00    -0.319 A  
HETATM   36  C   UNL     1      -9.193   9.962  66.832  1.00  0.00    -0.171 A  
BRANCH  34  37
HETATM   37  N   UNL     1      -7.327  10.497  68.479  1.00  0.00    -0.084 N  
HETATM   38  C   UNL     1      -7.703  11.965  68.274  1.00  0.00    -0.127 C  
HETATM   39  C   UNL     1      -7.152  10.289  69.983  1.00  0.00    -0.158 C  
HETATM   40  C   UNL     1      -6.030  10.197  67.726  1.00  0.00    -0.049 C  
ENDBRANCH  34  37
ENDBRANCH  30  31
ENDBRANCH   4  30
TORSDOF 17
ENDMDL
MODEL       45
REMARK 921   NORMALIZED FREE ENERGY PREDICTED BY IDOCK:   -5.44 KCAL/MOL
REMARK 922        TOTAL FREE ENERGY PREDICTED BY IDOCK:  -13.07 KCAL/MOL
REMARK 923 INTER-LIGAND FREE ENERGY PREDICTED BY IDOCK:  -11.31 KCAL/MOL
REMARK 924 INTRA-LIGAND FREE ENERGY PREDICTED BY IDOCK:   -1.76 KCAL/MOL
REMARK 927      BINDING AFFINITY PREDICTED BY RF-SCORE:    0.00 PKD
ROOT
HETATM    1  C   UNL     1     -11.884  14.252  67.138  1.00  0.00    -0.425 C  
HETATM    2  N   UNL     1     -11.728  14.977  68.387  1.00  0.00    -0.330 N  
HETATM    3  O   UNL     1     -10.688  16.739  69.474  1.00  0.00    -0.330 OA 
HETATM    4  C   UNL     1     -10.976  16.142  68.441  1.00  0.00    -0.341 C  
ENDROOT
BRANCH   2   5
HETATM    5  C   UNL     1     -12.172  14.343  69.627  1.00  0.00    -0.307 C  
BRANCH   5   6
HETATM    6  C   UNL     1     -11.863  12.840  69.676  1.00  0.00    -0.384 C  
BRANCH   6   7
HETATM    7  C   UNL     1     -12.583  12.160  70.847  1.00  0.00    -0.340 C  
BRANCH   7   8
HETATM    8  C   UNL     1     -12.871  10.681  70.560  1.00  0.00    -0.356 C  
BRANCH   8   9
HETATM    9  C   UNL     1     -13.350   9.954  71.821  1.00  0.00    -0.501 C  
BRANCH   9  10
HETATM   10  C   UNL     1     -12.468   8.745  72.146  1.00  0.00    -0.460 C  
BRANCH  10  11
HETATM   11  C   UNL     1     -10.976   9.002  71.910  1.00  0.00    -0.423 C  
BRANCH  11  12
HETATM   12  C   UNL     1     -10.071   8.053  72.693  1.00  0.00    -0.370 C  
BRANCH  12  13
HETATM   13  C   UNL     1      -8.750   7.811  71.968  1.00  0.00    -0.162 C  
BRANCH  13  14
HETATM   14  C   UNL     1      -8.742   6.426  71.339  1.00  0.00    -0.131 C  
BRANCH  14  15
HETATM   15  N   UNL     1      -9.467   6.401  70.077  1.00  0.00    -0.155 N  
HETATM   16  C   UNL     1      -8.872   6.917  68.940  1.00  0.00    -0.129 C  
HETATM   17  C   UNL     1     -10.788   5.790  70.033  1.00  0.00    -0.333 C  
HETATM   18  O   UNL     1      -7.781   7.475  68.923  1.00  0.00    -0.109 OA 
BRANCH  16  19
HETATM   19  O   UNL     1      -9.717   6.853  67.841  1.00  0.00    -0.122 OA 
BRANCH  19  20
HETATM   20  C   UNL     1      -9.894   8.088  67.209  1.00  0.00    -0.197 A  
HETATM   21  C   UNL     1     -10.626   9.053  67.891  1.00  0.00    -0.256 A  
HETATM   22  C   UNL     1     -10.717  10.327  67.341  1.00  0.00    -0.339 A  
HETATM   23  C   UNL     1     -10.089  10.625  66.127  1.00  0.00    -0.306 A  
HETATM   24  C   UNL     1      -9.359   9.649  65.428  1.00  0.00    -0.259 A  
HETATM   25  C   UNL     1      -9.239   8.385  66.005  1.00  0.00    -0.247 A  
BRANCH  24  26
HETATM   26  N   UNL     1      -8.618   9.969  64.139  1.00  0.00    -0.172 N  
HETATM   27  C   UNL     1      -7.235  10.543  64.429  1.00  0.00     0.101 C  
HETATM   28  C   UNL     1      -9.380  11.023  63.325  1.00  0.00    -0.308 C  
HETATM   29  C   UNL     1      -8.494   8.678  63.343  1.00  0.00    -0.074 C  
ENDBRANCH  24  26
ENDBRANCH  19  20
ENDBRANCH  16  19
ENDBRANCH  14  15
ENDBRANCH  13  14
ENDBRANCH  12  13
ENDBRANCH  11  12
ENDBRANCH  10  11
ENDBRANCH   9  10
ENDBRANCH   8   9
ENDBRANCH   7   8
ENDBRANCH   6   7
ENDBRANCH   5   6
ENDBRANCH   2   5
BRANCH   4  30
HETATM   30  O   UNL     1     -10.510  16.537  67.184  1.00  0.00    -0.307 OA 
BRANCH  30  31
HETATM   31  C   UNL     1      -9.928  17.816  67.178  1.00  0.00    -0.322 A  
HETATM   32  C   UNL     1     -10.697  18.927  66.829  1.00  0.00    -0.414 A  
HETATM   33  C   UNL     1      -8.612  17.955  67.630  1.00  0.00    -0.242 A  
HETATM   34  C   UNL     1      -8.034  19.235  67.691  1.00  0.00    -0.278 A  
HETATM   35  C   UNL     1     -10.132  20.189  66.875  1.00  0.00    -0.592 A  
HETATM   36  C   UNL     1      -8.810  20.340  67.293  1.00  0.00    -0.454 A  
BRANCH  34  37
HETATM   37  N   UNL     1      -6.569  19.417  68.069  1.00  0.00    -0.231 N  
HETATM   38  C   UNL     1      -6.416  19.867  69.523  1.00  0.00    -0.354 C  
HETATM   39  C   UNL     1      -5.803  18.101  67.928  1.00  0.00    -0.159 C  
HETATM   40  C   UNL     1      -5.995  20.491  67.144  1.00  0.00    -0.193 C  
ENDBRANCH  34  37
ENDBRANCH  30  31
ENDBRANCH   4  30
TORSDOF 17
ENDMDL
MODEL       46
REMARK 921   NORMALIZED FREE ENERGY PREDICTED BY IDOCK:   -5.42 KCAL/MOL
REMARK 922        TOTAL FREE ENERGY PREDICTED BY IDOCK:  -13.03 KCAL/MOL
REMARK 923 INTER-LIGAND FREE ENERGY PREDICTED BY IDOCK:  -10.90 KCAL/MOL
REMARK 924 INTRA-LIGAND FREE ENERGY PREDICTED BY IDOCK:   -2.13 KCAL/MOL
REMARK 927      BINDING AFFINITY PREDICTED BY RF-SCORE:    0.00 PKD
ROOT
HETATM    1  C   UNL     1     -12.344  12.355  64.755  1.00  0.00    -0.423 C  
HETATM    2  N   UNL     1     -11.005  12.337  65.317  1.00  0.00    -0.297 N  
HETATM    3  O   UNL     1      -9.547  13.282  66.850  1.00  0.00    -0.234 OA 
HETATM    4  C   UNL     1     -10.681  13.141  66.402  1.00  0.00    -0.284 C  
ENDROOT
BRANCH   2   5
HETATM    5  C   UNL     1      -9.946  11.646  64.585  1.00  0.00    -0.253 C  
BRANCH   5   6
HETATM    6  C   UNL     1     -10.239  11.521  63.083  1.00  0.00    -0.389 C  
BRANCH   6   7
HETATM    7  C   UNL     1      -9.211  10.620  62.388  1.00  0.00    -0.300 C  
BRANCH   7   8
HETATM    8  C   UNL     1      -8.719   9.496  63.308  1.00  0.00    -0.238 C  
BRANCH   8   9
HETATM    9  C   UNL     1      -7.262   9.129  63.008  1.00  0.00    -0.094 C  
BRANCH   9  10
HETATM   10  C   UNL     1      -6.839   7.851  63.737  1.00  0.00    -0.063 C  
BRANCH  10  11
HETATM   11  C   UNL     1      -7.791   7.456  64.871  1.00  0.00    -0.125 C  
BRANCH  11  12
HETATM   12  C   UNL     1      -7.118   7.439  66.242  1.00  0.00    -0.070 C  
BRANCH  12  13
HETATM   13  C   UNL     1      -7.211   8.799  66.930  1.00  0.00    -0.079 C  
BRANCH  13  14
HETATM   14  C   UNL     1      -8.619   9.358  66.800  1.00  0.00    -0.127 C  
BRANCH  14  15
HETATM   15  N   UNL     1      -9.012  10.112  67.981  1.00  0.00    -0.125 N  
HETATM   16  C   UNL     1     -10.353  10.234  68.296  1.00  0.00    -0.181 C  
HETATM   17  C   UNL     1      -7.977  10.684  68.831  1.00  0.00    -0.132 C  
HETATM   18  O   UNL     1     -11.269   9.807  67.602  1.00  0.00    -0.178 OA 
BRANCH  16  19
HETATM   19  O   UNL     1     -10.550  11.018  69.423  1.00  0.00    -0.223 OA 
BRANCH  19  20
HETATM   20  C   UNL     1     -11.156  10.327  70.479  1.00  0.00    -0.306 A  
HETATM   21  C   UNL     1     -12.357  10.832  70.962  1.00  0.00    -0.509 A  
HETATM   22  C   UNL     1     -13.041  10.101  71.928  1.00  0.00    -0.571 A  
HETATM   23  C   UNL     1     -12.527   8.889  72.400  1.00  0.00    -0.405 A  
HETATM   24  C   UNL     1     -11.306   8.382  71.923  1.00  0.00    -0.314 A  
HETATM   25  C   UNL     1     -10.645   9.101  70.927  1.00  0.00    -0.341 A  
BRANCH  24  26
HETATM   26  N   UNL     1     -10.761   7.038  72.379  1.00  0.00    -0.222 N  
HETATM   27  C   UNL     1     -10.217   7.120  73.801  1.00  0.00    -0.352 C  
HETATM   28  C   UNL     1      -9.601   6.591  71.480  1.00  0.00    -0.161 C  
HETATM   29  C   UNL     1     -11.899   6.030  72.311  1.00  0.00    -0.250 C  
ENDBRANCH  24  26
ENDBRANCH  19  20
ENDBRANCH  16  19
ENDBRANCH  14  15
ENDBRANCH  13  14
ENDBRANCH  12  13
ENDBRANCH  11  12
ENDBRANCH  10  11
ENDBRANCH   9  10
ENDBRANCH   8   9
ENDBRANCH   7   8
ENDBRANCH   6   7
ENDBRANCH   5   6
ENDBRANCH   2   5
BRANCH   4  30
HETATM   30  O   UNL     1     -11.784  13.843  66.896  1.00  0.00    -0.355 OA 
BRANCH  30  31
HETATM   31  C   UNL     1     -11.442  14.849  67.815  1.00  0.00    -0.338 A  
HETATM   32  C   UNL     1     -11.702  14.666  69.175  1.00  0.00    -0.342 A  
HETATM   33  C   UNL     1     -10.745  15.970  67.353  1.00  0.00    -0.306 A  
HETATM   34  C   UNL     1     -10.338  16.957  68.267  1.00  0.00    -0.335 A  
HETATM   35  C   UNL     1     -11.317  15.639  70.079  1.00  0.00    -0.341 A  
HETATM   36  C   UNL     1     -10.649  16.777  69.628  1.00  0.00    -0.242 A  
BRANCH  34  37
HETATM   37  N   UNL     1      -9.678  18.245  67.789  1.00  0.00    -0.288 N  
HETATM   38  C   UNL     1      -9.792  19.355  68.835  1.00  0.00    -0.453 C  
HETATM   39  C   UNL     1      -8.186  18.029  67.531  1.00  0.00    -0.235 C  
HETATM   40  C   UNL     1     -10.402  18.675  66.513  1.00  0.00    -0.421 C  
ENDBRANCH  34  37
ENDBRANCH  30  31
ENDBRANCH   4  30
TORSDOF 17
ENDMDL
MODEL       47
REMARK 921   NORMALIZED FREE ENERGY PREDICTED BY IDOCK:   -5.39 KCAL/MOL
REMARK 922        TOTAL FREE ENERGY PREDICTED BY IDOCK:  -12.98 KCAL/MOL
REMARK 923 INTER-LIGAND FREE ENERGY PREDICTED BY IDOCK:  -10.67 KCAL/MOL
REMARK 924 INTRA-LIGAND FREE ENERGY PREDICTED BY IDOCK:   -2.31 KCAL/MOL
REMARK 927      BINDING AFFINITY PREDICTED BY RF-SCORE:    0.00 PKD
ROOT
HETATM    1  C   UNL     1     -11.663  15.819  69.543  1.00  0.00    -0.360 C  
HETATM    2  N   UNL     1     -10.989  15.436  68.314  1.00  0.00    -0.276 N  
HETATM    3  O   UNL     1     -10.286  16.111  66.212  1.00  0.00    -0.303 OA 
HETATM    4  C   UNL     1     -10.730  16.375  67.326  1.00  0.00    -0.257 C  
ENDROOT
BRANCH   2   5
HETATM    5  C   UNL     1     -10.799  14.015  68.032  1.00  0.00    -0.246 C  
BRANCH   5   6
HETATM    6  C   UNL     1     -12.110  13.290  67.698  1.00  0.00    -0.295 C  
BRANCH   6   7
HETATM    7  C   UNL     1     -11.980  12.468  66.409  1.00  0.00    -0.386 C  
BRANCH   7   8
HETATM    8  C   UNL     1     -12.546  13.214  65.195  1.00  0.00    -0.525 C  
BRANCH   8   9
HETATM    9  C   UNL     1     -11.860  12.769  63.899  1.00  0.00    -0.541 C  
BRANCH   9  10
HETATM   10  C   UNL     1     -10.357  12.555  64.100  1.00  0.00    -0.416 C  
BRANCH  10  11
HETATM   11  C   UNL     1      -9.763  11.509  63.151  1.00  0.00    -0.412 C  
BRANCH  11  12
HETATM   12  C   UNL     1      -9.676  10.116  63.772  1.00  0.00    -0.203 C  
BRANCH  12  13
HETATM   13  C   UNL     1      -9.379  10.186  65.267  1.00  0.00    -0.278 C  
BRANCH  13  14
HETATM   14  C   UNL     1      -7.876  10.192  65.505  1.00  0.00    -0.147 C  
BRANCH  14  15
HETATM   15  N   UNL     1      -7.546  10.596  66.864  1.00  0.00    -0.110 N  
HETATM   16  C   UNL     1      -6.984   9.675  67.730  1.00  0.00    -0.079 C  
HETATM   17  C   UNL     1      -7.774  11.977  67.266  1.00  0.00    -0.168 C  
HETATM   18  O   UNL     1      -6.803   8.493  67.461  1.00  0.00    -0.069 OA 
BRANCH  16  19
HETATM   19  O   UNL     1      -6.775  10.213  68.991  1.00  0.00    -0.051 OA 
BRANCH  19  20
HETATM   20  C   UNL     1      -7.398   9.488  70.012  1.00  0.00    -0.115 A  
HETATM   21  C   UNL     1      -6.586   8.988  71.024  1.00  0.00    -0.080 A  
HETATM   22  C   UNL     1      -7.191   8.367  72.111  1.00  0.00    -0.119 A  
HETATM   23  C   UNL     1      -8.583   8.247  72.180  1.00  0.00    -0.249 A  
HETATM   24  C   UNL     1      -9.406   8.740  71.153  1.00  0.00    -0.233 A  
HETATM   25  C   UNL     1      -8.796   9.396  70.084  1.00  0.00    -0.249 A  
BRANCH  24  26
HETATM   26  N   UNL     1     -10.923   8.674  71.238  1.00  0.00    -0.250 N  
HETATM   27  C   UNL     1     -11.483   7.648  70.257  1.00  0.00    -0.127 C  
HETATM   28  C   UNL     1     -11.545  10.028  70.874  1.00  0.00    -0.378 C  
HETATM   29  C   UNL     1     -11.291   8.291  72.664  1.00  0.00    -0.350 C  
ENDBRANCH  24  26
ENDBRANCH  19  20
ENDBRANCH  16  19
ENDBRANCH  14  15
ENDBRANCH  13  14
ENDBRANCH  12  13
ENDBRANCH  11  12
ENDBRANCH  10  11
ENDBRANCH   9  10
ENDBRANCH   8   9
ENDBRANCH   7   8
ENDBRANCH   6   7
ENDBRANCH   5   6
ENDBRANCH   2   5
BRANCH   4  30
HETATM   30  O   UNL     1     -11.100  17.669  67.706  1.00  0.00    -0.220 OA 
BRANCH  30  31
HETATM   31  C   UNL     1     -10.073  18.614  67.549  1.00  0.00    -0.360 A  
HETATM   32  C   UNL     1     -10.287  19.749  66.764  1.00  0.00    -0.604 A  
HETATM   33  C   UNL     1      -8.891  18.447  68.277  1.00  0.00    -0.323 A  
HETATM   34  C   UNL     1      -7.877  19.415  68.182  1.00  0.00    -0.308 A  
HETATM   35  C   UNL     1      -9.289  20.700  66.655  1.00  0.00    -0.229 A  
HETATM   36  C   UNL     1      -8.092  20.530  67.350  1.00  0.00    -0.345 A  
BRANCH  34  37
HETATM   37  N   UNL     1      -6.531  19.213  68.869  1.00  0.00    -0.257 N  
HETATM   38  C   UNL     1      -6.359  20.162  70.055  1.00  0.00    -0.323 C  
HETATM   39  C   UNL     1      -6.408  17.791  69.416  1.00  0.00    -0.239 C  
HETATM   40  C   UNL     1      -5.447  19.499  67.829  1.00  0.00    -0.185 C  
ENDBRANCH  34  37
ENDBRANCH  30  31
ENDBRANCH   4  30
TORSDOF 17
ENDMDL
MODEL       48
REMARK 921   NORMALIZED FREE ENERGY PREDICTED BY IDOCK:   -5.36 KCAL/MOL
REMARK 922        TOTAL FREE ENERGY PREDICTED BY IDOCK:  -12.92 KCAL/MOL
REMARK 923 INTER-LIGAND FREE ENERGY PREDICTED BY IDOCK:  -10.90 KCAL/MOL
REMARK 924 INTRA-LIGAND FREE ENERGY PREDICTED BY IDOCK:   -2.02 KCAL/MOL
REMARK 927      BINDING AFFINITY PREDICTED BY RF-SCORE:    0.00 PKD
ROOT
HETATM    1  C   UNL     1     -10.705  16.703  68.367  1.00  0.00    -0.353 C  
HETATM    2  N   UNL     1     -11.035  15.387  68.886  1.00  0.00    -0.247 N  
HETATM    3  O   UNL     1     -11.949  13.308  68.426  1.00  0.00    -0.340 OA 
HETATM    4  C   UNL     1     -11.526  14.396  68.047  1.00  0.00    -0.310 C  
ENDROOT
BRANCH   2   5
HETATM    5  C   UNL     1     -11.068  15.192  70.334  1.00  0.00    -0.260 C  
BRANCH   5   6
HETATM    6  C   UNL     1     -12.398  15.624  70.967  1.00  0.00    -0.481 C  
BRANCH   6   7
HETATM    7  C   UNL     1     -12.802  14.686  72.111  1.00  0.00    -0.408 C  
BRANCH   7   8
HETATM    8  C   UNL     1     -13.770  13.594  71.641  1.00  0.00    -0.324 C  
BRANCH   8   9
HETATM    9  C   UNL     1     -13.382  12.225  72.209  1.00  0.00    -0.375 C  
BRANCH   9  10
HETATM   10  C   UNL     1     -12.894  11.275  71.111  1.00  0.00    -0.452 C  
BRANCH  10  11
HETATM   11  C   UNL     1     -13.407   9.841  71.280  1.00  0.00    -0.413 C  
BRANCH  11  12
HETATM   12  C   UNL     1     -12.507   8.982  72.165  1.00  0.00    -0.450 C  
BRANCH  12  13
HETATM   13  C   UNL     1     -11.034   9.156  71.805  1.00  0.00    -0.429 C  
BRANCH  13  14
HETATM   14  C   UNL     1     -10.477   7.862  71.231  1.00  0.00    -0.203 C  
BRANCH  14  15
HETATM   15  N   UNL     1     -10.598   7.819  69.781  1.00  0.00    -0.240 N  
HETATM   16  C   UNL     1     -10.907   6.623  69.159  1.00  0.00    -0.283 C  
HETATM   17  C   UNL     1     -10.437   9.051  69.021  1.00  0.00    -0.218 C  
HETATM   18  O   UNL     1     -11.018   5.549  69.741  1.00  0.00    -0.310 OA 
BRANCH  16  19
HETATM   19  O   UNL     1     -10.940   6.751  67.779  1.00  0.00    -0.256 OA 
BRANCH  19  20
HETATM   20  C   UNL     1      -9.977   5.972  67.127  1.00  0.00    -0.156 A  
HETATM   21  C   UNL     1     -10.430   4.871  66.411  1.00  0.00    -0.325 A  
HETATM   22  C   UNL     1      -9.510   4.149  65.657  1.00  0.00    -0.177 A  
HETATM   23  C   UNL     1      -8.163   4.525  65.626  1.00  0.00    -0.110 A  
HETATM   24  C   UNL     1      -7.700   5.631  66.359  1.00  0.00    -0.099 A  
HETATM   25  C   UNL     1      -8.634   6.372  67.081  1.00  0.00    -0.111 A  
BRANCH  24  26
HETATM   26  N   UNL     1      -6.252   6.091  66.290  1.00  0.00    -0.036 N  
HETATM   27  C   UNL     1      -5.460   5.592  67.493  1.00  0.00    -0.012 C  
HETATM   28  C   UNL     1      -6.171   7.623  66.303  1.00  0.00    -0.045 C  
HETATM   29  C   UNL     1      -5.654   5.543  65.003  1.00  0.00    -0.017 C  
ENDBRANCH  24  26
ENDBRANCH  19  20
ENDBRANCH  16  19
ENDBRANCH  14  15
ENDBRANCH  13  14
ENDBRANCH  12  13
ENDBRANCH  11  12
ENDBRANCH  10  11
ENDBRANCH   9  10
ENDBRANCH   8   9
ENDBRANCH   7   8
ENDBRANCH   6   7
ENDBRANCH   5   6
ENDBRANCH   2   5
BRANCH   4  30
HETATM   30  O   UNL     1     -11.558  14.797  66.708  1.00  0.00    -0.364 OA 
BRANCH  30  31
HETATM   31  C   UNL     1     -11.436  13.730  65.801  1.00  0.00    -0.318 A  
HETATM   32  C   UNL     1     -12.280  13.663  64.691  1.00  0.00    -0.448 A  
HETATM   33  C   UNL     1     -10.392  12.817  65.977  1.00  0.00    -0.291 A  
HETATM   34  C   UNL     1     -10.215  11.780  65.045  1.00  0.00    -0.272 A  
HETATM   35  C   UNL     1     -12.121  12.638  63.776  1.00  0.00    -0.604 A  
HETATM   36  C   UNL     1     -11.104  11.701  63.956  1.00  0.00    -0.458 A  
BRANCH  34  37
HETATM   37  N   UNL     1      -9.162  10.700  65.263  1.00  0.00    -0.186 N  
HETATM   38  C   UNL     1      -8.361  10.433  63.988  1.00  0.00    -0.139 C  
HETATM   39  C   UNL     1      -8.160  11.125  66.337  1.00  0.00    -0.159 C  
HETATM   40  C   UNL     1      -9.902   9.426  65.672  1.00  0.00    -0.223 C  
ENDBRANCH  34  37
ENDBRANCH  30  31
ENDBRANCH   4  30
TORSDOF 17
ENDMDL
MODEL       49
REMARK 921   NORMALIZED FREE ENERGY PREDICTED BY IDOCK:   -5.36 KCAL/MOL
REMARK 922        TOTAL FREE ENERGY PREDICTED BY IDOCK:  -12.91 KCAL/MOL
REMARK 923 INTER-LIGAND FREE ENERGY PREDICTED BY IDOCK:  -11.47 KCAL/MOL
REMARK 924 INTRA-LIGAND FREE ENERGY PREDICTED BY IDOCK:   -1.44 KCAL/MOL
REMARK 927      BINDING AFFINITY PREDICTED BY RF-SCORE:    0.00 PKD
ROOT
HETATM    1  C   UNL     1     -11.854  14.079  67.587  1.00  0.00    -0.395 C  
HETATM    2  N   UNL     1     -11.645  14.562  66.233  1.00  0.00    -0.363 N  
HETATM    3  O   UNL     1     -10.545  16.088  64.881  1.00  0.00    -0.587 OA 
HETATM    4  C   UNL     1     -10.692  15.536  65.967  1.00  0.00    -0.326 C  
ENDROOT
BRANCH   2   5
HETATM    5  C   UNL     1     -12.607  14.186  65.198  1.00  0.00    -0.408 C  
BRANCH   5   6
HETATM    6  C   UNL     1     -12.504  12.709  64.793  1.00  0.00    -0.555 C  
BRANCH   6   7
HETATM    7  C   UNL     1     -11.503  12.513  63.648  1.00  0.00    -0.568 C  
BRANCH   7   8
HETATM    8  C   UNL     1     -10.627  11.272  63.860  1.00  0.00    -0.455 C  
BRANCH   8   9
HETATM    9  C   UNL     1      -9.538  11.170  62.788  1.00  0.00    -0.334 C  
BRANCH   9  10
HETATM   10  C   UNL     1      -8.331  10.366  63.281  1.00  0.00    -0.163 C  
BRANCH  10  11
HETATM   11  C   UNL     1      -8.457   9.921  64.742  1.00  0.00    -0.179 C  
BRANCH  11  12
HETATM   12  C   UNL     1      -7.798   8.570  65.016  1.00  0.00    -0.112 C  
BRANCH  12  13
HETATM   13  C   UNL     1      -8.756   7.612  65.721  1.00  0.00    -0.151 C  
BRANCH  13  14
HETATM   14  C   UNL     1      -9.021   8.086  67.142  1.00  0.00    -0.135 C  
BRANCH  14  15
HETATM   15  N   UNL     1     -10.081   7.317  67.778  1.00  0.00    -0.169 N  
HETATM   16  C   UNL     1     -10.374   7.536  69.111  1.00  0.00    -0.212 C  
HETATM   17  C   UNL     1     -10.840   6.365  66.980  1.00  0.00    -0.392 C  
HETATM   18  O   UNL     1      -9.748   8.296  69.842  1.00  0.00    -0.177 OA 
BRANCH  16  19
HETATM   19  O   UNL     1     -11.376   6.691  69.566  1.00  0.00    -0.323 OA 
BRANCH  19  20
HETATM   20  C   UNL     1     -10.976   5.886  70.638  1.00  0.00    -0.287 A  
HETATM   21  C   UNL     1     -11.574   6.125  71.870  1.00  0.00    -0.352 A  
HETATM   22  C   UNL     1     -11.285   5.265  72.924  1.00  0.00    -0.375 A  
HETATM   23  C   UNL     1     -10.410   4.188  72.744  1.00  0.00    -0.243 A  
HETATM   24  C   UNL     1      -9.794   3.951  71.504  1.00  0.00    -0.177 A  
HETATM   25  C   UNL     1     -10.118   4.794  70.442  1.00  0.00    -0.301 A  
BRANCH  24  26
HETATM   26  N   UNL     1      -8.888   2.751  71.273  1.00  0.00    -0.070 N  
HETATM   27  C   UNL     1      -7.512   2.975  71.891  1.00  0.00    -0.048 C  
HETATM   28  C   UNL     1      -8.673   2.517  69.772  1.00  0.00    -0.071 C  
HETATM   29  C   UNL     1      -9.556   1.539  71.905  1.00  0.00    -0.108 C  
ENDBRANCH  24  26
ENDBRANCH  19  20
ENDBRANCH  16  19
ENDBRANCH  14  15
ENDBRANCH  13  14
ENDBRANCH  12  13
ENDBRANCH  11  12
ENDBRANCH  10  11
ENDBRANCH   9  10
ENDBRANCH   8   9
ENDBRANCH   7   8
ENDBRANCH   6   7
ENDBRANCH   5   6
ENDBRANCH   2   5
BRANCH   4  30
HETATM   30  O   UNL     1      -9.950  15.881  67.100  1.00  0.00    -0.234 OA 
BRANCH  30  31
HETATM   31  C   UNL     1      -9.786  17.268  67.260  1.00  0.00    -0.267 A  
HETATM   32  C   UNL     1     -10.906  18.101  67.283  1.00  0.00    -0.241 A  
HETATM   33  C   UNL     1      -8.503  17.768  67.503  1.00  0.00    -0.227 A  
HETATM   34  C   UNL     1      -8.329  19.144  67.728  1.00  0.00    -0.292 A  
HETATM   35  C   UNL     1     -10.741  19.459  67.492  1.00  0.00    -0.570 A  
HETATM   36  C   UNL     1      -9.464  19.976  67.703  1.00  0.00    -0.498 A  
BRANCH  34  37
HETATM   37  N   UNL     1      -6.935  19.743  67.883  1.00  0.00    -0.256 N  
HETATM   38  C   UNL     1      -5.887  18.926  67.127  1.00  0.00    -0.155 C  
HETATM   39  C   UNL     1      -6.887  21.162  67.316  1.00  0.00    -0.340 C  
HETATM   40  C   UNL     1      -6.604  19.734  69.376  1.00  0.00    -0.355 C  
ENDBRANCH  34  37
ENDBRANCH  30  31
ENDBRANCH   4  30
TORSDOF 17
ENDMDL
MODEL       50
REMARK 921   NORMALIZED FREE ENERGY PREDICTED BY IDOCK:   -5.35 KCAL/MOL
REMARK 922        TOTAL FREE ENERGY PREDICTED BY IDOCK:  -12.91 KCAL/MOL
REMARK 923 INTER-LIGAND FREE ENERGY PREDICTED BY IDOCK:  -11.40 KCAL/MOL
REMARK 924 INTRA-LIGAND FREE ENERGY PREDICTED BY IDOCK:   -1.51 KCAL/MOL
REMARK 927      BINDING AFFINITY PREDICTED BY RF-SCORE:    0.00 PKD
ROOT
HETATM    1  C   UNL     1     -12.081  13.755  68.551  1.00  0.00    -0.292 C  
HETATM    2  N   UNL     1     -12.068  14.432  69.837  1.00  0.00    -0.325 N  
HETATM    3  O   UNL     1     -11.439  16.329  71.008  1.00  0.00    -0.407 OA 
HETATM    4  C   UNL     1     -11.605  15.736  69.946  1.00  0.00    -0.351 C  
ENDROOT
BRANCH   2   5
HETATM    5  C   UNL     1     -12.325  13.649  71.044  1.00  0.00    -0.354 C  
BRANCH   5   6
HETATM    6  C   UNL     1     -12.365  12.138  70.782  1.00  0.00    -0.391 C  
BRANCH   6   7
HETATM    7  C   UNL     1     -13.257  11.418  71.801  1.00  0.00    -0.472 C  
BRANCH   7   8
HETATM    8  C   UNL     1     -12.800   9.974  72.042  1.00  0.00    -0.484 C  
BRANCH   8   9
HETATM    9  C   UNL     1     -13.809   8.970  71.474  1.00  0.00    -0.367 C  
BRANCH   9  10
HETATM   10  C   UNL     1     -13.328   7.526  71.645  1.00  0.00    -0.414 C  
BRANCH  10  11
HETATM   11  C   UNL     1     -11.803   7.401  71.727  1.00  0.00    -0.327 C  
BRANCH  11  12
HETATM   12  C   UNL     1     -11.303   5.979  71.480  1.00  0.00    -0.309 C  
BRANCH  12  13
HETATM   13  C   UNL     1     -10.015   5.971  70.661  1.00  0.00    -0.232 C  
BRANCH  13  14
HETATM   14  C   UNL     1     -10.321   5.662  69.203  1.00  0.00    -0.258 C  
BRANCH  14  15
HETATM   15  N   UNL     1      -9.597   6.545  68.301  1.00  0.00    -0.131 N  
HETATM   16  C   UNL     1     -10.247   7.074  67.200  1.00  0.00    -0.248 C  
HETATM   17  C   UNL     1      -8.215   6.889  68.605  1.00  0.00    -0.121 C  
HETATM   18  O   UNL     1     -11.395   6.793  66.873  1.00  0.00    -0.318 OA 
BRANCH  16  19
HETATM   19  O   UNL     1      -9.401   7.855  66.427  1.00  0.00    -0.182 OA 
BRANCH  19  20
HETATM   20  C   UNL     1      -9.681   9.223  66.511  1.00  0.00    -0.240 A  
HETATM   21  C   UNL     1      -9.461   9.843  67.736  1.00  0.00    -0.158 A  
HETATM   22  C   UNL     1      -9.616  11.222  67.817  1.00  0.00    -0.181 A  
HETATM   23  C   UNL     1      -9.988  11.964  66.691  1.00  0.00    -0.220 A  
HETATM   24  C   UNL     1     -10.223  11.340  65.454  1.00  0.00    -0.270 A  
HETATM   25  C   UNL     1     -10.028   9.962  65.371  1.00  0.00    -0.349 A  
BRANCH  24  26
HETATM   26  N   UNL     1     -10.568  12.136  64.205  1.00  0.00    -0.332 N  
HETATM   27  C   UNL     1     -11.990  11.838  63.740  1.00  0.00    -0.363 C  
HETATM   28  C   UNL     1      -9.631  11.763  63.049  1.00  0.00    -0.164 C  
HETATM   29  C   UNL     1     -10.425  13.613  64.543  1.00  0.00    -0.390 C  
ENDBRANCH  24  26
ENDBRANCH  19  20
ENDBRANCH  16  19
ENDBRANCH  14  15
ENDBRANCH  13  14
ENDBRANCH  12  13
ENDBRANCH  11  12
ENDBRANCH  10  11
ENDBRANCH   9  10
ENDBRANCH   8   9
ENDBRANCH   7   8
ENDBRANCH   6   7
ENDBRANCH   5   6
ENDBRANCH   2   5
BRANCH   4  30
HETATM   30  O   UNL     1     -11.271  16.291  68.708  1.00  0.00    -0.333 OA 
BRANCH  30  31
HETATM   31  C   UNL     1      -9.903  16.579  68.573  1.00  0.00    -0.243 A  
HETATM   32  C   UNL     1      -8.959  15.567  68.758  1.00  0.00    -0.204 A  
HETATM   33  C   UNL     1      -9.525  17.857  68.149  1.00  0.00    -0.288 A  
HETATM   34  C   UNL     1      -8.164  18.144  67.947  1.00  0.00    -0.249 A  
HETATM   35  C   UNL     1      -7.616  15.846  68.575  1.00  0.00    -0.145 A  
HETATM   36  C   UNL     1      -7.223  17.125  68.182  1.00  0.00    -0.193 A  
BRANCH  34  37
HETATM   37  N   UNL     1      -7.704  19.555  67.596  1.00  0.00    -0.266 N  
HETATM   38  C   UNL     1      -6.736  20.106  68.643  1.00  0.00    -0.290 C  
HETATM   39  C   UNL     1      -6.966  19.568  66.257  1.00  0.00    -0.232 C  
HETATM   40  C   UNL     1      -8.953  20.436  67.547  1.00  0.00    -0.305 C  
ENDBRANCH  34  37
ENDBRANCH  30  31
ENDBRANCH   4  30
TORSDOF 17
ENDMDL
MODEL       51
REMARK 921   NORMALIZED FREE ENERGY PREDICTED BY IDOCK:   -5.35 KCAL/MOL
REMARK 922        TOTAL FREE ENERGY PREDICTED BY IDOCK:  -12.90 KCAL/MOL
REMARK 923 INTER-LIGAND FREE ENERGY PREDICTED BY IDOCK:  -10.53 KCAL/MOL
REMARK 924 INTRA-LIGAND FREE ENERGY PREDICTED BY IDOCK:   -2.37 KCAL/MOL
REMARK 927      BINDING AFFINITY PREDICTED BY RF-SCORE:    0.00 PKD
ROOT
HETATM    1  C   UNL     1     -11.862  14.190  69.291  1.00  0.00    -0.338 C  
HETATM    2  N   UNL     1     -11.080  13.933  68.094  1.00  0.00    -0.247 N  
HETATM    3  O   UNL     1      -9.152  14.430  66.909  1.00  0.00    -0.230 OA 
HETATM    4  C   UNL     1      -9.818  14.490  67.939  1.00  0.00    -0.222 C  
ENDROOT
BRANCH   2   5
HETATM    5  C   UNL     1     -11.729  13.279  66.959  1.00  0.00    -0.389 C  
BRANCH   5   6
HETATM    6  C   UNL     1     -12.521  14.254  66.078  1.00  0.00    -0.392 C  
BRANCH   6   7
HETATM    7  C   UNL     1     -12.444  13.858  64.599  1.00  0.00    -0.361 C  
BRANCH   7   8
HETATM    8  C   UNL     1     -12.120  12.369  64.421  1.00  0.00    -0.505 C  
BRANCH   8   9
HETATM    9  C   UNL     1     -11.179  12.143  63.233  1.00  0.00    -0.409 C  
BRANCH   9  10
HETATM   10  C   UNL     1     -10.260  10.939  63.460  1.00  0.00    -0.379 C  
BRANCH  10  11
HETATM   11  C   UNL     1     -10.174  10.511  64.929  1.00  0.00    -0.371 C  
BRANCH  11  12
HETATM   12  C   UNL     1      -9.146   9.409  65.173  1.00  0.00    -0.280 C  
BRANCH  12  13
HETATM   13  C   UNL     1      -8.217   9.755  66.334  1.00  0.00    -0.120 C  
BRANCH  13  14
HETATM   14  C   UNL     1      -8.753  10.959  67.094  1.00  0.00    -0.132 C  
BRANCH  14  15
HETATM   15  N   UNL     1      -8.991  10.649  68.496  1.00  0.00    -0.148 N  
HETATM   16  C   UNL     1     -10.229  10.174  68.887  1.00  0.00    -0.199 C  
HETATM   17  C   UNL     1      -7.901  10.804  69.449  1.00  0.00    -0.087 C  
HETATM   18  O   UNL     1     -11.194  10.057  68.139  1.00  0.00    -0.232 OA 
BRANCH  16  19
HETATM   19  O   UNL     1     -10.296   9.973  70.258  1.00  0.00    -0.273 OA 
BRANCH  19  20
HETATM   20  C   UNL     1     -10.599   8.653  70.610  1.00  0.00    -0.211 A  
HETATM   21  C   UNL     1     -11.903   8.385  71.008  1.00  0.00    -0.278 A  
HETATM   22  C   UNL     1     -12.263   7.063  71.248  1.00  0.00    -0.419 A  
HETATM   23  C   UNL     1     -11.330   6.032  71.094  1.00  0.00    -0.300 A  
HETATM   24  C   UNL     1     -10.007   6.301  70.703  1.00  0.00    -0.186 A  
HETATM   25  C   UNL     1      -9.665   7.624  70.427  1.00  0.00    -0.179 A  
BRANCH  24  26
HETATM   26  N   UNL     1      -8.996   5.189  70.471  1.00  0.00    -0.131 N  
HETATM   27  C   UNL     1      -7.894   5.640  69.517  1.00  0.00    -0.092 C  
HETATM   28  C   UNL     1      -9.671   3.968  69.833  1.00  0.00    -0.193 C  
HETATM   29  C   UNL     1      -8.401   4.816  71.821  1.00  0.00    -0.114 C  
ENDBRANCH  24  26
ENDBRANCH  19  20
ENDBRANCH  16  19
ENDBRANCH  14  15
ENDBRANCH  13  14
ENDBRANCH  12  13
ENDBRANCH  11  12
ENDBRANCH  10  11
ENDBRANCH   9  10
ENDBRANCH   8   9
ENDBRANCH   7   8
ENDBRANCH   6   7
ENDBRANCH   5   6
ENDBRANCH   2   5
BRANCH   4  30
HETATM   30  O   UNL     1      -9.404  15.201  69.069  1.00  0.00    -0.200 OA 
BRANCH  30  31
HETATM   31  C   UNL     1      -9.207  16.571  68.826  1.00  0.00    -0.252 A  
HETATM   32  C   UNL     1     -10.309  17.412  68.656  1.00  0.00    -0.364 A  
HETATM   33  C   UNL     1      -7.905  17.079  68.871  1.00  0.00    -0.224 A  
HETATM   34  C   UNL     1      -7.695  18.457  68.694  1.00  0.00    -0.301 A  
HETATM   35  C   UNL     1     -10.109  18.768  68.469  1.00  0.00    -0.444 A  
HETATM   36  C   UNL     1      -8.814  19.284  68.478  1.00  0.00    -0.411 A  
BRANCH  34  37
HETATM   37  N   UNL     1      -6.285  19.033  68.622  1.00  0.00    -0.221 N  
HETATM   38  C   UNL     1      -5.225  17.939  68.762  1.00  0.00    -0.161 C  
HETATM   39  C   UNL     1      -6.043  19.716  67.276  1.00  0.00    -0.185 C  
HETATM   40  C   UNL     1      -6.143  20.025  69.778  1.00  0.00    -0.349 C  
ENDBRANCH  34  37
ENDBRANCH  30  31
ENDBRANCH   4  30
TORSDOF 17
ENDMDL
MODEL       52
REMARK 921   NORMALIZED FREE ENERGY PREDICTED BY IDOCK:   -5.33 KCAL/MOL
REMARK 922        TOTAL FREE ENERGY PREDICTED BY IDOCK:  -12.87 KCAL/MOL
REMARK 923 INTER-LIGAND FREE ENERGY PREDICTED BY IDOCK:  -10.29 KCAL/MOL
REMARK 924 INTRA-LIGAND FREE ENERGY PREDICTED BY IDOCK:   -2.57 KCAL/MOL
REMARK 927      BINDING AFFINITY PREDICTED BY RF-SCORE:    0.00 PKD
ROOT
HETATM    1  C   UNL     1     -10.682   8.451  67.253  1.00  0.00    -0.160 C  
HETATM    2  N   UNL     1      -9.999   8.515  68.534  1.00  0.00    -0.178 N  
HETATM    3  O   UNL     1      -9.514   9.807  70.395  1.00  0.00    -0.247 OA 
HETATM    4  C   UNL     1     -10.154   9.617  69.365  1.00  0.00    -0.203 C  
ENDROOT
BRANCH   2   5
HETATM    5  C   UNL     1      -8.969   7.522  68.830  1.00  0.00    -0.134 C  
BRANCH   5   6
HETATM    6  C   UNL     1      -7.937   7.376  67.703  1.00  0.00    -0.114 C  
BRANCH   6   7
HETATM    7  C   UNL     1      -7.697   5.901  67.355  1.00  0.00    -0.097 C  
BRANCH   7   8
HETATM    8  C   UNL     1      -8.801   5.341  66.450  1.00  0.00    -0.123 C  
BRANCH   8   9
HETATM    9  C   UNL     1      -8.213   4.512  65.304  1.00  0.00    -0.112 C  
BRANCH   9  10
HETATM   10  C   UNL     1      -7.009   5.208  64.662  1.00  0.00    -0.050 C  
BRANCH  10  11
HETATM   11  C   UNL     1      -7.400   6.213  63.573  1.00  0.00    -0.070 C  
BRANCH  11  12
HETATM   12  C   UNL     1      -7.054   7.656  63.935  1.00  0.00    -0.066 C  
BRANCH  12  13
HETATM   13  C   UNL     1      -8.308   8.479  64.218  1.00  0.00    -0.113 C  
BRANCH  13  14
HETATM   14  C   UNL     1      -7.995   9.964  64.121  1.00  0.00    -0.150 C  
BRANCH  14  15
HETATM   15  N   UNL     1      -8.746  10.740  65.098  1.00  0.00    -0.187 N  
HETATM   16  C   UNL     1     -10.008  11.202  64.774  1.00  0.00    -0.287 C  
HETATM   17  C   UNL     1      -8.166  10.971  66.413  1.00  0.00    -0.166 C  
HETATM   18  O   UNL     1     -10.532  11.069  63.673  1.00  0.00    -0.363 OA 
BRANCH  16  19
HETATM   19  O   UNL     1     -10.561  11.956  65.799  1.00  0.00    -0.250 OA 
BRANCH  19  20
HETATM   20  C   UNL     1     -10.585  13.327  65.525  1.00  0.00    -0.287 A  
HETATM   21  C   UNL     1     -11.483  13.768  64.560  1.00  0.00    -0.401 A  
HETATM   22  C   UNL     1     -11.613  15.137  64.353  1.00  0.00    -0.275 A  
HETATM   23  C   UNL     1     -10.853  16.045  65.098  1.00  0.00    -0.411 A  
HETATM   24  C   UNL     1      -9.935  15.603  66.065  1.00  0.00    -0.333 A  
HETATM   25  C   UNL     1      -9.838  14.231  66.295  1.00  0.00    -0.323 A  
BRANCH  24  26
HETATM   26  N   UNL     1      -9.145  16.576  66.927  1.00  0.00    -0.211 N  
HETATM   27  C   UNL     1      -7.886  17.048  66.208  1.00  0.00    -0.311 C  
HETATM   28  C   UNL     1      -8.691  15.901  68.228  1.00  0.00    -0.174 C  
HETATM   29  C   UNL     1     -10.049  17.760  67.236  1.00  0.00    -0.337 C  
ENDBRANCH  24  26
ENDBRANCH  19  20
ENDBRANCH  16  19
ENDBRANCH  14  15
ENDBRANCH  13  14
ENDBRANCH  12  13
ENDBRANCH  11  12
ENDBRANCH  10  11
ENDBRANCH   9  10
ENDBRANCH   8   9
ENDBRANCH   7   8
ENDBRANCH   6   7
ENDBRANCH   5   6
ENDBRANCH   2   5
BRANCH   4  30
HETATM   30  O   UNL     1     -11.077  10.540  68.864  1.00  0.00    -0.230 OA 
BRANCH  30  31
HETATM   31  C   UNL     1     -11.842  11.164  69.863  1.00  0.00    -0.363 A  
HETATM   32  C   UNL     1     -12.507  10.389  70.815  1.00  0.00    -0.461 A  
HETATM   33  C   UNL     1     -11.830  12.560  69.943  1.00  0.00    -0.373 A  
HETATM   34  C   UNL     1     -12.538  13.200  70.974  1.00  0.00    -0.312 A  
HETATM   35  C   UNL     1     -13.218  11.012  71.825  1.00  0.00    -0.505 A  
HETATM   36  C   UNL     1     -13.240  12.404  71.898  1.00  0.00    -0.486 A  
BRANCH  34  37
HETATM   37  N   UNL     1     -12.642  14.720  71.029  1.00  0.00    -0.310 N  
HETATM   38  C   UNL     1     -12.092  15.365  69.756  1.00  0.00    -0.347 C  
HETATM   39  C   UNL     1     -14.100  15.162  71.157  1.00  0.00    -0.374 C  
HETATM   40  C   UNL     1     -11.817  15.185  72.230  1.00  0.00    -0.401 C  
ENDBRANCH  34  37
ENDBRANCH  30  31
ENDBRANCH   4  30
TORSDOF 17
ENDMDL
MODEL       53
REMARK 921   NORMALIZED FREE ENERGY PREDICTED BY IDOCK:   -5.33 KCAL/MOL
REMARK 922        TOTAL FREE ENERGY PREDICTED BY IDOCK:  -12.86 KCAL/MOL
REMARK 923 INTER-LIGAND FREE ENERGY PREDICTED BY IDOCK:  -11.86 KCAL/MOL
REMARK 924 INTRA-LIGAND FREE ENERGY PREDICTED BY IDOCK:   -1.00 KCAL/MOL
REMARK 927      BINDING AFFINITY PREDICTED BY RF-SCORE:    0.00 PKD
ROOT
HETATM    1  C   UNL     1     -10.105  13.481  68.449  1.00  0.00    -0.240 C  
HETATM    2  N   UNL     1     -11.132  14.190  67.705  1.00  0.00    -0.274 N  
HETATM    3  O   UNL     1     -12.755  14.057  66.057  1.00  0.00    -0.475 OA 
HETATM    4  C   UNL     1     -11.958  13.515  66.817  1.00  0.00    -0.404 C  
ENDROOT
BRANCH   2   5
HETATM    5  C   UNL     1     -11.128  15.652  67.724  1.00  0.00    -0.311 C  
BRANCH   5   6
HETATM    6  C   UNL     1     -10.963  16.232  69.135  1.00  0.00    -0.324 C  
BRANCH   6   7
HETATM    7  C   UNL     1     -12.108  15.792  70.056  1.00  0.00    -0.344 C  
BRANCH   7   8
HETATM    8  C   UNL     1     -11.811  16.105  71.528  1.00  0.00    -0.528 C  
BRANCH   8   9
HETATM    9  C   UNL     1     -13.076  16.001  72.385  1.00  0.00    -0.399 C  
BRANCH   9  10
HETATM   10  C   UNL     1     -13.108  14.700  73.192  1.00  0.00    -0.580 C  
BRANCH  10  11
HETATM   11  C   UNL     1     -13.829  13.557  72.471  1.00  0.00    -0.624 C  
BRANCH  11  12
HETATM   12  C   UNL     1     -12.874  12.596  71.765  1.00  0.00    -0.343 C  
BRANCH  12  13
HETATM   13  C   UNL     1     -13.295  11.142  71.961  1.00  0.00    -0.384 C  
BRANCH  13  14
HETATM   14  C   UNL     1     -12.173  10.208  71.533  1.00  0.00    -0.380 C  
BRANCH  14  15
HETATM   15  N   UNL     1     -12.507   8.813  71.783  1.00  0.00    -0.328 N  
HETATM   16  C   UNL     1     -11.566   7.981  72.360  1.00  0.00    -0.390 C  
HETATM   17  C   UNL     1     -13.845   8.338  71.460  1.00  0.00    -0.328 C  
HETATM   18  O   UNL     1     -10.414   8.313  72.619  1.00  0.00    -0.320 OA 
BRANCH  16  19
HETATM   19  O   UNL     1     -12.033   6.680  72.485  1.00  0.00    -0.186 OA 
BRANCH  19  20
HETATM   20  C   UNL     1     -11.230   5.739  71.832  1.00  0.00    -0.227 A  
HETATM   21  C   UNL     1     -11.027   5.913  70.468  1.00  0.00    -0.362 A  
HETATM   22  C   UNL     1     -10.139   5.064  69.817  1.00  0.00    -0.337 A  
HETATM   23  C   UNL     1      -9.470   4.058  70.521  1.00  0.00    -0.248 A  
HETATM   24  C   UNL     1      -9.682   3.871  71.898  1.00  0.00    -0.169 A  
HETATM   25  C   UNL     1     -10.544   4.751  72.552  1.00  0.00    -0.262 A  
BRANCH  24  26
HETATM   26  N   UNL     1      -8.918   2.823  72.693  1.00  0.00    -0.084 N  
HETATM   27  C   UNL     1      -8.742   3.257  74.145  1.00  0.00    -0.080 C  
HETATM   28  C   UNL     1      -7.513   2.620  72.112  1.00  0.00    -0.047 C  
HETATM   29  C   UNL     1      -9.709   1.524  72.626  1.00  0.00    -0.082 C  
ENDBRANCH  24  26
ENDBRANCH  19  20
ENDBRANCH  16  19
ENDBRANCH  14  15
ENDBRANCH  13  14
ENDBRANCH  12  13
ENDBRANCH  11  12
ENDBRANCH  10  11
ENDBRANCH   9  10
ENDBRANCH   8   9
ENDBRANCH   7   8
ENDBRANCH   6   7
ENDBRANCH   5   6
ENDBRANCH   2   5
BRANCH   4  30
HETATM   30  O   UNL     1     -11.734  12.135  66.822  1.00  0.00    -0.488 OA 
BRANCH  30  31
HETATM   31  C   UNL     1     -10.994  11.683  65.717  1.00  0.00    -0.274 A  
HETATM   32  C   UNL     1     -11.493  11.866  64.425  1.00  0.00    -0.393 A  
HETATM   33  C   UNL     1      -9.718  11.155  65.935  1.00  0.00    -0.268 A  
HETATM   34  C   UNL     1      -8.937  10.757  64.836  1.00  0.00    -0.184 A  
HETATM   35  C   UNL     1     -10.736  11.465  63.340  1.00  0.00    -0.405 A  
HETATM   36  C   UNL     1      -9.474  10.907  63.544  1.00  0.00    -0.322 A  
BRANCH  34  37
HETATM   37  N   UNL     1      -7.590  10.073  65.038  1.00  0.00    -0.135 N  
HETATM   38  C   UNL     1      -6.723  10.829  66.046  1.00  0.00    -0.109 C  
HETATM   39  C   UNL     1      -7.774   8.657  65.585  1.00  0.00    -0.091 C  
HETATM   40  C   UNL     1      -6.887  10.053  63.680  1.00  0.00    -0.130 C  
ENDBRANCH  34  37
ENDBRANCH  30  31
ENDBRANCH   4  30
TORSDOF 17
ENDMDL
MODEL       54
REMARK 921   NORMALIZED FREE ENERGY PREDICTED BY IDOCK:   -5.32 KCAL/MOL
REMARK 922        TOTAL FREE ENERGY PREDICTED BY IDOCK:  -12.83 KCAL/MOL
REMARK 923 INTER-LIGAND FREE ENERGY PREDICTED BY IDOCK:  -11.47 KCAL/MOL
REMARK 924 INTRA-LIGAND FREE ENERGY PREDICTED BY IDOCK:   -1.36 KCAL/MOL
REMARK 927      BINDING AFFINITY PREDICTED BY RF-SCORE:    0.00 PKD
ROOT
HETATM    1  C   UNL     1      -8.003   4.917  67.864  1.00  0.00    -0.093 C  
HETATM    2  N   UNL     1      -8.933   5.558  66.951  1.00  0.00    -0.111 N  
HETATM    3  O   UNL     1     -11.129   6.191  66.568  1.00  0.00    -0.209 OA 
HETATM    4  C   UNL     1     -10.252   5.778  67.322  1.00  0.00    -0.205 C  
ENDROOT
BRANCH   2   5
HETATM    5  C   UNL     1      -8.529   5.752  65.559  1.00  0.00    -0.150 C  
BRANCH   5   6
HETATM    6  C   UNL     1      -7.794   7.079  65.328  1.00  0.00    -0.121 C  
BRANCH   6   7
HETATM    7  C   UNL     1      -8.077   7.637  63.928  1.00  0.00    -0.041 C  
BRANCH   7   8
HETATM    8  C   UNL     1      -8.372   9.141  63.959  1.00  0.00    -0.183 C  
BRANCH   8   9
HETATM    9  C   UNL     1      -9.079   9.596  62.679  1.00  0.00    -0.267 C  
BRANCH   9  10
HETATM   10  C   UNL     1      -9.627  11.020  62.810  1.00  0.00    -0.337 C  
BRANCH  10  11
HETATM   11  C   UNL     1     -10.592  11.192  63.987  1.00  0.00    -0.436 C  
BRANCH  11  12
HETATM   12  C   UNL     1     -11.667  12.247  63.733  1.00  0.00    -0.566 C  
BRANCH  12  13
HETATM   13  C   UNL     1     -12.410  12.611  65.016  1.00  0.00    -0.561 C  
BRANCH  13  14
HETATM   14  C   UNL     1     -12.487  14.123  65.167  1.00  0.00    -0.439 C  
BRANCH  14  15
HETATM   15  N   UNL     1     -11.612  14.605  66.226  1.00  0.00    -0.363 N  
HETATM   16  C   UNL     1     -10.721  15.628  65.958  1.00  0.00    -0.317 C  
HETATM   17  C   UNL     1     -11.728  14.027  67.557  1.00  0.00    -0.387 C  
HETATM   18  O   UNL     1     -10.553  16.128  64.852  1.00  0.00    -0.622 OA 
BRANCH  16  19
HETATM   19  O   UNL     1      -9.938  15.932  67.062  1.00  0.00    -0.239 OA 
BRANCH  19  20
HETATM   20  C   UNL     1      -9.664  17.299  67.186  1.00  0.00    -0.259 A  
HETATM   21  C   UNL     1     -10.747  18.150  67.366  1.00  0.00    -0.355 A  
HETATM   22  C   UNL     1     -10.497  19.496  67.612  1.00  0.00    -0.593 A  
HETATM   23  C   UNL     1      -9.185  19.977  67.672  1.00  0.00    -0.457 A  
HETATM   24  C   UNL     1      -8.088  19.121  67.479  1.00  0.00    -0.273 A  
HETATM   25  C   UNL     1      -8.345  17.767  67.272  1.00  0.00    -0.228 A  
BRANCH  24  26
HETATM   26  N   UNL     1      -6.654  19.613  67.601  1.00  0.00    -0.222 N  
HETATM   27  C   UNL     1      -6.569  21.119  67.374  1.00  0.00    -0.370 C  
HETATM   28  C   UNL     1      -5.762  18.949  66.545  1.00  0.00    -0.157 C  
HETATM   29  C   UNL     1      -6.163  19.265  68.999  1.00  0.00    -0.261 C  
ENDBRANCH  24  26
ENDBRANCH  19  20
ENDBRANCH  16  19
ENDBRANCH  14  15
ENDBRANCH  13  14
ENDBRANCH  12  13
ENDBRANCH  11  12
ENDBRANCH  10  11
ENDBRANCH   9  10
ENDBRANCH   8   9
ENDBRANCH   7   8
ENDBRANCH   6   7
ENDBRANCH   5   6
ENDBRANCH   2   5
BRANCH   4  30
HETATM   30  O   UNL     1     -10.505   5.408  68.646  1.00  0.00    -0.181 OA 
BRANCH  30  31
HETATM   31  C   UNL     1     -10.797   6.497  69.485  1.00  0.00    -0.304 A  
HETATM   32  C   UNL     1     -11.151   6.271  70.817  1.00  0.00    -0.377 A  
HETATM   33  C   UNL     1     -10.618   7.792  68.990  1.00  0.00    -0.179 A  
HETATM   34  C   UNL     1     -10.844   8.893  69.835  1.00  0.00    -0.211 A  
HETATM   35  C   UNL     1     -11.388   7.349  71.651  1.00  0.00    -0.286 A  
HETATM   36  C   UNL     1     -11.245   8.647  71.162  1.00  0.00    -0.329 A  
BRANCH  34  37
HETATM   37  N   UNL     1     -10.771  10.319  69.301  1.00  0.00    -0.219 N  
HETATM   38  C   UNL     1      -9.363  10.899  69.443  1.00  0.00     0.088 C  
HETATM   39  C   UNL     1     -11.123  10.363  67.814  1.00  0.00    -0.299 C  
HETATM   40  C   UNL     1     -11.749  11.158  70.125  1.00  0.00    -0.353 C  
ENDBRANCH  34  37
ENDBRANCH  30  31
ENDBRANCH   4  30
TORSDOF 17
ENDMDL
MODEL       55
REMARK 921   NORMALIZED FREE ENERGY PREDICTED BY IDOCK:   -5.30 KCAL/MOL
REMARK 922        TOTAL FREE ENERGY PREDICTED BY IDOCK:  -12.80 KCAL/MOL
REMARK 923 INTER-LIGAND FREE ENERGY PREDICTED BY IDOCK:  -11.29 KCAL/MOL
REMARK 924 INTRA-LIGAND FREE ENERGY PREDICTED BY IDOCK:   -1.51 KCAL/MOL
REMARK 927      BINDING AFFINITY PREDICTED BY RF-SCORE:    0.00 PKD
ROOT
HETATM    1  C   UNL     1     -12.626   6.504  71.912  1.00  0.00    -0.187 C  
HETATM    2  N   UNL     1     -11.290   7.058  72.048  1.00  0.00    -0.256 N  
HETATM    3  O   UNL     1      -9.031   6.602  72.283  1.00  0.00    -0.134 OA 
HETATM    4  C   UNL     1     -10.176   6.231  72.043  1.00  0.00    -0.189 C  
ENDROOT
BRANCH   2   5
HETATM    5  C   UNL     1     -11.149   8.463  72.425  1.00  0.00    -0.361 C  
BRANCH   5   6
HETATM    6  C   UNL     1     -12.243   9.358  71.826  1.00  0.00    -0.465 C  
BRANCH   6   7
HETATM    7  C   UNL     1     -11.663  10.332  70.792  1.00  0.00    -0.453 C  
BRANCH   7   8
HETATM    8  C   UNL     1     -11.050   9.596  69.594  1.00  0.00    -0.223 C  
BRANCH   8   9
HETATM    9  C   UNL     1      -9.596  10.021  69.366  1.00  0.00    -0.237 C  
BRANCH   9  10
HETATM   10  C   UNL     1      -9.467  10.985  68.183  1.00  0.00    -0.172 C  
BRANCH  10  11
HETATM   11  C   UNL     1     -10.365  10.614  66.998  1.00  0.00    -0.280 C  
BRANCH  11  12
HETATM   12  C   UNL     1     -11.410  11.681  66.680  1.00  0.00    -0.338 C  
BRANCH  12  13
HETATM   13  C   UNL     1     -11.229  12.922  67.551  1.00  0.00    -0.329 C  
BRANCH  13  14
HETATM   14  C   UNL     1     -12.131  14.044  67.061  1.00  0.00    -0.420 C  
BRANCH  14  15
HETATM   15  N   UNL     1     -11.420  14.963  66.184  1.00  0.00    -0.316 N  
HETATM   16  C   UNL     1     -10.634  15.959  66.735  1.00  0.00    -0.309 C  
HETATM   17  C   UNL     1     -11.518  14.783  64.742  1.00  0.00    -0.410 C  
HETATM   18  O   UNL     1     -10.541  16.182  67.937  1.00  0.00    -0.290 OA 
BRANCH  16  19
HETATM   19  O   UNL     1     -10.067  16.768  65.761  1.00  0.00    -0.478 OA 
BRANCH  19  20
HETATM   20  C   UNL     1      -9.549  17.964  66.269  1.00  0.00    -0.241 A  
HETATM   21  C   UNL     1     -10.420  19.043  66.367  1.00  0.00    -0.524 A  
HETATM   22  C   UNL     1      -9.966  20.206  66.978  1.00  0.00    -0.596 A  
HETATM   23  C   UNL     1      -8.662  20.286  67.477  1.00  0.00    -0.401 A  
HETATM   24  C   UNL     1      -7.774  19.202  67.368  1.00  0.00    -0.238 A  
HETATM   25  C   UNL     1      -8.249  18.025  66.790  1.00  0.00    -0.272 A  
BRANCH  24  26
HETATM   26  N   UNL     1      -6.373  19.248  67.959  1.00  0.00    -0.208 N  
HETATM   27  C   UNL     1      -5.883  17.849  68.318  1.00  0.00    -0.168 C  
HETATM   28  C   UNL     1      -6.357  20.074  69.251  1.00  0.00    -0.330 C  
HETATM   29  C   UNL     1      -5.454  19.875  66.920  1.00  0.00    -0.172 C  
ENDBRANCH  24  26
ENDBRANCH  19  20
ENDBRANCH  16  19
ENDBRANCH  14  15
ENDBRANCH  13  14
ENDBRANCH  12  13
ENDBRANCH  11  12
ENDBRANCH  10  11
ENDBRANCH   9  10
ENDBRANCH   8   9
ENDBRANCH   7   8
ENDBRANCH   6   7
ENDBRANCH   5   6
ENDBRANCH   2   5
BRANCH   4  30
HETATM   30  O   UNL     1     -10.504   4.893  71.805  1.00  0.00    -0.200 OA 
BRANCH  30  31
HETATM   31  C   UNL     1     -10.069   4.424  70.553  1.00  0.00    -0.119 A  
HETATM   32  C   UNL     1      -9.528   3.142  70.442  1.00  0.00    -0.227 A  
HETATM   33  C   UNL     1     -10.291   5.220  69.425  1.00  0.00    -0.313 A  
HETATM   34  C   UNL     1      -9.920   4.741  68.157  1.00  0.00    -0.087 A  
HETATM   35  C   UNL     1      -9.149   2.668  69.199  1.00  0.00    -0.189 A  
HETATM   36  C   UNL     1      -9.335   3.464  68.069  1.00  0.00    -0.241 A  
BRANCH  34  37
HETATM   37  N   UNL     1     -10.040   5.622  66.919  1.00  0.00    -0.172 N  
HETATM   38  C   UNL     1     -11.128   6.683  67.091  1.00  0.00    -0.357 C  
HETATM   39  C   UNL     1      -8.732   6.366  66.651  1.00  0.00    -0.127 C  
HETATM   40  C   UNL     1     -10.405   4.708  65.749  1.00  0.00    -0.264 C  
ENDBRANCH  34  37
ENDBRANCH  30  31
ENDBRANCH   4  30
TORSDOF 17
ENDMDL
MODEL       56
REMARK 921   NORMALIZED FREE ENERGY PREDICTED BY IDOCK:   -5.28 KCAL/MOL
REMARK 922        TOTAL FREE ENERGY PREDICTED BY IDOCK:  -12.76 KCAL/MOL
REMARK 923 INTER-LIGAND FREE ENERGY PREDICTED BY IDOCK:  -10.54 KCAL/MOL
REMARK 924 INTRA-LIGAND FREE ENERGY PREDICTED BY IDOCK:   -2.21 KCAL/MOL
REMARK 927      BINDING AFFINITY PREDICTED BY RF-SCORE:    0.00 PKD
ROOT
HETATM    1  C   UNL     1     -12.692  13.788  71.432  1.00  0.00    -0.367 C  
HETATM    2  N   UNL     1     -12.140  13.081  70.289  1.00  0.00    -0.350 N  
HETATM    3  O   UNL     1     -11.407  13.240  68.097  1.00  0.00    -0.255 OA 
HETATM    4  C   UNL     1     -11.757  13.771  69.147  1.00  0.00    -0.334 C  
ENDROOT
BRANCH   2   5
HETATM    5  C   UNL     1     -12.213  11.621  70.264  1.00  0.00    -0.318 C  
BRANCH   5   6
HETATM    6  C   UNL     1     -12.963  11.038  71.470  1.00  0.00    -0.553 C  
BRANCH   6   7
HETATM    7  C   UNL     1     -12.697   9.535  71.619  1.00  0.00    -0.478 C  
BRANCH   7   8
HETATM    8  C   UNL     1     -13.984   8.752  71.905  1.00  0.00    -0.493 C  
BRANCH   8   9
HETATM    9  C   UNL     1     -13.810   7.263  71.589  1.00  0.00    -0.461 C  
BRANCH   9  10
HETATM   10  C   UNL     1     -12.401   6.954  71.075  1.00  0.00    -0.401 C  
BRANCH  10  11
HETATM   11  C   UNL     1     -11.613   6.016  71.994  1.00  0.00    -0.333 C  
BRANCH  11  12
HETATM   12  C   UNL     1     -10.445   5.327  71.291  1.00  0.00    -0.274 C  
BRANCH  12  13
HETATM   13  C   UNL     1      -9.355   4.921  72.280  1.00  0.00    -0.165 C  
BRANCH  13  14
HETATM   14  C   UNL     1      -8.830   6.145  73.015  1.00  0.00    -0.124 C  
BRANCH  14  15
HETATM   15  N   UNL     1      -8.157   7.068  72.114  1.00  0.00    -0.093 N  
HETATM   16  C   UNL     1      -8.574   8.385  72.052  1.00  0.00    -0.191 C  
HETATM   17  C   UNL     1      -7.025   6.592  71.331  1.00  0.00    -0.075 C  
HETATM   18  O   UNL     1      -9.541   8.834  72.658  1.00  0.00    -0.224 OA 
BRANCH  16  19
HETATM   19  O   UNL     1      -7.855   9.111  71.114  1.00  0.00    -0.227 OA 
BRANCH  19  20
HETATM   20  C   UNL     1      -8.522   9.250  69.892  1.00  0.00    -0.163 A  
HETATM   21  C   UNL     1      -9.723   8.567  69.742  1.00  0.00    -0.179 A  
HETATM   22  C   UNL     1     -10.465   8.780  68.586  1.00  0.00    -0.213 A  
HETATM   23  C   UNL     1     -10.009   9.660  67.599  1.00  0.00    -0.218 A  
HETATM   24  C   UNL     1      -8.789  10.343  67.741  1.00  0.00    -0.128 A  
HETATM   25  C   UNL     1      -8.069  10.154  68.920  1.00  0.00    -0.117 A  
BRANCH  24  26
HETATM   26  N   UNL     1      -8.306  11.349  66.708  1.00  0.00    -0.159 N  
HETATM   27  C   UNL     1      -7.097  10.816  65.947  1.00  0.00    -0.080 C  
HETATM   28  C   UNL     1      -7.870  12.654  67.386  1.00  0.00    -0.175 C  
HETATM   29  C   UNL     1      -9.456  11.614  65.747  1.00  0.00    -0.226 C  
ENDBRANCH  24  26
ENDBRANCH  19  20
ENDBRANCH  16  19
ENDBRANCH  14  15
ENDBRANCH  13  14
ENDBRANCH  12  13
ENDBRANCH  11  12
ENDBRANCH  10  11
ENDBRANCH   9  10
ENDBRANCH   8   9
ENDBRANCH   7   8
ENDBRANCH   6   7
ENDBRANCH   5   6
ENDBRANCH   2   5
BRANCH   4  30
HETATM   30  O   UNL     1     -11.880  15.156  69.292  1.00  0.00    -0.304 OA 
BRANCH  30  31
HETATM   31  C   UNL     1     -10.696  15.857  69.006  1.00  0.00    -0.251 A  
HETATM   32  C   UNL     1      -9.486  15.428  69.555  1.00  0.00    -0.250 A  
HETATM   33  C   UNL     1     -10.745  16.908  68.086  1.00  0.00    -0.375 A  
HETATM   34  C   UNL     1      -9.559  17.579  67.739  1.00  0.00    -0.269 A  
HETATM   35  C   UNL     1      -8.317  16.092  69.230  1.00  0.00    -0.217 A  
HETATM   36  C   UNL     1      -8.355  17.163  68.337  1.00  0.00    -0.251 A  
BRANCH  34  37
HETATM   37  N   UNL     1      -9.587  18.801  66.828  1.00  0.00    -0.308 N  
HETATM   38  C   UNL     1      -9.991  20.062  67.594  1.00  0.00    -0.428 C  
HETATM   39  C   UNL     1      -8.205  19.067  66.231  1.00  0.00    -0.282 C  
HETATM   40  C   UNL     1     -10.617  18.522  65.732  1.00  0.00    -0.231 C  
ENDBRANCH  34  37
ENDBRANCH  30  31
ENDBRANCH   4  30
TORSDOF 17
ENDMDL
MODEL       57
REMARK 921   NORMALIZED FREE ENERGY PREDICTED BY IDOCK:   -5.28 KCAL/MOL
REMARK 922        TOTAL FREE ENERGY PREDICTED BY IDOCK:  -12.75 KCAL/MOL
REMARK 923 INTER-LIGAND FREE ENERGY PREDICTED BY IDOCK:  -10.39 KCAL/MOL
REMARK 924 INTRA-LIGAND FREE ENERGY PREDICTED BY IDOCK:   -2.36 KCAL/MOL
REMARK 927      BINDING AFFINITY PREDICTED BY RF-SCORE:    0.00 PKD
ROOT
HETATM    1  C   UNL     1      -5.914  13.757  70.482  1.00  0.00    -0.161 C  
HETATM    2  N   UNL     1      -5.578  13.924  69.078  1.00  0.00    -0.079 N  
HETATM    3  O   UNL     1      -5.350  15.411  67.316  1.00  0.00    -0.338 OA 
HETATM    4  C   UNL     1      -5.498  15.190  68.514  1.00  0.00    -0.099 C  
ENDROOT
BRANCH   2   5
HETATM    5  C   UNL     1      -5.558  12.744  68.216  1.00  0.00    -0.070 C  
BRANCH   5   6
HETATM    6  C   UNL     1      -6.447  11.606  68.737  1.00  0.00    -0.064 C  
BRANCH   6   7
HETATM    7  C   UNL     1      -6.236  10.319  67.931  1.00  0.00    -0.059 C  
BRANCH   7   8
HETATM    8  C   UNL     1      -6.780   9.087  68.665  1.00  0.00    -0.058 C  
BRANCH   8   9
HETATM    9  C   UNL     1      -7.744   8.293  67.779  1.00  0.00    -0.103 C  
BRANCH   9  10
HETATM   10  C   UNL     1      -9.205   8.653  68.066  1.00  0.00    -0.147 C  
BRANCH  10  11
HETATM   11  C   UNL     1      -9.986   9.058  66.812  1.00  0.00    -0.332 C  
BRANCH  11  12
HETATM   12  C   UNL     1      -9.178   8.905  65.525  1.00  0.00    -0.242 C  
BRANCH  12  13
HETATM   13  C   UNL     1      -8.820  10.261  64.923  1.00  0.00    -0.213 C  
BRANCH  13  14
HETATM   14  C   UNL     1     -10.069  11.118  64.776  1.00  0.00    -0.295 C  
BRANCH  14  15
HETATM   15  N   UNL     1     -10.160  12.123  65.824  1.00  0.00    -0.242 N  
HETATM   16  C   UNL     1     -11.403  12.582  66.220  1.00  0.00    -0.338 C  
HETATM   17  C   UNL     1      -8.939  12.590  66.465  1.00  0.00    -0.132 C  
HETATM   18  O   UNL     1     -12.462  12.254  65.695  1.00  0.00    -0.591 OA 
BRANCH  16  19
HETATM   19  O   UNL     1     -11.305  13.565  67.194  1.00  0.00    -0.298 OA 
BRANCH  19  20
HETATM   20  C   UNL     1     -11.771  13.152  68.446  1.00  0.00    -0.351 A  
HETATM   21  C   UNL     1     -11.649  11.802  68.756  1.00  0.00    -0.367 A  
HETATM   22  C   UNL     1     -11.993  11.384  70.037  1.00  0.00    -0.442 A  
HETATM   23  C   UNL     1     -12.452  12.302  70.987  1.00  0.00    -0.361 A  
HETATM   24  C   UNL     1     -12.588  13.665  70.674  1.00  0.00    -0.296 A  
HETATM   25  C   UNL     1     -12.205  14.084  69.400  1.00  0.00    -0.336 A  
BRANCH  24  26
HETATM   26  N   UNL     1     -13.028  14.688  71.710  1.00  0.00    -0.318 N  
HETATM   27  C   UNL     1     -13.237  14.034  73.072  1.00  0.00    -0.246 C  
HETATM   28  C   UNL     1     -14.364  15.326  71.308  1.00  0.00    -0.381 C  
HETATM   29  C   UNL     1     -11.943  15.751  71.800  1.00  0.00    -0.467 C  
ENDBRANCH  24  26
ENDBRANCH  19  20
ENDBRANCH  16  19
ENDBRANCH  14  15
ENDBRANCH  13  14
ENDBRANCH  12  13
ENDBRANCH  11  12
ENDBRANCH  10  11
ENDBRANCH   9  10
ENDBRANCH   8   9
ENDBRANCH   7   8
ENDBRANCH   6   7
ENDBRANCH   5   6
ENDBRANCH   2   5
BRANCH   4  30
HETATM   30  O   UNL     1      -5.678  16.208  69.456  1.00  0.00    -0.125 OA 
BRANCH  30  31
HETATM   31  C   UNL     1      -6.471  17.269  68.988  1.00  0.00    -0.221 A  
HETATM   32  C   UNL     1      -5.953  18.565  68.966  1.00  0.00    -0.236 A  
HETATM   33  C   UNL     1      -7.729  16.980  68.452  1.00  0.00    -0.230 A  
HETATM   34  C   UNL     1      -8.510  18.021  67.921  1.00  0.00    -0.252 A  
HETATM   35  C   UNL     1      -6.721  19.598  68.457  1.00  0.00    -0.334 A  
HETATM   36  C   UNL     1      -7.990  19.329  67.948  1.00  0.00    -0.327 A  
BRANCH  34  37
HETATM   37  N   UNL     1      -9.931  17.765  67.432  1.00  0.00    -0.311 N  
HETATM   38  C   UNL     1      -9.970  16.659  66.377  1.00  0.00    -0.302 C  
HETATM   39  C   UNL     1     -10.830  17.313  68.583  1.00  0.00    -0.199 C  
HETATM   40  C   UNL     1     -10.437  19.070  66.816  1.00  0.00    -0.431 C  
ENDBRANCH  34  37
ENDBRANCH  30  31
ENDBRANCH   4  30
TORSDOF 17
ENDMDL
MODEL       58
REMARK 921   NORMALIZED FREE ENERGY PREDICTED BY IDOCK:   -5.28 KCAL/MOL
REMARK 922        TOTAL FREE ENERGY PREDICTED BY IDOCK:  -12.75 KCAL/MOL
REMARK 923 INTER-LIGAND FREE ENERGY PREDICTED BY IDOCK:  -10.70 KCAL/MOL
REMARK 924 INTRA-LIGAND FREE ENERGY PREDICTED BY IDOCK:   -2.06 KCAL/MOL
REMARK 927      BINDING AFFINITY PREDICTED BY RF-SCORE:    0.00 PKD
ROOT
HETATM    1  C   UNL     1     -11.032   6.647  66.959  1.00  0.00    -0.393 C  
HETATM    2  N   UNL     1      -9.862   7.498  66.833  1.00  0.00    -0.207 N  
HETATM    3  O   UNL     1      -7.674   7.873  67.495  1.00  0.00    -0.112 OA 
HETATM    4  C   UNL     1      -8.664   7.151  67.443  1.00  0.00    -0.120 C  
ENDROOT
BRANCH   2   5
HETATM    5  C   UNL     1     -10.023   8.833  66.260  1.00  0.00    -0.245 C  
BRANCH   5   6
HETATM    6  C   UNL     1      -9.875   9.953  67.299  1.00  0.00    -0.228 C  
BRANCH   6   7
HETATM    7  C   UNL     1     -11.065   9.978  68.265  1.00  0.00    -0.247 C  
BRANCH   7   8
HETATM    8  C   UNL     1     -10.781  10.841  69.501  1.00  0.00    -0.268 C  
BRANCH   8   9
HETATM    9  C   UNL     1     -12.078  11.384  70.110  1.00  0.00    -0.439 C  
BRANCH   9  10
HETATM   10  C   UNL     1     -12.089  12.915  70.146  1.00  0.00    -0.373 C  
BRANCH  10  11
HETATM   11  C   UNL     1     -11.234  13.552  69.046  1.00  0.00    -0.314 C  
BRANCH  11  12
HETATM   12  C   UNL     1     -12.061  14.113  67.891  1.00  0.00    -0.309 C  
BRANCH  12  13
HETATM   13  C   UNL     1     -11.994  13.208  66.663  1.00  0.00    -0.451 C  
BRANCH  13  14
HETATM   14  C   UNL     1     -10.656  13.376  65.959  1.00  0.00    -0.287 C  
BRANCH  14  15
HETATM   15  N   UNL     1     -10.438  14.751  65.533  1.00  0.00    -0.333 N  
HETATM   16  C   UNL     1      -9.332  15.439  65.996  1.00  0.00    -0.329 C  
HETATM   17  C   UNL     1     -11.369  15.355  64.591  1.00  0.00    -0.355 C  
HETATM   18  O   UNL     1      -8.535  14.997  66.817  1.00  0.00    -0.235 OA 
BRANCH  16  19
HETATM   19  O   UNL     1      -9.303  16.745  65.528  1.00  0.00    -0.470 OA 
BRANCH  19  20
HETATM   20  C   UNL     1      -9.186  17.695  66.549  1.00  0.00    -0.269 A  
HETATM   21  C   UNL     1     -10.319  17.952  67.311  1.00  0.00    -0.374 A  
HETATM   22  C   UNL     1     -10.201  18.801  68.406  1.00  0.00    -0.413 A  
HETATM   23  C   UNL     1      -8.971  19.384  68.727  1.00  0.00    -0.396 A  
HETATM   24  C   UNL     1      -7.825  19.136  67.950  1.00  0.00    -0.285 A  
HETATM   25  C   UNL     1      -7.942  18.253  66.878  1.00  0.00    -0.251 A  
BRANCH  24  26
HETATM   26  N   UNL     1      -6.466  19.711  68.318  1.00  0.00    -0.243 N  
HETATM   27  C   UNL     1      -6.256  21.077  67.673  1.00  0.00    -0.347 C  
HETATM   28  C   UNL     1      -5.339  18.799  67.816  1.00  0.00    -0.173 C  
HETATM   29  C   UNL     1      -6.410  19.833  69.834  1.00  0.00    -0.342 C  
ENDBRANCH  24  26
ENDBRANCH  19  20
ENDBRANCH  16  19
ENDBRANCH  14  15
ENDBRANCH  13  14
ENDBRANCH  12  13
ENDBRANCH  11  12
ENDBRANCH  10  11
ENDBRANCH   9  10
ENDBRANCH   8   9
ENDBRANCH   7   8
ENDBRANCH   6   7
ENDBRANCH   5   6
ENDBRANCH   2   5
BRANCH   4  30
HETATM   30  O   UNL     1      -8.724   5.900  68.066  1.00  0.00    -0.112 OA 
BRANCH  30  31
HETATM   31  C   UNL     1      -8.515   5.956  69.454  1.00  0.00    -0.113 A  
HETATM   32  C   UNL     1      -7.238   5.735  69.973  1.00  0.00    -0.069 A  
HETATM   33  C   UNL     1      -9.577   6.342  70.277  1.00  0.00    -0.177 A  
HETATM   34  C   UNL     1      -9.370   6.466  71.662  1.00  0.00    -0.143 A  
HETATM   35  C   UNL     1      -7.029   5.841  71.337  1.00  0.00    -0.071 A  
HETATM   36  C   UNL     1      -8.087   6.194  72.173  1.00  0.00    -0.110 A  
BRANCH  34  37
HETATM   37  N   UNL     1     -10.528   6.773  72.604  1.00  0.00    -0.204 N  
HETATM   38  C   UNL     1     -11.401   7.908  72.068  1.00  0.00    -0.292 C  
HETATM   39  C   UNL     1     -11.436   5.553  72.767  1.00  0.00    -0.280 C  
HETATM   40  C   UNL     1      -9.920   7.191  73.944  1.00  0.00    -0.318 C  
ENDBRANCH  34  37
ENDBRANCH  30  31
ENDBRANCH   4  30
TORSDOF 17
ENDMDL
MODEL       59
REMARK 921   NORMALIZED FREE ENERGY PREDICTED BY IDOCK:   -5.27 KCAL/MOL
REMARK 922        TOTAL FREE ENERGY PREDICTED BY IDOCK:  -12.74 KCAL/MOL
REMARK 923 INTER-LIGAND FREE ENERGY PREDICTED BY IDOCK:  -10.90 KCAL/MOL
REMARK 924 INTRA-LIGAND FREE ENERGY PREDICTED BY IDOCK:   -1.85 KCAL/MOL
REMARK 927      BINDING AFFINITY PREDICTED BY RF-SCORE:    0.00 PKD
ROOT
HETATM    1  C   UNL     1     -12.530  13.620  71.096  1.00  0.00    -0.359 C  
HETATM    2  N   UNL     1     -12.028  12.721  70.071  1.00  0.00    -0.335 N  
HETATM    3  O   UNL     1     -11.579  10.524  69.488  1.00  0.00    -0.255 OA 
HETATM    4  C   UNL     1     -12.095  11.345  70.240  1.00  0.00    -0.374 C  
ENDROOT
BRANCH   2   5
HETATM    5  C   UNL     1     -11.241  13.279  68.973  1.00  0.00    -0.270 C  
BRANCH   5   6
HETATM    6  C   UNL     1     -12.053  14.217  68.070  1.00  0.00    -0.289 C  
BRANCH   6   7
HETATM    7  C   UNL     1     -11.568  14.151  66.616  1.00  0.00    -0.399 C  
BRANCH   7   8
HETATM    8  C   UNL     1     -12.731  13.979  65.631  1.00  0.00    -0.515 C  
BRANCH   8   9
HETATM    9  C   UNL     1     -12.414  12.915  64.577  1.00  0.00    -0.468 C  
BRANCH   9  10
HETATM   10  C   UNL     1     -10.940  12.952  64.161  1.00  0.00    -0.442 C  
BRANCH  10  11
HETATM   11  C   UNL     1     -10.508  11.724  63.352  1.00  0.00    -0.485 C  
BRANCH  11  12
HETATM   12  C   UNL     1      -9.471  10.865  64.073  1.00  0.00    -0.298 C  
BRANCH  12  13
HETATM   13  C   UNL     1      -9.397  11.204  65.559  1.00  0.00    -0.247 C  
BRANCH  13  14
HETATM   14  C   UNL     1     -10.172  10.179  66.372  1.00  0.00    -0.221 C  
BRANCH  14  15
HETATM   15  N   UNL     1      -9.297   9.156  66.927  1.00  0.00    -0.149 N  
HETATM   16  C   UNL     1      -9.799   7.890  67.169  1.00  0.00    -0.208 C  
HETATM   17  C   UNL     1      -7.899   9.479  67.171  1.00  0.00    -0.095 C  
HETATM   18  O   UNL     1     -10.973   7.570  67.017  1.00  0.00    -0.306 OA 
BRANCH  16  19
HETATM   19  O   UNL     1      -8.846   7.057  67.736  1.00  0.00    -0.124 OA 
BRANCH  19  20
HETATM   20  C   UNL     1      -8.911   5.741  67.265  1.00  0.00    -0.106 A  
HETATM   21  C   UNL     1      -9.087   4.736  68.209  1.00  0.00    -0.145 A  
HETATM   22  C   UNL     1      -9.275   3.433  67.761  1.00  0.00    -0.235 A  
HETATM   23  C   UNL     1      -9.283   3.145  66.392  1.00  0.00    -0.147 A  
HETATM   24  C   UNL     1      -9.092   4.156  65.436  1.00  0.00    -0.139 A  
HETATM   25  C   UNL     1      -8.943   5.466  65.891  1.00  0.00    -0.151 A  
BRANCH  24  26
HETATM   26  N   UNL     1      -9.158   3.873  63.943  1.00  0.00    -0.124 N  
HETATM   27  C   UNL     1      -8.306   2.662  63.576  1.00  0.00    -0.085 C  
HETATM   28  C   UNL     1      -8.615   5.063  63.142  1.00  0.00    -0.112 C  
HETATM   29  C   UNL     1     -10.615   3.617  63.584  1.00  0.00    -0.272 C  
ENDBRANCH  24  26
ENDBRANCH  19  20
ENDBRANCH  16  19
ENDBRANCH  14  15
ENDBRANCH  13  14
ENDBRANCH  12  13
ENDBRANCH  11  12
ENDBRANCH  10  11
ENDBRANCH   9  10
ENDBRANCH   8   9
ENDBRANCH   7   8
ENDBRANCH   6   7
ENDBRANCH   5   6
ENDBRANCH   2   5
BRANCH   4  30
HETATM   30  O   UNL     1     -12.761  10.983  71.415  1.00  0.00    -0.401 OA 
BRANCH  30  31
HETATM   31  C   UNL     1     -12.882   9.593  71.584  1.00  0.00    -0.405 A  
HETATM   32  C   UNL     1     -14.113   8.971  71.368  1.00  0.00    -0.237 A  
HETATM   33  C   UNL     1     -11.730   8.849  71.860  1.00  0.00    -0.439 A  
HETATM   34  C   UNL     1     -11.820   7.451  71.970  1.00  0.00    -0.298 A  
HETATM   35  C   UNL     1     -14.212   7.597  71.487  1.00  0.00    -0.564 A  
HETATM   36  C   UNL     1     -13.079   6.845  71.794  1.00  0.00    -0.302 A  
BRANCH  34  37
HETATM   37  N   UNL     1     -10.612   6.617  72.382  1.00  0.00    -0.208 N  
HETATM   38  C   UNL     1     -10.140   6.972  73.792  1.00  0.00    -0.352 C  
HETATM   39  C   UNL     1     -10.956   5.127  72.390  1.00  0.00    -0.180 C  
HETATM   40  C   UNL     1      -9.495   6.919  71.382  1.00  0.00    -0.160 C  
ENDBRANCH  34  37
ENDBRANCH  30  31
ENDBRANCH   4  30
TORSDOF 17
ENDMDL
MODEL       60
REMARK 921   NORMALIZED FREE ENERGY PREDICTED BY IDOCK:   -5.27 KCAL/MOL
REMARK 922        TOTAL FREE ENERGY PREDICTED BY IDOCK:  -12.74 KCAL/MOL
REMARK 923 INTER-LIGAND FREE ENERGY PREDICTED BY IDOCK:   -9.93 KCAL/MOL
REMARK 924 INTRA-LIGAND FREE ENERGY PREDICTED BY IDOCK:   -2.81 KCAL/MOL
REMARK 927      BINDING AFFINITY PREDICTED BY RF-SCORE:    0.00 PKD
ROOT
HETATM    1  C   UNL     1     -11.785  11.981  68.964  1.00  0.00    -0.325 C  
HETATM    2  N   UNL     1     -11.509  13.249  68.312  1.00  0.00    -0.294 N  
HETATM    3  O   UNL     1     -11.339  14.383  66.299  1.00  0.00    -0.335 OA 
HETATM    4  C   UNL     1     -11.673  13.392  66.941  1.00  0.00    -0.389 C  
ENDROOT
BRANCH   2   5
HETATM    5  C   UNL     1     -10.834  14.298  69.074  1.00  0.00    -0.255 C  
BRANCH   5   6
HETATM    6  C   UNL     1     -11.669  15.579  69.201  1.00  0.00    -0.380 C  
BRANCH   6   7
HETATM    7  C   UNL     1     -10.776  16.825  69.238  1.00  0.00    -0.324 C  
BRANCH   7   8
HETATM    8  C   UNL     1     -10.495  17.370  67.832  1.00  0.00    -0.383 C  
BRANCH   8   9
HETATM    9  C   UNL     1      -8.996  17.598  67.614  1.00  0.00    -0.240 C  
BRANCH   9  10
HETATM   10  C   UNL     1      -8.431  16.661  66.543  1.00  0.00    -0.327 C  
BRANCH  10  11
HETATM   11  C   UNL     1      -7.631  15.490  67.123  1.00  0.00    -0.253 C  
BRANCH  11  12
HETATM   12  C   UNL     1      -7.445  15.582  68.637  1.00  0.00    -0.131 C  
BRANCH  12  13
HETATM   13  C   UNL     1      -6.356  14.630  69.126  1.00  0.00    -0.106 C  
BRANCH  13  14
HETATM   14  C   UNL     1      -6.480  13.285  68.427  1.00  0.00    -0.091 C  
BRANCH  14  15
HETATM   15  N   UNL     1      -6.445  12.179  69.373  1.00  0.00    -0.112 N  
HETATM   16  C   UNL     1      -7.445  11.225  69.342  1.00  0.00     0.018 C  
HETATM   17  C   UNL     1      -5.328  12.079  70.302  1.00  0.00    -0.115 C  
HETATM   18  O   UNL     1      -8.427  11.276  68.609  1.00  0.00    -0.151 OA 
BRANCH  16  19
HETATM   19  O   UNL     1      -7.281  10.272  70.336  1.00  0.00    -0.257 OA 
BRANCH  19  20
HETATM   20  C   UNL     1      -8.142   9.178  70.200  1.00  0.00    -0.140 A  
HETATM   21  C   UNL     1      -7.699   8.111  69.427  1.00  0.00    -0.103 A  
HETATM   22  C   UNL     1      -8.481   6.963  69.372  1.00  0.00    -0.133 A  
HETATM   23  C   UNL     1      -9.686   6.888  70.078  1.00  0.00    -0.170 A  
HETATM   24  C   UNL     1     -10.144   7.969  70.851  1.00  0.00    -0.191 A  
HETATM   25  C   UNL     1      -9.336   9.102  70.932  1.00  0.00    -0.335 A  
BRANCH  24  26
HETATM   26  N   UNL     1     -11.421   7.885  71.673  1.00  0.00    -0.255 N  
HETATM   27  C   UNL     1     -12.389   6.867  71.081  1.00  0.00    -0.370 C  
HETATM   28  C   UNL     1     -12.145   9.237  71.689  1.00  0.00    -0.379 C  
HETATM   29  C   UNL     1     -11.033   7.479  73.088  1.00  0.00    -0.367 C  
ENDBRANCH  24  26
ENDBRANCH  19  20
ENDBRANCH  16  19
ENDBRANCH  14  15
ENDBRANCH  13  14
ENDBRANCH  12  13
ENDBRANCH  11  12
ENDBRANCH  10  11
ENDBRANCH   9  10
ENDBRANCH   8   9
ENDBRANCH   7   8
ENDBRANCH   6   7
ENDBRANCH   5   6
ENDBRANCH   2   5
BRANCH   4  30
HETATM   30  O   UNL     1     -12.202  12.244  66.343  1.00  0.00    -0.613 OA 
BRANCH  30  31
HETATM   31  C   UNL     1     -11.405  11.739  65.301  1.00  0.00    -0.222 A  
HETATM   32  C   UNL     1     -11.669  12.112  63.982  1.00  0.00    -0.515 A  
HETATM   33  C   UNL     1     -10.295  10.954  65.626  1.00  0.00    -0.305 A  
HETATM   34  C   UNL     1      -9.451  10.492  64.602  1.00  0.00    -0.263 A  
HETATM   35  C   UNL     1     -10.850  11.651  62.967  1.00  0.00    -0.134 A  
HETATM   36  C   UNL     1      -9.757  10.842  63.273  1.00  0.00    -0.396 A  
BRANCH  34  37
HETATM   37  N   UNL     1      -8.297   9.542  64.904  1.00  0.00    -0.137 N  
HETATM   38  C   UNL     1      -7.081  10.293  65.449  1.00  0.00    -0.139 C  
HETATM   39  C   UNL     1      -8.699   8.518  65.965  1.00  0.00    -0.161 C  
HETATM   40  C   UNL     1      -7.922   8.857  63.590  1.00  0.00    -0.154 C  
ENDBRANCH  34  37
ENDBRANCH  30  31
ENDBRANCH   4  30
TORSDOF 17
ENDMDL
MODEL       61
REMARK 921   NORMALIZED FREE ENERGY PREDICTED BY IDOCK:   -5.25 KCAL/MOL
REMARK 922        TOTAL FREE ENERGY PREDICTED BY IDOCK:  -12.70 KCAL/MOL
REMARK 923 INTER-LIGAND FREE ENERGY PREDICTED BY IDOCK:  -11.65 KCAL/MOL
REMARK 924 INTRA-LIGAND FREE ENERGY PREDICTED BY IDOCK:   -1.05 KCAL/MOL
REMARK 927      BINDING AFFINITY PREDICTED BY RF-SCORE:    0.00 PKD
ROOT
HETATM    1  C   UNL     1      -8.359   4.603  67.845  1.00  0.00    -0.099 C  
HETATM    2  N   UNL     1      -9.225   5.613  67.260  1.00  0.00    -0.110 N  
HETATM    3  O   UNL     1     -11.314   6.614  67.298  1.00  0.00    -0.324 OA 
HETATM    4  C   UNL     1     -10.474   5.876  67.805  1.00  0.00    -0.238 C  
ENDROOT
BRANCH   2   5
HETATM    5  C   UNL     1      -8.867   6.177  65.961  1.00  0.00    -0.153 C  
BRANCH   5   6
HETATM    6  C   UNL     1      -7.964   7.413  66.072  1.00  0.00    -0.115 C  
BRANCH   6   7
HETATM    7  C   UNL     1      -7.786   8.099  64.712  1.00  0.00    -0.137 C  
BRANCH   7   8
HETATM    8  C   UNL     1      -8.717   9.307  64.554  1.00  0.00    -0.218 C  
BRANCH   8   9
HETATM    9  C   UNL     1      -8.830   9.735  63.088  1.00  0.00    -0.257 C  
BRANCH   9  10
HETATM   10  C   UNL     1      -9.584  11.060  62.940  1.00  0.00    -0.369 C  
BRANCH  10  11
HETATM   11  C   UNL     1     -10.581  11.318  64.075  1.00  0.00    -0.450 C  
BRANCH  11  12
HETATM   12  C   UNL     1     -11.921  11.861  63.584  1.00  0.00    -0.578 C  
BRANCH  12  13
HETATM   13  C   UNL     1     -12.614  12.699  64.656  1.00  0.00    -0.517 C  
BRANCH  13  14
HETATM   14  C   UNL     1     -12.268  14.169  64.478  1.00  0.00    -0.445 C  
BRANCH  14  15
HETATM   15  N   UNL     1     -11.578  14.706  65.642  1.00  0.00    -0.345 N  
HETATM   16  C   UNL     1     -10.995  15.958  65.571  1.00  0.00    -0.241 C  
HETATM   17  C   UNL     1     -11.559  13.928  66.873  1.00  0.00    -0.378 C  
HETATM   18  O   UNL     1     -10.948  16.642  64.555  1.00  0.00    -0.885 OA 
BRANCH  16  19
HETATM   19  O   UNL     1     -10.346  16.293  66.750  1.00  0.00    -0.287 OA 
BRANCH  19  20
HETATM   20  C   UNL     1      -9.826  17.592  66.745  1.00  0.00    -0.304 A  
HETATM   21  C   UNL     1     -10.665  18.615  67.174  1.00  0.00    -0.433 A  
HETATM   22  C   UNL     1     -10.139  19.896  67.292  1.00  0.00    -0.569 A  
HETATM   23  C   UNL     1      -8.798  20.147  66.983  1.00  0.00    -0.439 A  
HETATM   24  C   UNL     1      -7.950  19.118  66.537  1.00  0.00    -0.284 A  
HETATM   25  C   UNL     1      -8.474  17.829  66.458  1.00  0.00    -0.288 A  
BRANCH  24  26
HETATM   26  N   UNL     1      -6.475  19.358  66.255  1.00  0.00    -0.186 N  
HETATM   27  C   UNL     1      -5.785  18.073  65.811  1.00  0.00    -0.198 C  
HETATM   28  C   UNL     1      -5.754  19.841  67.520  1.00  0.00    -0.174 C  
HETATM   29  C   UNL     1      -6.379  20.411  65.160  1.00  0.00    -0.277 C  
ENDBRANCH  24  26
ENDBRANCH  19  20
ENDBRANCH  16  19
ENDBRANCH  14  15
ENDBRANCH  13  14
ENDBRANCH  12  13
ENDBRANCH  11  12
ENDBRANCH  10  11
ENDBRANCH   9  10
ENDBRANCH   8   9
ENDBRANCH   7   8
ENDBRANCH   6   7
ENDBRANCH   5   6
ENDBRANCH   2   5
BRANCH   4  30
HETATM   30  O   UNL     1     -10.713   5.147  68.974  1.00  0.00    -0.102 OA 
BRANCH  30  31
HETATM   31  C   UNL     1     -10.756   5.943  70.131  1.00  0.00    -0.318 A  
HETATM   32  C   UNL     1     -11.898   6.694  70.415  1.00  0.00    -0.407 A  
HETATM   33  C   UNL     1      -9.687   5.876  71.030  1.00  0.00    -0.209 A  
HETATM   34  C   UNL     1      -9.741   6.616  72.224  1.00  0.00    -0.148 A  
HETATM   35  C   UNL     1     -11.952   7.435  71.582  1.00  0.00    -0.339 A  
HETATM   36  C   UNL     1     -10.880   7.403  72.473  1.00  0.00    -0.327 A  
BRANCH  34  37
HETATM   37  N   UNL     1      -8.550   6.659  73.175  1.00  0.00    -0.120 N  
HETATM   38  C   UNL     1      -8.732   7.727  74.254  1.00  0.00    -0.190 C  
HETATM   39  C   UNL     1      -8.380   5.322  73.896  1.00  0.00    -0.110 C  
HETATM   40  C   UNL     1      -7.316   6.993  72.335  1.00  0.00    -0.084 C  
ENDBRANCH  34  37
ENDBRANCH  30  31
ENDBRANCH   4  30
TORSDOF 17
ENDMDL
MODEL       62
REMARK 921   NORMALIZED FREE ENERGY PREDICTED BY IDOCK:   -5.22 KCAL/MOL
REMARK 922        TOTAL FREE ENERGY PREDICTED BY IDOCK:  -12.65 KCAL/MOL
REMARK 923 INTER-LIGAND FREE ENERGY PREDICTED BY IDOCK:  -11.21 KCAL/MOL
REMARK 924 INTRA-LIGAND FREE ENERGY PREDICTED BY IDOCK:   -1.44 KCAL/MOL
REMARK 927      BINDING AFFINITY PREDICTED BY RF-SCORE:    0.00 PKD
ROOT
HETATM    1  C   UNL     1      -9.312   3.710  68.516  1.00  0.00    -0.164 C  
HETATM    2  N   UNL     1     -10.035   4.657  69.348  1.00  0.00    -0.205 N  
HETATM    3  O   UNL     1     -11.288   6.605  69.405  1.00  0.00    -0.310 OA 
HETATM    4  C   UNL     1     -10.761   5.692  68.776  1.00  0.00    -0.197 C  
ENDROOT
BRANCH   2   5
HETATM    5  C   UNL     1      -9.796   4.649  70.790  1.00  0.00    -0.214 C  
BRANCH   5   6
HETATM    6  C   UNL     1      -8.384   5.120  71.166  1.00  0.00    -0.121 C  
BRANCH   6   7
HETATM    7  C   UNL     1      -8.432   6.358  72.070  1.00  0.00    -0.115 C  
BRANCH   7   8
HETATM    8  C   UNL     1      -9.838   6.603  72.632  1.00  0.00    -0.180 C  
BRANCH   8   9
HETATM    9  C   UNL     1     -10.202   8.090  72.590  1.00  0.00    -0.385 C  
BRANCH   9  10
HETATM   10  C   UNL     1     -11.699   8.299  72.342  1.00  0.00    -0.463 C  
BRANCH  10  11
HETATM   11  C   UNL     1     -12.005   9.538  71.495  1.00  0.00    -0.475 C  
BRANCH  11  12
HETATM   12  C   UNL     1     -13.319  10.217  71.877  1.00  0.00    -0.505 C  
BRANCH  12  13
HETATM   13  C   UNL     1     -13.169  11.735  71.937  1.00  0.00    -0.468 C  
BRANCH  13  14
HETATM   14  C   UNL     1     -12.453  12.242  70.695  1.00  0.00    -0.236 C  
BRANCH  14  15
HETATM   15  N   UNL     1     -12.379  13.696  70.670  1.00  0.00    -0.361 N  
HETATM   16  C   UNL     1     -12.147  14.345  69.471  1.00  0.00    -0.322 C  
HETATM   17  C   UNL     1     -12.599  14.436  71.905  1.00  0.00    -0.337 C  
HETATM   18  O   UNL     1     -11.919  13.776  68.409  1.00  0.00    -0.355 OA 
BRANCH  16  19
HETATM   19  O   UNL     1     -12.064  15.720  69.636  1.00  0.00    -0.355 OA 
BRANCH  19  20
HETATM   20  C   UNL     1     -10.830  16.250  69.244  1.00  0.00    -0.318 A  
HETATM   21  C   UNL     1      -9.687  15.579  69.665  1.00  0.00    -0.276 A  
HETATM   22  C   UNL     1      -8.454  16.013  69.192  1.00  0.00    -0.247 A  
HETATM   23  C   UNL     1      -8.369  17.101  68.318  1.00  0.00    -0.232 A  
HETATM   24  C   UNL     1      -9.520  17.790  67.900  1.00  0.00    -0.270 A  
HETATM   25  C   UNL     1     -10.757  17.325  68.347  1.00  0.00    -0.332 A  
BRANCH  24  26
HETATM   26  N   UNL     1      -9.454  18.936  66.902  1.00  0.00    -0.306 N  
HETATM   27  C   UNL     1     -10.546  18.807  65.846  1.00  0.00    -0.352 C  
HETATM   28  C   UNL     1      -8.111  18.931  66.162  1.00  0.00    -0.222 C  
HETATM   29  C   UNL     1      -9.624  20.234  67.678  1.00  0.00    -0.395 C  
ENDBRANCH  24  26
ENDBRANCH  19  20
ENDBRANCH  16  19
ENDBRANCH  14  15
ENDBRANCH  13  14
ENDBRANCH  12  13
ENDBRANCH  11  12
ENDBRANCH  10  11
ENDBRANCH   9  10
ENDBRANCH   8   9
ENDBRANCH   7   8
ENDBRANCH   6   7
ENDBRANCH   5   6
ENDBRANCH   2   5
BRANCH   4  30
HETATM   30  O   UNL     1     -10.773   5.629  67.379  1.00  0.00    -0.248 OA 
BRANCH  30  31
HETATM   31  C   UNL     1      -9.957   6.597  66.768  1.00  0.00    -0.176 A  
HETATM   32  C   UNL     1      -8.885   6.196  65.969  1.00  0.00    -0.160 A  
HETATM   33  C   UNL     1     -10.309   7.944  66.891  1.00  0.00    -0.400 A  
HETATM   34  C   UNL     1      -9.541   8.922  66.235  1.00  0.00    -0.260 A  
HETATM   35  C   UNL     1      -8.117   7.153  65.330  1.00  0.00    -0.137 A  
HETATM   36  C   UNL     1      -8.436   8.503  65.469  1.00  0.00    -0.183 A  
BRANCH  34  37
HETATM   37  N   UNL     1      -9.823  10.406  66.436  1.00  0.00    -0.204 N  
HETATM   38  C   UNL     1      -8.596  11.142  66.977  1.00  0.00    -0.147 C  
HETATM   39  C   UNL     1     -10.192  11.075  65.111  1.00  0.00    -0.291 C  
HETATM   40  C   UNL     1     -10.965  10.515  67.446  1.00  0.00    -0.288 C  
ENDBRANCH  34  37
ENDBRANCH  30  31
ENDBRANCH   4  30
TORSDOF 17
ENDMDL
MODEL       63
REMARK 921   NORMALIZED FREE ENERGY PREDICTED BY IDOCK:   -5.22 KCAL/MOL
REMARK 922        TOTAL FREE ENERGY PREDICTED BY IDOCK:  -12.63 KCAL/MOL
REMARK 923 INTER-LIGAND FREE ENERGY PREDICTED BY IDOCK:  -10.27 KCAL/MOL
REMARK 924 INTRA-LIGAND FREE ENERGY PREDICTED BY IDOCK:   -2.36 KCAL/MOL
REMARK 927      BINDING AFFINITY PREDICTED BY RF-SCORE:    0.00 PKD
ROOT
HETATM    1  C   UNL     1     -11.298  14.398  69.337  1.00  0.00    -0.281 C  
HETATM    2  N   UNL     1     -11.719  13.313  68.467  1.00  0.00    -0.332 N  
HETATM    3  O   UNL     1     -12.048  11.029  68.258  1.00  0.00    -0.604 OA 
HETATM    4  C   UNL     1     -11.829  12.017  68.953  1.00  0.00    -0.299 C  
ENDROOT
BRANCH   2   5
HETATM    5  C   UNL     1     -11.795  13.557  67.028  1.00  0.00    -0.402 C  
BRANCH   5   6
HETATM    6  C   UNL     1     -10.824  14.646  66.552  1.00  0.00    -0.315 C  
BRANCH   6   7
HETATM    7  C   UNL     1     -11.139  15.087  65.118  1.00  0.00    -0.408 C  
BRANCH   7   8
HETATM    8  C   UNL     1     -12.411  14.418  64.580  1.00  0.00    -0.440 C  
BRANCH   8   9
HETATM    9  C   UNL     1     -12.110  13.566  63.343  1.00  0.00    -0.351 C  
BRANCH   9  10
HETATM   10  C   UNL     1     -12.336  12.075  63.615  1.00  0.00    -0.648 C  
BRANCH  10  11
HETATM   11  C   UNL     1     -11.045  11.250  63.574  1.00  0.00    -0.261 C  
BRANCH  11  12
HETATM   12  C   UNL     1      -9.836  11.999  64.131  1.00  0.00    -0.210 C  
BRANCH  12  13
HETATM   13  C   UNL     1      -9.264  11.302  65.364  1.00  0.00    -0.202 C  
BRANCH  13  14
HETATM   14  C   UNL     1      -9.973   9.975  65.593  1.00  0.00    -0.285 C  
BRANCH  14  15
HETATM   15  N   UNL     1      -9.064   8.847  65.457  1.00  0.00    -0.207 N  
HETATM   16  C   UNL     1      -9.398   7.631  66.024  1.00  0.00    -0.013 C  
HETATM   17  C   UNL     1      -7.841   9.014  64.684  1.00  0.00    -0.121 C  
HETATM   18  O   UNL     1     -10.393   7.440  66.715  1.00  0.00    -0.279 OA 
BRANCH  16  19
HETATM   19  O   UNL     1      -8.404   6.682  65.837  1.00  0.00    -0.125 OA 
BRANCH  19  20
HETATM   20  C   UNL     1      -7.826   6.244  67.033  1.00  0.00    -0.104 A  
HETATM   21  C   UNL     1      -6.934   7.105  67.662  1.00  0.00    -0.079 A  
HETATM   22  C   UNL     1      -6.437   6.747  68.910  1.00  0.00    -0.036 A  
HETATM   23  C   UNL     1      -6.825   5.546  69.514  1.00  0.00    -0.061 A  
HETATM   24  C   UNL     1      -7.717   4.667  68.876  1.00  0.00    -0.071 A  
HETATM   25  C   UNL     1      -8.242   5.051  67.642  1.00  0.00    -0.105 A  
BRANCH  24  26
HETATM   26  N   UNL     1      -8.199   3.388  69.542  1.00  0.00    -0.052 N  
HETATM   27  C   UNL     1      -8.634   3.648  70.981  1.00  0.00    -0.072 C  
HETATM   28  C   UNL     1      -7.072   2.348  69.595  1.00  0.00    -0.033 C  
HETATM   29  C   UNL     1      -9.369   2.855  68.728  1.00  0.00    -0.168 C  
ENDBRANCH  24  26
ENDBRANCH  19  20
ENDBRANCH  16  19
ENDBRANCH  14  15
ENDBRANCH  13  14
ENDBRANCH  12  13
ENDBRANCH  11  12
ENDBRANCH  10  11
ENDBRANCH   9  10
ENDBRANCH   8   9
ENDBRANCH   7   8
ENDBRANCH   6   7
ENDBRANCH   5   6
ENDBRANCH   2   5
BRANCH   4  30
HETATM   30  O   UNL     1     -11.588  11.939  70.327  1.00  0.00    -0.249 OA 
BRANCH  30  31
HETATM   31  C   UNL     1     -12.049  10.745  70.909  1.00  0.00    -0.370 A  
HETATM   32  C   UNL     1     -13.245  10.741  71.629  1.00  0.00    -0.487 A  
HETATM   33  C   UNL     1     -11.347   9.563  70.659  1.00  0.00    -0.364 A  
HETATM   34  C   UNL     1     -11.828   8.349  71.180  1.00  0.00    -0.282 A  
HETATM   35  C   UNL     1     -13.718   9.553  72.156  1.00  0.00    -0.447 A  
HETATM   36  C   UNL     1     -13.012   8.370  71.941  1.00  0.00    -0.381 A  
BRANCH  34  37
HETATM   37  N   UNL     1     -11.032   7.058  71.025  1.00  0.00    -0.244 N  
HETATM   38  C   UNL     1     -11.346   6.362  69.700  1.00  0.00    -0.412 C  
HETATM   39  C   UNL     1      -9.530   7.340  71.035  1.00  0.00    -0.158 C  
HETATM   40  C   UNL     1     -11.429   6.143  72.184  1.00  0.00    -0.311 C  
ENDBRANCH  34  37
ENDBRANCH  30  31
ENDBRANCH   4  30
TORSDOF 17
ENDMDL
MODEL       64
REMARK 921   NORMALIZED FREE ENERGY PREDICTED BY IDOCK:   -5.21 KCAL/MOL
REMARK 922        TOTAL FREE ENERGY PREDICTED BY IDOCK:  -12.62 KCAL/MOL
REMARK 923 INTER-LIGAND FREE ENERGY PREDICTED BY IDOCK:   -9.92 KCAL/MOL
REMARK 924 INTRA-LIGAND FREE ENERGY PREDICTED BY IDOCK:   -2.70 KCAL/MOL
REMARK 927      BINDING AFFINITY PREDICTED BY RF-SCORE:    0.00 PKD
ROOT
HETATM    1  C   UNL     1     -12.323  12.921  70.720  1.00  0.00    -0.299 C  
HETATM    2  N   UNL     1     -11.832  11.864  69.852  1.00  0.00    -0.340 N  
HETATM    3  O   UNL     1     -11.641  11.092  67.676  1.00  0.00    -0.526 OA 
HETATM    4  C   UNL     1     -11.911  11.987  68.472  1.00  0.00    -0.311 C  
ENDROOT
BRANCH   2   5
HETATM    5  C   UNL     1     -11.473  10.578  70.447  1.00  0.00    -0.341 C  
BRANCH   5   6
HETATM    6  C   UNL     1     -12.559  10.025  71.380  1.00  0.00    -0.518 C  
BRANCH   6   7
HETATM    7  C   UNL     1     -12.044   8.825  72.185  1.00  0.00    -0.441 C  
BRANCH   7   8
HETATM    8  C   UNL     1     -10.534   8.624  72.011  1.00  0.00    -0.422 C  
BRANCH   8   9
HETATM    9  C   UNL     1     -10.003   7.546  72.961  1.00  0.00    -0.321 C  
BRANCH   9  10
HETATM   10  C   UNL     1      -9.547   6.297  72.201  1.00  0.00    -0.158 C  
BRANCH  10  11
HETATM   11  C   UNL     1      -8.262   6.515  71.395  1.00  0.00    -0.120 C  
BRANCH  11  12
HETATM   12  C   UNL     1      -8.105   5.529  70.239  1.00  0.00    -0.102 C  
BRANCH  12  13
HETATM   13  C   UNL     1      -9.334   4.635  70.093  1.00  0.00    -0.213 C  
BRANCH  13  14
HETATM   14  C   UNL     1      -9.837   4.663  68.657  1.00  0.00    -0.120 C  
BRANCH  14  15
HETATM   15  N   UNL     1     -10.348   5.975  68.290  1.00  0.00    -0.185 N  
HETATM   16  C   UNL     1      -9.974   6.537  67.083  1.00  0.00    -0.157 C  
HETATM   17  C   UNL     1     -11.281   6.646  69.185  1.00  0.00    -0.242 C  
HETATM   18  O   UNL     1      -9.166   6.038  66.308  1.00  0.00    -0.154 OA 
BRANCH  16  19
HETATM   19  O   UNL     1     -10.515   7.804  66.914  1.00  0.00    -0.319 OA 
BRANCH  19  20
HETATM   20  C   UNL     1      -9.559   8.775  66.598  1.00  0.00    -0.220 A  
HETATM   21  C   UNL     1      -9.730   9.472  65.408  1.00  0.00    -0.314 A  
HETATM   22  C   UNL     1      -8.864  10.524  65.127  1.00  0.00    -0.206 A  
HETATM   23  C   UNL     1      -7.846  10.867  66.023  1.00  0.00    -0.121 A  
HETATM   24  C   UNL     1      -7.663  10.157  67.222  1.00  0.00    -0.095 A  
HETATM   25  C   UNL     1      -8.558   9.129  67.515  1.00  0.00    -0.116 A  
BRANCH  24  26
HETATM   26  N   UNL     1      -6.602  10.553  68.236  1.00  0.00    -0.059 N  
HETATM   27  C   UNL     1      -5.963  11.888  67.868  1.00  0.00    -0.054 C  
HETATM   28  C   UNL     1      -5.475   9.512  68.275  1.00  0.00    -0.037 C  
HETATM   29  C   UNL     1      -7.276  10.651  69.597  1.00  0.00    -0.139 C  
ENDBRANCH  24  26
ENDBRANCH  19  20
ENDBRANCH  16  19
ENDBRANCH  14  15
ENDBRANCH  13  14
ENDBRANCH  12  13
ENDBRANCH  11  12
ENDBRANCH  10  11
ENDBRANCH   9  10
ENDBRANCH   8   9
ENDBRANCH   7   8
ENDBRANCH   6   7
ENDBRANCH   5   6
ENDBRANCH   2   5
BRANCH   4  30
HETATM   30  O   UNL     1     -12.406  13.232  68.073  1.00  0.00    -0.168 OA 
BRANCH  30  31
HETATM   31  C   UNL     1     -11.515  13.956  67.263  1.00  0.00    -0.344 A  
HETATM   32  C   UNL     1     -11.363  13.613  65.919  1.00  0.00    -0.317 A  
HETATM   33  C   UNL     1     -10.880  15.078  67.803  1.00  0.00    -0.284 A  
HETATM   34  C   UNL     1     -10.034  15.852  66.990  1.00  0.00    -0.247 A  
HETATM   35  C   UNL     1     -10.522  14.361  65.116  1.00  0.00    -0.437 A  
HETATM   36  C   UNL     1      -9.857  15.465  65.649  1.00  0.00    -0.387 A  
BRANCH  34  37
HETATM   37  N   UNL     1      -9.236  17.014  67.571  1.00  0.00    -0.230 N  
HETATM   38  C   UNL     1     -10.153  18.074  68.182  1.00  0.00    -0.372 C  
HETATM   39  C   UNL     1      -8.306  16.534  68.685  1.00  0.00    -0.235 C  
HETATM   40  C   UNL     1      -8.442  17.635  66.420  1.00  0.00    -0.246 C  
ENDBRANCH  34  37
ENDBRANCH  30  31
ENDBRANCH   4  30
TORSDOF 17
ENDMDL
MODEL       65
REMARK 921   NORMALIZED FREE ENERGY PREDICTED BY IDOCK:   -5.21 KCAL/MOL
REMARK 922        TOTAL FREE ENERGY PREDICTED BY IDOCK:  -12.61 KCAL/MOL
REMARK 923 INTER-LIGAND FREE ENERGY PREDICTED BY IDOCK:  -10.90 KCAL/MOL
REMARK 924 INTRA-LIGAND FREE ENERGY PREDICTED BY IDOCK:   -1.72 KCAL/MOL
REMARK 927      BINDING AFFINITY PREDICTED BY RF-SCORE:    0.00 PKD
ROOT
HETATM    1  C   UNL     1     -12.291  14.235  63.687  1.00  0.00     0.149 C  
HETATM    2  N   UNL     1     -12.172  12.954  64.362  1.00  0.00    -0.403 N  
HETATM    3  O   UNL     1     -12.131  11.845  66.396  1.00  0.00    -0.552 OA 
HETATM    4  C   UNL     1     -12.343  12.858  65.736  1.00  0.00    -0.375 C  
ENDROOT
BRANCH   2   5
HETATM    5  C   UNL     1     -11.641  11.814  63.617  1.00  0.00    -0.424 C  
BRANCH   5   6
HETATM    6  C   UNL     1     -10.107  11.750  63.634  1.00  0.00    -0.445 C  
BRANCH   6   7
HETATM    7  C   UNL     1      -9.604  10.347  63.272  1.00  0.00    -0.353 C  
BRANCH   7   8
HETATM    8  C   UNL     1      -8.668   9.779  64.347  1.00  0.00    -0.228 C  
BRANCH   8   9
HETATM    9  C   UNL     1      -9.222  10.026  65.753  1.00  0.00    -0.222 C  
BRANCH   9  10
HETATM   10  C   UNL     1      -9.797   8.747  66.367  1.00  0.00    -0.352 C  
BRANCH  10  11
HETATM   11  C   UNL     1     -10.652   9.004  67.613  1.00  0.00    -0.298 C  
BRANCH  11  12
HETATM   12  C   UNL     1      -9.830   9.103  68.896  1.00  0.00    -0.179 C  
BRANCH  12  13
HETATM   13  C   UNL     1     -10.360  10.199  69.818  1.00  0.00    -0.297 C  
BRANCH  13  14
HETATM   14  C   UNL     1     -11.458   9.646  70.714  1.00  0.00    -0.328 C  
BRANCH  14  15
HETATM   15  N   UNL     1     -11.003   8.492  71.476  1.00  0.00    -0.250 N  
HETATM   16  C   UNL     1     -11.728   7.316  71.427  1.00  0.00    -0.287 C  
HETATM   17  C   UNL     1      -9.765   8.591  72.237  1.00  0.00    -0.310 C  
HETATM   18  O   UNL     1     -12.794   7.184  70.835  1.00  0.00    -0.294 OA 
BRANCH  16  19
HETATM   19  O   UNL     1     -11.180   6.337  72.243  1.00  0.00    -0.254 OA 
BRANCH  19  20
HETATM   20  C   UNL     1     -10.507   5.337  71.531  1.00  0.00    -0.210 A  
HETATM   21  C   UNL     1     -10.221   4.158  72.208  1.00  0.00    -0.234 A  
HETATM   22  C   UNL     1      -9.661   3.104  71.494  1.00  0.00    -0.226 A  
HETATM   23  C   UNL     1      -9.391   3.234  70.128  1.00  0.00    -0.242 A  
HETATM   24  C   UNL     1      -9.668   4.429  69.442  1.00  0.00    -0.197 A  
HETATM   25  C   UNL     1     -10.265   5.468  70.156  1.00  0.00    -0.333 A  
BRANCH  24  26
HETATM   26  N   UNL     1      -9.438   4.569  67.946  1.00  0.00    -0.147 N  
HETATM   27  C   UNL     1      -8.164   5.356  67.657  1.00  0.00    -0.100 C  
HETATM   28  C   UNL     1     -10.595   5.333  67.290  1.00  0.00    -0.127 C  
HETATM   29  C   UNL     1      -9.333   3.168  67.361  1.00  0.00    -0.191 C  
ENDBRANCH  24  26
ENDBRANCH  19  20
ENDBRANCH  16  19
ENDBRANCH  14  15
ENDBRANCH  13  14
ENDBRANCH  12  13
ENDBRANCH  11  12
ENDBRANCH  10  11
ENDBRANCH   9  10
ENDBRANCH   8   9
ENDBRANCH   7   8
ENDBRANCH   6   7
ENDBRANCH   5   6
ENDBRANCH   2   5
BRANCH   4  30
HETATM   30  O   UNL     1     -12.718  14.075  66.315  1.00  0.00    -0.414 OA 
BRANCH  30  31
HETATM   31  C   UNL     1     -11.901  14.458  67.392  1.00  0.00    -0.400 A  
HETATM   32  C   UNL     1     -12.150  13.947  68.667  1.00  0.00    -0.337 A  
HETATM   33  C   UNL     1     -10.786  15.261  67.136  1.00  0.00    -0.322 A  
HETATM   34  C   UNL     1      -9.922  15.602  68.191  1.00  0.00    -0.217 A  
HETATM   35  C   UNL     1     -11.312  14.289  69.713  1.00  0.00    -0.279 A  
HETATM   36  C   UNL     1     -10.214  15.115  69.479  1.00  0.00    -0.241 A  
BRANCH  34  37
HETATM   37  N   UNL     1      -8.762  16.567  67.974  1.00  0.00    -0.186 N  
HETATM   38  C   UNL     1      -7.677  16.387  69.037  1.00  0.00    -0.235 C  
HETATM   39  C   UNL     1      -8.100  16.327  66.617  1.00  0.00    -0.288 C  
HETATM   40  C   UNL     1      -9.332  17.984  68.068  1.00  0.00    -0.272 C  
ENDBRANCH  34  37
ENDBRANCH  30  31
ENDBRANCH   4  30
TORSDOF 17
ENDMDL
MODEL       66
REMARK 921   NORMALIZED FREE ENERGY PREDICTED BY IDOCK:   -5.20 KCAL/MOL
REMARK 922        TOTAL FREE ENERGY PREDICTED BY IDOCK:  -12.59 KCAL/MOL
REMARK 923 INTER-LIGAND FREE ENERGY PREDICTED BY IDOCK:  -10.15 KCAL/MOL
REMARK 924 INTRA-LIGAND FREE ENERGY PREDICTED BY IDOCK:   -2.44 KCAL/MOL
REMARK 927      BINDING AFFINITY PREDICTED BY RF-SCORE:    0.00 PKD
ROOT
HETATM    1  C   UNL     1     -11.203   6.093  69.664  1.00  0.00    -0.418 C  
HETATM    2  N   UNL     1     -10.041   6.913  69.965  1.00  0.00    -0.180 N  
HETATM    3  O   UNL     1      -8.207   8.041  69.111  1.00  0.00    -0.126 OA 
HETATM    4  C   UNL     1      -9.271   7.452  68.944  1.00  0.00    -0.142 C  
ENDROOT
BRANCH   2   5
HETATM    5  C   UNL     1      -9.559   6.966  71.344  1.00  0.00    -0.166 C  
BRANCH   5   6
HETATM    6  C   UNL     1      -9.908   8.283  72.051  1.00  0.00    -0.327 C  
BRANCH   6   7
HETATM    7  C   UNL     1     -11.382   8.316  72.472  1.00  0.00    -0.455 C  
BRANCH   7   8
HETATM    8  C   UNL     1     -12.180   9.362  71.684  1.00  0.00    -0.467 C  
BRANCH   8   9
HETATM    9  C   UNL     1     -11.264  10.195  70.782  1.00  0.00    -0.414 C  
BRANCH   9  10
HETATM   10  C   UNL     1     -12.000  11.398  70.185  1.00  0.00    -0.460 C  
BRANCH  10  11
HETATM   11  C   UNL     1     -11.898  11.474  68.658  1.00  0.00    -0.382 C  
BRANCH  11  12
HETATM   12  C   UNL     1     -10.667  10.760  68.102  1.00  0.00    -0.257 C  
BRANCH  12  13
HETATM   13  C   UNL     1     -10.936  10.173  66.719  1.00  0.00    -0.049 C  
BRANCH  13  14
HETATM   14  C   UNL     1     -10.172  10.953  65.660  1.00  0.00    -0.263 C  
BRANCH  14  15
HETATM   15  N   UNL     1     -10.797  12.237  65.379  1.00  0.00    -0.277 N  
HETATM   16  C   UNL     1     -10.151  13.403  65.748  1.00  0.00    -0.288 C  
HETATM   17  C   UNL     1     -12.070  12.265  64.673  1.00  0.00    -0.374 C  
HETATM   18  O   UNL     1      -9.098  13.442  66.375  1.00  0.00    -0.174 OA 
BRANCH  16  19
HETATM   19  O   UNL     1     -10.904  14.529  65.446  1.00  0.00    -0.315 OA 
BRANCH  19  20
HETATM   20  C   UNL     1     -10.964  15.451  66.497  1.00  0.00    -0.271 A  
HETATM   21  C   UNL     1     -11.453  14.995  67.715  1.00  0.00    -0.347 A  
HETATM   22  C   UNL     1     -11.413  15.855  68.807  1.00  0.00    -0.393 A  
HETATM   23  C   UNL     1     -10.895  17.148  68.677  1.00  0.00    -0.250 A  
HETATM   24  C   UNL     1     -10.412  17.617  67.444  1.00  0.00    -0.356 A  
HETATM   25  C   UNL     1     -10.419  16.736  66.363  1.00  0.00    -0.269 A  
BRANCH  24  26
HETATM   26  N   UNL     1      -9.789  18.996  67.296  1.00  0.00    -0.315 N  
HETATM   27  C   UNL     1     -10.421  19.762  66.138  1.00  0.00    -0.509 C  
HETATM   28  C   UNL     1      -8.289  18.884  66.994  1.00  0.00    -0.276 C  
HETATM   29  C   UNL     1     -10.009  19.745  68.603  1.00  0.00    -0.434 C  
ENDBRANCH  24  26
ENDBRANCH  19  20
ENDBRANCH  16  19
ENDBRANCH  14  15
ENDBRANCH  13  14
ENDBRANCH  12  13
ENDBRANCH  11  12
ENDBRANCH  10  11
ENDBRANCH   9  10
ENDBRANCH   8   9
ENDBRANCH   7   8
ENDBRANCH   6   7
ENDBRANCH   5   6
ENDBRANCH   2   5
BRANCH   4  30
HETATM   30  O   UNL     1      -9.801   7.190  67.678  1.00  0.00    -0.137 OA 
BRANCH  30  31
HETATM   31  C   UNL     1      -8.832   6.819  66.731  1.00  0.00    -0.124 A  
HETATM   32  C   UNL     1      -8.303   5.526  66.748  1.00  0.00    -0.108 A  
HETATM   33  C   UNL     1      -8.499   7.727  65.721  1.00  0.00    -0.155 A  
HETATM   34  C   UNL     1      -7.578   7.350  64.728  1.00  0.00    -0.103 A  
HETATM   35  C   UNL     1      -7.387   5.152  65.781  1.00  0.00    -0.077 A  
HETATM   36  C   UNL     1      -7.021   6.059  64.787  1.00  0.00    -0.055 A  
BRANCH  34  37
HETATM   37  N   UNL     1      -7.104   8.348  63.678  1.00  0.00    -0.087 N  
HETATM   38  C   UNL     1      -6.700   9.680  64.313  1.00  0.00    -0.112 C  
HETATM   39  C   UNL     1      -5.877   7.818  62.937  1.00  0.00    -0.063 C  
HETATM   40  C   UNL     1      -8.272   8.579  62.717  1.00  0.00    -0.179 C  
ENDBRANCH  34  37
ENDBRANCH  30  31
ENDBRANCH   4  30
TORSDOF 17
ENDMDL
MODEL       67
REMARK 921   NORMALIZED FREE ENERGY PREDICTED BY IDOCK:   -5.19 KCAL/MOL
REMARK 922        TOTAL FREE ENERGY PREDICTED BY IDOCK:  -12.58 KCAL/MOL
REMARK 923 INTER-LIGAND FREE ENERGY PREDICTED BY IDOCK:  -10.22 KCAL/MOL
REMARK 924 INTRA-LIGAND FREE ENERGY PREDICTED BY IDOCK:   -2.36 KCAL/MOL
REMARK 927      BINDING AFFINITY PREDICTED BY RF-SCORE:    0.00 PKD
ROOT
HETATM    1  C   UNL     1      -7.704  10.080  69.934  1.00  0.00    -0.175 C  
HETATM    2  N   UNL     1      -8.684   9.974  68.866  1.00  0.00    -0.138 N  
HETATM    3  O   UNL     1     -10.906   9.612  68.320  1.00  0.00    -0.231 OA 
HETATM    4  C   UNL     1     -10.035   9.838  69.154  1.00  0.00    -0.189 C  
ENDROOT
BRANCH   2   5
HETATM    5  C   UNL     1      -8.211   9.775  67.497  1.00  0.00    -0.114 C  
BRANCH   5   6
HETATM    6  C   UNL     1      -8.164  11.076  66.684  1.00  0.00    -0.154 C  
BRANCH   6   7
HETATM    7  C   UNL     1      -7.394  12.173  67.431  1.00  0.00    -0.151 C  
BRANCH   7   8
HETATM    8  C   UNL     1      -8.263  13.410  67.686  1.00  0.00    -0.177 C  
BRANCH   8   9
HETATM    9  C   UNL     1      -7.419  14.592  68.173  1.00  0.00    -0.126 C  
BRANCH   9  10
HETATM   10  C   UNL     1      -7.173  15.610  67.055  1.00  0.00    -0.175 C  
BRANCH  10  11
HETATM   11  C   UNL     1      -5.819  16.318  67.168  1.00  0.00    -0.107 C  
BRANCH  11  12
HETATM   12  C   UNL     1      -5.851  17.758  66.660  1.00  0.00    -0.203 C  
BRANCH  12  13
HETATM   13  C   UNL     1      -7.160  18.070  65.940  1.00  0.00    -0.302 C  
BRANCH  13  14
HETATM   14  C   UNL     1      -7.869  19.233  66.618  1.00  0.00    -0.271 C  
BRANCH  14  15
HETATM   15  N   UNL     1      -9.223  18.880  67.018  1.00  0.00    -0.296 N  
HETATM   16  C   UNL     1      -9.426  18.195  68.202  1.00  0.00    -0.294 C  
HETATM   17  C   UNL     1     -10.339  19.300  66.182  1.00  0.00    -0.494 C  
HETATM   18  O   UNL     1      -8.527  17.785  68.927  1.00  0.00    -0.245 OA 
BRANCH  16  19
HETATM   19  O   UNL     1     -10.767  17.903  68.406  1.00  0.00    -0.303 OA 
BRANCH  19  20
HETATM   20  C   UNL     1     -11.044  16.532  68.380  1.00  0.00    -0.333 A  
HETATM   21  C   UNL     1     -11.349  15.921  69.590  1.00  0.00    -0.342 A  
HETATM   22  C   UNL     1     -11.745  14.588  69.578  1.00  0.00    -0.361 A  
HETATM   23  C   UNL     1     -11.831  13.882  68.374  1.00  0.00    -0.409 A  
HETATM   24  C   UNL     1     -11.512  14.492  67.149  1.00  0.00    -0.368 A  
HETATM   25  C   UNL     1     -11.153  15.840  67.165  1.00  0.00    -0.180 A  
BRANCH  24  26
HETATM   26  N   UNL     1     -11.657  13.760  65.824  1.00  0.00    -0.322 N  
HETATM   27  C   UNL     1     -12.978  14.108  65.146  1.00  0.00    -0.177 C  
HETATM   28  C   UNL     1     -11.651  12.242  66.041  1.00  0.00    -0.393 C  
HETATM   29  C   UNL     1     -10.489  14.170  64.938  1.00  0.00    -0.438 C  
ENDBRANCH  24  26
ENDBRANCH  19  20
ENDBRANCH  16  19
ENDBRANCH  14  15
ENDBRANCH  13  14
ENDBRANCH  12  13
ENDBRANCH  11  12
ENDBRANCH  10  11
ENDBRANCH   9  10
ENDBRANCH   8   9
ENDBRANCH   7   8
ENDBRANCH   6   7
ENDBRANCH   5   6
ENDBRANCH   2   5
BRANCH   4  30
HETATM   30  O   UNL     1     -10.299   9.913  70.525  1.00  0.00    -0.286 OA 
BRANCH  30  31
HETATM   31  C   UNL     1     -10.976   8.788  71.027  1.00  0.00    -0.268 A  
HETATM   32  C   UNL     1     -12.364   8.821  71.174  1.00  0.00    -0.258 A  
HETATM   33  C   UNL     1     -10.247   7.620  71.267  1.00  0.00    -0.204 A  
HETATM   34  C   UNL     1     -10.916   6.465  71.709  1.00  0.00    -0.255 A  
HETATM   35  C   UNL     1     -13.028   7.693  71.621  1.00  0.00    -0.385 A  
HETATM   36  C   UNL     1     -12.310   6.530  71.895  1.00  0.00    -0.339 A  
BRANCH  34  37
HETATM   37  N   UNL     1     -10.143   5.208  72.089  1.00  0.00    -0.187 N  
HETATM   38  C   UNL     1      -8.808   5.549  72.753  1.00  0.00    -0.122 C  
HETATM   39  C   UNL     1     -10.934   4.364  73.090  1.00  0.00    -0.247 C  
HETATM   40  C   UNL     1      -9.883   4.431  70.797  1.00  0.00    -0.203 C  
ENDBRANCH  34  37
ENDBRANCH  30  31
ENDBRANCH   4  30
TORSDOF 17
ENDMDL
MODEL       68
REMARK 921   NORMALIZED FREE ENERGY PREDICTED BY IDOCK:   -5.18 KCAL/MOL
REMARK 922        TOTAL FREE ENERGY PREDICTED BY IDOCK:  -12.55 KCAL/MOL
REMARK 923 INTER-LIGAND FREE ENERGY PREDICTED BY IDOCK:   -9.80 KCAL/MOL
REMARK 924 INTRA-LIGAND FREE ENERGY PREDICTED BY IDOCK:   -2.75 KCAL/MOL
REMARK 927      BINDING AFFINITY PREDICTED BY RF-SCORE:    0.00 PKD
ROOT
HETATM    1  C   UNL     1      -6.411   9.750  67.169  1.00  0.00    -0.068 C  
HETATM    2  N   UNL     1      -6.116  10.563  68.337  1.00  0.00    -0.047 N  
HETATM    3  O   UNL     1      -6.506  10.902  70.595  1.00  0.00    -0.335 OA 
HETATM    4  C   UNL     1      -6.598  10.206  69.589  1.00  0.00    -0.069 C  
ENDROOT
BRANCH   2   5
HETATM    5  C   UNL     1      -5.510  11.878  68.141  1.00  0.00    -0.045 C  
BRANCH   5   6
HETATM    6  C   UNL     1      -6.432  12.859  67.404  1.00  0.00    -0.126 C  
BRANCH   6   7
HETATM    7  C   UNL     1      -6.468  14.223  68.104  1.00  0.00    -0.135 C  
BRANCH   7   8
HETATM    8  C   UNL     1      -7.709  15.035  67.711  1.00  0.00    -0.168 C  
BRANCH   8   9
HETATM    9  C   UNL     1      -7.351  16.159  66.733  1.00  0.00    -0.220 C  
BRANCH   9  10
HETATM   10  C   UNL     1      -5.976  16.759  67.040  1.00  0.00    -0.213 C  
BRANCH  10  11
HETATM   11  C   UNL     1      -5.903  18.268  66.783  1.00  0.00    -0.173 C  
BRANCH  11  12
HETATM   12  C   UNL     1      -6.864  18.738  65.692  1.00  0.00    -0.289 C  
BRANCH  12  13
HETATM   13  C   UNL     1      -7.746  19.885  66.179  1.00  0.00    -0.339 C  
BRANCH  13  14
HETATM   14  C   UNL     1      -8.364  19.538  67.525  1.00  0.00    -0.297 C  
BRANCH  14  15
HETATM   15  N   UNL     1      -9.668  18.909  67.375  1.00  0.00    -0.305 N  
HETATM   16  C   UNL     1     -10.109  18.019  68.337  1.00  0.00    -0.387 C  
HETATM   17  C   UNL     1     -10.499  19.270  66.235  1.00  0.00    -0.478 C  
HETATM   18  O   UNL     1      -9.441  17.649  69.297  1.00  0.00    -0.071 OA 
BRANCH  16  19
HETATM   19  O   UNL     1     -11.347  17.482  68.016  1.00  0.00     0.021 OA 
BRANCH  19  20
HETATM   20  C   UNL     1     -11.380  16.085  68.086  1.00  0.00    -0.289 A  
HETATM   21  C   UNL     1     -11.697  15.518  69.315  1.00  0.00    -0.380 A  
HETATM   22  C   UNL     1     -11.853  14.138  69.385  1.00  0.00    -0.378 A  
HETATM   23  C   UNL     1     -11.693  13.344  68.246  1.00  0.00    -0.391 A  
HETATM   24  C   UNL     1     -11.360  13.913  67.004  1.00  0.00    -0.326 A  
HETATM   25  C   UNL     1     -11.243  15.300  66.933  1.00  0.00    -0.256 A  
BRANCH  24  26
HETATM   26  N   UNL     1     -11.241  13.073  65.742  1.00  0.00    -0.285 N  
HETATM   27  C   UNL     1     -12.606  12.854  65.098  1.00  0.00    -0.471 C  
HETATM   28  C   UNL     1     -10.670  11.687  66.066  1.00  0.00    -0.280 C  
HETATM   29  C   UNL     1     -10.320  13.811  64.781  1.00  0.00    -0.398 C  
ENDBRANCH  24  26
ENDBRANCH  19  20
ENDBRANCH  16  19
ENDBRANCH  14  15
ENDBRANCH  13  14
ENDBRANCH  12  13
ENDBRANCH  11  12
ENDBRANCH  10  11
ENDBRANCH   9  10
ENDBRANCH   8   9
ENDBRANCH   7   8
ENDBRANCH   6   7
ENDBRANCH   5   6
ENDBRANCH   2   5
BRANCH   4  30
HETATM   30  O   UNL     1      -7.275   8.983  69.572  1.00  0.00    -0.057 OA 
BRANCH  30  31
HETATM   31  C   UNL     1      -8.633   9.090  69.919  1.00  0.00    -0.140 A  
HETATM   32  C   UNL     1      -9.398  10.143  69.412  1.00  0.00    -0.235 A  
HETATM   33  C   UNL     1      -9.213   8.071  70.680  1.00  0.00    -0.156 A  
HETATM   34  C   UNL     1     -10.584   8.129  70.983  1.00  0.00    -0.210 A  
HETATM   35  C   UNL     1     -10.745  10.214  69.717  1.00  0.00    -0.317 A  
HETATM   36  C   UNL     1     -11.330   9.222  70.502  1.00  0.00    -0.306 A  
BRANCH  34  37
HETATM   37  N   UNL     1     -11.229   7.100  71.904  1.00  0.00    -0.243 N  
HETATM   38  C   UNL     1     -10.738   5.685  71.594  1.00  0.00    -0.251 C  
HETATM   39  C   UNL     1     -10.879   7.381  73.365  1.00  0.00    -0.313 C  
HETATM   40  C   UNL     1     -12.739   7.173  71.674  1.00  0.00    -0.379 C  
ENDBRANCH  34  37
ENDBRANCH  30  31
ENDBRANCH   4  30
TORSDOF 17
ENDMDL
MODEL       69
REMARK 921   NORMALIZED FREE ENERGY PREDICTED BY IDOCK:   -5.16 KCAL/MOL
REMARK 922        TOTAL FREE ENERGY PREDICTED BY IDOCK:  -12.53 KCAL/MOL
REMARK 923 INTER-LIGAND FREE ENERGY PREDICTED BY IDOCK:  -10.86 KCAL/MOL
REMARK 924 INTRA-LIGAND FREE ENERGY PREDICTED BY IDOCK:   -1.67 KCAL/MOL
REMARK 927      BINDING AFFINITY PREDICTED BY RF-SCORE:    0.00 PKD
ROOT
HETATM    1  C   UNL     1     -11.892  13.918  67.178  1.00  0.00    -0.412 C  
HETATM    2  N   UNL     1     -11.666  14.511  65.871  1.00  0.00    -0.361 N  
HETATM    3  O   UNL     1     -10.701  16.253  64.688  1.00  0.00    -0.670 OA 
HETATM    4  C   UNL     1     -10.840  15.617  65.728  1.00  0.00    -0.306 C  
ENDROOT
BRANCH   2   5
HETATM    5  C   UNL     1     -12.499  14.078  64.751  1.00  0.00    -0.365 C  
BRANCH   5   6
HETATM    6  C   UNL     1     -12.513  12.554  64.567  1.00  0.00    -0.539 C  
BRANCH   6   7
HETATM    7  C   UNL     1     -11.373  12.092  63.652  1.00  0.00    -0.545 C  
BRANCH   7   8
HETATM    8  C   UNL     1     -10.496  11.027  64.322  1.00  0.00    -0.427 C  
BRANCH   8   9
HETATM    9  C   UNL     1      -9.488  10.434  63.333  1.00  0.00    -0.356 C  
BRANCH   9  10
HETATM   10  C   UNL     1      -8.167  10.074  64.019  1.00  0.00    -0.156 C  
BRANCH  10  11
HETATM   11  C   UNL     1      -8.330   9.049  65.147  1.00  0.00    -0.165 C  
BRANCH  11  12
HETATM   12  C   UNL     1      -7.569   7.750  64.893  1.00  0.00    -0.102 C  
BRANCH  12  13
HETATM   13  C   UNL     1      -8.496   6.538  64.946  1.00  0.00     0.017 C  
BRANCH  13  14
HETATM   14  C   UNL     1      -7.787   5.363  65.604  1.00  0.00    -0.100 C  
BRANCH  14  15
HETATM   15  N   UNL     1      -7.852   5.439  67.056  1.00  0.00    -0.100 N  
HETATM   16  C   UNL     1      -9.008   5.048  67.707  1.00  0.00    -0.111 C  
HETATM   17  C   UNL     1      -6.678   5.883  67.794  1.00  0.00    -0.058 C  
HETATM   18  O   UNL     1     -10.038   4.701  67.139  1.00  0.00    -0.192 OA 
BRANCH  16  19
HETATM   19  O   UNL     1      -8.914   5.225  69.079  1.00  0.00    -0.104 OA 
BRANCH  19  20
HETATM   20  C   UNL     1      -9.837   6.149  69.582  1.00  0.00    -0.161 A  
HETATM   21  C   UNL     1     -10.692   5.710  70.586  1.00  0.00    -0.333 A  
HETATM   22  C   UNL     1     -11.537   6.637  71.187  1.00  0.00    -0.384 A  
HETATM   23  C   UNL     1     -11.525   7.977  70.785  1.00  0.00    -0.273 A  
HETATM   24  C   UNL     1     -10.671   8.421  69.762  1.00  0.00    -0.211 A  
HETATM   25  C   UNL     1      -9.799   7.495  69.191  1.00  0.00    -0.170 A  
BRANCH  24  26
HETATM   26  N   UNL     1     -10.600   9.884  69.353  1.00  0.00    -0.215 N  
HETATM   27  C   UNL     1     -11.106  10.081  67.928  1.00  0.00    -0.195 C  
HETATM   28  C   UNL     1      -9.151  10.386  69.388  1.00  0.00    -0.152 C  
HETATM   29  C   UNL     1     -11.456  10.679  70.328  1.00  0.00    -0.337 C  
ENDBRANCH  24  26
ENDBRANCH  19  20
ENDBRANCH  16  19
ENDBRANCH  14  15
ENDBRANCH  13  14
ENDBRANCH  12  13
ENDBRANCH  11  12
ENDBRANCH  10  11
ENDBRANCH   9  10
ENDBRANCH   8   9
ENDBRANCH   7   8
ENDBRANCH   6   7
ENDBRANCH   5   6
ENDBRANCH   2   5
BRANCH   4  30
HETATM   30  O   UNL     1     -10.226  15.985  66.929  1.00  0.00    -0.267 OA 
BRANCH  30  31
HETATM   31  C   UNL     1      -9.879  17.345  66.987  1.00  0.00    -0.286 A  
HETATM   32  C   UNL     1     -10.844  18.294  67.330  1.00  0.00    -0.269 A  
HETATM   33  C   UNL     1      -8.540  17.704  66.804  1.00  0.00    -0.276 A  
HETATM   34  C   UNL     1      -8.163  19.053  66.921  1.00  0.00    -0.275 A  
HETATM   35  C   UNL     1     -10.484  19.625  67.434  1.00  0.00    -0.596 A  
HETATM   36  C   UNL     1      -9.158  20.002  67.223  1.00  0.00    -0.459 A  
BRANCH  34  37
HETATM   37  N   UNL     1      -6.737  19.499  66.618  1.00  0.00    -0.188 N  
HETATM   38  C   UNL     1      -6.284  19.024  65.236  1.00  0.00    -0.282 C  
HETATM   39  C   UNL     1      -6.631  21.024  66.620  1.00  0.00    -0.288 C  
HETATM   40  C   UNL     1      -5.835  18.881  67.687  1.00  0.00    -0.187 C  
ENDBRANCH  34  37
ENDBRANCH  30  31
ENDBRANCH   4  30
TORSDOF 17
ENDMDL
MODEL       70
REMARK 921   NORMALIZED FREE ENERGY PREDICTED BY IDOCK:   -5.16 KCAL/MOL
REMARK 922        TOTAL FREE ENERGY PREDICTED BY IDOCK:  -12.52 KCAL/MOL
REMARK 923 INTER-LIGAND FREE ENERGY PREDICTED BY IDOCK:  -10.19 KCAL/MOL
REMARK 924 INTRA-LIGAND FREE ENERGY PREDICTED BY IDOCK:   -2.33 KCAL/MOL
REMARK 927      BINDING AFFINITY PREDICTED BY RF-SCORE:    0.00 PKD
ROOT
HETATM    1  C   UNL     1      -9.287   8.619  72.106  1.00  0.00    -0.273 C  
HETATM    2  N   UNL     1     -10.684   8.595  71.707  1.00  0.00    -0.294 N  
HETATM    3  O   UNL     1     -12.568   7.290  71.372  1.00  0.00    -0.355 OA 
HETATM    4  C   UNL     1     -11.429   7.428  71.807  1.00  0.00    -0.265 C  
ENDROOT
BRANCH   2   5
HETATM    5  C   UNL     1     -11.226   9.742  70.982  1.00  0.00    -0.381 C  
BRANCH   5   6
HETATM    6  C   UNL     1     -10.756   9.805  69.522  1.00  0.00    -0.255 C  
BRANCH   6   7
HETATM    7  C   UNL     1      -9.920  11.063  69.258  1.00  0.00    -0.088 C  
BRANCH   7   8
HETATM    8  C   UNL     1      -8.428  10.738  69.112  1.00  0.00    -0.105 C  
BRANCH   8   9
HETATM    9  C   UNL     1      -7.616  11.994  68.781  1.00  0.00    -0.070 C  
BRANCH   9  10
HETATM   10  C   UNL     1      -8.521  13.175  68.421  1.00  0.00    -0.126 C  
BRANCH  10  11
HETATM   11  C   UNL     1      -7.762  14.354  67.802  1.00  0.00    -0.172 C  
BRANCH  11  12
HETATM   12  C   UNL     1      -8.205  15.708  68.352  1.00  0.00    -0.146 C  
BRANCH  12  13
HETATM   13  C   UNL     1      -9.250  15.551  69.453  1.00  0.00    -0.280 C  
BRANCH  13  14
HETATM   14  C   UNL     1     -10.599  16.068  68.974  1.00  0.00    -0.257 C  
BRANCH  14  15
HETATM   15  N   UNL     1     -11.438  14.994  68.463  1.00  0.00    -0.303 N  
HETATM   16  C   UNL     1     -11.550  14.810  67.097  1.00  0.00    -0.359 C  
HETATM   17  C   UNL     1     -12.103  14.107  69.407  1.00  0.00    -0.328 C  
HETATM   18  O   UNL     1     -11.044  15.545  66.256  1.00  0.00    -0.286 OA 
BRANCH  16  19
HETATM   19  O   UNL     1     -12.419  13.775  66.785  1.00  0.00    -0.366 OA 
BRANCH  19  20
HETATM   20  C   UNL     1     -11.985  12.993  65.709  1.00  0.00    -0.429 A  
HETATM   21  C   UNL     1     -12.508  13.288  64.456  1.00  0.00    -0.381 A  
HETATM   22  C   UNL     1     -12.006  12.608  63.352  1.00  0.00    -0.613 A  
HETATM   23  C   UNL     1     -10.999  11.649  63.504  1.00  0.00    -0.485 A  
HETATM   24  C   UNL     1     -10.476  11.339  64.771  1.00  0.00    -0.323 A  
HETATM   25  C   UNL     1     -10.957  12.052  65.868  1.00  0.00    -0.342 A  
BRANCH  24  26
HETATM   26  N   UNL     1      -9.340  10.344  64.950  1.00  0.00    -0.220 N  
HETATM   27  C   UNL     1      -9.026   9.629  63.640  1.00  0.00    -0.216 C  
HETATM   28  C   UNL     1      -9.722   9.264  65.970  1.00  0.00    -0.289 C  
HETATM   29  C   UNL     1      -8.120  11.116  65.432  1.00  0.00     0.206 C  
ENDBRANCH  24  26
ENDBRANCH  19  20
ENDBRANCH  16  19
ENDBRANCH  14  15
ENDBRANCH  13  14
ENDBRANCH  12  13
ENDBRANCH  11  12
ENDBRANCH  10  11
ENDBRANCH   9  10
ENDBRANCH   8   9
ENDBRANCH   7   8
ENDBRANCH   6   7
ENDBRANCH   5   6
ENDBRANCH   2   5
BRANCH   4  30
HETATM   30  O   UNL     1     -10.713   6.385  72.400  1.00  0.00    -0.211 OA 
BRANCH  30  31
HETATM   31  C   UNL     1     -10.253   5.427  71.480  1.00  0.00    -0.219 A  
HETATM   32  C   UNL     1      -9.943   4.138  71.916  1.00  0.00    -0.253 A  
HETATM   33  C   UNL     1     -10.223   5.762  70.123  1.00  0.00    -0.301 A  
HETATM   34  C   UNL     1      -9.827   4.797  69.181  1.00  0.00    -0.184 A  
HETATM   35  C   UNL     1      -9.540   3.186  70.997  1.00  0.00    -0.228 A  
HETATM   36  C   UNL     1      -9.474   3.515  69.644  1.00  0.00    -0.235 A  
BRANCH  34  37
HETATM   37  N   UNL     1      -9.672   5.156  67.708  1.00  0.00    -0.141 N  
HETATM   38  C   UNL     1      -8.381   5.936  67.454  1.00  0.00    -0.105 C  
HETATM   39  C   UNL     1      -9.606   3.896  66.844  1.00  0.00    -0.200 C  
HETATM   40  C   UNL     1     -10.872   6.024  67.327  1.00  0.00    -0.315 C  
ENDBRANCH  34  37
ENDBRANCH  30  31
ENDBRANCH   4  30
TORSDOF 17
ENDMDL
MODEL       71
REMARK 921   NORMALIZED FREE ENERGY PREDICTED BY IDOCK:   -5.16 KCAL/MOL
REMARK 922        TOTAL FREE ENERGY PREDICTED BY IDOCK:  -12.51 KCAL/MOL
REMARK 923 INTER-LIGAND FREE ENERGY PREDICTED BY IDOCK:   -9.60 KCAL/MOL
REMARK 924 INTRA-LIGAND FREE ENERGY PREDICTED BY IDOCK:   -2.91 KCAL/MOL
REMARK 927      BINDING AFFINITY PREDICTED BY RF-SCORE:    0.00 PKD
ROOT
HETATM    1  C   UNL     1      -6.588  12.872  67.694  1.00  0.00    -0.155 C  
HETATM    2  N   UNL     1      -6.259  13.236  69.062  1.00  0.00    -0.087 N  
HETATM    3  O   UNL     1      -5.845  12.476  71.211  1.00  0.00    -0.347 OA 
HETATM    4  C   UNL     1      -6.000  12.259  70.013  1.00  0.00    -0.153 C  
ENDROOT
BRANCH   2   5
HETATM    5  C   UNL     1      -6.435  14.626  69.479  1.00  0.00    -0.138 C  
BRANCH   5   6
HETATM    6  C   UNL     1      -7.155  15.481  68.427  1.00  0.00    -0.111 C  
BRANCH   6   7
HETATM    7  C   UNL     1      -7.772  16.736  69.056  1.00  0.00    -0.213 C  
BRANCH   7   8
HETATM    8  C   UNL     1      -7.245  18.021  68.406  1.00  0.00    -0.255 C  
BRANCH   8   9
HETATM    9  C   UNL     1      -8.386  18.851  67.810  1.00  0.00    -0.305 C  
BRANCH   9  10
HETATM   10  C   UNL     1      -9.723  18.546  68.490  1.00  0.00    -0.399 C  
BRANCH  10  11
HETATM   11  C   UNL     1     -10.780  17.991  67.528  1.00  0.00    -0.352 C  
BRANCH  11  12
HETATM   12  C   UNL     1     -10.199  17.558  66.184  1.00  0.00    -0.339 C  
BRANCH  12  13
HETATM   13  C   UNL     1     -10.179  16.038  66.044  1.00  0.00    -0.360 C  
BRANCH  13  14
HETATM   14  C   UNL     1     -11.136  15.406  67.044  1.00  0.00    -0.273 C  
BRANCH  14  15
HETATM   15  N   UNL     1     -11.689  14.156  66.546  1.00  0.00    -0.379 N  
HETATM   16  C   UNL     1     -11.072  12.962  66.871  1.00  0.00    -0.278 C  
HETATM   17  C   UNL     1     -12.910  14.189  65.753  1.00  0.00    -0.329 C  
HETATM   18  O   UNL     1     -10.025  12.873  67.503  1.00  0.00    -0.209 OA 
BRANCH  16  19
HETATM   19  O   UNL     1     -11.702  11.876  66.280  1.00  0.00    -0.506 OA 
BRANCH  19  20
HETATM   20  C   UNL     1     -10.883  11.183  65.383  1.00  0.00    -0.142 A  
HETATM   21  C   UNL     1     -10.841  11.644  64.072  1.00  0.00    -0.455 A  
HETATM   22  C   UNL     1      -9.946  11.049  63.190  1.00  0.00    -0.382 A  
HETATM   23  C   UNL     1      -9.112  10.010  63.614  1.00  0.00    -0.301 A  
HETATM   24  C   UNL     1      -9.160   9.532  64.935  1.00  0.00    -0.223 A  
HETATM   25  C   UNL     1     -10.032  10.160  65.824  1.00  0.00    -0.339 A  
BRANCH  24  26
HETATM   26  N   UNL     1      -8.219   8.446  65.432  1.00  0.00    -0.135 N  
HETATM   27  C   UNL     1      -7.722   7.581  64.278  1.00  0.00    -0.128 C  
HETATM   28  C   UNL     1      -8.939   7.514  66.414  1.00  0.00    -0.167 C  
HETATM   29  C   UNL     1      -7.044   9.129  66.118  1.00  0.00    -0.087 C  
ENDBRANCH  24  26
ENDBRANCH  19  20
ENDBRANCH  16  19
ENDBRANCH  14  15
ENDBRANCH  13  14
ENDBRANCH  12  13
ENDBRANCH  11  12
ENDBRANCH  10  11
ENDBRANCH   9  10
ENDBRANCH   8   9
ENDBRANCH   7   8
ENDBRANCH   6   7
ENDBRANCH   5   6
ENDBRANCH   2   5
BRANCH   4  30
HETATM   30  O   UNL     1      -6.006  10.970  69.471  1.00  0.00    -0.051 OA 
BRANCH  30  31
HETATM   31  C   UNL     1      -6.774  10.055  70.211  1.00  0.00    -0.137 A  
HETATM   32  C   UNL     1      -6.171   9.295  71.215  1.00  0.00    -0.079 A  
HETATM   33  C   UNL     1      -8.154  10.008  69.993  1.00  0.00    -0.154 A  
HETATM   34  C   UNL     1      -8.948   9.145  70.768  1.00  0.00    -0.242 A  
HETATM   35  C   UNL     1      -6.944   8.434  71.973  1.00  0.00    -0.100 A  
HETATM   36  C   UNL     1      -8.317   8.353  71.745  1.00  0.00    -0.212 A  
BRANCH  34  37
HETATM   37  N   UNL     1     -10.436   8.981  70.484  1.00  0.00    -0.209 N  
HETATM   38  C   UNL     1     -11.272   9.163  71.752  1.00  0.00    -0.381 C  
HETATM   39  C   UNL     1     -10.918  10.030  69.481  1.00  0.00    -0.253 C  
HETATM   40  C   UNL     1     -10.639   7.565  69.942  1.00  0.00    -0.237 C  
ENDBRANCH  34  37
ENDBRANCH  30  31
ENDBRANCH   4  30
TORSDOF 17
ENDMDL
MODEL       72
REMARK 921   NORMALIZED FREE ENERGY PREDICTED BY IDOCK:   -5.15 KCAL/MOL
REMARK 922        TOTAL FREE ENERGY PREDICTED BY IDOCK:  -12.50 KCAL/MOL
REMARK 923 INTER-LIGAND FREE ENERGY PREDICTED BY IDOCK:  -11.29 KCAL/MOL
REMARK 924 INTRA-LIGAND FREE ENERGY PREDICTED BY IDOCK:   -1.21 KCAL/MOL
REMARK 927      BINDING AFFINITY PREDICTED BY RF-SCORE:    0.00 PKD
ROOT
HETATM    1  C   UNL     1      -6.975   5.689  68.248  1.00  0.00    -0.068 C  
HETATM    2  N   UNL     1      -8.262   5.708  67.573  1.00  0.00    -0.102 N  
HETATM    3  O   UNL     1     -10.274   4.612  67.232  1.00  0.00    -0.157 OA 
HETATM    4  C   UNL     1      -9.221   4.743  67.848  1.00  0.00    -0.122 C  
ENDROOT
BRANCH   2   5
HETATM    5  C   UNL     1      -8.445   6.609  66.437  1.00  0.00    -0.125 C  
BRANCH   5   6
HETATM    6  C   UNL     1      -9.274   7.853  66.785  1.00  0.00    -0.206 C  
BRANCH   6   7
HETATM    7  C   UNL     1      -8.689   9.113  66.137  1.00  0.00    -0.169 C  
BRANCH   7   8
HETATM    8  C   UNL     1      -9.613   9.682  65.053  1.00  0.00    -0.284 C  
BRANCH   8   9
HETATM    9  C   UNL     1      -8.809  10.262  63.886  1.00  0.00    -0.234 C  
BRANCH   9  10
HETATM   10  C   UNL     1      -9.552  11.414  63.203  1.00  0.00    -0.398 C  
BRANCH  10  11
HETATM   11  C   UNL     1     -11.072  11.346  63.386  1.00  0.00    -0.308 C  
BRANCH  11  12
HETATM   12  C   UNL     1     -11.686  12.678  63.813  1.00  0.00    -0.566 C  
BRANCH  12  13
HETATM   13  C   UNL     1     -12.165  12.636  65.262  1.00  0.00    -0.532 C  
BRANCH  13  14
HETATM   14  C   UNL     1     -12.623  14.018  65.704  1.00  0.00    -0.512 C  
BRANCH  14  15
HETATM   15  N   UNL     1     -11.694  14.618  66.649  1.00  0.00    -0.362 N  
HETATM   16  C   UNL     1     -10.777  15.551  66.203  1.00  0.00    -0.313 C  
HETATM   17  C   UNL     1     -11.783  14.254  68.056  1.00  0.00    -0.351 C  
HETATM   18  O   UNL     1     -10.630  15.871  65.028  1.00  0.00    -0.497 OA 
BRANCH  16  19
HETATM   19  O   UNL     1      -9.943  15.986  67.223  1.00  0.00    -0.235 OA 
BRANCH  19  20
HETATM   20  C   UNL     1      -9.657  17.354  67.158  1.00  0.00    -0.265 A  
HETATM   21  C   UNL     1     -10.677  18.235  67.498  1.00  0.00    -0.381 A  
HETATM   22  C   UNL     1     -10.387  19.593  67.558  1.00  0.00    -0.578 A  
HETATM   23  C   UNL     1      -9.098  20.059  67.278  1.00  0.00    -0.459 A  
HETATM   24  C   UNL     1      -8.066  19.173  66.921  1.00  0.00    -0.263 A  
HETATM   25  C   UNL     1      -8.356  17.809  66.901  1.00  0.00    -0.257 A  
BRANCH  24  26
HETATM   26  N   UNL     1      -6.645  19.653  66.673  1.00  0.00    -0.189 N  
HETATM   27  C   UNL     1      -6.132  19.172  65.319  1.00  0.00    -0.262 C  
HETATM   28  C   UNL     1      -5.692  19.095  67.738  1.00  0.00    -0.193 C  
HETATM   29  C   UNL     1      -6.656  21.174  66.720  1.00  0.00    -0.287 C  
ENDBRANCH  24  26
ENDBRANCH  19  20
ENDBRANCH  16  19
ENDBRANCH  14  15
ENDBRANCH  13  14
ENDBRANCH  12  13
ENDBRANCH  11  12
ENDBRANCH  10  11
ENDBRANCH   9  10
ENDBRANCH   8   9
ENDBRANCH   7   8
ENDBRANCH   6   7
ENDBRANCH   5   6
ENDBRANCH   2   5
BRANCH   4  30
HETATM   30  O   UNL     1      -8.827   3.874  68.870  1.00  0.00    -0.092 OA 
BRANCH  30  31
HETATM   31  C   UNL     1      -9.471   4.121  70.094  1.00  0.00    -0.184 A  
HETATM   32  C   UNL     1      -9.506   3.126  71.073  1.00  0.00    -0.228 A  
HETATM   33  C   UNL     1      -9.969   5.403  70.343  1.00  0.00    -0.291 A  
HETATM   34  C   UNL     1     -10.560   5.687  71.587  1.00  0.00    -0.241 A  
HETATM   35  C   UNL     1     -10.098   3.394  72.295  1.00  0.00    -0.219 A  
HETATM   36  C   UNL     1     -10.627   4.659  72.545  1.00  0.00    -0.243 A  
BRANCH  34  37
HETATM   37  N   UNL     1     -11.216   7.037  71.854  1.00  0.00    -0.242 N  
HETATM   38  C   UNL     1     -10.729   7.645  73.170  1.00  0.00    -0.387 C  
HETATM   39  C   UNL     1     -10.874   8.037  70.749  1.00  0.00    -0.232 C  
HETATM   40  C   UNL     1     -12.724   6.797  71.934  1.00  0.00    -0.255 C  
ENDBRANCH  34  37
ENDBRANCH  30  31
ENDBRANCH   4  30
TORSDOF 17
ENDMDL
MODEL       73
REMARK 921   NORMALIZED FREE ENERGY PREDICTED BY IDOCK:   -5.15 KCAL/MOL
REMARK 922        TOTAL FREE ENERGY PREDICTED BY IDOCK:  -12.50 KCAL/MOL
REMARK 923 INTER-LIGAND FREE ENERGY PREDICTED BY IDOCK:  -10.16 KCAL/MOL
REMARK 924 INTRA-LIGAND FREE ENERGY PREDICTED BY IDOCK:   -2.34 KCAL/MOL
REMARK 927      BINDING AFFINITY PREDICTED BY RF-SCORE:    0.00 PKD
ROOT
HETATM    1  C   UNL     1     -11.259   9.776  69.288  1.00  0.00    -0.088 C  
HETATM    2  N   UNL     1      -9.809   9.841  69.343  1.00  0.00    -0.192 N  
HETATM    3  O   UNL     1      -7.926   9.738  70.690  1.00  0.00    -0.272 OA 
HETATM    4  C   UNL     1      -9.132   9.578  70.526  1.00  0.00    -0.219 C  
ENDROOT
BRANCH   2   5
HETATM    5  C   UNL     1      -9.089  10.415  68.208  1.00  0.00    -0.145 C  
BRANCH   5   6
HETATM    6  C   UNL     1      -9.036   9.476  66.995  1.00  0.00    -0.150 C  
BRANCH   6   7
HETATM    7  C   UNL     1     -10.093   9.854  65.951  1.00  0.00    -0.316 C  
BRANCH   7   8
HETATM    8  C   UNL     1      -9.458  10.281  64.622  1.00  0.00    -0.351 C  
BRANCH   8   9
HETATM    9  C   UNL     1      -9.862  11.710  64.246  1.00  0.00    -0.259 C  
BRANCH   9  10
HETATM   10  C   UNL     1     -11.165  11.736  63.442  1.00  0.00    -0.440 C  
BRANCH  10  11
HETATM   11  C   UNL     1     -12.328  12.392  64.194  1.00  0.00    -0.558 C  
BRANCH  11  12
HETATM   12  C   UNL     1     -11.994  13.788  64.717  1.00  0.00    -0.429 C  
BRANCH  12  13
HETATM   13  C   UNL     1     -12.430  13.962  66.169  1.00  0.00    -0.478 C  
BRANCH  13  14
HETATM   14  C   UNL     1     -11.710  12.958  67.058  1.00  0.00    -0.385 C  
BRANCH  14  15
HETATM   15  N   UNL     1     -11.053  13.606  68.183  1.00  0.00    -0.247 N  
HETATM   16  C   UNL     1      -9.738  14.015  68.060  1.00  0.00    -0.221 C  
HETATM   17  C   UNL     1     -11.815  13.851  69.400  1.00  0.00    -0.334 C  
HETATM   18  O   UNL     1      -9.037  13.805  67.076  1.00  0.00    -0.228 OA 
BRANCH  16  19
HETATM   19  O   UNL     1      -9.258  14.572  69.236  1.00  0.00    -0.049 OA 
BRANCH  19  20
HETATM   20  C   UNL     1      -8.643  15.814  69.049  1.00  0.00    -0.236 A  
HETATM   21  C   UNL     1      -7.269  15.880  69.248  1.00  0.00    -0.217 A  
HETATM   22  C   UNL     1      -6.613  17.071  68.953  1.00  0.00    -0.196 A  
HETATM   23  C   UNL     1      -7.325  18.175  68.472  1.00  0.00    -0.285 A  
HETATM   24  C   UNL     1      -8.716  18.116  68.281  1.00  0.00    -0.284 A  
HETATM   25  C   UNL     1      -9.360  16.907  68.541  1.00  0.00    -0.259 A  
BRANCH  24  26
HETATM   26  N   UNL     1      -9.497  19.285  67.701  1.00  0.00    -0.308 N  
HETATM   27  C   UNL     1     -10.272  20.021  68.789  1.00  0.00    -0.284 C  
HETATM   28  C   UNL     1     -10.524  18.792  66.674  1.00  0.00    -0.426 C  
HETATM   29  C   UNL     1      -8.500  20.225  67.040  1.00  0.00    -0.319 C  
ENDBRANCH  24  26
ENDBRANCH  19  20
ENDBRANCH  16  19
ENDBRANCH  14  15
ENDBRANCH  13  14
ENDBRANCH  12  13
ENDBRANCH  11  12
ENDBRANCH  10  11
ENDBRANCH   9  10
ENDBRANCH   8   9
ENDBRANCH   7   8
ENDBRANCH   6   7
ENDBRANCH   5   6
ENDBRANCH   2   5
BRANCH   4  30
HETATM   30  O   UNL     1      -9.989   9.172  71.554  1.00  0.00    -0.312 OA 
BRANCH  30  31
HETATM   31  C   UNL     1      -9.586   7.981  72.182  1.00  0.00    -0.215 A  
HETATM   32  C   UNL     1      -9.236   7.993  73.533  1.00  0.00    -0.312 A  
HETATM   33  C   UNL     1      -9.652   6.787  71.458  1.00  0.00    -0.165 A  
HETATM   34  C   UNL     1      -9.314   5.577  72.088  1.00  0.00    -0.143 A  
HETATM   35  C   UNL     1      -8.889   6.808  74.157  1.00  0.00    -0.189 A  
HETATM   36  C   UNL     1      -8.919   5.613  73.438  1.00  0.00    -0.129 A  
BRANCH  34  37
HETATM   37  N   UNL     1      -9.263   4.271  71.303  1.00  0.00    -0.127 N  
HETATM   38  C   UNL     1      -9.985   4.395  69.961  1.00  0.00    -0.175 C  
HETATM   39  C   UNL     1      -7.818   3.876  70.996  1.00  0.00    -0.059 C  
HETATM   40  C   UNL     1      -9.957   3.207  72.155  1.00  0.00    -0.162 C  
ENDBRANCH  34  37
ENDBRANCH  30  31
ENDBRANCH   4  30
TORSDOF 17
ENDMDL
MODEL       74
REMARK 921   NORMALIZED FREE ENERGY PREDICTED BY IDOCK:   -5.14 KCAL/MOL
REMARK 922        TOTAL FREE ENERGY PREDICTED BY IDOCK:  -12.48 KCAL/MOL
REMARK 923 INTER-LIGAND FREE ENERGY PREDICTED BY IDOCK:   -9.70 KCAL/MOL
REMARK 924 INTRA-LIGAND FREE ENERGY PREDICTED BY IDOCK:   -2.78 KCAL/MOL
REMARK 927      BINDING AFFINITY PREDICTED BY RF-SCORE:    0.00 PKD
ROOT
HETATM    1  C   UNL     1     -13.384  10.128  71.468  1.00  0.00    -0.341 C  
HETATM    2  N   UNL     1     -12.742  11.395  71.164  1.00  0.00    -0.401 N  
HETATM    3  O   UNL     1     -11.293  12.532  69.758  1.00  0.00    -0.169 OA 
HETATM    4  C   UNL     1     -11.971  11.543  70.019  1.00  0.00    -0.357 C  
ENDROOT
BRANCH   2   5
HETATM    5  C   UNL     1     -12.721  12.435  72.191  1.00  0.00     0.104 C  
BRANCH   5   6
HETATM    6  C   UNL     1     -13.953  13.349  72.143  1.00  0.00    -0.531 C  
BRANCH   6   7
HETATM    7  C   UNL     1     -13.595  14.789  72.531  1.00  0.00    -0.571 C  
BRANCH   7   8
HETATM    8  C   UNL     1     -13.099  15.600  71.327  1.00  0.00    -0.542 C  
BRANCH   8   9
HETATM    9  C   UNL     1     -11.576  15.754  71.350  1.00  0.00    -0.511 C  
BRANCH   9  10
HETATM   10  C   UNL     1     -11.055  16.422  70.074  1.00  0.00    -0.300 C  
BRANCH  10  11
HETATM   11  C   UNL     1      -9.732  15.831  69.577  1.00  0.00    -0.276 C  
BRANCH  11  12
HETATM   12  C   UNL     1      -8.920  16.805  68.726  1.00  0.00    -0.254 C  
BRANCH  12  13
HETATM   13  C   UNL     1      -7.506  16.288  68.476  1.00  0.00    -0.176 C  
BRANCH  13  14
HETATM   14  C   UNL     1      -7.290  14.973  69.209  1.00  0.00    -0.184 C  
BRANCH  14  15
HETATM   15  N   UNL     1      -6.578  14.006  68.387  1.00  0.00    -0.095 N  
HETATM   16  C   UNL     1      -7.289  13.026  67.720  1.00  0.00    -0.139 C  
HETATM   17  C   UNL     1      -5.133  14.124  68.248  1.00  0.00    -0.111 C  
HETATM   18  O   UNL     1      -8.499  12.855  67.826  1.00  0.00    -0.159 OA 
BRANCH  16  19
HETATM   19  O   UNL     1      -6.454  12.167  67.021  1.00  0.00    -0.150 OA 
BRANCH  19  20
HETATM   20  C   UNL     1      -6.701  10.816  67.287  1.00  0.00    -0.080 A  
HETATM   21  C   UNL     1      -6.404   9.904  66.281  1.00  0.00    -0.072 A  
HETATM   22  C   UNL     1      -6.527   8.548  66.560  1.00  0.00    -0.059 A  
HETATM   23  C   UNL     1      -6.943   8.115  67.823  1.00  0.00    -0.078 A  
HETATM   24  C   UNL     1      -7.257   9.034  68.839  1.00  0.00    -0.073 A  
HETATM   25  C   UNL     1      -7.094  10.391  68.564  1.00  0.00    -0.074 A  
BRANCH  24  26
HETATM   26  N   UNL     1      -7.652   8.583  70.236  1.00  0.00    -0.071 N  
HETATM   27  C   UNL     1      -8.959   9.236  70.674  1.00  0.00    -0.243 C  
HETATM   28  C   UNL     1      -6.583   8.989  71.259  1.00  0.00    -0.086 C  
HETATM   29  C   UNL     1      -7.806   7.069  70.208  1.00  0.00    -0.105 C  
ENDBRANCH  24  26
ENDBRANCH  19  20
ENDBRANCH  16  19
ENDBRANCH  14  15
ENDBRANCH  13  14
ENDBRANCH  12  13
ENDBRANCH  11  12
ENDBRANCH  10  11
ENDBRANCH   9  10
ENDBRANCH   8   9
ENDBRANCH   7   8
ENDBRANCH   6   7
ENDBRANCH   5   6
ENDBRANCH   2   5
BRANCH   4  30
HETATM   30  O   UNL     1     -11.988  10.402  69.212  1.00  0.00    -0.170 OA 
BRANCH  30  31
HETATM   31  C   UNL     1     -11.397  10.598  67.952  1.00  0.00    -0.268 A  
HETATM   32  C   UNL     1     -10.507   9.649  67.447  1.00  0.00    -0.319 A  
HETATM   33  C   UNL     1     -11.803  11.694  67.185  1.00  0.00    -0.090 A  
HETATM   34  C   UNL     1     -11.270  11.872  65.896  1.00  0.00    -0.322 A  
HETATM   35  C   UNL     1      -9.968   9.823  66.185  1.00  0.00    -0.338 A  
HETATM   36  C   UNL     1     -10.339  10.929  65.421  1.00  0.00    -0.326 A  
BRANCH  34  37
HETATM   37  N   UNL     1     -11.600  13.113  65.075  1.00  0.00    -0.314 N  
HETATM   38  C   UNL     1     -11.998  12.748  63.644  1.00  0.00    -0.539 C  
HETATM   39  C   UNL     1     -12.779  13.872  65.685  1.00  0.00    -0.495 C  
HETATM   40  C   UNL     1     -10.341  13.981  65.045  1.00  0.00    -0.409 C  
ENDBRANCH  34  37
ENDBRANCH  30  31
ENDBRANCH   4  30
TORSDOF 17
ENDMDL
MODEL       75
REMARK 921   NORMALIZED FREE ENERGY PREDICTED BY IDOCK:   -5.12 KCAL/MOL
REMARK 922        TOTAL FREE ENERGY PREDICTED BY IDOCK:  -12.45 KCAL/MOL
REMARK 923 INTER-LIGAND FREE ENERGY PREDICTED BY IDOCK:  -10.37 KCAL/MOL
REMARK 924 INTRA-LIGAND FREE ENERGY PREDICTED BY IDOCK:   -2.08 KCAL/MOL
REMARK 927      BINDING AFFINITY PREDICTED BY RF-SCORE:    0.00 PKD
ROOT
HETATM    1  C   UNL     1     -11.428  10.711  67.991  1.00  0.00    -0.212 C  
HETATM    2  N   UNL     1      -9.997  10.476  68.089  1.00  0.00    -0.150 N  
HETATM    3  O   UNL     1      -8.241   9.829  69.454  1.00  0.00    -0.110 OA 
HETATM    4  C   UNL     1      -9.445   9.936  69.242  1.00  0.00    -0.209 C  
ENDROOT
BRANCH   2   5
HETATM    5  C   UNL     1      -9.123  11.030  67.057  1.00  0.00    -0.147 C  
BRANCH   5   6
HETATM    6  C   UNL     1      -8.753  10.009  65.972  1.00  0.00    -0.152 C  
BRANCH   6   7
HETATM    7  C   UNL     1      -9.807   9.972  64.859  1.00  0.00    -0.352 C  
BRANCH   7   8
HETATM    8  C   UNL     1      -9.401  10.834  63.657  1.00  0.00    -0.301 C  
BRANCH   8   9
HETATM    9  C   UNL     1     -10.257  12.102  63.569  1.00  0.00    -0.453 C  
BRANCH   9  10
HETATM   10  C   UNL     1     -11.733  11.809  63.851  1.00  0.00    -0.461 C  
BRANCH  10  11
HETATM   11  C   UNL     1     -12.380  12.820  64.804  1.00  0.00    -0.540 C  
BRANCH  11  12
HETATM   12  C   UNL     1     -12.117  14.271  64.409  1.00  0.00    -0.490 C  
BRANCH  12  13
HETATM   13  C   UNL     1     -11.455  15.050  65.543  1.00  0.00    -0.265 C  
BRANCH  13  14
HETATM   14  C   UNL     1     -11.390  14.194  66.800  1.00  0.00    -0.343 C  
BRANCH  14  15
HETATM   15  N   UNL     1     -10.815  14.924  67.920  1.00  0.00    -0.269 N  
HETATM   16  C   UNL     1      -9.441  15.003  68.048  1.00  0.00    -0.193 C  
HETATM   17  C   UNL     1     -11.705  15.595  68.858  1.00  0.00    -0.384 C  
HETATM   18  O   UNL     1      -8.643  14.430  67.314  1.00  0.00    -0.192 OA 
BRANCH  16  19
HETATM   19  O   UNL     1      -9.067  15.695  69.191  1.00  0.00    -0.220 OA 
BRANCH  19  20
HETATM   20  C   UNL     1      -8.093  16.671  68.953  1.00  0.00    -0.235 A  
HETATM   21  C   UNL     1      -6.856  16.497  69.564  1.00  0.00    -0.175 A  
HETATM   22  C   UNL     1      -5.833  17.385  69.250  1.00  0.00    -0.210 A  
HETATM   23  C   UNL     1      -6.048  18.428  68.344  1.00  0.00    -0.193 A  
HETATM   24  C   UNL     1      -7.300  18.614  67.734  1.00  0.00    -0.229 A  
HETATM   25  C   UNL     1      -8.310  17.697  68.023  1.00  0.00    -0.246 A  
BRANCH  24  26
HETATM   26  N   UNL     1      -7.537  19.705  66.701  1.00  0.00    -0.247 N  
HETATM   27  C   UNL     1      -6.951  19.314  65.347  1.00  0.00    -0.166 C  
HETATM   28  C   UNL     1      -6.853  21.011  67.125  1.00  0.00    -0.350 C  
HETATM   29  C   UNL     1      -9.040  19.912  66.582  1.00  0.00    -0.376 C  
ENDBRANCH  24  26
ENDBRANCH  19  20
ENDBRANCH  16  19
ENDBRANCH  14  15
ENDBRANCH  13  14
ENDBRANCH  12  13
ENDBRANCH  11  12
ENDBRANCH  10  11
ENDBRANCH   9  10
ENDBRANCH   8   9
ENDBRANCH   7   8
ENDBRANCH   6   7
ENDBRANCH   5   6
ENDBRANCH   2   5
BRANCH   4  30
HETATM   30  O   UNL     1     -10.415   9.586  70.186  1.00  0.00    -0.217 OA 
BRANCH  30  31
HETATM   31  C   UNL     1     -10.502   8.201  70.412  1.00  0.00    -0.215 A  
HETATM   32  C   UNL     1     -10.979   7.362  69.403  1.00  0.00    -0.126 A  
HETATM   33  C   UNL     1     -10.004   7.685  71.612  1.00  0.00    -0.207 A  
HETATM   34  C   UNL     1     -10.025   6.297  71.829  1.00  0.00    -0.171 A  
HETATM   35  C   UNL     1     -11.015   5.995  69.615  1.00  0.00    -0.470 A  
HETATM   36  C   UNL     1     -10.551   5.469  70.819  1.00  0.00    -0.320 A  
BRANCH  34  37
HETATM   37  N   UNL     1      -9.596   5.705  73.167  1.00  0.00    -0.149 N  
HETATM   38  C   UNL     1     -10.278   4.361  73.430  1.00  0.00    -0.165 C  
HETATM   39  C   UNL     1      -8.089   5.452  73.193  1.00  0.00    -0.112 C  
HETATM   40  C   UNL     1     -10.007   6.702  74.252  1.00  0.00    -0.345 C  
ENDBRANCH  34  37
ENDBRANCH  30  31
ENDBRANCH   4  30
TORSDOF 17
ENDMDL
MODEL       76
REMARK 921   NORMALIZED FREE ENERGY PREDICTED BY IDOCK:   -5.10 KCAL/MOL
REMARK 922        TOTAL FREE ENERGY PREDICTED BY IDOCK:  -12.40 KCAL/MOL
REMARK 923 INTER-LIGAND FREE ENERGY PREDICTED BY IDOCK:  -10.02 KCAL/MOL
REMARK 924 INTRA-LIGAND FREE ENERGY PREDICTED BY IDOCK:   -2.38 KCAL/MOL
REMARK 927      BINDING AFFINITY PREDICTED BY RF-SCORE:    0.00 PKD
ROOT
HETATM    1  C   UNL     1     -14.371  15.272  71.133  1.00  0.00    -0.276 C  
HETATM    2  N   UNL     1     -13.018  14.859  71.467  1.00  0.00    -0.318 N  
HETATM    3  O   UNL     1     -10.794  14.847  70.819  1.00  0.00    -0.133 OA 
HETATM    4  C   UNL     1     -11.943  15.257  70.684  1.00  0.00    -0.343 C  
ENDROOT
BRANCH   2   5
HETATM    5  C   UNL     1     -12.831  13.832  72.490  1.00  0.00    -0.246 C  
BRANCH   5   6
HETATM    6  C   UNL     1     -13.445  12.480  72.101  1.00  0.00    -0.523 C  
BRANCH   6   7
HETATM    7  C   UNL     1     -12.504  11.680  71.192  1.00  0.00    -0.412 C  
BRANCH   7   8
HETATM    8  C   UNL     1     -12.995  10.242  70.983  1.00  0.00    -0.488 C  
BRANCH   8   9
HETATM    9  C   UNL     1     -13.990   9.831  72.072  1.00  0.00    -0.142 C  
BRANCH   9  10
HETATM   10  C   UNL     1     -13.740   8.399  72.555  1.00  0.00    -0.194 C  
BRANCH  10  11
HETATM   11  C   UNL     1     -13.415   7.425  71.418  1.00  0.00    -0.405 C  
BRANCH  11  12
HETATM   12  C   UNL     1     -12.209   6.536  71.715  1.00  0.00    -0.374 C  
BRANCH  12  13
HETATM   13  C   UNL     1     -11.032   6.863  70.800  1.00  0.00    -0.297 C  
BRANCH  13  14
HETATM   14  C   UNL     1      -9.718   6.587  71.514  1.00  0.00    -0.168 C  
BRANCH  14  15
HETATM   15  N   UNL     1      -8.587   7.173  70.811  1.00  0.00    -0.144 N  
HETATM   16  C   UNL     1      -8.078   8.388  71.233  1.00  0.00    -0.127 C  
HETATM   17  C   UNL     1      -7.986   6.441  69.704  1.00  0.00    -0.116 C  
HETATM   18  O   UNL     1      -8.563   9.066  72.133  1.00  0.00    -0.364 OA 
BRANCH  16  19
HETATM   19  O   UNL     1      -7.035   8.819  70.427  1.00  0.00    -0.040 OA 
BRANCH  19  20
HETATM   20  C   UNL     1      -7.371   9.917  69.627  1.00  0.00    -0.115 A  
HETATM   21  C   UNL     1      -6.471  10.975  69.589  1.00  0.00    -0.123 A  
HETATM   22  C   UNL     1      -6.722  12.025  68.712  1.00  0.00    -0.087 A  
HETATM   23  C   UNL     1      -7.855  12.013  67.892  1.00  0.00    -0.144 A  
HETATM   24  C   UNL     1      -8.774  10.950  67.937  1.00  0.00    -0.131 A  
HETATM   25  C   UNL     1      -8.496   9.883  68.790  1.00  0.00    -0.122 A  
BRANCH  24  26
HETATM   26  N   UNL     1      -9.978  10.890  67.011  1.00  0.00    -0.187 N  
HETATM   27  C   UNL     1      -9.793  11.810  65.809  1.00  0.00    -0.240 C  
HETATM   28  C   UNL     1     -11.246  11.354  67.740  1.00  0.00    -0.283 C  
HETATM   29  C   UNL     1     -10.134   9.448  66.548  1.00  0.00    -0.262 C  
ENDBRANCH  24  26
ENDBRANCH  19  20
ENDBRANCH  16  19
ENDBRANCH  14  15
ENDBRANCH  13  14
ENDBRANCH  12  13
ENDBRANCH  11  12
ENDBRANCH  10  11
ENDBRANCH   9  10
ENDBRANCH   8   9
ENDBRANCH   7   8
ENDBRANCH   6   7
ENDBRANCH   5   6
ENDBRANCH   2   5
BRANCH   4  30
HETATM   30  O   UNL     1     -12.320  16.133  69.662  1.00  0.00    -0.108 OA 
BRANCH  30  31
HETATM   31  C   UNL     1     -11.425  16.148  68.579  1.00  0.00    -0.324 A  
HETATM   32  C   UNL     1     -11.509  15.162  67.594  1.00  0.00    -0.319 A  
HETATM   33  C   UNL     1     -10.536  17.220  68.459  1.00  0.00    -0.375 A  
HETATM   34  C   UNL     1      -9.676  17.285  67.349  1.00  0.00    -0.258 A  
HETATM   35  C   UNL     1     -10.658  15.212  66.505  1.00  0.00    -0.304 A  
HETATM   36  C   UNL     1      -9.744  16.258  66.389  1.00  0.00    -0.310 A  
BRANCH  34  37
HETATM   37  N   UNL     1      -8.616  18.376  67.240  1.00  0.00    -0.255 N  
HETATM   38  C   UNL     1      -9.219  19.697  66.760  1.00  0.00    -0.359 C  
HETATM   39  C   UNL     1      -7.974  18.648  68.600  1.00  0.00    -0.327 C  
HETATM   40  C   UNL     1      -7.578  17.894  66.225  1.00  0.00    -0.280 C  
ENDBRANCH  34  37
ENDBRANCH  30  31
ENDBRANCH   4  30
TORSDOF 17
ENDMDL
MODEL       77
REMARK 921   NORMALIZED FREE ENERGY PREDICTED BY IDOCK:   -5.10 KCAL/MOL
REMARK 922        TOTAL FREE ENERGY PREDICTED BY IDOCK:  -12.39 KCAL/MOL
REMARK 923 INTER-LIGAND FREE ENERGY PREDICTED BY IDOCK:   -9.09 KCAL/MOL
REMARK 924 INTRA-LIGAND FREE ENERGY PREDICTED BY IDOCK:   -3.30 KCAL/MOL
REMARK 927      BINDING AFFINITY PREDICTED BY RF-SCORE:    0.00 PKD
ROOT
HETATM    1  C   UNL     1     -12.121  11.102  70.421  1.00  0.00    -0.385 C  
HETATM    2  N   UNL     1     -11.275  10.548  69.378  1.00  0.00    -0.251 N  
HETATM    3  O   UNL     1     -10.749  10.548  67.121  1.00  0.00    -0.256 OA 
HETATM    4  C   UNL     1     -11.330  11.044  68.082  1.00  0.00    -0.307 C  
ENDROOT
BRANCH   2   5
HETATM    5  C   UNL     1     -10.542   9.313  69.651  1.00  0.00    -0.229 C  
BRANCH   5   6
HETATM    6  C   UNL     1      -9.098   9.562  70.108  1.00  0.00    -0.276 C  
BRANCH   6   7
HETATM    7  C   UNL     1      -8.094   9.198  69.008  1.00  0.00    -0.102 C  
BRANCH   7   8
HETATM    8  C   UNL     1      -6.645   9.425  69.457  1.00  0.00    -0.044 C  
BRANCH   8   9
HETATM    9  C   UNL     1      -5.653   8.985  68.376  1.00  0.00    -0.038 C  
BRANCH   9  10
HETATM   10  C   UNL     1      -6.363   8.327  67.190  1.00  0.00    -0.057 C  
BRANCH  10  11
HETATM   11  C   UNL     1      -6.208   9.110  65.881  1.00  0.00    -0.059 C  
BRANCH  11  12
HETATM   12  C   UNL     1      -6.646   8.317  64.652  1.00  0.00    -0.065 C  
BRANCH  12  13
HETATM   13  C   UNL     1      -6.893   6.849  64.990  1.00  0.00    -0.051 C  
BRANCH  13  14
HETATM   14  C   UNL     1      -8.319   6.459  64.629  1.00  0.00    -0.009 C  
BRANCH  14  15
HETATM   15  N   UNL     1      -8.904   5.571  65.622  1.00  0.00    -0.153 N  
HETATM   16  C   UNL     1      -9.708   6.097  66.616  1.00  0.00    -0.160 C  
HETATM   17  C   UNL     1      -8.664   4.138  65.517  1.00  0.00    -0.120 C  
HETATM   18  O   UNL     1      -9.916   7.295  66.776  1.00  0.00    -0.209 OA 
BRANCH  16  19
HETATM   19  O   UNL     1     -10.144   5.120  67.499  1.00  0.00    -0.169 OA 
BRANCH  19  20
HETATM   20  C   UNL     1      -9.729   5.341  68.817  1.00  0.00    -0.146 A  
HETATM   21  C   UNL     1      -8.360   5.394  69.051  1.00  0.00    -0.100 A  
HETATM   22  C   UNL     1      -7.920   5.730  70.327  1.00  0.00    -0.104 A  
HETATM   23  C   UNL     1      -8.836   6.004  71.347  1.00  0.00    -0.136 A  
HETATM   24  C   UNL     1     -10.221   5.939  71.117  1.00  0.00    -0.212 A  
HETATM   25  C   UNL     1     -10.655   5.640  69.826  1.00  0.00    -0.400 A  
BRANCH  24  26
HETATM   26  N   UNL     1     -11.233   6.293  72.196  1.00  0.00    -0.267 N  
HETATM   27  C   UNL     1     -12.518   6.841  71.585  1.00  0.00    -0.351 C  
HETATM   28  C   UNL     1     -10.677   7.382  73.123  1.00  0.00    -0.387 C  
HETATM   29  C   UNL     1     -11.526   5.027  72.988  1.00  0.00    -0.265 C  
ENDBRANCH  24  26
ENDBRANCH  19  20
ENDBRANCH  16  19
ENDBRANCH  14  15
ENDBRANCH  13  14
ENDBRANCH  12  13
ENDBRANCH  11  12
ENDBRANCH  10  11
ENDBRANCH   9  10
ENDBRANCH   8   9
ENDBRANCH   7   8
ENDBRANCH   6   7
ENDBRANCH   5   6
ENDBRANCH   2   5
BRANCH   4  30
HETATM   30  O   UNL     1     -12.187  12.142  67.966  1.00  0.00    -0.419 OA 
BRANCH  30  31
HETATM   31  C   UNL     1     -11.731  13.115  67.060  1.00  0.00    -0.377 A  
HETATM   32  C   UNL     1     -12.145  13.071  65.728  1.00  0.00    -0.510 A  
HETATM   33  C   UNL     1     -10.955  14.171  67.547  1.00  0.00    -0.292 A  
HETATM   34  C   UNL     1     -10.542  15.188  66.668  1.00  0.00    -0.304 A  
HETATM   35  C   UNL     1     -11.732  14.061  64.854  1.00  0.00    -0.385 A  
HETATM   36  C   UNL     1     -10.931  15.104  65.318  1.00  0.00    -0.405 A  
BRANCH  34  37
HETATM   37  N   UNL     1      -9.602  16.294  67.133  1.00  0.00    -0.230 N  
HETATM   38  C   UNL     1     -10.262  17.670  67.031  1.00  0.00    -0.332 C  
HETATM   39  C   UNL     1      -9.211  16.095  68.598  1.00  0.00    -0.220 C  
HETATM   40  C   UNL     1      -8.373  16.253  66.224  1.00  0.00    -0.308 C  
ENDBRANCH  34  37
ENDBRANCH  30  31
ENDBRANCH   4  30
TORSDOF 17
ENDMDL
MODEL       78
REMARK 921   NORMALIZED FREE ENERGY PREDICTED BY IDOCK:   -5.09 KCAL/MOL
REMARK 922        TOTAL FREE ENERGY PREDICTED BY IDOCK:  -12.39 KCAL/MOL
REMARK 923 INTER-LIGAND FREE ENERGY PREDICTED BY IDOCK:   -9.87 KCAL/MOL
REMARK 924 INTRA-LIGAND FREE ENERGY PREDICTED BY IDOCK:   -2.52 KCAL/MOL
REMARK 927      BINDING AFFINITY PREDICTED BY RF-SCORE:    0.00 PKD
ROOT
HETATM    1  C   UNL     1     -11.612  14.516  66.821  1.00  0.00    -0.376 C  
HETATM    2  N   UNL     1     -10.955  13.597  67.735  1.00  0.00    -0.254 N  
HETATM    3  O   UNL     1      -8.994  12.482  68.265  1.00  0.00    -0.194 OA 
HETATM    4  C   UNL     1      -9.596  13.337  67.622  1.00  0.00    -0.213 C  
ENDROOT
BRANCH   2   5
HETATM    5  C   UNL     1     -11.780  12.775  68.618  1.00  0.00    -0.324 C  
BRANCH   5   6
HETATM    6  C   UNL     1     -12.333  13.554  69.819  1.00  0.00    -0.249 C  
BRANCH   6   7
HETATM    7  C   UNL     1     -12.608  12.625  71.008  1.00  0.00    -0.354 C  
BRANCH   7   8
HETATM    8  C   UNL     1     -12.361  11.153  70.653  1.00  0.00    -0.482 C  
BRANCH   8   9
HETATM    9  C   UNL     1     -13.059  10.218  71.645  1.00  0.00    -0.553 C  
BRANCH   9  10
HETATM   10  C   UNL     1     -12.210   8.980  71.949  1.00  0.00    -0.451 C  
BRANCH  10  11
HETATM   11  C   UNL     1     -12.933   7.662  71.652  1.00  0.00    -0.385 C  
BRANCH  11  12
HETATM   12  C   UNL     1     -12.076   6.430  71.936  1.00  0.00    -0.362 C  
BRANCH  12  13
HETATM   13  C   UNL     1     -10.986   6.729  72.962  1.00  0.00    -0.293 C  
BRANCH  13  14
HETATM   14  C   UNL     1      -9.636   6.253  72.448  1.00  0.00    -0.150 C  
BRANCH  14  15
HETATM   15  N   UNL     1      -9.001   7.248  71.598  1.00  0.00    -0.125 N  
HETATM   16  C   UNL     1      -8.852   6.994  70.247  1.00  0.00    -0.148 C  
HETATM   17  C   UNL     1      -8.578   8.513  72.183  1.00  0.00    -0.173 C  
HETATM   18  O   UNL     1      -9.154   5.936  69.704  1.00  0.00    -0.134 OA 
BRANCH  16  19
HETATM   19  O   UNL     1      -8.190   8.025  69.596  1.00  0.00    -0.117 OA 
BRANCH  19  20
HETATM   20  C   UNL     1      -8.877   8.502  68.474  1.00  0.00    -0.139 A  
HETATM   21  C   UNL     1     -10.172   8.967  68.672  1.00  0.00    -0.221 A  
HETATM   22  C   UNL     1     -10.834   9.556  67.600  1.00  0.00    -0.253 A  
HETATM   23  C   UNL     1     -10.209   9.673  66.354  1.00  0.00    -0.288 A  
HETATM   24  C   UNL     1      -8.904   9.193  66.147  1.00  0.00    -0.158 A  
HETATM   25  C   UNL     1      -8.232   8.638  67.236  1.00  0.00    -0.105 A  
BRANCH  24  26
HETATM   26  N   UNL     1      -8.185   9.365  64.818  1.00  0.00    -0.136 N  
HETATM   27  C   UNL     1      -6.830  10.037  65.011  1.00  0.00    -0.132 C  
HETATM   28  C   UNL     1      -9.000  10.260  63.875  1.00  0.00    -0.237 C  
HETATM   29  C   UNL     1      -8.005   7.983  64.207  1.00  0.00    -0.137 C  
ENDBRANCH  24  26
ENDBRANCH  19  20
ENDBRANCH  16  19
ENDBRANCH  14  15
ENDBRANCH  13  14
ENDBRANCH  12  13
ENDBRANCH  11  12
ENDBRANCH  10  11
ENDBRANCH   9  10
ENDBRANCH   8   9
ENDBRANCH   7   8
ENDBRANCH   6   7
ENDBRANCH   5   6
ENDBRANCH   2   5
BRANCH   4  30
HETATM   30  O   UNL     1      -8.983  14.112  66.633  1.00  0.00    -0.238 OA 
BRANCH  30  31
HETATM   31  C   UNL     1      -8.247  15.194  67.146  1.00  0.00    -0.221 A  
HETATM   32  C   UNL     1      -6.946  14.991  67.609  1.00  0.00    -0.205 A  
HETATM   33  C   UNL     1      -8.803  16.475  67.077  1.00  0.00    -0.217 A  
HETATM   34  C   UNL     1      -8.056  17.578  67.527  1.00  0.00    -0.205 A  
HETATM   35  C   UNL     1      -6.209  16.070  68.065  1.00  0.00    -0.138 A  
HETATM   36  C   UNL     1      -6.763  17.349  68.033  1.00  0.00    -0.181 A  
BRANCH  34  37
HETATM   37  N   UNL     1      -8.668  18.973  67.575  1.00  0.00    -0.287 N  
HETATM   38  C   UNL     1      -9.672  19.106  68.721  1.00  0.00    -0.430 C  
HETATM   39  C   UNL     1      -7.591  20.033  67.803  1.00  0.00    -0.293 C  
HETATM   40  C   UNL     1      -9.388  19.195  66.243  1.00  0.00    -0.315 C  
ENDBRANCH  34  37
ENDBRANCH  30  31
ENDBRANCH   4  30
TORSDOF 17
ENDMDL
MODEL       79
REMARK 921   NORMALIZED FREE ENERGY PREDICTED BY IDOCK:   -5.09 KCAL/MOL
REMARK 922        TOTAL FREE ENERGY PREDICTED BY IDOCK:  -12.38 KCAL/MOL
REMARK 923 INTER-LIGAND FREE ENERGY PREDICTED BY IDOCK:  -10.24 KCAL/MOL
REMARK 924 INTRA-LIGAND FREE ENERGY PREDICTED BY IDOCK:   -2.14 KCAL/MOL
REMARK 927      BINDING AFFINITY PREDICTED BY RF-SCORE:    0.00 PKD
ROOT
HETATM    1  C   UNL     1      -8.059   7.322  72.648  1.00  0.00    -0.103 C  
HETATM    2  N   UNL     1      -8.878   6.410  71.866  1.00  0.00    -0.138 N  
HETATM    3  O   UNL     1     -11.017   5.639  71.426  1.00  0.00    -0.250 OA 
HETATM    4  C   UNL     1     -10.262   6.454  71.948  1.00  0.00    -0.195 C  
ENDROOT
BRANCH   2   5
HETATM    5  C   UNL     1      -8.226   5.297  71.179  1.00  0.00    -0.118 C  
BRANCH   5   6
HETATM    6  C   UNL     1      -8.368   5.370  69.652  1.00  0.00    -0.100 C  
BRANCH   6   7
HETATM    7  C   UNL     1      -7.463   6.457  69.059  1.00  0.00    -0.095 C  
BRANCH   7   8
HETATM    8  C   UNL     1      -8.267   7.672  68.578  1.00  0.00    -0.125 C  
BRANCH   8   9
HETATM    9  C   UNL     1      -9.665   7.261  68.104  1.00  0.00    -0.155 C  
BRANCH   9  10
HETATM   10  C   UNL     1     -10.021   7.911  66.764  1.00  0.00    -0.333 C  
BRANCH  10  11
HETATM   11  C   UNL     1      -8.805   8.149  65.863  1.00  0.00    -0.194 C  
BRANCH  11  12
HETATM   12  C   UNL     1      -9.060   9.185  64.771  1.00  0.00    -0.157 C  
BRANCH  12  13
HETATM   13  C   UNL     1      -9.857  10.375  65.302  1.00  0.00    -0.361 C  
BRANCH  13  14
HETATM   14  C   UNL     1      -9.540  11.623  64.492  1.00  0.00    -0.114 C  
BRANCH  14  15
HETATM   15  N   UNL     1     -10.507  12.683  64.733  1.00  0.00    -0.307 N  
HETATM   16  C   UNL     1     -10.300  13.569  65.775  1.00  0.00    -0.292 C  
HETATM   17  C   UNL     1     -11.650  12.814  63.840  1.00  0.00    -0.452 C  
HETATM   18  O   UNL     1      -9.379  13.488  66.580  1.00  0.00    -0.255 OA 
BRANCH  16  19
HETATM   19  O   UNL     1     -11.336  14.484  65.889  1.00  0.00    -0.333 OA 
BRANCH  19  20
HETATM   20  C   UNL     1     -11.065  15.517  66.792  1.00  0.00    -0.206 A  
HETATM   21  C   UNL     1     -11.490  15.343  68.104  1.00  0.00    -0.352 A  
HETATM   22  C   UNL     1     -11.130  16.297  69.049  1.00  0.00    -0.331 A  
HETATM   23  C   UNL     1     -10.361  17.407  68.683  1.00  0.00    -0.364 A  
HETATM   24  C   UNL     1      -9.940  17.593  67.355  1.00  0.00    -0.321 A  
HETATM   25  C   UNL     1     -10.272  16.612  66.421  1.00  0.00    -0.322 A  
BRANCH  24  26
HETATM   26  N   UNL     1      -9.053  18.760  66.950  1.00  0.00    -0.291 N  
HETATM   27  C   UNL     1      -9.833  19.785  66.133  1.00  0.00    -0.448 C  
HETATM   28  C   UNL     1      -7.891  18.277  66.072  1.00  0.00    -0.136 C  
HETATM   29  C   UNL     1      -8.520  19.400  68.224  1.00  0.00    -0.341 C  
ENDBRANCH  24  26
ENDBRANCH  19  20
ENDBRANCH  16  19
ENDBRANCH  14  15
ENDBRANCH  13  14
ENDBRANCH  12  13
ENDBRANCH  11  12
ENDBRANCH  10  11
ENDBRANCH   9  10
ENDBRANCH   8   9
ENDBRANCH   7   8
ENDBRANCH   6   7
ENDBRANCH   5   6
ENDBRANCH   2   5
BRANCH   4  30
HETATM   30  O   UNL     1     -10.718   7.497  72.760  1.00  0.00    -0.267 OA 
BRANCH  30  31
HETATM   31  C   UNL     1     -11.546   8.410  72.086  1.00  0.00    -0.374 A  
HETATM   32  C   UNL     1     -12.903   8.484  72.406  1.00  0.00    -0.373 A  
HETATM   33  C   UNL     1     -10.963   9.303  71.181  1.00  0.00    -0.409 A  
HETATM   34  C   UNL     1     -11.765  10.266  70.545  1.00  0.00    -0.331 A  
HETATM   35  C   UNL     1     -13.702   9.420  71.774  1.00  0.00    -0.418 A  
HETATM   36  C   UNL     1     -13.140  10.296  70.846  1.00  0.00    -0.423 A  
BRANCH  34  37
HETATM   37  N   UNL     1     -11.190  11.181  69.470  1.00  0.00    -0.262 N  
HETATM   38  C   UNL     1      -9.689  10.953  69.286  1.00  0.00    -0.064 C  
HETATM   39  C   UNL     1     -11.849  10.913  68.117  1.00  0.00    -0.046 C  
HETATM   40  C   UNL     1     -11.432  12.620  69.927  1.00  0.00    -0.081 C  
ENDBRANCH  34  37
ENDBRANCH  30  31
ENDBRANCH   4  30
TORSDOF 17
ENDMDL
MODEL       80
REMARK 921   NORMALIZED FREE ENERGY PREDICTED BY IDOCK:   -5.08 KCAL/MOL
REMARK 922        TOTAL FREE ENERGY PREDICTED BY IDOCK:  -12.36 KCAL/MOL
REMARK 923 INTER-LIGAND FREE ENERGY PREDICTED BY IDOCK:   -9.95 KCAL/MOL
REMARK 924 INTRA-LIGAND FREE ENERGY PREDICTED BY IDOCK:   -2.42 KCAL/MOL
REMARK 927      BINDING AFFINITY PREDICTED BY RF-SCORE:    0.00 PKD
ROOT
HETATM    1  C   UNL     1     -11.595  12.328  67.243  1.00  0.00    -0.357 C  
HETATM    2  N   UNL     1     -11.653  12.913  65.914  1.00  0.00    -0.356 N  
HETATM    3  O   UNL     1     -11.793  14.864  64.673  1.00  0.00    -0.419 OA 
HETATM    4  C   UNL     1     -11.618  14.290  65.743  1.00  0.00    -0.346 C  
ENDROOT
BRANCH   2   5
HETATM    5  C   UNL     1     -11.986  12.050  64.782  1.00  0.00    -0.236 C  
BRANCH   5   6
HETATM    6  C   UNL     1     -10.749  11.561  64.017  1.00  0.00    -0.445 C  
BRANCH   6   7
HETATM    7  C   UNL     1     -10.054  10.411  64.756  1.00  0.00    -0.387 C  
BRANCH   7   8
HETATM    8  C   UNL     1      -8.726  10.853  65.384  1.00  0.00    -0.162 C  
BRANCH   8   9
HETATM    9  C   UNL     1      -7.628   9.810  65.153  1.00  0.00    -0.125 C  
BRANCH   9  10
HETATM   10  C   UNL     1      -7.135   9.819  63.704  1.00  0.00    -0.116 C  
BRANCH  10  11
HETATM   11  C   UNL     1      -7.064   8.421  63.079  1.00  0.00    -0.091 C  
BRANCH  11  12
HETATM   12  C   UNL     1      -8.029   7.428  63.722  1.00  0.00    -0.075 C  
BRANCH  12  13
HETATM   13  C   UNL     1      -7.302   6.182  64.222  1.00  0.00    -0.070 C  
BRANCH  13  14
HETATM   14  C   UNL     1      -8.278   5.250  64.924  1.00  0.00    -0.136 C  
BRANCH  14  15
HETATM   15  N   UNL     1      -8.239   5.416  66.369  1.00  0.00    -0.109 N  
HETATM   16  C   UNL     1      -9.422   5.573  67.068  1.00  0.00    -0.131 C  
HETATM   17  C   UNL     1      -6.954   5.368  67.052  1.00  0.00    -0.065 C  
HETATM   18  O   UNL     1     -10.528   5.658  66.547  1.00  0.00    -0.242 OA 
BRANCH  16  19
HETATM   19  O   UNL     1      -9.199   5.762  68.424  1.00  0.00    -0.117 OA 
BRANCH  19  20
HETATM   20  C   UNL     1      -9.707   6.974  68.904  1.00  0.00    -0.144 A  
HETATM   21  C   UNL     1      -9.403   8.121  68.182  1.00  0.00    -0.139 A  
HETATM   22  C   UNL     1      -9.992   9.321  68.567  1.00  0.00    -0.193 A  
HETATM   23  C   UNL     1     -10.866   9.368  69.657  1.00  0.00    -0.245 A  
HETATM   24  C   UNL     1     -11.167   8.212  70.398  1.00  0.00    -0.221 A  
HETATM   25  C   UNL     1     -10.603   7.006  69.982  1.00  0.00    -0.251 A  
BRANCH  24  26
HETATM   26  N   UNL     1     -12.162   8.230  71.548  1.00  0.00    -0.293 N  
HETATM   27  C   UNL     1     -12.790   9.611  71.707  1.00  0.00    -0.421 C  
HETATM   28  C   UNL     1     -11.464   7.899  72.873  1.00  0.00    -0.297 C  
HETATM   29  C   UNL     1     -13.237   7.196  71.246  1.00  0.00    -0.272 C  
ENDBRANCH  24  26
ENDBRANCH  19  20
ENDBRANCH  16  19
ENDBRANCH  14  15
ENDBRANCH  13  14
ENDBRANCH  12  13
ENDBRANCH  11  12
ENDBRANCH  10  11
ENDBRANCH   9  10
ENDBRANCH   8   9
ENDBRANCH   7   8
ENDBRANCH   6   7
ENDBRANCH   5   6
ENDBRANCH   2   5
BRANCH   4  30
HETATM   30  O   UNL     1     -11.430  14.974  66.948  1.00  0.00    -0.334 OA 
BRANCH  30  31
HETATM   31  C   UNL     1     -10.301  15.810  66.947  1.00  0.00    -0.295 A  
HETATM   32  C   UNL     1      -9.026  15.254  66.822  1.00  0.00    -0.291 A  
HETATM   33  C   UNL     1     -10.492  17.195  66.963  1.00  0.00    -0.282 A  
HETATM   34  C   UNL     1      -9.377  18.048  66.899  1.00  0.00    -0.276 A  
HETATM   35  C   UNL     1      -7.923  16.087  66.771  1.00  0.00    -0.302 A  
HETATM   36  C   UNL     1      -8.096  17.469  66.819  1.00  0.00    -0.275 A  
BRANCH  34  37
HETATM   37  N   UNL     1      -9.536  19.558  67.029  1.00  0.00    -0.322 N  
HETATM   38  C   UNL     1      -8.180  20.266  67.034  1.00  0.00    -0.318 C  
HETATM   39  C   UNL     1     -10.328  20.125  65.851  1.00  0.00    -0.340 C  
HETATM   40  C   UNL     1     -10.251  19.824  68.354  1.00  0.00    -0.449 C  
ENDBRANCH  34  37
ENDBRANCH  30  31
ENDBRANCH   4  30
TORSDOF 17
ENDMDL
MODEL       81
REMARK 921   NORMALIZED FREE ENERGY PREDICTED BY IDOCK:   -5.07 KCAL/MOL
REMARK 922        TOTAL FREE ENERGY PREDICTED BY IDOCK:  -12.35 KCAL/MOL
REMARK 923 INTER-LIGAND FREE ENERGY PREDICTED BY IDOCK:   -9.83 KCAL/MOL
REMARK 924 INTRA-LIGAND FREE ENERGY PREDICTED BY IDOCK:   -2.52 KCAL/MOL
REMARK 927      BINDING AFFINITY PREDICTED BY RF-SCORE:    0.00 PKD
ROOT
HETATM    1  C   UNL     1      -9.711   4.381  65.195  1.00  0.00    -0.178 C  
HETATM    2  N   UNL     1      -8.505   4.518  65.993  1.00  0.00    -0.113 N  
HETATM    3  O   UNL     1      -7.595   5.238  67.998  1.00  0.00    -0.079 OA 
HETATM    4  C   UNL     1      -8.571   4.971  67.304  1.00  0.00    -0.104 C  
ENDROOT
BRANCH   2   5
HETATM    5  C   UNL     1      -7.208   4.402  65.331  1.00  0.00    -0.068 C  
BRANCH   5   6
HETATM    6  C   UNL     1      -7.277   4.686  63.824  1.00  0.00    -0.050 C  
BRANCH   6   7
HETATM    7  C   UNL     1      -5.905   5.090  63.269  1.00  0.00    -0.017 C  
BRANCH   7   8
HETATM    8  C   UNL     1      -5.960   6.431  62.527  1.00  0.00    -0.030 C  
BRANCH   8   9
HETATM    9  C   UNL     1      -7.398   6.944  62.411  1.00  0.00    -0.065 C  
BRANCH   9  10
HETATM   10  C   UNL     1      -7.512   8.412  62.832  1.00  0.00    -0.108 C  
BRANCH  10  11
HETATM   11  C   UNL     1      -8.444   8.629  64.028  1.00  0.00    -0.080 C  
BRANCH  11  12
HETATM   12  C   UNL     1      -8.616  10.101  64.396  1.00  0.00    -0.199 C  
BRANCH  12  13
HETATM   13  C   UNL     1     -10.024  10.599  64.076  1.00  0.00    -0.401 C  
BRANCH  13  14
HETATM   14  C   UNL     1     -10.139  12.083  64.386  1.00  0.00    -0.271 C  
BRANCH  14  15
HETATM   15  N   UNL     1     -11.208  12.355  65.336  1.00  0.00    -0.307 N  
HETATM   16  C   UNL     1     -10.928  12.366  66.690  1.00  0.00    -0.268 C  
HETATM   17  C   UNL     1     -12.541  12.655  64.833  1.00  0.00    -0.450 C  
HETATM   18  O   UNL     1      -9.836  12.086  67.173  1.00  0.00    -0.194 OA 
BRANCH  16  19
HETATM   19  O   UNL     1     -12.065  12.597  67.451  1.00  0.00    -0.432 OA 
BRANCH  19  20
HETATM   20  C   UNL     1     -11.928  13.671  68.337  1.00  0.00    -0.356 A  
HETATM   21  C   UNL     1     -11.368  14.840  67.837  1.00  0.00    -0.331 A  
HETATM   22  C   UNL     1     -11.330  15.960  68.660  1.00  0.00    -0.376 A  
HETATM   23  C   UNL     1     -11.841  15.906  69.961  1.00  0.00    -0.322 A  
HETATM   24  C   UNL     1     -12.397  14.722  70.474  1.00  0.00    -0.337 A  
HETATM   25  C   UNL     1     -12.467  13.614  69.630  1.00  0.00    -0.145 A  
BRANCH  24  26
HETATM   26  N   UNL     1     -13.013  14.660  71.863  1.00  0.00    -0.315 N  
HETATM   27  C   UNL     1     -14.392  15.309  71.881  1.00  0.00    -0.589 C  
HETATM   28  C   UNL     1     -12.145  15.420  72.874  1.00  0.00    -0.437 C  
HETATM   29  C   UNL     1     -13.118  13.193  72.257  1.00  0.00    -0.353 C  
ENDBRANCH  24  26
ENDBRANCH  19  20
ENDBRANCH  16  19
ENDBRANCH  14  15
ENDBRANCH  13  14
ENDBRANCH  12  13
ENDBRANCH  11  12
ENDBRANCH  10  11
ENDBRANCH   9  10
ENDBRANCH   8   9
ENDBRANCH   7   8
ENDBRANCH   6   7
ENDBRANCH   5   6
ENDBRANCH   2   5
BRANCH   4  30
HETATM   30  O   UNL     1      -9.886   5.164  67.738  1.00  0.00    -0.142 OA 
BRANCH  30  31
HETATM   31  C   UNL     1     -10.176   6.499  68.069  1.00  0.00    -0.164 A  
HETATM   32  C   UNL     1     -10.189   7.475  67.070  1.00  0.00    -0.368 A  
HETATM   33  C   UNL     1     -10.552   6.797  69.382  1.00  0.00    -0.265 A  
HETATM   34  C   UNL     1     -10.907   8.116  69.716  1.00  0.00    -0.190 A  
HETATM   35  C   UNL     1     -10.524   8.777  67.394  1.00  0.00    -0.349 A  
HETATM   36  C   UNL     1     -10.871   9.096  68.707  1.00  0.00    -0.096 A  
BRANCH  34  37
HETATM   37  N   UNL     1     -11.213   8.504  71.159  1.00  0.00    -0.257 N  
HETATM   38  C   UNL     1      -9.938   8.588  71.999  1.00  0.00    -0.313 C  
HETATM   39  C   UNL     1     -11.880   9.878  71.223  1.00  0.00    -0.395 C  
HETATM   40  C   UNL     1     -12.127   7.420  71.732  1.00  0.00    -0.312 C  
ENDBRANCH  34  37
ENDBRANCH  30  31
ENDBRANCH   4  30
TORSDOF 17
ENDMDL
MODEL       82
REMARK 921   NORMALIZED FREE ENERGY PREDICTED BY IDOCK:   -5.07 KCAL/MOL
REMARK 922        TOTAL FREE ENERGY PREDICTED BY IDOCK:  -12.34 KCAL/MOL
REMARK 923 INTER-LIGAND FREE ENERGY PREDICTED BY IDOCK:   -9.16 KCAL/MOL
REMARK 924 INTRA-LIGAND FREE ENERGY PREDICTED BY IDOCK:   -3.17 KCAL/MOL
REMARK 927      BINDING AFFINITY PREDICTED BY RF-SCORE:    0.00 PKD
ROOT
HETATM    1  C   UNL     1     -12.628  13.057  65.144  1.00  0.00    -0.469 C  
HETATM    2  N   UNL     1     -11.446  13.610  65.783  1.00  0.00    -0.310 N  
HETATM    3  O   UNL     1      -9.229  13.265  66.358  1.00  0.00    -0.218 OA 
HETATM    4  C   UNL     1     -10.235  12.934  65.738  1.00  0.00    -0.288 C  
ENDROOT
BRANCH   2   5
HETATM    5  C   UNL     1     -11.602  14.762  66.669  1.00  0.00    -0.313 C  
BRANCH   5   6
HETATM    6  C   UNL     1     -11.773  14.365  68.142  1.00  0.00    -0.377 C  
BRANCH   6   7
HETATM    7  C   UNL     1     -11.829  15.600  69.049  1.00  0.00    -0.379 C  
BRANCH   7   8
HETATM    8  C   UNL     1     -10.428  16.103  69.419  1.00  0.00    -0.283 C  
BRANCH   8   9
HETATM    9  C   UNL     1     -10.152  17.480  68.808  1.00  0.00    -0.363 C  
BRANCH   9  10
HETATM   10  C   UNL     1      -8.999  17.433  67.802  1.00  0.00    -0.236 C  
BRANCH  10  11
HETATM   11  C   UNL     1      -7.666  17.008  68.427  1.00  0.00    -0.230 C  
BRANCH  11  12
HETATM   12  C   UNL     1      -7.145  15.679  67.885  1.00  0.00    -0.153 C  
BRANCH  12  13
HETATM   13  C   UNL     1      -6.662  14.765  69.009  1.00  0.00    -0.105 C  
BRANCH  13  14
HETATM   14  C   UNL     1      -6.365  13.375  68.466  1.00  0.00    -0.087 C  
BRANCH  14  15
HETATM   15  N   UNL     1      -6.350  12.374  69.522  1.00  0.00    -0.122 N  
HETATM   16  C   UNL     1      -7.035  11.187  69.344  1.00  0.00    -0.124 C  
HETATM   17  C   UNL     1      -5.572  12.630  70.726  1.00  0.00    -0.163 C  
HETATM   18  O   UNL     1      -7.735  10.931  68.370  1.00  0.00    -0.103 OA 
BRANCH  16  19
HETATM   19  O   UNL     1      -6.952  10.369  70.461  1.00  0.00    -0.305 OA 
BRANCH  19  20
HETATM   20  C   UNL     1      -7.711   9.200  70.349  1.00  0.00    -0.127 A  
HETATM   21  C   UNL     1      -7.069   8.069  69.858  1.00  0.00    -0.057 A  
HETATM   22  C   UNL     1      -7.764   6.865  69.848  1.00  0.00    -0.109 A  
HETATM   23  C   UNL     1      -9.080   6.798  70.318  1.00  0.00    -0.153 A  
HETATM   24  C   UNL     1      -9.737   7.942  70.803  1.00  0.00    -0.172 A  
HETATM   25  C   UNL     1      -9.021   9.137  70.846  1.00  0.00    -0.298 A  
BRANCH  24  26
HETATM   26  N   UNL     1     -11.145   7.878  71.374  1.00  0.00    -0.239 N  
HETATM   27  C   UNL     1     -11.990   6.844  70.636  1.00  0.00    -0.348 C  
HETATM   28  C   UNL     1     -11.854   9.229  71.221  1.00  0.00    -0.343 C  
HETATM   29  C   UNL     1     -11.031   7.507  72.846  1.00  0.00    -0.383 C  
ENDBRANCH  24  26
ENDBRANCH  19  20
ENDBRANCH  16  19
ENDBRANCH  14  15
ENDBRANCH  13  14
ENDBRANCH  12  13
ENDBRANCH  11  12
ENDBRANCH  10  11
ENDBRANCH   9  10
ENDBRANCH   8   9
ENDBRANCH   7   8
ENDBRANCH   6   7
ENDBRANCH   5   6
ENDBRANCH   2   5
BRANCH   4  30
HETATM   30  O   UNL     1     -10.297  11.776  64.957  1.00  0.00    -0.257 OA 
BRANCH  30  31
HETATM   31  C   UNL     1     -10.062  10.597  65.684  1.00  0.00    -0.272 A  
HETATM   32  C   UNL     1     -10.759  10.364  66.871  1.00  0.00    -0.272 A  
HETATM   33  C   UNL     1      -9.210   9.632  65.139  1.00  0.00    -0.305 A  
HETATM   34  C   UNL     1      -9.013   8.419  65.822  1.00  0.00    -0.159 A  
HETATM   35  C   UNL     1     -10.560   9.178  67.556  1.00  0.00    -0.317 A  
HETATM   36  C   UNL     1      -9.689   8.219  67.041  1.00  0.00    -0.274 A  
BRANCH  34  37
HETATM   37  N   UNL     1      -8.006   7.391  65.320  1.00  0.00    -0.121 N  
HETATM   38  C   UNL     1      -6.675   7.499  66.064  1.00  0.00    -0.050 C  
HETATM   39  C   UNL     1      -8.524   5.969  65.540  1.00  0.00    -0.151 C  
HETATM   40  C   UNL     1      -7.780   7.671  63.833  1.00  0.00    -0.126 C  
ENDBRANCH  34  37
ENDBRANCH  30  31
ENDBRANCH   4  30
TORSDOF 17
ENDMDL
MODEL       83
REMARK 921   NORMALIZED FREE ENERGY PREDICTED BY IDOCK:   -5.07 KCAL/MOL
REMARK 922        TOTAL FREE ENERGY PREDICTED BY IDOCK:  -12.34 KCAL/MOL
REMARK 923 INTER-LIGAND FREE ENERGY PREDICTED BY IDOCK:  -10.36 KCAL/MOL
REMARK 924 INTRA-LIGAND FREE ENERGY PREDICTED BY IDOCK:   -1.97 KCAL/MOL
REMARK 927      BINDING AFFINITY PREDICTED BY RF-SCORE:    0.00 PKD
ROOT
HETATM    1  C   UNL     1     -14.067   7.914  71.476  1.00  0.00    -0.395 C  
HETATM    2  N   UNL     1     -12.813   8.586  71.768  1.00  0.00    -0.334 N  
HETATM    3  O   UNL     1     -10.661   8.371  72.599  1.00  0.00    -0.339 OA 
HETATM    4  C   UNL     1     -11.710   7.868  72.208  1.00  0.00    -0.355 C  
ENDROOT
BRANCH   2   5
HETATM    5  C   UNL     1     -12.796  10.047  71.822  1.00  0.00    -0.446 C  
BRANCH   5   6
HETATM    6  C   UNL     1     -13.022  10.700  70.452  1.00  0.00    -0.210 C  
BRANCH   6   7
HETATM    7  C   UNL     1     -11.703  11.194  69.846  1.00  0.00    -0.433 C  
BRANCH   7   8
HETATM    8  C   UNL     1     -11.677  12.721  69.697  1.00  0.00    -0.372 C  
BRANCH   8   9
HETATM    9  C   UNL     1     -11.834  13.139  68.232  1.00  0.00    -0.384 C  
BRANCH   9  10
HETATM   10  C   UNL     1     -11.892  11.926  67.300  1.00  0.00    -0.222 C  
BRANCH  10  11
HETATM   11  C   UNL     1     -10.877  11.994  66.153  1.00  0.00    -0.325 C  
BRANCH  11  12
HETATM   12  C   UNL     1     -10.139  10.677  65.926  1.00  0.00    -0.321 C  
BRANCH  12  13
HETATM   13  C   UNL     1      -8.636  10.830  66.149  1.00  0.00    -0.171 C  
BRANCH  13  14
HETATM   14  C   UNL     1      -8.371  11.573  67.450  1.00  0.00    -0.148 C  
BRANCH  14  15
HETATM   15  N   UNL     1      -7.304  12.552  67.304  1.00  0.00    -0.138 N  
HETATM   16  C   UNL     1      -7.593  13.898  67.437  1.00  0.00    -0.142 C  
HETATM   17  C   UNL     1      -5.945  12.086  67.068  1.00  0.00    -0.135 C  
HETATM   18  O   UNL     1      -8.721  14.351  67.599  1.00  0.00    -0.170 OA 
BRANCH  16  19
HETATM   19  O   UNL     1      -6.473  14.690  67.226  1.00  0.00    -0.298 OA 
BRANCH  19  20
HETATM   20  C   UNL     1      -6.593  15.972  67.772  1.00  0.00    -0.154 A  
HETATM   21  C   UNL     1      -6.224  16.133  69.102  1.00  0.00    -0.153 A  
HETATM   22  C   UNL     1      -6.218  17.417  69.636  1.00  0.00    -0.233 A  
HETATM   23  C   UNL     1      -6.579  18.517  68.851  1.00  0.00    -0.275 A  
HETATM   24  C   UNL     1      -6.964  18.356  67.509  1.00  0.00    -0.204 A  
HETATM   25  C   UNL     1      -6.930  17.071  66.969  1.00  0.00    -0.228 A  
BRANCH  24  26
HETATM   26  N   UNL     1      -7.301  19.545  66.622  1.00  0.00    -0.231 N  
HETATM   27  C   UNL     1      -8.789  19.577  66.288  1.00  0.00    -0.361 C  
HETATM   28  C   UNL     1      -6.544  19.458  65.290  1.00  0.00    -0.266 C  
HETATM   29  C   UNL     1      -6.904  20.809  67.371  1.00  0.00    -0.356 C  
ENDBRANCH  24  26
ENDBRANCH  19  20
ENDBRANCH  16  19
ENDBRANCH  14  15
ENDBRANCH  13  14
ENDBRANCH  12  13
ENDBRANCH  11  12
ENDBRANCH  10  11
ENDBRANCH   9  10
ENDBRANCH   8   9
ENDBRANCH   7   8
ENDBRANCH   6   7
ENDBRANCH   5   6
ENDBRANCH   2   5
BRANCH   4  30
HETATM   30  O   UNL     1     -11.942   6.489  72.228  1.00  0.00    -0.292 OA 
BRANCH  30  31
HETATM   31  C   UNL     1     -11.046   5.759  71.429  1.00  0.00    -0.204 A  
HETATM   32  C   UNL     1     -10.370   4.663  71.968  1.00  0.00    -0.234 A  
HETATM   33  C   UNL     1     -10.936   6.085  70.074  1.00  0.00    -0.450 A  
HETATM   34  C   UNL     1     -10.093   5.325  69.245  1.00  0.00    -0.230 A  
HETATM   35  C   UNL     1      -9.528   3.918  71.163  1.00  0.00    -0.233 A  
HETATM   36  C   UNL     1      -9.384   4.252  69.816  1.00  0.00    -0.231 A  
BRANCH  34  37
HETATM   37  N   UNL     1      -9.859   5.718  67.791  1.00  0.00    -0.120 N  
HETATM   38  C   UNL     1     -11.137   6.252  67.143  1.00  0.00    -0.303 C  
HETATM   39  C   UNL     1      -8.812   6.828  67.689  1.00  0.00    -0.117 C  
HETATM   40  C   UNL     1      -9.404   4.460  67.052  1.00  0.00    -0.154 C  
ENDBRANCH  34  37
ENDBRANCH  30  31
ENDBRANCH   4  30
TORSDOF 17
ENDMDL
MODEL       84
REMARK 921   NORMALIZED FREE ENERGY PREDICTED BY IDOCK:   -5.06 KCAL/MOL
REMARK 922        TOTAL FREE ENERGY PREDICTED BY IDOCK:  -12.33 KCAL/MOL
REMARK 923 INTER-LIGAND FREE ENERGY PREDICTED BY IDOCK:   -9.35 KCAL/MOL
REMARK 924 INTRA-LIGAND FREE ENERGY PREDICTED BY IDOCK:   -2.98 KCAL/MOL
REMARK 927      BINDING AFFINITY PREDICTED BY RF-SCORE:    0.00 PKD
ROOT
HETATM    1  C   UNL     1     -11.932  11.072  69.755  1.00  0.00    -0.356 C  
HETATM    2  N   UNL     1     -11.022  10.587  68.731  1.00  0.00    -0.235 N  
HETATM    3  O   UNL     1     -10.560  10.468  66.464  1.00  0.00    -0.231 OA 
HETATM    4  C   UNL     1     -11.201  10.938  67.400  1.00  0.00    -0.273 C  
ENDROOT
BRANCH   2   5
HETATM    5  C   UNL     1     -10.065   9.540  69.084  1.00  0.00    -0.195 C  
BRANCH   5   6
HETATM    6  C   UNL     1      -8.883  10.063  69.911  1.00  0.00    -0.177 C  
BRANCH   6   7
HETATM    7  C   UNL     1      -7.904  10.863  69.042  1.00  0.00    -0.138 C  
BRANCH   7   8
HETATM    8  C   UNL     1      -7.356  10.027  67.879  1.00  0.00    -0.088 C  
BRANCH   8   9
HETATM    9  C   UNL     1      -6.252   9.075  68.351  1.00  0.00    -0.054 C  
BRANCH   9  10
HETATM   10  C   UNL     1      -6.412   7.678  67.745  1.00  0.00    -0.055 C  
BRANCH  10  11
HETATM   11  C   UNL     1      -7.360   7.644  66.542  1.00  0.00    -0.087 C  
BRANCH  11  12
HETATM   12  C   UNL     1      -7.036   6.526  65.553  1.00  0.00    -0.053 C  
BRANCH  12  13
HETATM   13  C   UNL     1      -7.702   5.212  65.955  1.00  0.00    -0.091 C  
BRANCH  13  14
HETATM   14  C   UNL     1      -9.184   5.433  66.217  1.00  0.00    -0.152 C  
BRANCH  14  15
HETATM   15  N   UNL     1      -9.565   5.006  67.555  1.00  0.00    -0.138 N  
HETATM   16  C   UNL     1     -10.564   5.685  68.228  1.00  0.00    -0.181 C  
HETATM   17  C   UNL     1      -8.915   3.840  68.137  1.00  0.00    -0.125 C  
HETATM   18  O   UNL     1     -11.121   6.693  67.806  1.00  0.00    -0.285 OA 
BRANCH  16  19
HETATM   19  O   UNL     1     -10.769   5.175  69.502  1.00  0.00    -0.195 OA 
BRANCH  19  20
HETATM   20  C   UNL     1     -10.592   6.126  70.513  1.00  0.00    -0.253 A  
HETATM   21  C   UNL     1     -11.717   6.826  70.932  1.00  0.00    -0.424 A  
HETATM   22  C   UNL     1     -11.594   7.689  72.015  1.00  0.00    -0.334 A  
HETATM   23  C   UNL     1     -10.365   7.849  72.663  1.00  0.00    -0.372 A  
HETATM   24  C   UNL     1      -9.222   7.152  72.234  1.00  0.00    -0.132 A  
HETATM   25  C   UNL     1      -9.361   6.259  71.172  1.00  0.00    -0.169 A  
BRANCH  24  26
HETATM   26  N   UNL     1      -7.892   7.266  72.963  1.00  0.00    -0.095 N  
HETATM   27  C   UNL     1      -6.833   7.910  72.074  1.00  0.00    -0.066 C  
HETATM   28  C   UNL     1      -7.367   5.877  73.351  1.00  0.00    -0.086 C  
HETATM   29  C   UNL     1      -8.117   8.111  74.208  1.00  0.00    -0.251 C  
ENDBRANCH  24  26
ENDBRANCH  19  20
ENDBRANCH  16  19
ENDBRANCH  14  15
ENDBRANCH  13  14
ENDBRANCH  12  13
ENDBRANCH  11  12
ENDBRANCH  10  11
ENDBRANCH   9  10
ENDBRANCH   8   9
ENDBRANCH   7   8
ENDBRANCH   6   7
ENDBRANCH   5   6
ENDBRANCH   2   5
BRANCH   4  30
HETATM   30  O   UNL     1     -12.251  11.843  67.222  1.00  0.00    -0.495 OA 
BRANCH  30  31
HETATM   31  C   UNL     1     -11.922  12.924  66.386  1.00  0.00    -0.395 A  
HETATM   32  C   UNL     1     -12.428  12.975  65.086  1.00  0.00    -0.552 A  
HETATM   33  C   UNL     1     -11.179  13.981  66.918  1.00  0.00    -0.323 A  
HETATM   34  C   UNL     1     -10.894  15.100  66.116  1.00  0.00    -0.330 A  
HETATM   35  C   UNL     1     -12.142  14.066  64.285  1.00  0.00    -0.476 A  
HETATM   36  C   UNL     1     -11.375  15.114  64.793  1.00  0.00    -0.399 A  
BRANCH  34  37
HETATM   37  N   UNL     1      -9.993  16.220  66.622  1.00  0.00    -0.253 N  
HETATM   38  C   UNL     1     -10.163  16.440  68.126  1.00  0.00    -0.262 C  
HETATM   39  C   UNL     1      -8.520  15.882  66.386  1.00  0.00    -0.313 C  
HETATM   40  C   UNL     1     -10.394  17.493  65.876  1.00  0.00    -0.259 C  
ENDBRANCH  34  37
ENDBRANCH  30  31
ENDBRANCH   4  30
TORSDOF 17
ENDMDL
MODEL       85
REMARK 921   NORMALIZED FREE ENERGY PREDICTED BY IDOCK:   -5.04 KCAL/MOL
REMARK 922        TOTAL FREE ENERGY PREDICTED BY IDOCK:  -12.28 KCAL/MOL
REMARK 923 INTER-LIGAND FREE ENERGY PREDICTED BY IDOCK:  -10.44 KCAL/MOL
REMARK 924 INTRA-LIGAND FREE ENERGY PREDICTED BY IDOCK:   -1.84 KCAL/MOL
REMARK 927      BINDING AFFINITY PREDICTED BY RF-SCORE:    0.00 PKD
ROOT
HETATM    1  C   UNL     1     -13.147  14.212  65.823  1.00  0.00    -0.014 C  
HETATM    2  N   UNL     1     -11.955  14.396  65.013  1.00  0.00    -0.396 N  
HETATM    3  O   UNL     1      -9.917  15.477  64.804  1.00  0.00    -0.245 OA 
HETATM    4  C   UNL     1     -10.896  15.166  65.475  1.00  0.00    -0.364 C  
ENDROOT
BRANCH   2   5
HETATM    5  C   UNL     1     -11.981  13.961  63.618  1.00  0.00    -0.165 C  
BRANCH   5   6
HETATM    6  C   UNL     1     -11.828  12.442  63.461  1.00  0.00    -0.605 C  
BRANCH   6   7
HETATM    7  C   UNL     1     -10.359  12.015  63.573  1.00  0.00    -0.492 C  
BRANCH   7   8
HETATM    8  C   UNL     1     -10.214  10.616  64.186  1.00  0.00    -0.365 C  
BRANCH   8   9
HETATM    9  C   UNL     1      -8.812  10.049  63.951  1.00  0.00    -0.250 C  
BRANCH   9  10
HETATM   10  C   UNL     1      -8.200   9.496  65.241  1.00  0.00    -0.131 C  
BRANCH  10  11
HETATM   11  C   UNL     1      -9.164   8.609  66.036  1.00  0.00    -0.276 C  
BRANCH  11  12
HETATM   12  C   UNL     1      -8.451   7.649  66.987  1.00  0.00    -0.125 C  
BRANCH  12  13
HETATM   13  C   UNL     1      -9.319   6.437  67.315  1.00  0.00    -0.125 C  
BRANCH  13  14
HETATM   14  C   UNL     1      -8.851   5.791  68.611  1.00  0.00    -0.110 C  
BRANCH  14  15
HETATM   15  N   UNL     1      -9.021   6.681  69.750  1.00  0.00    -0.143 N  
HETATM   16  C   UNL     1     -10.284   6.879  70.276  1.00  0.00    -0.192 C  
HETATM   17  C   UNL     1      -7.846   7.308  70.339  1.00  0.00    -0.099 C  
HETATM   18  O   UNL     1     -11.313   6.408  69.802  1.00  0.00    -0.384 OA 
BRANCH  16  19
HETATM   19  O   UNL     1     -10.271   7.786  71.325  1.00  0.00    -0.193 OA 
BRANCH  19  20
HETATM   20  C   UNL     1     -11.009   8.945  71.063  1.00  0.00    -0.276 A  
HETATM   21  C   UNL     1     -12.043   9.253  71.940  1.00  0.00    -0.440 A  
HETATM   22  C   UNL     1     -12.715  10.459  71.773  1.00  0.00    -0.525 A  
HETATM   23  C   UNL     1     -12.358  11.337  70.744  1.00  0.00    -0.495 A  
HETATM   24  C   UNL     1     -11.322  11.024  69.848  1.00  0.00    -0.287 A  
HETATM   25  C   UNL     1     -10.627   9.831  70.045  1.00  0.00    -0.320 A  
BRANCH  24  26
HETATM   26  N   UNL     1     -10.879  11.992  68.762  1.00  0.00    -0.226 N  
HETATM   27  C   UNL     1      -9.366  12.183  68.782  1.00  0.00     0.083 C  
HETATM   28  C   UNL     1     -11.509  13.373  68.979  1.00  0.00    -0.301 C  
HETATM   29  C   UNL     1     -11.318  11.416  67.423  1.00  0.00    -0.288 C  
ENDBRANCH  24  26
ENDBRANCH  19  20
ENDBRANCH  16  19
ENDBRANCH  14  15
ENDBRANCH  13  14
ENDBRANCH  12  13
ENDBRANCH  11  12
ENDBRANCH  10  11
ENDBRANCH   9  10
ENDBRANCH   8   9
ENDBRANCH   7   8
ENDBRANCH   6   7
ENDBRANCH   5   6
ENDBRANCH   2   5
BRANCH   4  30
HETATM   30  O   UNL     1     -11.095  15.620  66.782  1.00  0.00    -0.284 OA 
BRANCH  30  31
HETATM   31  C   UNL     1     -10.173  16.603  67.179  1.00  0.00    -0.290 A  
HETATM   32  C   UNL     1     -10.532  17.952  67.131  1.00  0.00    -0.359 A  
HETATM   33  C   UNL     1      -8.950  16.195  67.720  1.00  0.00    -0.192 A  
HETATM   34  C   UNL     1      -8.041  17.163  68.182  1.00  0.00    -0.219 A  
HETATM   35  C   UNL     1      -9.637  18.910  67.571  1.00  0.00    -0.347 A  
HETATM   36  C   UNL     1      -8.401  18.520  68.083  1.00  0.00    -0.316 A  
BRANCH  34  37
HETATM   37  N   UNL     1      -6.653  16.765  68.672  1.00  0.00    -0.161 N  
HETATM   38  C   UNL     1      -5.874  17.974  69.189  1.00  0.00    -0.218 C  
HETATM   39  C   UNL     1      -6.749  15.769  69.828  1.00  0.00    -0.140 C  
HETATM   40  C   UNL     1      -5.912  16.157  67.480  1.00  0.00    -0.161 C  
ENDBRANCH  34  37
ENDBRANCH  30  31
ENDBRANCH   4  30
TORSDOF 17
ENDMDL
MODEL       86
REMARK 921   NORMALIZED FREE ENERGY PREDICTED BY IDOCK:   -5.03 KCAL/MOL
REMARK 922        TOTAL FREE ENERGY PREDICTED BY IDOCK:  -12.27 KCAL/MOL
REMARK 923 INTER-LIGAND FREE ENERGY PREDICTED BY IDOCK:   -9.80 KCAL/MOL
REMARK 924 INTRA-LIGAND FREE ENERGY PREDICTED BY IDOCK:   -2.47 KCAL/MOL
REMARK 927      BINDING AFFINITY PREDICTED BY RF-SCORE:    0.00 PKD
ROOT
HETATM    1  C   UNL     1     -11.912  14.065  70.394  1.00  0.00    -0.328 C  
HETATM    2  N   UNL     1     -12.100  13.088  69.334  1.00  0.00    -0.255 N  
HETATM    3  O   UNL     1     -12.391  10.851  68.808  1.00  0.00    -0.495 OA 
HETATM    4  C   UNL     1     -12.352  11.757  69.635  1.00  0.00    -0.079 C  
ENDROOT
BRANCH   2   5
HETATM    5  C   UNL     1     -11.788  13.475  67.960  1.00  0.00    -0.365 C  
BRANCH   5   6
HETATM    6  C   UNL     1     -10.300  13.320  67.616  1.00  0.00    -0.230 C  
BRANCH   6   7
HETATM    7  C   UNL     1      -9.858  14.353  66.573  1.00  0.00    -0.298 C  
BRANCH   7   8
HETATM    8  C   UNL     1     -11.051  14.948  65.815  1.00  0.00    -0.342 C  
BRANCH   8   9
HETATM    9  C   UNL     1     -11.060  14.498  64.351  1.00  0.00    -0.176 C  
BRANCH   9  10
HETATM   10  C   UNL     1     -12.286  13.637  64.030  1.00  0.00    -0.443 C  
BRANCH  10  11
HETATM   11  C   UNL     1     -11.930  12.201  63.633  1.00  0.00    -0.628 C  
BRANCH  11  12
HETATM   12  C   UNL     1     -10.426  11.966  63.514  1.00  0.00    -0.505 C  
BRANCH  12  13
HETATM   13  C   UNL     1     -10.033  10.579  64.018  1.00  0.00    -0.363 C  
BRANCH  13  14
HETATM   14  C   UNL     1      -8.839  10.680  64.955  1.00  0.00    -0.197 C  
BRANCH  14  15
HETATM   15  N   UNL     1      -9.014   9.857  66.143  1.00  0.00    -0.146 N  
HETATM   16  C   UNL     1      -7.905   9.309  66.760  1.00  0.00    -0.104 C  
HETATM   17  C   UNL     1     -10.354   9.670  66.681  1.00  0.00    -0.208 C  
HETATM   18  O   UNL     1      -6.759   9.401  66.334  1.00  0.00    -0.073 OA 
BRANCH  16  19
HETATM   19  O   UNL     1      -8.255   8.521  67.847  1.00  0.00    -0.117 OA 
BRANCH  19  20
HETATM   20  C   UNL     1      -7.836   7.192  67.725  1.00  0.00    -0.114 A  
HETATM   21  C   UNL     1      -6.777   6.783  68.528  1.00  0.00    -0.064 A  
HETATM   22  C   UNL     1      -6.418   5.440  68.515  1.00  0.00    -0.040 A  
HETATM   23  C   UNL     1      -7.106   4.526  67.709  1.00  0.00    -0.064 A  
HETATM   24  C   UNL     1      -8.169   4.938  66.887  1.00  0.00    -0.107 A  
HETATM   25  C   UNL     1      -8.549   6.279  66.935  1.00  0.00    -0.113 A  
BRANCH  24  26
HETATM   26  N   UNL     1      -8.968   3.950  66.052  1.00  0.00    -0.126 N  
HETATM   27  C   UNL     1      -8.242   3.617  64.753  1.00  0.00    -0.090 C  
HETATM   28  C   UNL     1     -10.329   4.545  65.666  1.00  0.00    -0.247 C  
HETATM   29  C   UNL     1      -9.161   2.690  66.884  1.00  0.00    -0.139 C  
ENDBRANCH  24  26
ENDBRANCH  19  20
ENDBRANCH  16  19
ENDBRANCH  14  15
ENDBRANCH  13  14
ENDBRANCH  12  13
ENDBRANCH  11  12
ENDBRANCH  10  11
ENDBRANCH   9  10
ENDBRANCH   8   9
ENDBRANCH   7   8
ENDBRANCH   6   7
ENDBRANCH   5   6
ENDBRANCH   2   5
BRANCH   4  30
HETATM   30  O   UNL     1     -12.486  11.535  71.009  1.00  0.00    -0.380 OA 
BRANCH  30  31
HETATM   31  C   UNL     1     -12.495  10.173  71.357  1.00  0.00    -0.423 A  
HETATM   32  C   UNL     1     -13.711   9.505  71.514  1.00  0.00    -0.341 A  
HETATM   33  C   UNL     1     -11.276   9.492  71.432  1.00  0.00    -0.452 A  
HETATM   34  C   UNL     1     -11.269   8.116  71.717  1.00  0.00    -0.272 A  
HETATM   35  C   UNL     1     -13.712   8.153  71.808  1.00  0.00    -0.422 A  
HETATM   36  C   UNL     1     -12.503   7.468  71.917  1.00  0.00    -0.335 A  
BRANCH  34  37
HETATM   37  N   UNL     1      -9.959   7.363  71.919  1.00  0.00    -0.170 N  
HETATM   38  C   UNL     1      -9.800   6.233  70.901  1.00  0.00    -0.181 C  
HETATM   39  C   UNL     1      -8.762   8.296  71.738  1.00  0.00    -0.164 C  
HETATM   40  C   UNL     1      -9.992   6.773  73.330  1.00  0.00    -0.203 C  
ENDBRANCH  34  37
ENDBRANCH  30  31
ENDBRANCH   4  30
TORSDOF 17
ENDMDL
MODEL       87
REMARK 921   NORMALIZED FREE ENERGY PREDICTED BY IDOCK:   -5.03 KCAL/MOL
REMARK 922        TOTAL FREE ENERGY PREDICTED BY IDOCK:  -12.27 KCAL/MOL
REMARK 923 INTER-LIGAND FREE ENERGY PREDICTED BY IDOCK:  -10.08 KCAL/MOL
REMARK 924 INTRA-LIGAND FREE ENERGY PREDICTED BY IDOCK:   -2.19 KCAL/MOL
REMARK 927      BINDING AFFINITY PREDICTED BY RF-SCORE:    0.00 PKD
ROOT
HETATM    1  C   UNL     1     -11.183  13.452  64.249  1.00  0.00    -0.380 C  
HETATM    2  N   UNL     1     -11.220  12.314  65.151  1.00  0.00    -0.315 N  
HETATM    3  O   UNL     1     -11.694  11.568  67.293  1.00  0.00    -0.576 OA 
HETATM    4  C   UNL     1     -11.745  12.439  66.430  1.00  0.00    -0.391 C  
ENDROOT
BRANCH   2   5
HETATM    5  C   UNL     1     -10.486  11.104  64.784  1.00  0.00    -0.323 C  
BRANCH   5   6
HETATM    6  C   UNL     1     -10.033  11.100  63.317  1.00  0.00    -0.419 C  
BRANCH   6   7
HETATM    7  C   UNL     1      -9.081   9.932  63.031  1.00  0.00    -0.291 C  
BRANCH   7   8
HETATM    8  C   UNL     1      -8.555   9.292  64.322  1.00  0.00    -0.214 C  
BRANCH   8   9
HETATM    9  C   UNL     1      -7.419   8.307  64.032  1.00  0.00    -0.110 C  
BRANCH   9  10
HETATM   10  C   UNL     1      -7.944   6.883  63.825  1.00  0.00    -0.064 C  
BRANCH  10  11
HETATM   11  C   UNL     1      -6.881   5.917  63.292  1.00  0.00    -0.037 C  
BRANCH  11  12
HETATM   12  C   UNL     1      -7.297   4.451  63.394  1.00  0.00    -0.053 C  
BRANCH  12  13
HETATM   13  C   UNL     1      -7.147   3.924  64.819  1.00  0.00    -0.065 C  
BRANCH  13  14
HETATM   14  C   UNL     1      -8.338   3.049  65.183  1.00  0.00    -0.096 C  
BRANCH  14  15
HETATM   15  N   UNL     1      -9.494   3.845  65.569  1.00  0.00    -0.161 N  
HETATM   16  C   UNL     1      -9.606   4.295  66.872  1.00  0.00    -0.203 C  
HETATM   17  C   UNL     1     -10.485   4.189  64.559  1.00  0.00    -0.157 C  
HETATM   18  O   UNL     1      -8.825   4.009  67.773  1.00  0.00    -0.104 OA 
BRANCH  16  19
HETATM   19  O   UNL     1     -10.785   4.998  67.076  1.00  0.00    -0.158 OA 
BRANCH  19  20
HETATM   20  C   UNL     1     -10.599   6.199  67.770  1.00  0.00    -0.269 A  
HETATM   21  C   UNL     1     -10.112   7.282  67.048  1.00  0.00    -0.316 A  
HETATM   22  C   UNL     1     -10.031   8.517  67.682  1.00  0.00    -0.253 A  
HETATM   23  C   UNL     1     -10.428   8.661  69.015  1.00  0.00    -0.216 A  
HETATM   24  C   UNL     1     -10.910   7.565  69.753  1.00  0.00    -0.225 A  
HETATM   25  C   UNL     1     -11.025   6.339  69.099  1.00  0.00    -0.442 A  
BRANCH  24  26
HETATM   26  N   UNL     1     -11.404   7.714  71.183  1.00  0.00    -0.262 N  
HETATM   27  C   UNL     1     -10.520   6.935  72.152  1.00  0.00    -0.206 C  
HETATM   28  C   UNL     1     -12.826   7.156  71.325  1.00  0.00    -0.349 C  
HETATM   29  C   UNL     1     -11.382   9.196  71.528  1.00  0.00    -0.368 C  
ENDBRANCH  24  26
ENDBRANCH  19  20
ENDBRANCH  16  19
ENDBRANCH  14  15
ENDBRANCH  13  14
ENDBRANCH  12  13
ENDBRANCH  11  12
ENDBRANCH  10  11
ENDBRANCH   9  10
ENDBRANCH   8   9
ENDBRANCH   7   8
ENDBRANCH   6   7
ENDBRANCH   5   6
ENDBRANCH   2   5
BRANCH   4  30
HETATM   30  O   UNL     1     -12.285  13.707  66.664  1.00  0.00    -0.415 OA 
BRANCH  30  31
HETATM   31  C   UNL     1     -11.613  14.425  67.669  1.00  0.00    -0.370 A  
HETATM   32  C   UNL     1     -12.118  14.435  68.970  1.00  0.00    -0.298 A  
HETATM   33  C   UNL     1     -10.388  15.024  67.359  1.00  0.00    -0.238 A  
HETATM   34  C   UNL     1      -9.671  15.692  68.367  1.00  0.00    -0.202 A  
HETATM   35  C   UNL     1     -11.425  15.101  69.965  1.00  0.00    -0.315 A  
HETATM   36  C   UNL     1     -10.218  15.731  69.664  1.00  0.00    -0.289 A  
BRANCH  34  37
HETATM   37  N   UNL     1      -8.391  16.454  68.046  1.00  0.00    -0.175 N  
HETATM   38  C   UNL     1      -7.199  15.905  68.831  1.00  0.00    -0.158 C  
HETATM   39  C   UNL     1      -8.042  16.330  66.562  1.00  0.00    -0.302 C  
HETATM   40  C   UNL     1      -8.626  17.914  68.437  1.00  0.00    -0.293 C  
ENDBRANCH  34  37
ENDBRANCH  30  31
ENDBRANCH   4  30
TORSDOF 17
ENDMDL
MODEL       88
REMARK 921   NORMALIZED FREE ENERGY PREDICTED BY IDOCK:   -5.01 KCAL/MOL
REMARK 922        TOTAL FREE ENERGY PREDICTED BY IDOCK:  -12.22 KCAL/MOL
REMARK 923 INTER-LIGAND FREE ENERGY PREDICTED BY IDOCK:  -10.31 KCAL/MOL
REMARK 924 INTRA-LIGAND FREE ENERGY PREDICTED BY IDOCK:   -1.91 KCAL/MOL
REMARK 927      BINDING AFFINITY PREDICTED BY RF-SCORE:    0.00 PKD
ROOT
HETATM    1  C   UNL     1      -7.878   7.815  67.542  1.00  0.00    -0.122 C  
HETATM    2  N   UNL     1      -9.104   7.105  67.217  1.00  0.00    -0.121 N  
HETATM    3  O   UNL     1     -11.351   6.822  67.702  1.00  0.00    -0.208 OA 
HETATM    4  C   UNL     1     -10.304   7.451  67.821  1.00  0.00    -0.213 C  
ENDROOT
BRANCH   2   5
HETATM    5  C   UNL     1      -9.016   5.877  66.429  1.00  0.00    -0.140 C  
BRANCH   5   6
HETATM    6  C   UNL     1      -8.024   5.982  65.263  1.00  0.00    -0.117 C  
BRANCH   6   7
HETATM    7  C   UNL     1      -8.617   5.403  63.973  1.00  0.00    -0.018 C  
BRANCH   7   8
HETATM    8  C   UNL     1      -8.180   6.197  62.735  1.00  0.00    -0.049 C  
BRANCH   8   9
HETATM    9  C   UNL     1      -7.220   7.329  63.111  1.00  0.00    -0.078 C  
BRANCH   9  10
HETATM   10  C   UNL     1      -7.699   8.680  62.571  1.00  0.00    -0.122 C  
BRANCH  10  11
HETATM   11  C   UNL     1      -7.725   9.783  63.634  1.00  0.00    -0.137 C  
BRANCH  11  12
HETATM   12  C   UNL     1      -8.715   9.505  64.763  1.00  0.00    -0.225 C  
BRANCH  12  13
HETATM   13  C   UNL     1      -9.035  10.772  65.553  1.00  0.00    -0.210 C  
BRANCH  13  14
HETATM   14  C   UNL     1     -10.523  10.836  65.863  1.00  0.00    -0.204 C  
BRANCH  14  15
HETATM   15  N   UNL     1     -10.954  12.193  66.163  1.00  0.00    -0.285 N  
HETATM   16  C   UNL     1     -11.628  12.447  67.343  1.00  0.00    -0.365 C  
HETATM   17  C   UNL     1     -10.622  13.263  65.233  1.00  0.00    -0.315 C  
HETATM   18  O   UNL     1     -11.967  11.585  68.146  1.00  0.00    -0.571 OA 
BRANCH  16  19
HETATM   19  O   UNL     1     -12.002  13.779  67.449  1.00  0.00    -0.379 OA 
BRANCH  19  20
HETATM   20  C   UNL     1     -11.676  14.349  68.684  1.00  0.00    -0.332 A  
HETATM   21  C   UNL     1     -10.578  15.200  68.723  1.00  0.00    -0.236 A  
HETATM   22  C   UNL     1     -10.303  15.872  69.909  1.00  0.00    -0.282 A  
HETATM   23  C   UNL     1     -11.114  15.692  71.034  1.00  0.00    -0.365 A  
HETATM   24  C   UNL     1     -12.218  14.823  71.003  1.00  0.00    -0.329 A  
HETATM   25  C   UNL     1     -12.510  14.181  69.799  1.00  0.00    -0.266 A  
BRANCH  24  26
HETATM   26  N   UNL     1     -13.146  14.659  72.196  1.00  0.00    -0.325 N  
HETATM   27  C   UNL     1     -14.369  15.561  72.068  1.00  0.00    -0.496 C  
HETATM   28  C   UNL     1     -12.432  15.054  73.495  1.00  0.00    -0.513 C  
HETATM   29  C   UNL     1     -13.574  13.200  72.253  1.00  0.00    -0.581 C  
ENDBRANCH  24  26
ENDBRANCH  19  20
ENDBRANCH  16  19
ENDBRANCH  14  15
ENDBRANCH  13  14
ENDBRANCH  12  13
ENDBRANCH  11  12
ENDBRANCH  10  11
ENDBRANCH   9  10
ENDBRANCH   8   9
ENDBRANCH   7   8
ENDBRANCH   6   7
ENDBRANCH   5   6
ENDBRANCH   2   5
BRANCH   4  30
HETATM   30  O   UNL     1     -10.182   8.568  68.653  1.00  0.00    -0.190 OA 
BRANCH  30  31
HETATM   31  C   UNL     1     -10.561   8.320  69.983  1.00  0.00    -0.235 A  
HETATM   32  C   UNL     1     -11.450   9.184  70.625  1.00  0.00    -0.310 A  
HETATM   33  C   UNL     1     -10.117   7.145  70.598  1.00  0.00    -0.198 A  
HETATM   34  C   UNL     1     -10.537   6.849  71.906  1.00  0.00    -0.211 A  
HETATM   35  C   UNL     1     -11.858   8.905  71.917  1.00  0.00    -0.440 A  
HETATM   36  C   UNL     1     -11.398   7.754  72.554  1.00  0.00    -0.429 A  
BRANCH  34  37
HETATM   37  N   UNL     1      -9.986   5.638  72.651  1.00  0.00    -0.172 N  
HETATM   38  C   UNL     1     -10.951   5.163  73.739  1.00  0.00    -0.234 C  
HETATM   39  C   UNL     1      -9.776   4.461  71.698  1.00  0.00    -0.171 C  
HETATM   40  C   UNL     1      -8.668   6.068  73.296  1.00  0.00    -0.120 C  
ENDBRANCH  34  37
ENDBRANCH  30  31
ENDBRANCH   4  30
TORSDOF 17
ENDMDL
MODEL       89
REMARK 921   NORMALIZED FREE ENERGY PREDICTED BY IDOCK:   -4.99 KCAL/MOL
REMARK 922        TOTAL FREE ENERGY PREDICTED BY IDOCK:  -12.18 KCAL/MOL
REMARK 923 INTER-LIGAND FREE ENERGY PREDICTED BY IDOCK:   -9.34 KCAL/MOL
REMARK 924 INTRA-LIGAND FREE ENERGY PREDICTED BY IDOCK:   -2.84 KCAL/MOL
REMARK 927      BINDING AFFINITY PREDICTED BY RF-SCORE:    0.00 PKD
ROOT
HETATM    1  C   UNL     1      -8.238   7.161  65.397  1.00  0.00    -0.137 C  
HETATM    2  N   UNL     1      -7.437   7.817  66.416  1.00  0.00    -0.082 N  
HETATM    3  O   UNL     1      -7.426   8.839  68.495  1.00  0.00    -0.086 OA 
HETATM    4  C   UNL     1      -7.994   8.169  67.637  1.00  0.00    -0.122 C  
ENDROOT
BRANCH   2   5
HETATM    5  C   UNL     1      -6.110   8.312  66.054  1.00  0.00    -0.045 C  
BRANCH   5   6
HETATM    6  C   UNL     1      -6.158   9.575  65.183  1.00  0.00    -0.072 C  
BRANCH   6   7
HETATM    7  C   UNL     1      -5.469  10.757  65.876  1.00  0.00    -0.133 C  
BRANCH   7   8
HETATM    8  C   UNL     1      -6.438  11.540  66.770  1.00  0.00    -0.128 C  
BRANCH   8   9
HETATM    9  C   UNL     1      -5.704  12.200  67.941  1.00  0.00    -0.069 C  
BRANCH   9  10
HETATM   10  C   UNL     1      -6.510  13.360  68.534  1.00  0.00    -0.086 C  
BRANCH  10  11
HETATM   11  C   UNL     1      -7.087  14.301  67.471  1.00  0.00    -0.189 C  
BRANCH  11  12
HETATM   12  C   UNL     1      -8.413  14.934  67.887  1.00  0.00    -0.154 C  
BRANCH  12  13
HETATM   13  C   UNL     1      -9.463  14.810  66.786  1.00  0.00    -0.271 C  
BRANCH  13  14
HETATM   14  C   UNL     1      -9.544  13.372  66.297  1.00  0.00    -0.235 C  
BRANCH  14  15
HETATM   15  N   UNL     1     -10.730  12.696  66.802  1.00  0.00    -0.237 N  
HETATM   16  C   UNL     1     -10.622  11.868  67.905  1.00  0.00    -0.201 C  
HETATM   17  C   UNL     1     -12.013  12.944  66.160  1.00  0.00    -0.429 C  
HETATM   18  O   UNL     1      -9.566  11.592  68.463  1.00  0.00    -0.196 OA 
BRANCH  16  19
HETATM   19  O   UNL     1     -11.834  11.273  68.223  1.00  0.00    -0.516 OA 
BRANCH  19  20
HETATM   20  C   UNL     1     -12.318  11.644  69.483  1.00  0.00    -0.089 A  
HETATM   21  C   UNL     1     -12.541  10.627  70.403  1.00  0.00    -0.395 A  
HETATM   22  C   UNL     1     -12.907  10.975  71.699  1.00  0.00    -0.540 A  
HETATM   23  C   UNL     1     -13.049  12.319  72.062  1.00  0.00    -0.461 A  
HETATM   24  C   UNL     1     -12.837  13.349  71.130  1.00  0.00    -0.291 A  
HETATM   25  C   UNL     1     -12.433  12.994  69.844  1.00  0.00    -0.061 A  
BRANCH  24  26
HETATM   26  N   UNL     1     -12.928  14.816  71.520  1.00  0.00    -0.315 N  
HETATM   27  C   UNL     1     -14.380  15.276  71.595  1.00  0.00    -0.561 C  
HETATM   28  C   UNL     1     -12.231  15.698  70.476  1.00  0.00    -0.399 C  
HETATM   29  C   UNL     1     -12.257  14.976  72.877  1.00  0.00    -0.344 C  
ENDBRANCH  24  26
ENDBRANCH  19  20
ENDBRANCH  16  19
ENDBRANCH  14  15
ENDBRANCH  13  14
ENDBRANCH  12  13
ENDBRANCH  11  12
ENDBRANCH  10  11
ENDBRANCH   9  10
ENDBRANCH   8   9
ENDBRANCH   7   8
ENDBRANCH   6   7
ENDBRANCH   5   6
ENDBRANCH   2   5
BRANCH   4  30
HETATM   30  O   UNL     1      -9.318   7.739  67.765  1.00  0.00    -0.142 OA 
BRANCH  30  31
HETATM   31  C   UNL     1      -9.508   6.815  68.808  1.00  0.00    -0.130 A  
HETATM   32  C   UNL     1      -8.832   5.594  68.785  1.00  0.00    -0.108 A  
HETATM   33  C   UNL     1     -10.292   7.192  69.902  1.00  0.00    -0.224 A  
HETATM   34  C   UNL     1     -10.441   6.306  70.983  1.00  0.00    -0.225 A  
HETATM   35  C   UNL     1      -8.984   4.711  69.839  1.00  0.00    -0.144 A  
HETATM   36  C   UNL     1      -9.788   5.061  70.923  1.00  0.00    -0.274 A  
BRANCH  34  37
HETATM   37  N   UNL     1     -11.377   6.633  72.142  1.00  0.00    -0.262 N  
HETATM   38  C   UNL     1     -10.768   7.679  73.076  1.00  0.00    -0.391 C  
HETATM   39  C   UNL     1     -12.697   7.208  71.629  1.00  0.00    -0.379 C  
HETATM   40  C   UNL     1     -11.605   5.334  72.916  1.00  0.00    -0.219 C  
ENDBRANCH  34  37
ENDBRANCH  30  31
ENDBRANCH   4  30
TORSDOF 17
ENDMDL
MODEL       90
REMARK 921   NORMALIZED FREE ENERGY PREDICTED BY IDOCK:   -4.96 KCAL/MOL
REMARK 922        TOTAL FREE ENERGY PREDICTED BY IDOCK:  -12.13 KCAL/MOL
REMARK 923 INTER-LIGAND FREE ENERGY PREDICTED BY IDOCK:   -8.73 KCAL/MOL
REMARK 924 INTRA-LIGAND FREE ENERGY PREDICTED BY IDOCK:   -3.40 KCAL/MOL
REMARK 927      BINDING AFFINITY PREDICTED BY RF-SCORE:    0.00 PKD
ROOT
HETATM    1  C   UNL     1     -12.698  12.536  64.362  1.00  0.00    -0.358 C  
HETATM    2  N   UNL     1     -11.812  13.095  65.369  1.00  0.00    -0.351 N  
HETATM    3  O   UNL     1     -10.565  12.684  67.278  1.00  0.00    -0.226 OA 
HETATM    4  C   UNL     1     -11.216  12.278  66.321  1.00  0.00    -0.323 C  
ENDROOT
BRANCH   2   5
HETATM    5  C   UNL     1     -11.742  14.547  65.515  1.00  0.00    -0.343 C  
BRANCH   5   6
HETATM    6  C   UNL     1     -10.421  15.139  65.003  1.00  0.00    -0.418 C  
BRANCH   6   7
HETATM    7  C   UNL     1      -9.702  15.929  66.103  1.00  0.00    -0.351 C  
BRANCH   7   8
HETATM    8  C   UNL     1     -10.633  16.255  67.277  1.00  0.00    -0.298 C  
BRANCH   8   9
HETATM    9  C   UNL     1      -9.874  16.947  68.414  1.00  0.00    -0.266 C  
BRANCH   9  10
HETATM   10  C   UNL     1      -8.452  17.330  67.993  1.00  0.00    -0.229 C  
BRANCH  10  11
HETATM   11  C   UNL     1      -7.373  16.766  68.923  1.00  0.00    -0.235 C  
BRANCH  11  12
HETATM   12  C   UNL     1      -7.471  15.253  69.108  1.00  0.00    -0.179 C  
BRANCH  12  13
HETATM   13  C   UNL     1      -6.524  14.510  68.169  1.00  0.00    -0.143 C  
BRANCH  13  14
HETATM   14  C   UNL     1      -5.939  13.293  68.868  1.00  0.00    -0.079 C  
BRANCH  14  15
HETATM   15  N   UNL     1      -6.677  12.080  68.550  1.00  0.00    -0.061 N  
HETATM   16  C   UNL     1      -6.878  11.127  69.532  1.00  0.00    -0.127 C  
HETATM   17  C   UNL     1      -7.229  11.919  67.212  1.00  0.00    -0.147 C  
HETATM   18  O   UNL     1      -6.408  11.190  70.663  1.00  0.00    -0.333 OA 
BRANCH  16  19
HETATM   19  O   UNL     1      -7.560  10.021  69.048  1.00  0.00    -0.079 OA 
BRANCH  19  20
HETATM   20  C   UNL     1      -8.714   9.719  69.779  1.00  0.00    -0.212 A  
HETATM   21  C   UNL     1      -9.827  10.526  69.573  1.00  0.00    -0.170 A  
HETATM   22  C   UNL     1     -11.021  10.177  70.194  1.00  0.00    -0.376 A  
HETATM   23  C   UNL     1     -11.095   9.043  71.009  1.00  0.00    -0.356 A  
HETATM   24  C   UNL     1      -9.969   8.231  71.230  1.00  0.00    -0.192 A  
HETATM   25  C   UNL     1      -8.786   8.565  70.572  1.00  0.00    -0.163 A  
BRANCH  24  26
HETATM   26  N   UNL     1     -10.045   6.961  72.062  1.00  0.00    -0.186 N  
HETATM   27  C   UNL     1     -10.856   7.186  73.334  1.00  0.00    -0.319 C  
HETATM   28  C   UNL     1      -8.643   6.514  72.497  1.00  0.00    -0.121 C  
HETATM   29  C   UNL     1     -10.699   5.886  71.206  1.00  0.00    -0.264 C  
ENDBRANCH  24  26
ENDBRANCH  19  20
ENDBRANCH  16  19
ENDBRANCH  14  15
ENDBRANCH  13  14
ENDBRANCH  12  13
ENDBRANCH  11  12
ENDBRANCH  10  11
ENDBRANCH   9  10
ENDBRANCH   8   9
ENDBRANCH   7   8
ENDBRANCH   6   7
ENDBRANCH   5   6
ENDBRANCH   2   5
BRANCH   4  30
HETATM   30  O   UNL     1     -11.499  10.924  66.116  1.00  0.00     0.002 OA 
BRANCH  30  31
HETATM   31  C   UNL     1     -10.382  10.175  65.709  1.00  0.00    -0.146 A  
HETATM   32  C   UNL     1      -9.539  10.671  64.712  1.00  0.00    -0.334 A  
HETATM   33  C   UNL     1     -10.080   8.994  66.394  1.00  0.00    -0.351 A  
HETATM   34  C   UNL     1      -8.932   8.265  66.043  1.00  0.00    -0.181 A  
HETATM   35  C   UNL     1      -8.414   9.952  64.351  1.00  0.00    -0.183 A  
HETATM   36  C   UNL     1      -8.118   8.756  65.004  1.00  0.00    -0.144 A  
BRANCH  34  37
HETATM   37  N   UNL     1      -8.631   6.916  66.688  1.00  0.00    -0.120 N  
HETATM   38  C   UNL     1      -8.540   5.803  65.643  1.00  0.00    -0.151 C  
HETATM   39  C   UNL     1      -7.289   6.950  67.419  1.00  0.00    -0.092 C  
HETATM   40  C   UNL     1      -9.778   6.613  67.652  1.00  0.00    -0.124 C  
ENDBRANCH  34  37
ENDBRANCH  30  31
ENDBRANCH   4  30
TORSDOF 17
ENDMDL
MODEL       91
REMARK 921   NORMALIZED FREE ENERGY PREDICTED BY IDOCK:   -4.94 KCAL/MOL
REMARK 922        TOTAL FREE ENERGY PREDICTED BY IDOCK:  -12.09 KCAL/MOL
REMARK 923 INTER-LIGAND FREE ENERGY PREDICTED BY IDOCK:  -10.53 KCAL/MOL
REMARK 924 INTRA-LIGAND FREE ENERGY PREDICTED BY IDOCK:   -1.57 KCAL/MOL
REMARK 927      BINDING AFFINITY PREDICTED BY RF-SCORE:    0.00 PKD
ROOT
HETATM    1  C   UNL     1      -7.956   5.320  73.475  1.00  0.00    -0.110 C  
HETATM    2  N   UNL     1      -9.308   4.805  73.607  1.00  0.00    -0.125 N  
HETATM    3  O   UNL     1     -10.875   3.285  72.831  1.00  0.00    -0.128 OA 
HETATM    4  C   UNL     1      -9.720   3.699  72.876  1.00  0.00    -0.135 C  
ENDROOT
BRANCH   2   5
HETATM    5  C   UNL     1     -10.294   5.602  74.334  1.00  0.00    -0.258 C  
BRANCH   5   6
HETATM    6  C   UNL     1     -10.340   7.066  73.873  1.00  0.00    -0.386 C  
BRANCH   6   7
HETATM    7  C   UNL     1     -11.132   7.215  72.568  1.00  0.00    -0.317 C  
BRANCH   7   8
HETATM    8  C   UNL     1     -10.648   8.411  71.739  1.00  0.00    -0.352 C  
BRANCH   8   9
HETATM    9  C   UNL     1     -11.771   8.967  70.858  1.00  0.00    -0.312 C  
BRANCH   9  10
HETATM   10  C   UNL     1     -12.533  10.096  71.558  1.00  0.00    -0.526 C  
BRANCH  10  11
HETATM   11  C   UNL     1     -12.528  11.410  70.770  1.00  0.00    -0.460 C  
BRANCH  11  12
HETATM   12  C   UNL     1     -11.538  11.408  69.607  1.00  0.00    -0.399 C  
BRANCH  12  13
HETATM   13  C   UNL     1     -11.910  12.448  68.553  1.00  0.00    -0.352 C  
BRANCH  13  14
HETATM   14  C   UNL     1     -11.554  13.844  69.043  1.00  0.00    -0.310 C  
BRANCH  14  15
HETATM   15  N   UNL     1     -11.456  14.793  67.944  1.00  0.00    -0.330 N  
HETATM   16  C   UNL     1     -11.096  16.102  68.206  1.00  0.00    -0.348 C  
HETATM   17  C   UNL     1     -11.695  14.328  66.585  1.00  0.00    -0.400 C  
HETATM   18  O   UNL     1     -10.919  16.560  69.330  1.00  0.00    -0.310 OA 
BRANCH  16  19
HETATM   19  O   UNL     1     -11.094  16.878  67.056  1.00  0.00    -0.025 OA 
BRANCH  19  20
HETATM   20  C   UNL     1     -10.192  17.946  67.111  1.00  0.00    -0.353 A  
HETATM   21  C   UNL     1     -10.723  19.218  67.288  1.00  0.00    -0.594 A  
HETATM   22  C   UNL     1      -9.846  20.282  67.465  1.00  0.00    -0.576 A  
HETATM   23  C   UNL     1      -8.463  20.073  67.462  1.00  0.00    -0.393 A  
HETATM   24  C   UNL     1      -7.922  18.790  67.272  1.00  0.00    -0.239 A  
HETATM   25  C   UNL     1      -8.808  17.723  67.133  1.00  0.00    -0.251 A  
BRANCH  24  26
HETATM   26  N   UNL     1      -6.424  18.534  67.326  1.00  0.00    -0.192 N  
HETATM   27  C   UNL     1      -5.667  19.789  67.748  1.00  0.00    -0.193 C  
HETATM   28  C   UNL     1      -5.893  18.133  65.944  1.00  0.00    -0.208 C  
HETATM   29  C   UNL     1      -6.183  17.414  68.328  1.00  0.00    -0.162 C  
ENDBRANCH  24  26
ENDBRANCH  19  20
ENDBRANCH  16  19
ENDBRANCH  14  15
ENDBRANCH  13  14
ENDBRANCH  12  13
ENDBRANCH  11  12
ENDBRANCH  10  11
ENDBRANCH   9  10
ENDBRANCH   8   9
ENDBRANCH   7   8
ENDBRANCH   6   7
ENDBRANCH   5   6
ENDBRANCH   2   5
BRANCH   4  30
HETATM   30  O   UNL     1      -8.683   3.137  72.125  1.00  0.00    -0.079 OA 
BRANCH  30  31
HETATM   31  C   UNL     1      -8.941   3.116  70.744  1.00  0.00    -0.098 A  
HETATM   32  C   UNL     1      -9.044   1.894  70.076  1.00  0.00    -0.162 A  
HETATM   33  C   UNL     1      -9.195   4.326  70.091  1.00  0.00    -0.205 A  
HETATM   34  C   UNL     1      -9.517   4.318  68.722  1.00  0.00    -0.164 A  
HETATM   35  C   UNL     1      -9.347   1.880  68.726  1.00  0.00    -0.221 A  
HETATM   36  C   UNL     1      -9.572   3.080  68.055  1.00  0.00    -0.126 A  
BRANCH  34  37
HETATM   37  N   UNL     1      -9.689   5.621  67.950  1.00  0.00    -0.120 N  
HETATM   38  C   UNL     1      -8.522   6.578  68.198  1.00  0.00    -0.116 C  
HETATM   39  C   UNL     1      -9.737   5.359  66.445  1.00  0.00    -0.166 C  
HETATM   40  C   UNL     1     -10.986   6.267  68.439  1.00  0.00    -0.325 C  
ENDBRANCH  34  37
ENDBRANCH  30  31
ENDBRANCH   4  30
TORSDOF 17
ENDMDL
MODEL       92
REMARK 921   NORMALIZED FREE ENERGY PREDICTED BY IDOCK:   -4.93 KCAL/MOL
REMARK 922        TOTAL FREE ENERGY PREDICTED BY IDOCK:  -12.07 KCAL/MOL
REMARK 923 INTER-LIGAND FREE ENERGY PREDICTED BY IDOCK:  -10.42 KCAL/MOL
REMARK 924 INTRA-LIGAND FREE ENERGY PREDICTED BY IDOCK:   -1.65 KCAL/MOL
REMARK 927      BINDING AFFINITY PREDICTED BY RF-SCORE:    0.00 PKD
ROOT
HETATM    1  C   UNL     1     -12.283  14.623  64.206  1.00  0.00    -0.408 C  
HETATM    2  N   UNL     1     -12.290  13.292  64.790  1.00  0.00    -0.401 N  
HETATM    3  O   UNL     1     -12.001  12.031  66.711  1.00  0.00    -0.616 OA 
HETATM    4  C   UNL     1     -12.137  13.118  66.158  1.00  0.00    -0.417 C  
ENDROOT
BRANCH   2   5
HETATM    5  C   UNL     1     -12.223  12.135  63.899  1.00  0.00    -0.489 C  
BRANCH   5   6
HETATM    6  C   UNL     1     -10.797  11.829  63.420  1.00  0.00    -0.460 C  
BRANCH   6   7
HETATM    7  C   UNL     1     -10.235  10.578  64.106  1.00  0.00    -0.287 C  
BRANCH   7   8
HETATM    8  C   UNL     1      -8.764  10.754  64.502  1.00  0.00    -0.097 C  
BRANCH   8   9
HETATM    9  C   UNL     1      -8.593  10.744  66.024  1.00  0.00    -0.181 C  
BRANCH   9  10
HETATM   10  C   UNL     1      -7.119  10.645  66.428  1.00  0.00    -0.134 C  
BRANCH  10  11
HETATM   11  C   UNL     1      -6.710   9.242  66.889  1.00  0.00    -0.076 C  
BRANCH  11  12
HETATM   12  C   UNL     1      -5.950   8.457  65.822  1.00  0.00    -0.048 C  
BRANCH  12  13
HETATM   13  C   UNL     1      -6.518   7.051  65.648  1.00  0.00    -0.047 C  
BRANCH  13  14
HETATM   14  C   UNL     1      -7.950   7.122  65.141  1.00  0.00    -0.128 C  
BRANCH  14  15
HETATM   15  N   UNL     1      -8.815   6.176  65.830  1.00  0.00    -0.154 N  
HETATM   16  C   UNL     1      -9.937   6.638  66.493  1.00  0.00    -0.084 C  
HETATM   17  C   UNL     1      -8.502   4.755  65.767  1.00  0.00    -0.119 C  
HETATM   18  O   UNL     1     -10.232   7.823  66.612  1.00  0.00    -0.269 OA 
BRANCH  16  19
HETATM   19  O   UNL     1     -10.621   5.613  67.130  1.00  0.00    -0.245 OA 
BRANCH  19  20
HETATM   20  C   UNL     1     -10.541   5.678  68.525  1.00  0.00    -0.189 A  
HETATM   21  C   UNL     1      -9.829   4.673  69.169  1.00  0.00    -0.242 A  
HETATM   22  C   UNL     1      -9.632   4.777  70.542  1.00  0.00    -0.258 A  
HETATM   23  C   UNL     1     -10.144   5.867  71.254  1.00  0.00    -0.245 A  
HETATM   24  C   UNL     1     -10.876   6.878  70.608  1.00  0.00    -0.245 A  
HETATM   25  C   UNL     1     -11.036   6.787  69.226  1.00  0.00    -0.303 A  
BRANCH  24  26
HETATM   26  N   UNL     1     -11.388   8.100  71.354  1.00  0.00    -0.252 N  
HETATM   27  C   UNL     1     -10.518   8.406  72.569  1.00  0.00    -0.302 C  
HETATM   28  C   UNL     1     -12.812   7.861  71.871  1.00  0.00    -0.308 C  
HETATM   29  C   UNL     1     -11.369   9.274  70.386  1.00  0.00    -0.242 C  
ENDBRANCH  24  26
ENDBRANCH  19  20
ENDBRANCH  16  19
ENDBRANCH  14  15
ENDBRANCH  13  14
ENDBRANCH  12  13
ENDBRANCH  11  12
ENDBRANCH  10  11
ENDBRANCH   9  10
ENDBRANCH   8   9
ENDBRANCH   7   8
ENDBRANCH   6   7
ENDBRANCH   5   6
ENDBRANCH   2   5
BRANCH   4  30
HETATM   30  O   UNL     1     -12.080  14.332  66.849  1.00  0.00    -0.431 OA 
BRANCH  30  31
HETATM   31  C   UNL     1     -10.773  14.822  67.012  1.00  0.00    -0.300 A  
HETATM   32  C   UNL     1      -9.704  13.930  67.106  1.00  0.00    -0.244 A  
HETATM   33  C   UNL     1     -10.565  16.204  66.967  1.00  0.00    -0.292 A  
HETATM   34  C   UNL     1      -9.257  16.710  67.064  1.00  0.00    -0.220 A  
HETATM   35  C   UNL     1      -8.415  14.420  67.216  1.00  0.00    -0.229 A  
HETATM   36  C   UNL     1      -8.195  15.797  67.204  1.00  0.00    -0.237 A  
BRANCH  34  37
HETATM   37  N   UNL     1      -9.000  18.211  67.133  1.00  0.00    -0.252 N  
HETATM   38  C   UNL     1      -8.534  18.636  68.526  1.00  0.00    -0.338 C  
HETATM   39  C   UNL     1      -7.901  18.620  66.152  1.00  0.00    -0.218 C  
HETATM   40  C   UNL     1     -10.320  18.910  66.805  1.00  0.00    -0.414 C  
ENDBRANCH  34  37
ENDBRANCH  30  31
ENDBRANCH   4  30
TORSDOF 17
ENDMDL
MODEL       93
REMARK 921   NORMALIZED FREE ENERGY PREDICTED BY IDOCK:   -4.92 KCAL/MOL
REMARK 922        TOTAL FREE ENERGY PREDICTED BY IDOCK:  -12.05 KCAL/MOL
REMARK 923 INTER-LIGAND FREE ENERGY PREDICTED BY IDOCK:  -10.29 KCAL/MOL
REMARK 924 INTRA-LIGAND FREE ENERGY PREDICTED BY IDOCK:   -1.76 KCAL/MOL
REMARK 927      BINDING AFFINITY PREDICTED BY RF-SCORE:    0.00 PKD
ROOT
HETATM    1  C   UNL     1     -13.687  13.662  72.114  1.00  0.00    -0.555 C  
HETATM    2  N   UNL     1     -12.581  13.666  71.172  1.00  0.00    -0.365 N  
HETATM    3  O   UNL     1     -11.304  12.417  69.697  1.00  0.00    -0.217 OA 
HETATM    4  C   UNL     1     -12.293  12.540  70.413  1.00  0.00    -0.232 C  
ENDROOT
BRANCH   2   5
HETATM    5  C   UNL     1     -11.636  14.780  71.204  1.00  0.00    -0.270 C  
BRANCH   5   6
HETATM    6  C   UNL     1     -11.850  15.781  70.060  1.00  0.00    -0.365 C  
BRANCH   6   7
HETATM    7  C   UNL     1     -10.608  15.881  69.166  1.00  0.00    -0.246 C  
BRANCH   7   8
HETATM    8  C   UNL     1     -10.979  16.059  67.689  1.00  0.00    -0.284 C  
BRANCH   8   9
HETATM    9  C   UNL     1     -10.952  14.721  66.943  1.00  0.00    -0.328 C  
BRANCH   9  10
HETATM   10  C   UNL     1     -11.379  14.879  65.481  1.00  0.00    -0.339 C  
BRANCH  10  11
HETATM   11  C   UNL     1     -12.454  13.874  65.053  1.00  0.00    -0.447 C  
BRANCH  11  12
HETATM   12  C   UNL     1     -12.107  13.139  63.759  1.00  0.00    -0.563 C  
BRANCH  12  13
HETATM   13  C   UNL     1     -10.697  12.557  63.806  1.00  0.00    -0.483 C  
BRANCH  13  14
HETATM   14  C   UNL     1     -10.625  11.437  64.833  1.00  0.00    -0.307 C  
BRANCH  14  15
HETATM   15  N   UNL     1      -9.450  10.599  64.637  1.00  0.00    -0.235 N  
HETATM   16  C   UNL     1      -8.620  10.331  65.709  1.00  0.00    -0.154 C  
HETATM   17  C   UNL     1      -9.203  10.025  63.322  1.00  0.00    -0.284 C  
HETATM   18  O   UNL     1      -8.756  10.814  66.828  1.00  0.00    -0.138 OA 
BRANCH  16  19
HETATM   19  O   UNL     1      -7.530   9.557  65.338  1.00  0.00    -0.094 OA 
BRANCH  19  20
HETATM   20  C   UNL     1      -7.439   8.354  66.045  1.00  0.00    -0.084 A  
HETATM   21  C   UNL     1      -6.338   8.187  66.877  1.00  0.00    -0.056 A  
HETATM   22  C   UNL     1      -6.282   7.054  67.682  1.00  0.00    -0.041 A  
HETATM   23  C   UNL     1      -7.310   6.107  67.649  1.00  0.00    -0.080 A  
HETATM   24  C   UNL     1      -8.419   6.266  66.800  1.00  0.00    -0.111 A  
HETATM   25  C   UNL     1      -8.487   7.423  66.025  1.00  0.00    -0.152 A  
BRANCH  24  26
HETATM   26  N   UNL     1      -9.575   5.278  66.795  1.00  0.00    -0.137 N  
HETATM   27  C   UNL     1     -10.909   5.994  66.984  1.00  0.00    -0.331 C  
HETATM   28  C   UNL     1      -9.436   4.276  67.948  1.00  0.00    -0.165 C  
HETATM   29  C   UNL     1      -9.556   4.550  65.459  1.00  0.00    -0.185 C  
ENDBRANCH  24  26
ENDBRANCH  19  20
ENDBRANCH  16  19
ENDBRANCH  14  15
ENDBRANCH  13  14
ENDBRANCH  12  13
ENDBRANCH  11  12
ENDBRANCH  10  11
ENDBRANCH   9  10
ENDBRANCH   8   9
ENDBRANCH   7   8
ENDBRANCH   6   7
ENDBRANCH   5   6
ENDBRANCH   2   5
BRANCH   4  30
HETATM   30  O   UNL     1     -13.221  11.512  70.606  1.00  0.00     0.091 OA 
BRANCH  30  31
HETATM   31  C   UNL     1     -12.680  10.380  71.239  1.00  0.00    -0.432 A  
HETATM   32  C   UNL     1     -13.469   9.630  72.114  1.00  0.00    -0.516 A  
HETATM   33  C   UNL     1     -11.390   9.970  70.891  1.00  0.00    -0.439 A  
HETATM   34  C   UNL     1     -10.856   8.804  71.466  1.00  0.00    -0.304 A  
HETATM   35  C   UNL     1     -12.946   8.489  72.694  1.00  0.00    -0.214 A  
HETATM   36  C   UNL     1     -11.649   8.085  72.380  1.00  0.00    -0.450 A  
BRANCH  34  37
HETATM   37  N   UNL     1      -9.414   8.387  71.200  1.00  0.00    -0.167 N  
HETATM   38  C   UNL     1      -8.675   9.429  70.358  1.00  0.00    -0.240 C  
HETATM   39  C   UNL     1      -8.638   8.242  72.509  1.00  0.00    -0.208 C  
HETATM   40  C   UNL     1      -9.462   7.062  70.437  1.00  0.00    -0.162 C  
ENDBRANCH  34  37
ENDBRANCH  30  31
ENDBRANCH   4  30
TORSDOF 17
ENDMDL
MODEL       94
REMARK 921   NORMALIZED FREE ENERGY PREDICTED BY IDOCK:   -4.92 KCAL/MOL
REMARK 922        TOTAL FREE ENERGY PREDICTED BY IDOCK:  -12.05 KCAL/MOL
REMARK 923 INTER-LIGAND FREE ENERGY PREDICTED BY IDOCK:   -9.16 KCAL/MOL
REMARK 924 INTRA-LIGAND FREE ENERGY PREDICTED BY IDOCK:   -2.88 KCAL/MOL
REMARK 927      BINDING AFFINITY PREDICTED BY RF-SCORE:    0.00 PKD
ROOT
HETATM    1  C   UNL     1     -11.358  10.922  67.820  1.00  0.00    -0.292 C  
HETATM    2  N   UNL     1     -10.907  10.823  66.442  1.00  0.00    -0.161 N  
HETATM    3  O   UNL     1     -11.132  11.623  64.280  1.00  0.00    -0.332 OA 
HETATM    4  C   UNL     1     -11.360  11.717  65.482  1.00  0.00    -0.223 C  
ENDROOT
BRANCH   2   5
HETATM    5  C   UNL     1     -10.161   9.635  66.032  1.00  0.00    -0.248 C  
BRANCH   5   6
HETATM    6  C   UNL     1      -9.244   9.092  67.138  1.00  0.00    -0.162 C  
BRANCH   6   7
HETATM    7  C   UNL     1      -7.845   9.716  67.058  1.00  0.00    -0.098 C  
BRANCH   7   8
HETATM    8  C   UNL     1      -6.967   9.020  66.011  1.00  0.00    -0.085 C  
BRANCH   8   9
HETATM    9  C   UNL     1      -6.439   7.679  66.530  1.00  0.00    -0.049 C  
BRANCH   9  10
HETATM   10  C   UNL     1      -6.938   6.507  65.680  1.00  0.00    -0.057 C  
BRANCH  10  11
HETATM   11  C   UNL     1      -7.874   6.936  64.546  1.00  0.00    -0.115 C  
BRANCH  11  12
HETATM   12  C   UNL     1      -7.962   5.909  63.419  1.00  0.00    -0.110 C  
BRANCH  12  13
HETATM   13  C   UNL     1      -8.118   4.491  63.963  1.00  0.00    -0.098 C  
BRANCH  13  14
HETATM   14  C   UNL     1      -9.532   4.282  64.486  1.00  0.00    -0.156 C  
BRANCH  14  15
HETATM   15  N   UNL     1      -9.538   3.916  65.895  1.00  0.00    -0.184 N  
HETATM   16  C   UNL     1     -10.154   4.749  66.811  1.00  0.00    -0.229 C  
HETATM   17  C   UNL     1      -8.933   2.655  66.301  1.00  0.00    -0.137 C  
HETATM   18  O   UNL     1     -10.646   5.838  66.535  1.00  0.00    -0.258 OA 
BRANCH  16  19
HETATM   19  O   UNL     1     -10.028   4.273  68.108  1.00  0.00    -0.085 OA 
BRANCH  19  20
HETATM   20  C   UNL     1      -9.660   5.263  69.027  1.00  0.00    -0.144 A  
HETATM   21  C   UNL     1      -8.336   5.684  69.012  1.00  0.00    -0.100 A  
HETATM   22  C   UNL     1      -7.971   6.748  69.829  1.00  0.00    -0.124 A  
HETATM   23  C   UNL     1      -8.916   7.374  70.648  1.00  0.00    -0.155 A  
HETATM   24  C   UNL     1     -10.253   6.943  70.675  1.00  0.00    -0.195 A  
HETATM   25  C   UNL     1     -10.621   5.901  69.824  1.00  0.00    -0.374 A  
BRANCH  24  26
HETATM   26  N   UNL     1     -11.309   7.649  71.513  1.00  0.00    -0.250 N  
HETATM   27  C   UNL     1     -11.050   7.451  73.002  1.00  0.00    -0.343 C  
HETATM   28  C   UNL     1     -12.702   7.079  71.220  1.00  0.00    -0.351 C  
HETATM   29  C   UNL     1     -11.261   9.130  71.164  1.00  0.00    -0.325 C  
ENDBRANCH  24  26
ENDBRANCH  19  20
ENDBRANCH  16  19
ENDBRANCH  14  15
ENDBRANCH  13  14
ENDBRANCH  12  13
ENDBRANCH  11  12
ENDBRANCH  10  11
ENDBRANCH   9  10
ENDBRANCH   8   9
ENDBRANCH   7   8
ENDBRANCH   6   7
ENDBRANCH   5   6
ENDBRANCH   2   5
BRANCH   4  30
HETATM   30  O   UNL     1     -12.177  12.715  66.022  1.00  0.00    -0.564 OA 
BRANCH  30  31
HETATM   31  C   UNL     1     -11.592  13.992  65.998  1.00  0.00    -0.357 A  
HETATM   32  C   UNL     1     -11.579  14.728  64.812  1.00  0.00    -0.418 A  
HETATM   33  C   UNL     1     -11.131  14.541  67.199  1.00  0.00    -0.325 A  
HETATM   34  C   UNL     1     -10.600  15.843  67.205  1.00  0.00    -0.314 A  
HETATM   35  C   UNL     1     -11.047  16.004  64.807  1.00  0.00    -0.378 A  
HETATM   36  C   UNL     1     -10.554  16.553  65.991  1.00  0.00    -0.259 A  
BRANCH  34  37
HETATM   37  N   UNL     1      -9.985  16.433  68.469  1.00  0.00    -0.230 N  
HETATM   38  C   UNL     1     -10.939  16.328  69.659  1.00  0.00    -0.346 C  
HETATM   39  C   UNL     1      -8.709  15.683  68.854  1.00  0.00    -0.215 C  
HETATM   40  C   UNL     1      -9.693  17.906  68.182  1.00  0.00    -0.320 C  
ENDBRANCH  34  37
ENDBRANCH  30  31
ENDBRANCH   4  30
TORSDOF 17
ENDMDL
MODEL       95
REMARK 921   NORMALIZED FREE ENERGY PREDICTED BY IDOCK:   -4.91 KCAL/MOL
REMARK 922        TOTAL FREE ENERGY PREDICTED BY IDOCK:  -12.03 KCAL/MOL
REMARK 923 INTER-LIGAND FREE ENERGY PREDICTED BY IDOCK:   -9.33 KCAL/MOL
REMARK 924 INTRA-LIGAND FREE ENERGY PREDICTED BY IDOCK:   -2.70 KCAL/MOL
REMARK 927      BINDING AFFINITY PREDICTED BY RF-SCORE:    0.00 PKD
ROOT
HETATM    1  C   UNL     1     -13.257  11.869  71.120  1.00  0.00     0.127 C  
HETATM    2  N   UNL     1     -12.302  12.788  70.526  1.00  0.00    -0.318 N  
HETATM    3  O   UNL     1     -10.633  13.075  68.945  1.00  0.00    -0.215 OA 
HETATM    4  C   UNL     1     -11.548  12.412  69.423  1.00  0.00    -0.307 C  
ENDROOT
BRANCH   2   5
HETATM    5  C   UNL     1     -11.974  14.019  71.242  1.00  0.00    -0.115 C  
BRANCH   5   6
HETATM    6  C   UNL     1     -12.413  15.284  70.492  1.00  0.00    -0.454 C  
BRANCH   6   7
HETATM    7  C   UNL     1     -11.257  16.283  70.359  1.00  0.00    -0.336 C  
BRANCH   7   8
HETATM    8  C   UNL     1     -10.862  16.509  68.894  1.00  0.00    -0.336 C  
BRANCH   8   9
HETATM    9  C   UNL     1     -10.134  17.844  68.714  1.00  0.00    -0.384 C  
BRANCH   9  10
HETATM   10  C   UNL     1      -8.952  17.719  67.748  1.00  0.00    -0.249 C  
BRANCH  10  11
HETATM   11  C   UNL     1      -7.691  17.145  68.405  1.00  0.00    -0.237 C  
BRANCH  11  12
HETATM   12  C   UNL     1      -6.560  16.889  67.411  1.00  0.00    -0.190 C  
BRANCH  12  13
HETATM   13  C   UNL     1      -5.902  15.532  67.648  1.00  0.00    -0.132 C  
BRANCH  13  14
HETATM   14  C   UNL     1      -6.962  14.448  67.772  1.00  0.00    -0.176 C  
BRANCH  14  15
HETATM   15  N   UNL     1      -6.554  13.397  68.692  1.00  0.00    -0.084 N  
HETATM   16  C   UNL     1      -7.015  12.107  68.500  1.00  0.00    -0.091 C  
HETATM   17  C   UNL     1      -5.628  13.720  69.769  1.00  0.00    -0.101 C  
HETATM   18  O   UNL     1      -7.822  11.783  67.636  1.00  0.00    -0.123 OA 
BRANCH  16  19
HETATM   19  O   UNL     1      -6.566  11.245  69.489  1.00  0.00    -0.103 OA 
BRANCH  19  20
HETATM   20  C   UNL     1      -7.189   9.993  69.456  1.00  0.00    -0.105 A  
HETATM   21  C   UNL     1      -6.658   9.041  68.593  1.00  0.00    -0.054 A  
HETATM   22  C   UNL     1      -7.181   7.753  68.626  1.00  0.00    -0.085 A  
HETATM   23  C   UNL     1      -8.218   7.428  69.506  1.00  0.00    -0.131 A  
HETATM   24  C   UNL     1      -8.766   8.390  70.371  1.00  0.00    -0.141 A  
HETATM   25  C   UNL     1      -8.211   9.669  70.360  1.00  0.00    -0.194 A  
BRANCH  24  26
HETATM   26  N   UNL     1      -9.852   8.041  71.377  1.00  0.00    -0.167 N  
HETATM   27  C   UNL     1     -10.902   9.144  71.455  1.00  0.00    -0.366 C  
HETATM   28  C   UNL     1      -9.257   7.886  72.783  1.00  0.00    -0.221 C  
HETATM   29  C   UNL     1     -10.494   6.735  70.930  1.00  0.00    -0.213 C  
ENDBRANCH  24  26
ENDBRANCH  19  20
ENDBRANCH  16  19
ENDBRANCH  14  15
ENDBRANCH  13  14
ENDBRANCH  12  13
ENDBRANCH  11  12
ENDBRANCH  10  11
ENDBRANCH   9  10
ENDBRANCH   8   9
ENDBRANCH   7   8
ENDBRANCH   6   7
ENDBRANCH   5   6
ENDBRANCH   2   5
BRANCH   4  30
HETATM   30  O   UNL     1     -11.895  11.145  68.945  1.00  0.00    -0.318 OA 
BRANCH  30  31
HETATM   31  C   UNL     1     -11.263  10.810  67.735  1.00  0.00    -0.316 A  
HETATM   32  C   UNL     1     -10.546   9.616  67.634  1.00  0.00    -0.334 A  
HETATM   33  C   UNL     1     -11.461  11.635  66.624  1.00  0.00    -0.280 A  
HETATM   34  C   UNL     1     -10.889  11.283  65.390  1.00  0.00    -0.188 A  
HETATM   35  C   UNL     1      -9.968   9.269  66.426  1.00  0.00    -0.356 A  
HETATM   36  C   UNL     1     -10.131  10.099  65.318  1.00  0.00    -0.344 A  
BRANCH  34  37
HETATM   37  N   UNL     1     -10.986  12.212  64.186  1.00  0.00    -0.330 N  
HETATM   38  C   UNL     1     -12.394  12.212  63.590  1.00  0.00    -0.568 C  
HETATM   39  C   UNL     1     -10.673  13.655  64.585  1.00  0.00    -0.421 C  
HETATM   40  C   UNL     1      -9.993  11.701  63.141  1.00  0.00    -0.375 C  
ENDBRANCH  34  37
ENDBRANCH  30  31
ENDBRANCH   4  30
TORSDOF 17
ENDMDL
MODEL       96
REMARK 921   NORMALIZED FREE ENERGY PREDICTED BY IDOCK:   -4.90 KCAL/MOL
REMARK 922        TOTAL FREE ENERGY PREDICTED BY IDOCK:  -11.99 KCAL/MOL
REMARK 923 INTER-LIGAND FREE ENERGY PREDICTED BY IDOCK:   -8.68 KCAL/MOL
REMARK 924 INTRA-LIGAND FREE ENERGY PREDICTED BY IDOCK:   -3.32 KCAL/MOL
REMARK 927      BINDING AFFINITY PREDICTED BY RF-SCORE:    0.00 PKD
ROOT
HETATM    1  C   UNL     1     -12.422  13.447  65.542  1.00  0.00    -0.483 C  
HETATM    2  N   UNL     1     -11.693  13.623  66.787  1.00  0.00    -0.370 N  
HETATM    3  O   UNL     1     -10.830  12.596  68.675  1.00  0.00    -0.237 OA 
HETATM    4  C   UNL     1     -11.328  12.527  67.555  1.00  0.00    -0.312 C  
ENDROOT
BRANCH   2   5
HETATM    5  C   UNL     1     -11.558  14.971  67.335  1.00  0.00    -0.291 C  
BRANCH   5   6
HETATM    6  C   UNL     1     -10.666  15.880  66.479  1.00  0.00    -0.258 C  
BRANCH   6   7
HETATM    7  C   UNL     1      -9.182  15.675  66.808  1.00  0.00    -0.275 C  
BRANCH   7   8
HETATM    8  C   UNL     1      -8.911  15.770  68.315  1.00  0.00    -0.182 C  
BRANCH   8   9
HETATM    9  C   UNL     1      -7.933  14.684  68.773  1.00  0.00    -0.151 C  
BRANCH   9  10
HETATM   10  C   UNL     1      -7.298  13.956  67.585  1.00  0.00    -0.186 C  
BRANCH  10  11
HETATM   11  C   UNL     1      -6.332  12.842  68.003  1.00  0.00    -0.099 C  
BRANCH  11  12
HETATM   12  C   UNL     1      -6.915  11.907  69.061  1.00  0.00    -0.098 C  
BRANCH  12  13
HETATM   13  C   UNL     1      -5.961  10.761  69.384  1.00  0.00    -0.046 C  
BRANCH  13  14
HETATM   14  C   UNL     1      -6.713   9.438  69.398  1.00  0.00    -0.048 C  
BRANCH  14  15
HETATM   15  N   UNL     1      -7.250   9.137  70.717  1.00  0.00    -0.097 N  
HETATM   16  C   UNL     1      -8.607   9.268  70.945  1.00  0.00    -0.162 C  
HETATM   17  C   UNL     1      -6.347   8.658  71.754  1.00  0.00    -0.071 C  
HETATM   18  O   UNL     1      -9.409   9.700  70.124  1.00  0.00    -0.230 OA 
BRANCH  16  19
HETATM   19  O   UNL     1      -8.940   8.984  72.262  1.00  0.00    -0.360 OA 
BRANCH  19  20
HETATM   20  C   UNL     1      -9.878   7.954  72.385  1.00  0.00    -0.225 A  
HETATM   21  C   UNL     1     -11.216   8.287  72.205  1.00  0.00    -0.443 A  
HETATM   22  C   UNL     1     -12.158   7.265  72.203  1.00  0.00    -0.287 A  
HETATM   23  C   UNL     1     -11.766   5.934  72.381  1.00  0.00    -0.307 A  
HETATM   24  C   UNL     1     -10.416   5.594  72.576  1.00  0.00    -0.213 A  
HETATM   25  C   UNL     1      -9.472   6.620  72.538  1.00  0.00    -0.155 A  
BRANCH  24  26
HETATM   26  N   UNL     1      -9.962   4.149  72.710  1.00  0.00    -0.145 N  
HETATM   27  C   UNL     1      -8.615   4.060  73.420  1.00  0.00    -0.088 C  
HETATM   28  C   UNL     1      -9.785   3.506  71.329  1.00  0.00    -0.166 C  
HETATM   29  C   UNL     1     -11.024   3.403  73.505  1.00  0.00    -0.233 C  
ENDBRANCH  24  26
ENDBRANCH  19  20
ENDBRANCH  16  19
ENDBRANCH  14  15
ENDBRANCH  13  14
ENDBRANCH  12  13
ENDBRANCH  11  12
ENDBRANCH  10  11
ENDBRANCH   9  10
ENDBRANCH   8   9
ENDBRANCH   7   8
ENDBRANCH   6   7
ENDBRANCH   5   6
ENDBRANCH   2   5
BRANCH   4  30
HETATM   30  O   UNL     1     -11.655  11.313  66.945  1.00  0.00    -0.464 OA 
BRANCH  30  31
HETATM   31  C   UNL     1     -10.536  10.521  66.638  1.00  0.00    -0.228 A  
HETATM   32  C   UNL     1      -9.388  11.116  66.112  1.00  0.00    -0.227 A  
HETATM   33  C   UNL     1     -10.563   9.163  66.971  1.00  0.00    -0.266 A  
HETATM   34  C   UNL     1      -9.429   8.369  66.729  1.00  0.00    -0.197 A  
HETATM   35  C   UNL     1      -8.272  10.338  65.859  1.00  0.00    -0.148 A  
HETATM   36  C   UNL     1      -8.296   8.976  66.156  1.00  0.00    -0.124 A  
BRANCH  34  37
HETATM   37  N   UNL     1      -9.459   6.864  66.972  1.00  0.00    -0.145 N  
HETATM   38  C   UNL     1      -8.704   6.105  65.880  1.00  0.00    -0.154 C  
HETATM   39  C   UNL     1      -8.789   6.514  68.301  1.00  0.00    -0.119 C  
HETATM   40  C   UNL     1     -10.927   6.436  66.965  1.00  0.00    -0.389 C  
ENDBRANCH  34  37
ENDBRANCH  30  31
ENDBRANCH   4  30
TORSDOF 17
ENDMDL
MODEL       97
REMARK 921   NORMALIZED FREE ENERGY PREDICTED BY IDOCK:   -4.89 KCAL/MOL
REMARK 922        TOTAL FREE ENERGY PREDICTED BY IDOCK:  -11.99 KCAL/MOL
REMARK 923 INTER-LIGAND FREE ENERGY PREDICTED BY IDOCK:   -9.96 KCAL/MOL
REMARK 924 INTRA-LIGAND FREE ENERGY PREDICTED BY IDOCK:   -2.03 KCAL/MOL
REMARK 927      BINDING AFFINITY PREDICTED BY RF-SCORE:    0.00 PKD
ROOT
HETATM    1  C   UNL     1      -9.016   5.938  70.577  1.00  0.00    -0.144 C  
HETATM    2  N   UNL     1     -10.082   6.626  69.870  1.00  0.00    -0.174 N  
HETATM    3  O   UNL     1     -10.622   8.142  68.203  1.00  0.00    -0.190 OA 
HETATM    4  C   UNL     1      -9.802   7.428  68.771  1.00  0.00    -0.164 C  
ENDROOT
BRANCH   2   5
HETATM    5  C   UNL     1     -11.416   6.655  70.467  1.00  0.00    -0.376 C  
BRANCH   5   6
HETATM    6  C   UNL     1     -11.384   6.716  72.001  1.00  0.00    -0.317 C  
BRANCH   6   7
HETATM    7  C   UNL     1     -11.564   8.153  72.506  1.00  0.00    -0.468 C  
BRANCH   7   8
HETATM    8  C   UNL     1     -12.434   8.988  71.558  1.00  0.00    -0.395 C  
BRANCH   8   9
HETATM    9  C   UNL     1     -11.675  10.212  71.039  1.00  0.00    -0.470 C  
BRANCH   9  10
HETATM   10  C   UNL     1     -12.474  10.963  69.971  1.00  0.00    -0.332 C  
BRANCH  10  11
HETATM   11  C   UNL     1     -11.707  12.139  69.355  1.00  0.00    -0.391 C  
BRANCH  11  12
HETATM   12  C   UNL     1     -10.579  11.698  68.425  1.00  0.00    -0.235 C  
BRANCH  12  13
HETATM   13  C   UNL     1     -10.701  12.348  67.049  1.00  0.00    -0.268 C  
BRANCH  13  14
HETATM   14  C   UNL     1      -9.546  13.311  66.820  1.00  0.00    -0.258 C  
BRANCH  14  15
HETATM   15  N   UNL     1      -9.772  14.591  67.476  1.00  0.00    -0.209 N  
HETATM   16  C   UNL     1     -10.572  15.538  66.863  1.00  0.00    -0.307 C  
HETATM   17  C   UNL     1      -9.185  14.826  68.788  1.00  0.00    -0.196 C  
HETATM   18  O   UNL     1     -11.062  15.412  65.746  1.00  0.00    -0.324 OA 
BRANCH  16  19
HETATM   19  O   UNL     1     -10.644  16.710  67.602  1.00  0.00    -0.316 OA 
BRANCH  19  20
HETATM   20  C   UNL     1      -9.949  17.775  67.019  1.00  0.00    -0.322 A  
HETATM   21  C   UNL     1     -10.659  18.947  66.789  1.00  0.00    -0.480 A  
HETATM   22  C   UNL     1      -9.967  20.059  66.322  1.00  0.00    -0.597 A  
HETATM   23  C   UNL     1      -8.590  19.994  66.088  1.00  0.00    -0.301 A  
HETATM   24  C   UNL     1      -7.871  18.806  66.307  1.00  0.00    -0.272 A  
HETATM   25  C   UNL     1      -8.564  17.707  66.812  1.00  0.00    -0.276 A  
BRANCH  24  26
HETATM   26  N   UNL     1      -6.364  18.733  66.116  1.00  0.00    -0.183 N  
HETATM   27  C   UNL     1      -5.649  19.751  66.998  1.00  0.00    -0.173 C  
HETATM   28  C   UNL     1      -5.986  19.052  64.664  1.00  0.00    -0.263 C  
HETATM   29  C   UNL     1      -5.920  17.323  66.478  1.00  0.00    -0.209 C  
ENDBRANCH  24  26
ENDBRANCH  19  20
ENDBRANCH  16  19
ENDBRANCH  14  15
ENDBRANCH  13  14
ENDBRANCH  12  13
ENDBRANCH  11  12
ENDBRANCH  10  11
ENDBRANCH   9  10
ENDBRANCH   8   9
ENDBRANCH   7   8
ENDBRANCH   6   7
ENDBRANCH   5   6
ENDBRANCH   2   5
BRANCH   4  30
HETATM   30  O   UNL     1      -8.451   7.394  68.415  1.00  0.00    -0.124 OA 
BRANCH  30  31
HETATM   31  C   UNL     1      -8.058   8.473  67.605  1.00  0.00    -0.107 A  
HETATM   32  C   UNL     1      -7.442   9.586  68.180  1.00  0.00    -0.079 A  
HETATM   33  C   UNL     1      -8.198   8.355  66.219  1.00  0.00    -0.111 A  
HETATM   34  C   UNL     1      -7.752   9.398  65.388  1.00  0.00    -0.103 A  
HETATM   35  C   UNL     1      -7.013  10.622  67.371  1.00  0.00    -0.082 A  
HETATM   36  C   UNL     1      -7.175  10.532  65.989  1.00  0.00    -0.137 A  
BRANCH  34  37
HETATM   37  N   UNL     1      -7.990   9.358  63.883  1.00  0.00    -0.133 N  
HETATM   38  C   UNL     1      -8.037   7.921  63.361  1.00  0.00    -0.083 C  
HETATM   39  C   UNL     1      -9.328  10.005  63.525  1.00  0.00    -0.256 C  
HETATM   40  C   UNL     1      -6.825  10.098  63.223  1.00  0.00    -0.128 C  
ENDBRANCH  34  37
ENDBRANCH  30  31
ENDBRANCH   4  30
TORSDOF 17
ENDMDL
MODEL       98
REMARK 921   NORMALIZED FREE ENERGY PREDICTED BY IDOCK:   -4.89 KCAL/MOL
REMARK 922        TOTAL FREE ENERGY PREDICTED BY IDOCK:  -11.98 KCAL/MOL
REMARK 923 INTER-LIGAND FREE ENERGY PREDICTED BY IDOCK:   -9.44 KCAL/MOL
REMARK 924 INTRA-LIGAND FREE ENERGY PREDICTED BY IDOCK:   -2.54 KCAL/MOL
REMARK 927      BINDING AFFINITY PREDICTED BY RF-SCORE:    0.00 PKD
ROOT
HETATM    1  C   UNL     1     -10.269   7.582  66.961  1.00  0.00    -0.298 C  
HETATM    2  N   UNL     1      -9.720   6.287  67.323  1.00  0.00    -0.124 N  
HETATM    3  O   UNL     1      -9.783   4.518  68.817  1.00  0.00    -0.160 OA 
HETATM    4  C   UNL     1     -10.266   5.552  68.366  1.00  0.00    -0.180 C  
ENDROOT
BRANCH   2   5
HETATM    5  C   UNL     1      -8.446   5.877  66.735  1.00  0.00    -0.109 C  
BRANCH   5   6
HETATM    6  C   UNL     1      -7.774   6.992  65.923  1.00  0.00    -0.101 C  
BRANCH   6   7
HETATM    7  C   UNL     1      -6.663   7.677  66.728  1.00  0.00    -0.066 C  
BRANCH   7   8
HETATM    8  C   UNL     1      -6.688   9.201  66.557  1.00  0.00    -0.075 C  
BRANCH   8   9
HETATM    9  C   UNL     1      -5.579   9.871  67.375  1.00  0.00    -0.042 C  
BRANCH   9  10
HETATM   10  C   UNL     1      -6.119  11.031  68.216  1.00  0.00    -0.049 C  
BRANCH  10  11
HETATM   11  C   UNL     1      -6.351  12.310  67.404  1.00  0.00    -0.152 C  
BRANCH  11  12
HETATM   12  C   UNL     1      -7.427  13.214  68.003  1.00  0.00    -0.132 C  
BRANCH  12  13
HETATM   13  C   UNL     1      -8.566  13.460  67.016  1.00  0.00    -0.168 C  
BRANCH  13  14
HETATM   14  C   UNL     1      -9.066  12.139  66.452  1.00  0.00    -0.177 C  
BRANCH  14  15
HETATM   15  N   UNL     1     -10.415  11.835  66.904  1.00  0.00    -0.216 N  
HETATM   16  C   UNL     1     -10.598  11.192  68.115  1.00  0.00    -0.193 C  
HETATM   17  C   UNL     1     -11.546  12.258  66.090  1.00  0.00    -0.390 C  
HETATM   18  O   UNL     1      -9.687  10.780  68.825  1.00  0.00    -0.177 OA 
BRANCH  16  19
HETATM   19  O   UNL     1     -11.939  10.942  68.370  1.00  0.00    -0.543 OA 
BRANCH  19  20
HETATM   20  C   UNL     1     -12.381  11.480  69.583  1.00  0.00    -0.142 A  
HETATM   21  C   UNL     1     -12.745  10.584  70.581  1.00  0.00    -0.441 A  
HETATM   22  C   UNL     1     -13.073  11.088  71.835  1.00  0.00    -0.525 A  
HETATM   23  C   UNL     1     -13.039  12.465  72.081  1.00  0.00    -0.419 A  
HETATM   24  C   UNL     1     -12.683  13.375  71.071  1.00  0.00    -0.307 A  
HETATM   25  C   UNL     1     -12.318  12.860  69.828  1.00  0.00    -0.118 A  
BRANCH  24  26
HETATM   26  N   UNL     1     -12.581  14.869  71.335  1.00  0.00    -0.309 N  
HETATM   27  C   UNL     1     -11.518  15.168  72.387  1.00  0.00    -0.298 C  
HETATM   28  C   UNL     1     -13.910  15.415  71.872  1.00  0.00    -0.517 C  
HETATM   29  C   UNL     1     -12.224  15.547  70.020  1.00  0.00    -0.355 C  
ENDBRANCH  24  26
ENDBRANCH  19  20
ENDBRANCH  16  19
ENDBRANCH  14  15
ENDBRANCH  13  14
ENDBRANCH  12  13
ENDBRANCH  11  12
ENDBRANCH  10  11
ENDBRANCH   9  10
ENDBRANCH   8   9
ENDBRANCH   7   8
ENDBRANCH   6   7
ENDBRANCH   5   6
ENDBRANCH   2   5
BRANCH   4  30
HETATM   30  O   UNL     1     -11.403   6.157  68.909  1.00  0.00    -0.367 OA 
BRANCH  30  31
HETATM   31  C   UNL     1     -11.205   6.658  70.207  1.00  0.00    -0.353 A  
HETATM   32  C   UNL     1     -12.306   6.935  71.020  1.00  0.00    -0.401 A  
HETATM   33  C   UNL     1      -9.898   6.764  70.692  1.00  0.00    -0.191 A  
HETATM   34  C   UNL     1      -9.683   7.202  72.010  1.00  0.00    -0.157 A  
HETATM   35  C   UNL     1     -12.102   7.379  72.314  1.00  0.00    -0.246 A  
HETATM   36  C   UNL     1     -10.804   7.520  72.801  1.00  0.00    -0.397 A  
BRANCH  34  37
HETATM   37  N   UNL     1      -8.273   7.439  72.538  1.00  0.00    -0.102 N  
HETATM   38  C   UNL     1      -8.295   8.102  73.916  1.00  0.00    -0.248 C  
HETATM   39  C   UNL     1      -7.520   6.118  72.692  1.00  0.00    -0.094 C  
HETATM   40  C   UNL     1      -7.569   8.363  71.543  1.00  0.00    -0.101 C  
ENDBRANCH  34  37
ENDBRANCH  30  31
ENDBRANCH   4  30
TORSDOF 17
ENDMDL
MODEL       99
REMARK 921   NORMALIZED FREE ENERGY PREDICTED BY IDOCK:   -4.88 KCAL/MOL
REMARK 922        TOTAL FREE ENERGY PREDICTED BY IDOCK:  -11.96 KCAL/MOL
REMARK 923 INTER-LIGAND FREE ENERGY PREDICTED BY IDOCK:  -10.24 KCAL/MOL
REMARK 924 INTRA-LIGAND FREE ENERGY PREDICTED BY IDOCK:   -1.71 KCAL/MOL
REMARK 927      BINDING AFFINITY PREDICTED BY RF-SCORE:    0.00 PKD
ROOT
HETATM    1  C   UNL     1      -6.732  10.117  69.546  1.00  0.00    -0.066 C  
HETATM    2  N   UNL     1      -8.014  10.736  69.251  1.00  0.00    -0.135 N  
HETATM    3  O   UNL     1     -10.319  10.546  69.381  1.00  0.00    -0.221 OA 
HETATM    4  C   UNL     1      -9.197  10.162  69.696  1.00  0.00    -0.183 C  
ENDROOT
BRANCH   2   5
HETATM    5  C   UNL     1      -8.057  11.832  68.285  1.00  0.00    -0.154 C  
BRANCH   5   6
HETATM    6  C   UNL     1      -7.069  12.959  68.612  1.00  0.00    -0.103 C  
BRANCH   6   7
HETATM    7  C   UNL     1      -7.773  14.320  68.668  1.00  0.00    -0.135 C  
BRANCH   7   8
HETATM    8  C   UNL     1      -6.923  15.377  69.384  1.00  0.00    -0.181 C  
BRANCH   8   9
HETATM    9  C   UNL     1      -7.226  16.783  68.860  1.00  0.00    -0.225 C  
BRANCH   9  10
HETATM   10  C   UNL     1      -6.090  17.762  69.175  1.00  0.00    -0.224 C  
BRANCH  10  11
HETATM   11  C   UNL     1      -6.586  19.140  69.624  1.00  0.00    -0.255 C  
BRANCH  11  12
HETATM   12  C   UNL     1      -5.746  20.290  69.070  1.00  0.00    -0.323 C  
BRANCH  12  13
HETATM   13  C   UNL     1      -6.049  20.546  67.596  1.00  0.00    -0.290 C  
BRANCH  13  14
HETATM   14  C   UNL     1      -7.547  20.710  67.388  1.00  0.00    -0.330 C  
BRANCH  14  15
HETATM   15  N   UNL     1      -8.101  19.635  66.578  1.00  0.00    -0.303 N  
HETATM   16  C   UNL     1      -9.473  19.475  66.507  1.00  0.00    -0.375 C  
HETATM   17  C   UNL     1      -7.196  18.781  65.822  1.00  0.00    -0.199 C  
HETATM   18  O   UNL     1     -10.282  20.137  67.147  1.00  0.00    -0.426 OA 
BRANCH  16  19
HETATM   19  O   UNL     1      -9.825  18.381  65.730  1.00  0.00    -0.503 OA 
BRANCH  19  20
HETATM   20  C   UNL     1     -10.252  17.282  66.483  1.00  0.00    -0.325 A  
HETATM   21  C   UNL     1     -10.436  17.479  67.847  1.00  0.00    -0.384 A  
HETATM   22  C   UNL     1     -10.973  16.440  68.598  1.00  0.00    -0.345 A  
HETATM   23  C   UNL     1     -11.317  15.226  67.994  1.00  0.00    -0.345 A  
HETATM   24  C   UNL     1     -11.121  15.019  66.617  1.00  0.00    -0.326 A  
HETATM   25  C   UNL     1     -10.618  16.079  65.863  1.00  0.00    -0.338 A  
BRANCH  24  26
HETATM   26  N   UNL     1     -11.545  13.730  65.930  1.00  0.00    -0.323 N  
HETATM   27  C   UNL     1     -11.781  12.619  66.948  1.00  0.00    -0.383 C  
HETATM   28  C   UNL     1     -10.448  13.240  64.977  1.00  0.00    -0.353 C  
HETATM   29  C   UNL     1     -12.825  14.016  65.158  1.00  0.00    -0.334 C  
ENDBRANCH  24  26
ENDBRANCH  19  20
ENDBRANCH  16  19
ENDBRANCH  14  15
ENDBRANCH  13  14
ENDBRANCH  12  13
ENDBRANCH  11  12
ENDBRANCH  10  11
ENDBRANCH   9  10
ENDBRANCH   8   9
ENDBRANCH   7   8
ENDBRANCH   6   7
ENDBRANCH   5   6
ENDBRANCH   2   5
BRANCH   4  30
HETATM   30  O   UNL     1      -8.978   9.038  70.497  1.00  0.00    -0.173 OA 
BRANCH  30  31
HETATM   31  C   UNL     1      -9.547   7.862  69.979  1.00  0.00    -0.168 A  
HETATM   32  C   UNL     1     -10.789   7.428  70.445  1.00  0.00    -0.258 A  
HETATM   33  C   UNL     1      -8.898   7.212  68.925  1.00  0.00    -0.130 A  
HETATM   34  C   UNL     1      -9.484   6.070  68.351  1.00  0.00    -0.119 A  
HETATM   35  C   UNL     1     -11.366   6.298  69.894  1.00  0.00    -0.504 A  
HETATM   36  C   UNL     1     -10.716   5.621  68.864  1.00  0.00    -0.280 A  
BRANCH  34  37
HETATM   37  N   UNL     1      -8.755   5.268  67.279  1.00  0.00    -0.108 N  
HETATM   38  C   UNL     1      -8.806   5.971  65.922  1.00  0.00    -0.149 C  
HETATM   39  C   UNL     1      -7.279   5.098  67.637  1.00  0.00    -0.067 C  
HETATM   40  C   UNL     1      -9.458   3.914  67.174  1.00  0.00    -0.201 C  
ENDBRANCH  34  37
ENDBRANCH  30  31
ENDBRANCH   4  30
TORSDOF 17
ENDMDL
MODEL      100
REMARK 921   NORMALIZED FREE ENERGY PREDICTED BY IDOCK:   -4.88 KCAL/MOL
REMARK 922        TOTAL FREE ENERGY PREDICTED BY IDOCK:  -11.96 KCAL/MOL
REMARK 923 INTER-LIGAND FREE ENERGY PREDICTED BY IDOCK:   -9.41 KCAL/MOL
REMARK 924 INTRA-LIGAND FREE ENERGY PREDICTED BY IDOCK:   -2.55 KCAL/MOL
REMARK 927      BINDING AFFINITY PREDICTED BY RF-SCORE:    0.00 PKD
ROOT
HETATM    1  C   UNL     1     -11.304  13.200  63.944  1.00  0.00    -0.374 C  
HETATM    2  N   UNL     1     -11.432  12.124  64.912  1.00  0.00    -0.331 N  
HETATM    3  O   UNL     1     -11.990  11.545  67.085  1.00  0.00    -0.581 OA 
HETATM    4  C   UNL     1     -11.968  12.363  66.170  1.00  0.00    -0.327 C  
ENDROOT
BRANCH   2   5
HETATM    5  C   UNL     1     -10.774  10.849  64.634  1.00  0.00    -0.184 C  
BRANCH   5   6
HETATM    6  C   UNL     1      -9.754  10.937  63.491  1.00  0.00    -0.384 C  
BRANCH   6   7
HETATM    7  C   UNL     1      -8.843   9.704  63.459  1.00  0.00    -0.255 C  
BRANCH   7   8
HETATM    8  C   UNL     1      -8.830   8.968  64.805  1.00  0.00    -0.165 C  
BRANCH   8   9
HETATM    9  C   UNL     1      -7.837   7.801  64.791  1.00  0.00    -0.129 C  
BRANCH   9  10
HETATM   10  C   UNL     1      -7.886   7.033  63.467  1.00  0.00    -0.109 C  
BRANCH  10  11
HETATM   11  C   UNL     1      -7.647   5.528  63.630  1.00  0.00    -0.072 C  
BRANCH  11  12
HETATM   12  C   UNL     1      -8.923   4.700  63.501  1.00  0.00    -0.108 C  
BRANCH  12  13
HETATM   13  C   UNL     1      -9.183   3.871  64.756  1.00  0.00    -0.149 C  
BRANCH  13  14
HETATM   14  C   UNL     1     -10.311   4.487  65.569  1.00  0.00    -0.229 C  
BRANCH  14  15
HETATM   15  N   UNL     1      -9.845   4.971  66.860  1.00  0.00    -0.169 N  
HETATM   16  C   UNL     1     -10.493   6.033  67.463  1.00  0.00    -0.240 C  
HETATM   17  C   UNL     1      -8.731   4.293  67.509  1.00  0.00    -0.106 C  
HETATM   18  O   UNL     1     -11.410   6.666  66.951  1.00  0.00    -0.333 OA 
BRANCH  16  19
HETATM   19  O   UNL     1      -9.893   6.391  68.662  1.00  0.00    -0.138 OA 
BRANCH  19  20
HETATM   20  C   UNL     1      -9.884   7.772  68.885  1.00  0.00    -0.166 A  
HETATM   21  C   UNL     1     -10.867   8.288  69.722  1.00  0.00    -0.186 A  
HETATM   22  C   UNL     1     -10.810   9.636  70.056  1.00  0.00    -0.302 A  
HETATM   23  C   UNL     1      -9.789  10.452  69.557  1.00  0.00    -0.211 A  
HETATM   24  C   UNL     1      -8.801   9.937  68.700  1.00  0.00    -0.128 A  
HETATM   25  C   UNL     1      -8.842   8.576  68.401  1.00  0.00    -0.139 A  
BRANCH  24  26
HETATM   26  N   UNL     1      -7.649  10.792  68.197  1.00  0.00    -0.090 N  
HETATM   27  C   UNL     1      -6.549   9.928  67.590  1.00  0.00    -0.068 C  
HETATM   28  C   UNL     1      -7.016  11.581  69.350  1.00  0.00    -0.071 C  
HETATM   29  C   UNL     1      -8.205  11.746  67.149  1.00  0.00    -0.169 C  
ENDBRANCH  24  26
ENDBRANCH  19  20
ENDBRANCH  16  19
ENDBRANCH  14  15
ENDBRANCH  13  14
ENDBRANCH  12  13
ENDBRANCH  11  12
ENDBRANCH  10  11
ENDBRANCH   9  10
ENDBRANCH   8   9
ENDBRANCH   7   8
ENDBRANCH   6   7
ENDBRANCH   5   6
ENDBRANCH   2   5
BRANCH   4  30
HETATM   30  O   UNL     1     -12.426  13.675  66.316  1.00  0.00    -0.422 OA 
BRANCH  30  31
HETATM   31  C   UNL     1     -11.849  14.351  67.405  1.00  0.00    -0.400 A  
HETATM   32  C   UNL     1     -12.105  13.917  68.707  1.00  0.00    -0.344 A  
HETATM   33  C   UNL     1     -10.940  15.382  67.148  1.00  0.00    -0.317 A  
HETATM   34  C   UNL     1     -10.305  16.028  68.223  1.00  0.00    -0.261 A  
HETATM   35  C   UNL     1     -11.494  14.555  69.771  1.00  0.00    -0.327 A  
HETATM   36  C   UNL     1     -10.609  15.606  69.531  1.00  0.00    -0.266 A  
BRANCH  34  37
HETATM   37  N   UNL     1      -9.396  17.229  67.990  1.00  0.00    -0.257 N  
HETATM   38  C   UNL     1      -8.018  17.020  68.619  1.00  0.00    -0.258 C  
HETATM   39  C   UNL     1      -9.173  17.462  66.496  1.00  0.00    -0.266 C  
HETATM   40  C   UNL     1     -10.071  18.437  68.642  1.00  0.00    -0.377 C  
ENDBRANCH  34  37
ENDBRANCH  30  31
ENDBRANCH   4  30
TORSDOF 17
ENDMDL
MODEL      101
REMARK 921   NORMALIZED FREE ENERGY PREDICTED BY IDOCK:   -4.87 KCAL/MOL
REMARK 922        TOTAL FREE ENERGY PREDICTED BY IDOCK:  -11.94 KCAL/MOL
REMARK 923 INTER-LIGAND FREE ENERGY PREDICTED BY IDOCK:   -8.70 KCAL/MOL
REMARK 924 INTRA-LIGAND FREE ENERGY PREDICTED BY IDOCK:   -3.24 KCAL/MOL
REMARK 927      BINDING AFFINITY PREDICTED BY RF-SCORE:    0.00 PKD
ROOT
HETATM    1  C   UNL     1      -9.611  14.014  68.234  1.00  0.00    -0.224 C  
HETATM    2  N   UNL     1     -10.938  13.477  67.985  1.00  0.00    -0.244 N  
HETATM    3  O   UNL     1     -12.223  11.568  67.716  1.00  0.00    -0.560 OA 
HETATM    4  C   UNL     1     -11.170  12.109  68.040  1.00  0.00    -0.264 C  
ENDROOT
BRANCH   2   5
HETATM    5  C   UNL     1     -11.965  14.365  67.445  1.00  0.00    -0.373 C  
BRANCH   5   6
HETATM    6  C   UNL     1     -12.389  13.994  66.017  1.00  0.00    -0.504 C  
BRANCH   6   7
HETATM    7  C   UNL     1     -11.429  14.586  64.978  1.00  0.00    -0.382 C  
BRANCH   7   8
HETATM    8  C   UNL     1     -10.448  13.536  64.442  1.00  0.00    -0.366 C  
BRANCH   8   9
HETATM    9  C   UNL     1     -11.188  12.356  63.806  1.00  0.00    -0.520 C  
BRANCH   9  10
HETATM   10  C   UNL     1     -10.479  11.027  64.082  1.00  0.00    -0.434 C  
BRANCH  10  11
HETATM   11  C   UNL     1      -9.515  10.612  62.966  1.00  0.00    -0.363 C  
BRANCH  11  12
HETATM   12  C   UNL     1      -8.150  10.166  63.487  1.00  0.00    -0.162 C  
BRANCH  12  13
HETATM   13  C   UNL     1      -8.264   9.487  64.850  1.00  0.00    -0.140 C  
BRANCH  13  14
HETATM   14  C   UNL     1      -7.389   8.244  64.892  1.00  0.00    -0.087 C  
BRANCH  14  15
HETATM   15  N   UNL     1      -6.441   8.288  65.996  1.00  0.00    -0.049 N  
HETATM   16  C   UNL     1      -6.525   7.343  67.002  1.00  0.00    -0.060 C  
HETATM   17  C   UNL     1      -5.395   9.301  65.989  1.00  0.00    -0.040 C  
HETATM   18  O   UNL     1      -7.403   6.491  67.081  1.00  0.00    -0.082 OA 
BRANCH  16  19
HETATM   19  O   UNL     1      -5.578   7.558  67.993  1.00  0.00    -0.025 OA 
BRANCH  19  20
HETATM   20  C   UNL     1      -6.139   7.821  69.247  1.00  0.00    -0.034 A  
HETATM   21  C   UNL     1      -6.503   9.135  69.517  1.00  0.00    -0.043 A  
HETATM   22  C   UNL     1      -7.171   9.405  70.707  1.00  0.00    -0.123 A  
HETATM   23  C   UNL     1      -7.465   8.376  71.608  1.00  0.00    -0.118 A  
HETATM   24  C   UNL     1      -7.087   7.048  71.344  1.00  0.00    -0.070 A  
HETATM   25  C   UNL     1      -6.452   6.780  70.132  1.00  0.00    -0.040 A  
BRANCH  24  26
HETATM   26  N   UNL     1      -7.450   5.908  72.281  1.00  0.00    -0.098 N  
HETATM   27  C   UNL     1      -7.559   6.395  73.722  1.00  0.00    -0.088 C  
HETATM   28  C   UNL     1      -6.368   4.821  72.256  1.00  0.00    -0.033 C  
HETATM   29  C   UNL     1      -8.782   5.335  71.819  1.00  0.00    -0.134 C  
ENDBRANCH  24  26
ENDBRANCH  19  20
ENDBRANCH  16  19
ENDBRANCH  14  15
ENDBRANCH  13  14
ENDBRANCH  12  13
ENDBRANCH  11  12
ENDBRANCH  10  11
ENDBRANCH   9  10
ENDBRANCH   8   9
ENDBRANCH   7   8
ENDBRANCH   6   7
ENDBRANCH   5   6
ENDBRANCH   2   5
BRANCH   4  30
HETATM   30  O   UNL     1     -10.040  11.390  68.442  1.00  0.00    -0.188 OA 
BRANCH  30  31
HETATM   31  C   UNL     1     -10.323  10.065  68.812  1.00  0.00    -0.198 A  
HETATM   32  C   UNL     1      -9.901   9.012  67.998  1.00  0.00    -0.197 A  
HETATM   33  C   UNL     1     -10.928   9.829  70.050  1.00  0.00    -0.319 A  
HETATM   34  C   UNL     1     -11.160   8.507  70.466  1.00  0.00    -0.244 A  
HETATM   35  C   UNL     1     -10.138   7.708  68.394  1.00  0.00    -0.208 A  
HETATM   36  C   UNL     1     -10.770   7.458  69.612  1.00  0.00    -0.245 A  
BRANCH  34  37
HETATM   37  N   UNL     1     -11.919   8.211  71.754  1.00  0.00    -0.288 N  
HETATM   38  C   UNL     1     -10.965   7.924  72.914  1.00  0.00    -0.388 C  
HETATM   39  C   UNL     1     -12.775   9.408  72.169  1.00  0.00    -0.382 C  
HETATM   40  C   UNL     1     -12.785   6.977  71.494  1.00  0.00    -0.381 C  
ENDBRANCH  34  37
ENDBRANCH  30  31
ENDBRANCH   4  30
TORSDOF 17
ENDMDL
MODEL      102
REMARK 921   NORMALIZED FREE ENERGY PREDICTED BY IDOCK:   -4.86 KCAL/MOL
REMARK 922        TOTAL FREE ENERGY PREDICTED BY IDOCK:  -11.92 KCAL/MOL
REMARK 923 INTER-LIGAND FREE ENERGY PREDICTED BY IDOCK:   -9.60 KCAL/MOL
REMARK 924 INTRA-LIGAND FREE ENERGY PREDICTED BY IDOCK:   -2.32 KCAL/MOL
REMARK 927      BINDING AFFINITY PREDICTED BY RF-SCORE:    0.00 PKD
ROOT
HETATM    1  C   UNL     1     -10.324  11.725  63.411  1.00  0.00    -0.439 C  
HETATM    2  N   UNL     1     -10.850  12.056  64.725  1.00  0.00    -0.295 N  
HETATM    3  O   UNL     1     -11.386  11.273  66.838  1.00  0.00    -0.379 OA 
HETATM    4  C   UNL     1     -10.846  11.118  65.747  1.00  0.00    -0.151 C  
ENDROOT
BRANCH   2   5
HETATM    5  C   UNL     1     -11.596  13.303  64.888  1.00  0.00    -0.325 C  
BRANCH   5   6
HETATM    6  C   UNL     1     -10.687  14.519  65.118  1.00  0.00    -0.422 C  
BRANCH   6   7
HETATM    7  C   UNL     1     -10.921  15.135  66.503  1.00  0.00    -0.318 C  
BRANCH   7   8
HETATM    8  C   UNL     1     -11.942  14.334  67.321  1.00  0.00    -0.439 C  
BRANCH   8   9
HETATM    9  C   UNL     1     -11.945  14.773  68.789  1.00  0.00    -0.292 C  
BRANCH   9  10
HETATM   10  C   UNL     1     -11.261  13.741  69.690  1.00  0.00    -0.175 C  
BRANCH  10  11
HETATM   11  C   UNL     1     -12.249  12.833  70.430  1.00  0.00    -0.371 C  
BRANCH  11  12
HETATM   12  C   UNL     1     -12.233  11.392  69.927  1.00  0.00    -0.346 C  
BRANCH  12  13
HETATM   13  C   UNL     1     -12.073  10.398  71.075  1.00  0.00    -0.488 C  
BRANCH  13  14
HETATM   14  C   UNL     1     -11.473   9.097  70.564  1.00  0.00    -0.229 C  
BRANCH  14  15
HETATM   15  N   UNL     1     -10.919   8.296  71.645  1.00  0.00    -0.250 N  
HETATM   16  C   UNL     1     -11.576   7.148  72.048  1.00  0.00    -0.280 C  
HETATM   17  C   UNL     1      -9.656   8.701  72.249  1.00  0.00    -0.278 C  
HETATM   18  O   UNL     1     -12.657   6.778  71.604  1.00  0.00    -0.359 OA 
BRANCH  16  19
HETATM   19  O   UNL     1     -10.936   6.534  73.115  1.00  0.00    -0.258 OA 
BRANCH  19  20
HETATM   20  C   UNL     1     -10.579   5.206  72.855  1.00  0.00    -0.232 A  
HETATM   21  C   UNL     1     -11.151   4.225  73.657  1.00  0.00    -0.351 A  
HETATM   22  C   UNL     1     -10.909   2.892  73.346  1.00  0.00    -0.300 A  
HETATM   23  C   UNL     1     -10.105   2.550  72.253  1.00  0.00    -0.227 A  
HETATM   24  C   UNL     1      -9.516   3.539  71.447  1.00  0.00    -0.156 A  
HETATM   25  C   UNL     1      -9.795   4.873  71.741  1.00  0.00    -0.240 A  
BRANCH  24  26
HETATM   26  N   UNL     1      -8.690   3.188  70.219  1.00  0.00    -0.064 N  
HETATM   27  C   UNL     1      -7.264   3.713  70.348  1.00  0.00    -0.041 C  
HETATM   28  C   UNL     1      -9.291   3.828  68.961  1.00  0.00    -0.171 C  
HETATM   29  C   UNL     1      -8.680   1.672  70.086  1.00  0.00    -0.054 C  
ENDBRANCH  24  26
ENDBRANCH  19  20
ENDBRANCH  16  19
ENDBRANCH  14  15
ENDBRANCH  13  14
ENDBRANCH  12  13
ENDBRANCH  11  12
ENDBRANCH  10  11
ENDBRANCH   9  10
ENDBRANCH   8   9
ENDBRANCH   7   8
ENDBRANCH   6   7
ENDBRANCH   5   6
ENDBRANCH   2   5
BRANCH   4  30
HETATM   30  O   UNL     1     -10.213   9.927  65.377  1.00  0.00    -0.273 OA 
BRANCH  30  31
HETATM   31  C   UNL     1      -9.744   9.179  66.471  1.00  0.00    -0.241 A  
HETATM   32  C   UNL     1     -10.419   8.022  66.862  1.00  0.00    -0.387 A  
HETATM   33  C   UNL     1      -8.541   9.558  67.074  1.00  0.00    -0.131 A  
HETATM   34  C   UNL     1      -8.023   8.786  68.128  1.00  0.00    -0.106 A  
HETATM   35  C   UNL     1      -9.923   7.264  67.907  1.00  0.00    -0.192 A  
HETATM   36  C   UNL     1      -8.741   7.647  68.539  1.00  0.00    -0.128 A  
BRANCH  34  37
HETATM   37  N   UNL     1      -6.777   9.229  68.886  1.00  0.00    -0.051 N  
HETATM   38  C   UNL     1      -6.815  10.724  69.204  1.00  0.00    -0.084 C  
HETATM   39  C   UNL     1      -6.662   8.493  70.222  1.00  0.00    -0.039 C  
HETATM   40  C   UNL     1      -5.574   8.932  67.988  1.00  0.00    -0.035 C  
ENDBRANCH  34  37
ENDBRANCH  30  31
ENDBRANCH   4  30
TORSDOF 17
ENDMDL
MODEL      103
REMARK 921   NORMALIZED FREE ENERGY PREDICTED BY IDOCK:   -4.85 KCAL/MOL
REMARK 922        TOTAL FREE ENERGY PREDICTED BY IDOCK:  -11.90 KCAL/MOL
REMARK 923 INTER-LIGAND FREE ENERGY PREDICTED BY IDOCK:   -9.99 KCAL/MOL
REMARK 924 INTRA-LIGAND FREE ENERGY PREDICTED BY IDOCK:   -1.91 KCAL/MOL
REMARK 927      BINDING AFFINITY PREDICTED BY RF-SCORE:    0.00 PKD
ROOT
HETATM    1  C   UNL     1     -10.510  14.713  66.791  1.00  0.00    -0.277 C  
HETATM    2  N   UNL     1     -11.061  13.599  67.543  1.00  0.00    -0.271 N  
HETATM    3  O   UNL     1     -12.057  11.510  67.440  1.00  0.00    -0.593 OA 
HETATM    4  C   UNL     1     -11.464  12.439  66.898  1.00  0.00    -0.360 C  
ENDROOT
BRANCH   2   5
HETATM    5  C   UNL     1     -11.403  13.804  68.950  1.00  0.00    -0.288 C  
BRANCH   5   6
HETATM    6  C   UNL     1     -11.784  15.257  69.268  1.00  0.00    -0.359 C  
BRANCH   6   7
HETATM    7  C   UNL     1     -11.824  15.503  70.781  1.00  0.00    -0.406 C  
BRANCH   7   8
HETATM    8  C   UNL     1     -13.246  15.796  71.276  1.00  0.00    -0.348 C  
BRANCH   8   9
HETATM    9  C   UNL     1     -13.965  14.509  71.693  1.00  0.00    -0.527 C  
BRANCH   9  10
HETATM   10  C   UNL     1     -12.998  13.496  72.313  1.00  0.00    -0.398 C  
BRANCH  10  11
HETATM   11  C   UNL     1     -13.483  12.047  72.197  1.00  0.00    -0.338 C  
BRANCH  11  12
HETATM   12  C   UNL     1     -12.715  11.239  71.153  1.00  0.00    -0.492 C  
BRANCH  12  13
HETATM   13  C   UNL     1     -13.131   9.770  71.164  1.00  0.00    -0.424 C  
BRANCH  13  14
HETATM   14  C   UNL     1     -12.001   8.908  71.705  1.00  0.00    -0.359 C  
BRANCH  14  15
HETATM   15  N   UNL     1     -12.049   7.555  71.168  1.00  0.00    -0.312 N  
HETATM   16  C   UNL     1     -11.171   7.190  70.165  1.00  0.00    -0.262 C  
HETATM   17  C   UNL     1     -12.993   6.603  71.736  1.00  0.00    -0.133 C  
HETATM   18  O   UNL     1     -10.381   7.956  69.623  1.00  0.00    -0.207 OA 
BRANCH  16  19
HETATM   19  O   UNL     1     -11.383   5.886  69.742  1.00  0.00    -0.371 OA 
BRANCH  19  20
HETATM   20  C   UNL     1     -10.218   5.112  69.732  1.00  0.00    -0.287 A  
HETATM   21  C   UNL     1      -9.750   4.683  68.496  1.00  0.00    -0.208 A  
HETATM   22  C   UNL     1      -8.531   4.014  68.445  1.00  0.00    -0.106 A  
HETATM   23  C   UNL     1      -7.799   3.779  69.613  1.00  0.00    -0.052 A  
HETATM   24  C   UNL     1      -8.275   4.201  70.867  1.00  0.00    -0.071 A  
HETATM   25  C   UNL     1      -9.478   4.904  70.905  1.00  0.00    -0.227 A  
BRANCH  24  26
HETATM   26  N   UNL     1      -7.465   4.008  72.140  1.00  0.00    -0.064 N  
HETATM   27  C   UNL     1      -6.479   5.154  72.341  1.00  0.00    -0.043 C  
HETATM   28  C   UNL     1      -6.643   2.715  72.068  1.00  0.00    -0.015 C  
HETATM   29  C   UNL     1      -8.443   3.947  73.305  1.00  0.00    -0.088 C  
ENDBRANCH  24  26
ENDBRANCH  19  20
ENDBRANCH  16  19
ENDBRANCH  14  15
ENDBRANCH  13  14
ENDBRANCH  12  13
ENDBRANCH  11  12
ENDBRANCH  10  11
ENDBRANCH   9  10
ENDBRANCH   8   9
ENDBRANCH   7   8
ENDBRANCH   6   7
ENDBRANCH   5   6
ENDBRANCH   2   5
BRANCH   4  30
HETATM   30  O   UNL     1     -11.187  12.464  65.528  1.00  0.00    -0.302 OA 
BRANCH  30  31
HETATM   31  C   UNL     1     -10.165  11.578  65.147  1.00  0.00    -0.274 A  
HETATM   32  C   UNL     1     -10.282  10.854  63.959  1.00  0.00    -0.422 A  
HETATM   33  C   UNL     1      -9.001  11.526  65.919  1.00  0.00    -0.152 A  
HETATM   34  C   UNL     1      -7.942  10.692  65.518  1.00  0.00    -0.116 A  
HETATM   35  C   UNL     1      -9.249  10.022  63.565  1.00  0.00    -0.315 A  
HETATM   36  C   UNL     1      -8.095   9.935  64.342  1.00  0.00    -0.157 A  
BRANCH  34  37
HETATM   37  N   UNL     1      -6.705  10.521  66.391  1.00  0.00    -0.106 N  
HETATM   38  C   UNL     1      -7.002   9.667  67.624  1.00  0.00    -0.087 C  
HETATM   39  C   UNL     1      -5.588   9.817  65.621  1.00  0.00    -0.055 C  
HETATM   40  C   UNL     1      -6.271  11.919  66.837  1.00  0.00    -0.115 C  
ENDBRANCH  34  37
ENDBRANCH  30  31
ENDBRANCH   4  30
TORSDOF 17
ENDMDL
MODEL      104
REMARK 921   NORMALIZED FREE ENERGY PREDICTED BY IDOCK:   -4.84 KCAL/MOL
REMARK 922        TOTAL FREE ENERGY PREDICTED BY IDOCK:  -11.89 KCAL/MOL
REMARK 923 INTER-LIGAND FREE ENERGY PREDICTED BY IDOCK:  -10.13 KCAL/MOL
REMARK 924 INTRA-LIGAND FREE ENERGY PREDICTED BY IDOCK:   -1.77 KCAL/MOL
REMARK 927      BINDING AFFINITY PREDICTED BY RF-SCORE:    0.00 PKD
ROOT
HETATM    1  C   UNL     1     -11.793  13.805  64.065  1.00  0.00    -0.370 C  
HETATM    2  N   UNL     1     -11.667  12.620  64.896  1.00  0.00    -0.336 N  
HETATM    3  O   UNL     1     -11.762  11.755  67.043  1.00  0.00    -0.555 OA 
HETATM    4  C   UNL     1     -11.967  12.670  66.251  1.00  0.00    -0.374 C  
ENDROOT
BRANCH   2   5
HETATM    5  C   UNL     1     -10.997  11.444  64.344  1.00  0.00    -0.302 C  
BRANCH   5   6
HETATM    6  C   UNL     1      -9.531  11.327  64.784  1.00  0.00    -0.221 C  
BRANCH   6   7
HETATM    7  C   UNL     1      -8.888  10.044  64.244  1.00  0.00    -0.245 C  
BRANCH   7   8
HETATM    8  C   UNL     1      -9.242   8.821  65.100  1.00  0.00    -0.029 C  
BRANCH   8   9
HETATM    9  C   UNL     1      -9.219   9.163  66.593  1.00  0.00    -0.207 C  
BRANCH   9  10
HETATM   10  C   UNL     1     -10.356   8.469  67.350  1.00  0.00    -0.356 C  
BRANCH  10  11
HETATM   11  C   UNL     1     -10.393   8.821  68.841  1.00  0.00    -0.229 C  
BRANCH  11  12
HETATM   12  C   UNL     1      -9.057   8.591  69.545  1.00  0.00    -0.150 C  
BRANCH  12  13
HETATM   13  C   UNL     1      -9.094   9.081  70.991  1.00  0.00    -0.322 C  
BRANCH  13  14
HETATM   14  C   UNL     1     -10.467   8.828  71.596  1.00  0.00    -0.317 C  
BRANCH  14  15
HETATM   15  N   UNL     1     -10.460   7.679  72.489  1.00  0.00    -0.243 N  
HETATM   16  C   UNL     1     -11.331   6.631  72.255  1.00  0.00    -0.275 C  
HETATM   17  C   UNL     1      -9.501   7.640  73.584  1.00  0.00    -0.282 C  
HETATM   18  O   UNL     1     -12.184   6.623  71.374  1.00  0.00    -0.347 OA 
BRANCH  16  19
HETATM   19  O   UNL     1     -11.222   5.643  73.223  1.00  0.00    -0.268 OA 
BRANCH  19  20
HETATM   20  C   UNL     1     -10.734   4.431  72.723  1.00  0.00    -0.158 A  
HETATM   21  C   UNL     1     -11.161   3.266  73.350  1.00  0.00    -0.249 A  
HETATM   22  C   UNL     1     -10.788   2.044  72.802  1.00  0.00    -0.170 A  
HETATM   23  C   UNL     1      -9.999   1.993  71.648  1.00  0.00    -0.192 A  
HETATM   24  C   UNL     1      -9.555   3.168  71.018  1.00  0.00    -0.157 A  
HETATM   25  C   UNL     1      -9.965   4.389  71.552  1.00  0.00    -0.250 A  
BRANCH  24  26
HETATM   26  N   UNL     1      -8.748   3.134  69.730  1.00  0.00    -0.066 N  
HETATM   27  C   UNL     1      -9.578   2.580  68.577  1.00  0.00    -0.032 C  
HETATM   28  C   UNL     1      -7.525   2.220  69.881  1.00  0.00    -0.043 C  
HETATM   29  C   UNL     1      -8.307   4.557  69.422  1.00  0.00    -0.070 C  
ENDBRANCH  24  26
ENDBRANCH  19  20
ENDBRANCH  16  19
ENDBRANCH  14  15
ENDBRANCH  13  14
ENDBRANCH  12  13
ENDBRANCH  11  12
ENDBRANCH  10  11
ENDBRANCH   9  10
ENDBRANCH   8   9
ENDBRANCH   7   8
ENDBRANCH   6   7
ENDBRANCH   5   6
ENDBRANCH   2   5
BRANCH   4  30
HETATM   30  O   UNL     1     -12.468  13.914  66.642  1.00  0.00    -0.407 OA 
BRANCH  30  31
HETATM   31  C   UNL     1     -11.850  14.430  67.794  1.00  0.00    -0.368 A  
HETATM   32  C   UNL     1     -10.626  15.093  67.688  1.00  0.00    -0.263 A  
HETATM   33  C   UNL     1     -12.535  14.359  69.011  1.00  0.00     0.029 A  
HETATM   34  C   UNL     1     -11.960  14.926  70.162  1.00  0.00    -0.317 A  
HETATM   35  C   UNL     1     -10.048  15.642  68.818  1.00  0.00    -0.211 A  
HETATM   36  C   UNL     1     -10.704  15.551  70.045  1.00  0.00    -0.331 A  
BRANCH  34  37
HETATM   37  N   UNL     1     -12.621  14.770  71.527  1.00  0.00    -0.314 N  
HETATM   38  C   UNL     1     -11.721  15.291  72.648  1.00  0.00    -0.415 C  
HETATM   39  C   UNL     1     -13.923  15.567  71.595  1.00  0.00    -0.446 C  
HETATM   40  C   UNL     1     -12.876  13.276  71.736  1.00  0.00    -0.269 C  
ENDBRANCH  34  37
ENDBRANCH  30  31
ENDBRANCH   4  30
TORSDOF 17
ENDMDL
MODEL      105
REMARK 921   NORMALIZED FREE ENERGY PREDICTED BY IDOCK:   -4.82 KCAL/MOL
REMARK 922        TOTAL FREE ENERGY PREDICTED BY IDOCK:  -11.84 KCAL/MOL
REMARK 923 INTER-LIGAND FREE ENERGY PREDICTED BY IDOCK:  -10.31 KCAL/MOL
REMARK 924 INTRA-LIGAND FREE ENERGY PREDICTED BY IDOCK:   -1.52 KCAL/MOL
REMARK 927      BINDING AFFINITY PREDICTED BY RF-SCORE:    0.00 PKD
ROOT
HETATM    1  C   UNL     1      -6.071  11.108  68.326  1.00  0.00    -0.045 C  
HETATM    2  N   UNL     1      -7.429  11.552  68.587  1.00  0.00    -0.111 N  
HETATM    3  O   UNL     1      -9.610  10.913  69.041  1.00  0.00    -0.200 OA 
HETATM    4  C   UNL     1      -8.418  10.641  68.933  1.00  0.00    -0.154 C  
ENDROOT
BRANCH   2   5
HETATM    5  C   UNL     1      -7.795  12.927  68.253  1.00  0.00    -0.142 C  
BRANCH   5   6
HETATM    6  C   UNL     1      -6.647  13.711  67.602  1.00  0.00    -0.176 C  
BRANCH   6   7
HETATM    7  C   UNL     1      -6.932  15.218  67.600  1.00  0.00    -0.209 C  
BRANCH   7   8
HETATM    8  C   UNL     1      -5.930  15.991  68.467  1.00  0.00    -0.105 C  
BRANCH   8   9
HETATM    9  C   UNL     1      -6.583  17.219  69.109  1.00  0.00    -0.239 C  
BRANCH   9  10
HETATM   10  C   UNL     1      -5.667  18.444  69.047  1.00  0.00    -0.211 C  
BRANCH  10  11
HETATM   11  C   UNL     1      -6.399  19.762  69.321  1.00  0.00    -0.361 C  
BRANCH  11  12
HETATM   12  C   UNL     1      -5.971  20.893  68.388  1.00  0.00    -0.386 C  
BRANCH  12  13
HETATM   13  C   UNL     1      -6.744  20.857  67.072  1.00  0.00    -0.396 C  
BRANCH  13  14
HETATM   14  C   UNL     1      -8.183  20.429  67.320  1.00  0.00    -0.336 C  
BRANCH  14  15
HETATM   15  N   UNL     1      -8.571  19.318  66.464  1.00  0.00    -0.321 N  
HETATM   16  C   UNL     1      -9.913  19.047  66.267  1.00  0.00    -0.398 C  
HETATM   17  C   UNL     1      -7.534  18.546  65.795  1.00  0.00    -0.095 C  
HETATM   18  O   UNL     1     -10.828  19.638  66.830  1.00  0.00    -0.483 OA 
BRANCH  16  19
HETATM   19  O   UNL     1     -10.102  17.933  65.462  1.00  0.00    -0.530 OA 
BRANCH  19  20
HETATM   20  C   UNL     1     -10.340  16.761  66.188  1.00  0.00    -0.330 A  
HETATM   21  C   UNL     1     -10.349  16.862  67.574  1.00  0.00    -0.318 A  
HETATM   22  C   UNL     1     -10.700  15.740  68.317  1.00  0.00    -0.281 A  
HETATM   23  C   UNL     1     -11.034  14.540  67.680  1.00  0.00    -0.293 A  
HETATM   24  C   UNL     1     -11.015  14.431  66.279  1.00  0.00    -0.318 A  
HETATM   25  C   UNL     1     -10.699  15.570  65.540  1.00  0.00    -0.395 A  
BRANCH  24  26
HETATM   26  N   UNL     1     -11.433  13.154  65.567  1.00  0.00    -0.308 N  
HETATM   27  C   UNL     1     -12.831  13.290  64.972  1.00  0.00    -0.289 C  
HETATM   28  C   UNL     1     -11.476  11.976  66.549  1.00  0.00    -0.349 C  
HETATM   29  C   UNL     1     -10.418  12.885  64.466  1.00  0.00    -0.377 C  
ENDBRANCH  24  26
ENDBRANCH  19  20
ENDBRANCH  16  19
ENDBRANCH  14  15
ENDBRANCH  13  14
ENDBRANCH  12  13
ENDBRANCH  11  12
ENDBRANCH  10  11
ENDBRANCH   9  10
ENDBRANCH   8   9
ENDBRANCH   7   8
ENDBRANCH   6   7
ENDBRANCH   5   6
ENDBRANCH   2   5
BRANCH   4  30
HETATM   30  O   UNL     1      -7.921   9.342  69.079  1.00  0.00    -0.093 OA 
BRANCH  30  31
HETATM   31  C   UNL     1      -8.349   8.708  70.258  1.00  0.00    -0.129 A  
HETATM   32  C   UNL     1      -7.521   8.703  71.382  1.00  0.00    -0.124 A  
HETATM   33  C   UNL     1      -9.646   8.190  70.308  1.00  0.00    -0.171 A  
HETATM   34  C   UNL     1     -10.113   7.609  71.500  1.00  0.00    -0.178 A  
HETATM   35  C   UNL     1      -7.968   8.121  72.555  1.00  0.00    -0.195 A  
HETATM   36  C   UNL     1      -9.249   7.572  72.610  1.00  0.00    -0.201 A  
BRANCH  34  37
HETATM   37  N   UNL     1     -11.478   6.932  71.560  1.00  0.00    -0.263 N  
HETATM   38  C   UNL     1     -11.907   6.411  70.188  1.00  0.00    -0.184 C  
HETATM   39  C   UNL     1     -11.448   5.729  72.503  1.00  0.00    -0.296 C  
HETATM   40  C   UNL     1     -12.481   7.983  72.039  1.00  0.00    -0.320 C  
ENDBRANCH  34  37
ENDBRANCH  30  31
ENDBRANCH   4  30
TORSDOF 17
ENDMDL
MODEL      106
REMARK 921   NORMALIZED FREE ENERGY PREDICTED BY IDOCK:   -4.81 KCAL/MOL
REMARK 922        TOTAL FREE ENERGY PREDICTED BY IDOCK:  -11.82 KCAL/MOL
REMARK 923 INTER-LIGAND FREE ENERGY PREDICTED BY IDOCK:  -10.08 KCAL/MOL
REMARK 924 INTRA-LIGAND FREE ENERGY PREDICTED BY IDOCK:   -1.74 KCAL/MOL
REMARK 927      BINDING AFFINITY PREDICTED BY RF-SCORE:    0.00 PKD
ROOT
HETATM    1  C   UNL     1     -10.930   6.963  67.060  1.00  0.00    -0.334 C  
HETATM    2  N   UNL     1      -9.479   6.962  67.133  1.00  0.00    -0.135 N  
HETATM    3  O   UNL     1      -7.579   5.747  67.660  1.00  0.00    -0.087 OA 
HETATM    4  C   UNL     1      -8.787   5.802  67.449  1.00  0.00    -0.106 C  
ENDROOT
BRANCH   2   5
HETATM    5  C   UNL     1      -8.774   8.242  67.105  1.00  0.00    -0.123 C  
BRANCH   5   6
HETATM    6  C   UNL     1      -8.345   8.721  68.499  1.00  0.00    -0.129 C  
BRANCH   6   7
HETATM    7  C   UNL     1      -9.433   8.444  69.543  1.00  0.00    -0.166 C  
BRANCH   7   8
HETATM    8  C   UNL     1      -9.888   9.727  70.250  1.00  0.00    -0.296 C  
BRANCH   8   9
HETATM    9  C   UNL     1     -11.415   9.850  70.249  1.00  0.00    -0.349 C  
BRANCH   9  10
HETATM   10  C   UNL     1     -11.880  11.115  69.523  1.00  0.00    -0.423 C  
BRANCH  10  11
HETATM   11  C   UNL     1     -10.744  11.860  68.815  1.00  0.00    -0.257 C  
BRANCH  11  12
HETATM   12  C   UNL     1     -10.638  11.522  67.329  1.00  0.00    -0.266 C  
BRANCH  12  13
HETATM   13  C   UNL     1      -9.479  12.262  66.666  1.00  0.00    -0.227 C  
BRANCH  13  14
HETATM   14  C   UNL     1      -9.171  13.544  67.425  1.00  0.00    -0.223 C  
BRANCH  14  15
HETATM   15  N   UNL     1      -9.808  14.700  66.813  1.00  0.00    -0.247 N  
HETATM   16  C   UNL     1     -10.087  15.812  67.586  1.00  0.00    -0.247 C  
HETATM   17  C   UNL     1     -10.096  14.676  65.386  1.00  0.00    -0.372 C  
HETATM   18  O   UNL     1      -9.902  15.878  68.796  1.00  0.00    -0.200 OA 
BRANCH  16  19
HETATM   19  O   UNL     1     -10.731  16.801  66.856  1.00  0.00    -0.257 OA 
BRANCH  19  20
HETATM   20  C   UNL     1     -10.062  18.029  66.878  1.00  0.00    -0.348 A  
HETATM   21  C   UNL     1     -10.689  19.084  67.531  1.00  0.00    -0.532 A  
HETATM   22  C   UNL     1      -9.996  20.281  67.673  1.00  0.00    -0.551 A  
HETATM   23  C   UNL     1      -8.700  20.418  67.166  1.00  0.00    -0.413 A  
HETATM   24  C   UNL     1      -8.066  19.358  66.494  1.00  0.00    -0.303 A  
HETATM   25  C   UNL     1      -8.752  18.148  66.390  1.00  0.00    -0.252 A  
BRANCH  24  26
HETATM   26  N   UNL     1      -6.636  19.466  65.990  1.00  0.00    -0.212 N  
HETATM   27  C   UNL     1      -6.083  18.097  65.608  1.00  0.00    -0.230 C  
HETATM   28  C   UNL     1      -5.719  20.031  67.082  1.00  0.00    -0.167 C  
HETATM   29  C   UNL     1      -6.641  20.387  64.779  1.00  0.00    -0.270 C  
ENDBRANCH  24  26
ENDBRANCH  19  20
ENDBRANCH  16  19
ENDBRANCH  14  15
ENDBRANCH  13  14
ENDBRANCH  12  13
ENDBRANCH  11  12
ENDBRANCH  10  11
ENDBRANCH   9  10
ENDBRANCH   8   9
ENDBRANCH   7   8
ENDBRANCH   6   7
ENDBRANCH   5   6
ENDBRANCH   2   5
BRANCH   4  30
HETATM   30  O   UNL     1      -9.629   4.694  67.577  1.00  0.00    -0.144 OA 
BRANCH  30  31
HETATM   31  C   UNL     1      -9.638   4.143  68.870  1.00  0.00    -0.152 A  
HETATM   32  C   UNL     1      -9.146   2.854  69.079  1.00  0.00    -0.206 A  
HETATM   33  C   UNL     1     -10.042   4.949  69.939  1.00  0.00    -0.332 A  
HETATM   34  C   UNL     1      -9.998   4.437  71.247  1.00  0.00    -0.175 A  
HETATM   35  C   UNL     1      -9.111   2.337  70.362  1.00  0.00    -0.173 A  
HETATM   36  C   UNL     1      -9.541   3.118  71.434  1.00  0.00    -0.227 A  
BRANCH  34  37
HETATM   37  N   UNL     1     -10.536   5.242  72.424  1.00  0.00    -0.208 N  
HETATM   38  C   UNL     1     -11.653   6.191  71.990  1.00  0.00    -0.310 C  
HETATM   39  C   UNL     1     -11.126   4.320  73.491  1.00  0.00    -0.290 C  
HETATM   40  C   UNL     1      -9.368   6.057  72.984  1.00  0.00    -0.139 C  
ENDBRANCH  34  37
ENDBRANCH  30  31
ENDBRANCH   4  30
TORSDOF 17
ENDMDL
MODEL      107
REMARK 921   NORMALIZED FREE ENERGY PREDICTED BY IDOCK:   -4.80 KCAL/MOL
REMARK 922        TOTAL FREE ENERGY PREDICTED BY IDOCK:  -11.80 KCAL/MOL
REMARK 923 INTER-LIGAND FREE ENERGY PREDICTED BY IDOCK:   -8.80 KCAL/MOL
REMARK 924 INTRA-LIGAND FREE ENERGY PREDICTED BY IDOCK:   -3.00 KCAL/MOL
REMARK 927      BINDING AFFINITY PREDICTED BY RF-SCORE:    0.00 PKD
ROOT
HETATM    1  C   UNL     1     -12.565  13.711  65.583  1.00  0.00    -0.484 C  
HETATM    2  N   UNL     1     -11.463  13.847  66.521  1.00  0.00    -0.334 N  
HETATM    3  O   UNL     1     -10.164  12.803  68.130  1.00  0.00    -0.227 OA 
HETATM    4  C   UNL     1     -10.996  12.749  67.229  1.00  0.00    -0.262 C  
ENDROOT
BRANCH   2   5
HETATM    5  C   UNL     1     -11.014  15.190  66.885  1.00  0.00    -0.323 C  
BRANCH   5   6
HETATM    6  C   UNL     1     -11.628  15.692  68.199  1.00  0.00    -0.290 C  
BRANCH   6   7
HETATM    7  C   UNL     1     -10.624  16.531  68.999  1.00  0.00    -0.324 C  
BRANCH   7   8
HETATM    8  C   UNL     1      -9.428  15.696  69.473  1.00  0.00    -0.275 C  
BRANCH   8   9
HETATM    9  C   UNL     1      -8.101  16.338  69.056  1.00  0.00    -0.236 C  
BRANCH   9  10
HETATM   10  C   UNL     1      -6.906  15.447  69.409  1.00  0.00    -0.174 C  
BRANCH  10  11
HETATM   11  C   UNL     1      -7.082  13.993  68.959  1.00  0.00    -0.106 C  
BRANCH  11  12
HETATM   12  C   UNL     1      -6.541  13.729  67.556  1.00  0.00    -0.113 C  
BRANCH  12  13
HETATM   13  C   UNL     1      -5.917  12.339  67.447  1.00  0.00    -0.149 C  
BRANCH  13  14
HETATM   14  C   UNL     1      -6.994  11.300  67.174  1.00  0.00    -0.114 C  
BRANCH  14  15
HETATM   15  N   UNL     1      -6.758  10.071  67.916  1.00  0.00    -0.067 N  
HETATM   16  C   UNL     1      -7.430   9.855  69.106  1.00  0.00    -0.087 C  
HETATM   17  C   UNL     1      -5.853   9.073  67.363  1.00  0.00    -0.046 C  
HETATM   18  O   UNL     1      -8.174  10.671  69.638  1.00  0.00    -0.092 OA 
BRANCH  16  19
HETATM   19  O   UNL     1      -7.055   8.659  69.701  1.00  0.00    -0.053 OA 
BRANCH  19  20
HETATM   20  C   UNL     1      -7.891   8.281  70.757  1.00  0.00    -0.091 A  
HETATM   21  C   UNL     1      -7.466   8.589  72.045  1.00  0.00    -0.120 A  
HETATM   22  C   UNL     1      -8.330   8.334  73.105  1.00  0.00    -0.253 A  
HETATM   23  C   UNL     1      -9.593   7.779  72.877  1.00  0.00    -0.302 A  
HETATM   24  C   UNL     1     -10.021   7.455  71.578  1.00  0.00    -0.181 A  
HETATM   25  C   UNL     1      -9.165   7.749  70.516  1.00  0.00    -0.162 A  
BRANCH  24  26
HETATM   26  N   UNL     1     -11.413   6.907  71.303  1.00  0.00    -0.279 N  
HETATM   27  C   UNL     1     -12.465   8.007  71.403  1.00  0.00    -0.301 C  
HETATM   28  C   UNL     1     -11.786   5.835  72.335  1.00  0.00    -0.223 C  
HETATM   29  C   UNL     1     -11.408   6.312  69.902  1.00  0.00    -0.434 C  
ENDBRANCH  24  26
ENDBRANCH  19  20
ENDBRANCH  16  19
ENDBRANCH  14  15
ENDBRANCH  13  14
ENDBRANCH  12  13
ENDBRANCH  11  12
ENDBRANCH  10  11
ENDBRANCH   9  10
ENDBRANCH   8   9
ENDBRANCH   7   8
ENDBRANCH   6   7
ENDBRANCH   5   6
ENDBRANCH   2   5
BRANCH   4  30
HETATM   30  O   UNL     1     -11.631  11.561  66.855  1.00  0.00    -0.503 OA 
BRANCH  30  31
HETATM   31  C   UNL     1     -10.743  10.564  66.418  1.00  0.00    -0.096 A  
HETATM   32  C   UNL     1     -10.576   9.402  67.174  1.00  0.00    -0.294 A  
HETATM   33  C   UNL     1     -10.126  10.715  65.172  1.00  0.00    -0.374 A  
HETATM   34  C   UNL     1      -9.283   9.699  64.690  1.00  0.00    -0.234 A  
HETATM   35  C   UNL     1      -9.739   8.403  66.712  1.00  0.00    -0.309 A  
HETATM   36  C   UNL     1      -9.091   8.554  65.487  1.00  0.00    -0.150 A  
BRANCH  34  37
HETATM   37  N   UNL     1      -8.504   9.876  63.392  1.00  0.00    -0.165 N  
HETATM   38  C   UNL     1      -7.017  10.114  63.658  1.00  0.00    -0.108 C  
HETATM   39  C   UNL     1      -8.605   8.623  62.521  1.00  0.00    -0.139 C  
HETATM   40  C   UNL     1      -9.092  11.093  62.676  1.00  0.00    -0.330 C  
ENDBRANCH  34  37
ENDBRANCH  30  31
ENDBRANCH   4  30
TORSDOF 17
ENDMDL
MODEL      108
REMARK 921   NORMALIZED FREE ENERGY PREDICTED BY IDOCK:   -4.79 KCAL/MOL
REMARK 922        TOTAL FREE ENERGY PREDICTED BY IDOCK:  -11.78 KCAL/MOL
REMARK 923 INTER-LIGAND FREE ENERGY PREDICTED BY IDOCK:   -9.94 KCAL/MOL
REMARK 924 INTRA-LIGAND FREE ENERGY PREDICTED BY IDOCK:   -1.85 KCAL/MOL
REMARK 927      BINDING AFFINITY PREDICTED BY RF-SCORE:    0.00 PKD
ROOT
HETATM    1  C   UNL     1     -12.055  14.299  66.490  1.00  0.00    -0.429 C  
HETATM    2  N   UNL     1     -11.255  13.767  67.579  1.00  0.00    -0.284 N  
HETATM    3  O   UNL     1      -9.120  13.340  68.371  1.00  0.00    -0.191 OA 
HETATM    4  C   UNL     1      -9.871  13.875  67.561  1.00  0.00    -0.236 C  
ENDROOT
BRANCH   2   5
HETATM    5  C   UNL     1     -11.902  12.913  68.573  1.00  0.00    -0.313 C  
BRANCH   5   6
HETATM    6  C   UNL     1     -12.305  13.672  69.845  1.00  0.00    -0.310 C  
BRANCH   6   7
HETATM    7  C   UNL     1     -12.446  12.722  71.041  1.00  0.00    -0.369 C  
BRANCH   7   8
HETATM    8  C   UNL     1     -12.125  11.271  70.660  1.00  0.00    -0.480 C  
BRANCH   8   9
HETATM    9  C   UNL     1     -13.379  10.392  70.715  1.00  0.00    -0.130 C  
BRANCH   9  10
HETATM   10  C   UNL     1     -13.427   9.555  71.996  1.00  0.00    -0.522 C  
BRANCH  10  11
HETATM   11  C   UNL     1     -13.791   8.088  71.748  1.00  0.00    -0.452 C  
BRANCH  11  12
HETATM   12  C   UNL     1     -12.581   7.157  71.773  1.00  0.00    -0.381 C  
BRANCH  12  13
HETATM   13  C   UNL     1     -11.386   7.808  72.464  1.00  0.00    -0.429 C  
BRANCH  13  14
HETATM   14  C   UNL     1     -10.503   6.745  73.100  1.00  0.00    -0.270 C  
BRANCH  14  15
HETATM   15  N   UNL     1      -9.270   6.550  72.352  1.00  0.00    -0.137 N  
HETATM   16  C   UNL     1      -9.263   5.703  71.259  1.00  0.00    -0.146 C  
HETATM   17  C   UNL     1      -8.079   7.290  72.747  1.00  0.00    -0.106 C  
HETATM   18  O   UNL     1     -10.222   5.026  70.902  1.00  0.00    -0.221 OA 
BRANCH  16  19
HETATM   19  O   UNL     1      -8.001   5.600  70.692  1.00  0.00    -0.100 OA 
BRANCH  19  20
HETATM   20  C   UNL     1      -7.967   5.981  69.347  1.00  0.00    -0.103 A  
HETATM   21  C   UNL     1      -7.747   4.979  68.408  1.00  0.00    -0.079 A  
HETATM   22  C   UNL     1      -7.827   5.308  67.059  1.00  0.00    -0.100 A  
HETATM   23  C   UNL     1      -8.118   6.617  66.661  1.00  0.00    -0.110 A  
HETATM   24  C   UNL     1      -8.328   7.635  67.607  1.00  0.00    -0.118 A  
HETATM   25  C   UNL     1      -8.285   7.290  68.958  1.00  0.00    -0.125 A  
BRANCH  24  26
HETATM   26  N   UNL     1      -8.705   9.049  67.196  1.00  0.00    -0.116 N  
HETATM   27  C   UNL     1     -10.023   9.064  66.429  1.00  0.00    -0.300 C  
HETATM   28  C   UNL     1      -7.639   9.645  66.267  1.00  0.00    -0.101 C  
HETATM   29  C   UNL     1      -8.826   9.883  68.463  1.00  0.00    -0.122 C  
ENDBRANCH  24  26
ENDBRANCH  19  20
ENDBRANCH  16  19
ENDBRANCH  14  15
ENDBRANCH  13  14
ENDBRANCH  12  13
ENDBRANCH  11  12
ENDBRANCH  10  11
ENDBRANCH   9  10
ENDBRANCH   8   9
ENDBRANCH   7   8
ENDBRANCH   6   7
ENDBRANCH   5   6
ENDBRANCH   2   5
BRANCH   4  30
HETATM   30  O   UNL     1      -9.406  14.607  66.464  1.00  0.00    -0.265 OA 
BRANCH  30  31
HETATM   31  C   UNL     1      -8.662  15.743  66.825  1.00  0.00    -0.271 A  
HETATM   32  C   UNL     1      -7.289  15.630  67.052  1.00  0.00    -0.203 A  
HETATM   33  C   UNL     1      -9.302  16.986  66.842  1.00  0.00    -0.263 A  
HETATM   34  C   UNL     1      -8.559  18.142  67.138  1.00  0.00    -0.247 A  
HETATM   35  C   UNL     1      -6.554  16.762  67.357  1.00  0.00    -0.189 A  
HETATM   36  C   UNL     1      -7.185  18.004  67.409  1.00  0.00    -0.205 A  
BRANCH  34  37
HETATM   37  N   UNL     1      -9.241  19.499  67.278  1.00  0.00    -0.305 N  
HETATM   38  C   UNL     1      -8.221  20.638  67.309  1.00  0.00    -0.239 C  
HETATM   39  C   UNL     1     -10.170  19.766  66.093  1.00  0.00    -0.516 C  
HETATM   40  C   UNL     1     -10.018  19.478  68.595  1.00  0.00    -0.449 C  
ENDBRANCH  34  37
ENDBRANCH  30  31
ENDBRANCH   4  30
TORSDOF 17
ENDMDL
MODEL      109
REMARK 921   NORMALIZED FREE ENERGY PREDICTED BY IDOCK:   -4.79 KCAL/MOL
REMARK 922        TOTAL FREE ENERGY PREDICTED BY IDOCK:  -11.78 KCAL/MOL
REMARK 923 INTER-LIGAND FREE ENERGY PREDICTED BY IDOCK:   -9.68 KCAL/MOL
REMARK 924 INTRA-LIGAND FREE ENERGY PREDICTED BY IDOCK:   -2.09 KCAL/MOL
REMARK 927      BINDING AFFINITY PREDICTED BY RF-SCORE:    0.00 PKD
ROOT
HETATM    1  C   UNL     1      -7.152   6.537  72.523  1.00  0.00    -0.074 C  
HETATM    2  N   UNL     1      -8.193   5.662  73.036  1.00  0.00    -0.118 N  
HETATM    3  O   UNL     1      -9.381   3.697  72.730  1.00  0.00    -0.104 OA 
HETATM    4  C   UNL     1      -8.441   4.432  72.443  1.00  0.00    -0.109 C  
ENDROOT
BRANCH   2   5
HETATM    5  C   UNL     1      -9.127   6.190  74.029  1.00  0.00    -0.131 C  
BRANCH   5   6
HETATM    6  C   UNL     1      -9.878   7.437  73.541  1.00  0.00    -0.363 C  
BRANCH   6   7
HETATM    7  C   UNL     1     -11.212   7.062  72.883  1.00  0.00    -0.273 C  
BRANCH   7   8
HETATM    8  C   UNL     1     -11.131   7.117  71.352  1.00  0.00    -0.267 C  
BRANCH   8   9
HETATM    9  C   UNL     1     -12.124   8.134  70.780  1.00  0.00    -0.070 C  
BRANCH   9  10
HETATM   10  C   UNL     1     -11.925   9.524  71.389  1.00  0.00    -0.464 C  
BRANCH  10  11
HETATM   11  C   UNL     1     -11.044  10.441  70.533  1.00  0.00    -0.343 C  
BRANCH  11  12
HETATM   12  C   UNL     1     -10.507   9.756  69.278  1.00  0.00    -0.236 C  
BRANCH  12  13
HETATM   13  C   UNL     1     -10.970  10.467  68.009  1.00  0.00    -0.347 C  
BRANCH  13  14
HETATM   14  C   UNL     1     -11.885  11.630  68.363  1.00  0.00    -0.278 C  
BRANCH  14  15
HETATM   15  N   UNL     1     -11.741  12.735  67.427  1.00  0.00    -0.358 N  
HETATM   16  C   UNL     1     -11.521  14.012  67.910  1.00  0.00    -0.316 C  
HETATM   17  C   UNL     1     -11.784  12.460  65.997  1.00  0.00    -0.410 C  
HETATM   18  O   UNL     1     -11.511  14.309  69.100  1.00  0.00    -0.257 OA 
BRANCH  16  19
HETATM   19  O   UNL     1     -11.451  14.946  66.887  1.00  0.00    -0.351 OA 
BRANCH  19  20
HETATM   20  C   UNL     1     -10.319  15.764  66.962  1.00  0.00    -0.292 A  
HETATM   21  C   UNL     1      -9.087  15.168  66.717  1.00  0.00    -0.282 A  
HETATM   22  C   UNL     1      -7.958  15.979  66.667  1.00  0.00    -0.291 A  
HETATM   23  C   UNL     1      -8.064  17.360  66.862  1.00  0.00    -0.255 A  
HETATM   24  C   UNL     1      -9.306  17.964  67.123  1.00  0.00    -0.265 A  
HETATM   25  C   UNL     1     -10.438  17.151  67.133  1.00  0.00    -0.291 A  
BRANCH  24  26
HETATM   26  N   UNL     1      -9.450  19.470  67.277  1.00  0.00    -0.318 N  
HETATM   27  C   UNL     1      -9.955  19.833  68.669  1.00  0.00    -0.434 C  
HETATM   28  C   UNL     1     -10.469  20.022  66.272  1.00  0.00    -0.422 C  
HETATM   29  C   UNL     1      -8.082  20.093  67.037  1.00  0.00    -0.326 C  
ENDBRANCH  24  26
ENDBRANCH  19  20
ENDBRANCH  16  19
ENDBRANCH  14  15
ENDBRANCH  13  14
ENDBRANCH  12  13
ENDBRANCH  11  12
ENDBRANCH  10  11
ENDBRANCH   9  10
ENDBRANCH   8   9
ENDBRANCH   7   8
ENDBRANCH   6   7
ENDBRANCH   5   6
ENDBRANCH   2   5
BRANCH   4  30
HETATM   30  O   UNL     1      -7.538   4.142  71.416  1.00  0.00    -0.060 OA 
BRANCH  30  31
HETATM   31  C   UNL     1      -8.160   3.783  70.208  1.00  0.00    -0.049 A  
HETATM   32  C   UNL     1      -8.422   2.439  69.934  1.00  0.00    -0.088 A  
HETATM   33  C   UNL     1      -8.603   4.798  69.354  1.00  0.00    -0.099 A  
HETATM   34  C   UNL     1      -9.284   4.460  68.172  1.00  0.00    -0.137 A  
HETATM   35  C   UNL     1      -9.080   2.097  68.767  1.00  0.00    -0.193 A  
HETATM   36  C   UNL     1      -9.498   3.097  67.890  1.00  0.00    -0.215 A  
BRANCH  34  37
HETATM   37  N   UNL     1      -9.681   5.530  67.162  1.00  0.00    -0.132 N  
HETATM   38  C   UNL     1     -10.183   4.910  65.857  1.00  0.00    -0.223 C  
HETATM   39  C   UNL     1     -10.814   6.399  67.706  1.00  0.00    -0.334 C  
HETATM   40  C   UNL     1      -8.432   6.365  66.877  1.00  0.00    -0.110 C  
ENDBRANCH  34  37
ENDBRANCH  30  31
ENDBRANCH   4  30
TORSDOF 17
ENDMDL
MODEL      110
REMARK 921   NORMALIZED FREE ENERGY PREDICTED BY IDOCK:   -4.77 KCAL/MOL
REMARK 922        TOTAL FREE ENERGY PREDICTED BY IDOCK:  -11.73 KCAL/MOL
REMARK 923 INTER-LIGAND FREE ENERGY PREDICTED BY IDOCK:   -9.54 KCAL/MOL
REMARK 924 INTRA-LIGAND FREE ENERGY PREDICTED BY IDOCK:   -2.20 KCAL/MOL
REMARK 927      BINDING AFFINITY PREDICTED BY RF-SCORE:    0.00 PKD
ROOT
HETATM    1  C   UNL     1      -7.370   7.095  67.471  1.00  0.00    -0.092 C  
HETATM    2  N   UNL     1      -8.727   6.959  66.972  1.00  0.00    -0.117 N  
HETATM    3  O   UNL     1     -10.925   7.671  67.149  1.00  0.00    -0.266 OA 
HETATM    4  C   UNL     1      -9.735   7.802  67.419  1.00  0.00    -0.163 C  
ENDROOT
BRANCH   2   5
HETATM    5  C   UNL     1      -9.067   5.781  66.177  1.00  0.00    -0.153 C  
BRANCH   5   6
HETATM    6  C   UNL     1      -7.920   5.319  65.267  1.00  0.00    -0.106 C  
BRANCH   6   7
HETATM    7  C   UNL     1      -8.260   5.534  63.788  1.00  0.00    -0.108 C  
BRANCH   7   8
HETATM    8  C   UNL     1      -7.109   6.205  63.027  1.00  0.00    -0.051 C  
BRANCH   8   9
HETATM    9  C   UNL     1      -6.535   7.386  63.816  1.00  0.00    -0.052 C  
BRANCH   9  10
HETATM   10  C   UNL     1      -6.240   8.583  62.908  1.00  0.00    -0.087 C  
BRANCH  10  11
HETATM   11  C   UNL     1      -7.235   9.735  63.080  1.00  0.00    -0.119 C  
BRANCH  11  12
HETATM   12  C   UNL     1      -7.987   9.684  64.409  1.00  0.00    -0.138 C  
BRANCH  12  13
HETATM   13  C   UNL     1      -8.802  10.954  64.641  1.00  0.00    -0.096 C  
BRANCH  13  14
HETATM   14  C   UNL     1     -10.278  10.685  64.389  1.00  0.00    -0.330 C  
BRANCH  14  15
HETATM   15  N   UNL     1     -11.102  11.837  64.724  1.00  0.00    -0.310 N  
HETATM   16  C   UNL     1     -11.472  12.048  66.040  1.00  0.00    -0.338 C  
HETATM   17  C   UNL     1     -11.479  12.767  63.670  1.00  0.00    -0.481 C  
HETATM   18  O   UNL     1     -11.216  11.282  66.962  1.00  0.00    -0.298 OA 
BRANCH  16  19
HETATM   19  O   UNL     1     -12.289  13.161  66.174  1.00  0.00    -0.404 OA 
BRANCH  19  20
HETATM   20  C   UNL     1     -11.809  14.091  67.103  1.00  0.00    -0.411 A  
HETATM   21  C   UNL     1     -12.084  13.850  68.444  1.00  0.00    -0.327 A  
HETATM   22  C   UNL     1     -11.519  14.690  69.396  1.00  0.00    -0.330 A  
HETATM   23  C   UNL     1     -10.695  15.753  69.010  1.00  0.00    -0.235 A  
HETATM   24  C   UNL     1     -10.425  16.007  67.655  1.00  0.00    -0.292 A  
HETATM   25  C   UNL     1     -10.963  15.137  66.707  1.00  0.00    -0.321 A  
BRANCH  24  26
HETATM   26  N   UNL     1      -9.484  17.120  67.218  1.00  0.00    -0.241 N  
HETATM   27  C   UNL     1     -10.243  18.228  66.496  1.00  0.00    -0.394 C  
HETATM   28  C   UNL     1      -8.431  16.585  66.239  1.00  0.00    -0.328 C  
HETATM   29  C   UNL     1      -8.810  17.672  68.466  1.00  0.00    -0.285 C  
ENDBRANCH  24  26
ENDBRANCH  19  20
ENDBRANCH  16  19
ENDBRANCH  14  15
ENDBRANCH  13  14
ENDBRANCH  12  13
ENDBRANCH  11  12
ENDBRANCH  10  11
ENDBRANCH   9  10
ENDBRANCH   8   9
ENDBRANCH   7   8
ENDBRANCH   6   7
ENDBRANCH   5   6
ENDBRANCH   2   5
BRANCH   4  30
HETATM   30  O   UNL     1      -9.259   8.793  68.283  1.00  0.00    -0.140 OA 
BRANCH  30  31
HETATM   31  C   UNL     1      -9.817   8.727  69.572  1.00  0.00    -0.180 A  
HETATM   32  C   UNL     1     -10.679   9.735  70.007  1.00  0.00    -0.326 A  
HETATM   33  C   UNL     1      -9.577   7.590  70.349  1.00  0.00    -0.168 A  
HETATM   34  C   UNL     1     -10.178   7.477  71.614  1.00  0.00    -0.184 A  
HETATM   35  C   UNL     1     -11.265   9.637  71.257  1.00  0.00    -0.446 A  
HETATM   36  C   UNL     1     -11.009   8.524  72.056  1.00  0.00    -0.410 A  
BRANCH  34  37
HETATM   37  N   UNL     1      -9.851   6.309  72.537  1.00  0.00    -0.167 N  
HETATM   38  C   UNL     1     -10.474   5.006  72.033  1.00  0.00    -0.203 C  
HETATM   39  C   UNL     1      -8.342   6.080  72.612  1.00  0.00    -0.118 C  
HETATM   40  C   UNL     1     -10.428   6.647  73.913  1.00  0.00    -0.326 C  
ENDBRANCH  34  37
ENDBRANCH  30  31
ENDBRANCH   4  30
TORSDOF 17
ENDMDL
MODEL      111
REMARK 921   NORMALIZED FREE ENERGY PREDICTED BY IDOCK:   -4.76 KCAL/MOL
REMARK 922        TOTAL FREE ENERGY PREDICTED BY IDOCK:  -11.72 KCAL/MOL
REMARK 923 INTER-LIGAND FREE ENERGY PREDICTED BY IDOCK:   -9.21 KCAL/MOL
REMARK 924 INTRA-LIGAND FREE ENERGY PREDICTED BY IDOCK:   -2.52 KCAL/MOL
REMARK 927      BINDING AFFINITY PREDICTED BY RF-SCORE:    0.00 PKD
ROOT
HETATM    1  C   UNL     1     -11.721  15.379  69.150  1.00  0.00    -0.345 C  
HETATM    2  N   UNL     1     -11.267  15.931  67.886  1.00  0.00    -0.329 N  
HETATM    3  O   UNL     1     -10.940  15.550  65.624  1.00  0.00    -0.333 OA 
HETATM    4  C   UNL     1     -11.412  15.214  66.706  1.00  0.00    -0.195 C  
ENDROOT
BRANCH   2   5
HETATM    5  C   UNL     1     -10.446  17.140  67.903  1.00  0.00    -0.369 C  
BRANCH   5   6
HETATM    6  C   UNL     1      -9.088  16.932  68.589  1.00  0.00    -0.265 C  
BRANCH   6   7
HETATM    7  C   UNL     1      -7.930  17.128  67.602  1.00  0.00    -0.187 C  
BRANCH   7   8
HETATM    8  C   UNL     1      -7.634  15.851  66.807  1.00  0.00    -0.215 C  
BRANCH   8   9
HETATM    9  C   UNL     1      -7.472  14.643  67.734  1.00  0.00    -0.180 C  
BRANCH   9  10
HETATM   10  C   UNL     1      -6.114  14.649  68.441  1.00  0.00    -0.101 C  
BRANCH  10  11
HETATM   11  C   UNL     1      -5.536  13.246  68.655  1.00  0.00    -0.076 C  
BRANCH  11  12
HETATM   12  C   UNL     1      -6.472  12.323  69.433  1.00  0.00    -0.105 C  
BRANCH  12  13
HETATM   13  C   UNL     1      -5.694  11.300  70.256  1.00  0.00    -0.134 C  
BRANCH  13  14
HETATM   14  C   UNL     1      -5.472  10.032  69.445  1.00  0.00    -0.038 C  
BRANCH  14  15
HETATM   15  N   UNL     1      -6.087   8.873  70.076  1.00  0.00    -0.036 N  
HETATM   16  C   UNL     1      -6.616   7.869  69.286  1.00  0.00    -0.036 C  
HETATM   17  C   UNL     1      -6.088   8.777  71.529  1.00  0.00    -0.059 C  
HETATM   18  O   UNL     1      -6.676   7.911  68.062  1.00  0.00    -0.063 OA 
BRANCH  16  19
HETATM   19  O   UNL     1      -7.198   6.866  70.047  1.00  0.00    -0.075 OA 
BRANCH  19  20
HETATM   20  C   UNL     1      -8.580   6.759  69.855  1.00  0.00    -0.141 A  
HETATM   21  C   UNL     1      -9.025   5.783  68.970  1.00  0.00    -0.117 A  
HETATM   22  C   UNL     1     -10.395   5.574  68.851  1.00  0.00    -0.289 A  
HETATM   23  C   UNL     1     -11.299   6.331  69.603  1.00  0.00    -0.492 A  
HETATM   24  C   UNL     1     -10.853   7.326  70.489  1.00  0.00    -0.243 A  
HETATM   25  C   UNL     1      -9.478   7.504  70.632  1.00  0.00    -0.164 A  
BRANCH  24  26
HETATM   26  N   UNL     1     -11.817   8.117  71.360  1.00  0.00    -0.289 N  
HETATM   27  C   UNL     1     -13.227   7.542  71.279  1.00  0.00    -0.257 C  
HETATM   28  C   UNL     1     -11.899   9.575  70.890  1.00  0.00    -0.309 C  
HETATM   29  C   UNL     1     -11.306   8.054  72.792  1.00  0.00    -0.374 C  
ENDBRANCH  24  26
ENDBRANCH  19  20
ENDBRANCH  16  19
ENDBRANCH  14  15
ENDBRANCH  13  14
ENDBRANCH  12  13
ENDBRANCH  11  12
ENDBRANCH  10  11
ENDBRANCH   9  10
ENDBRANCH   8   9
ENDBRANCH   7   8
ENDBRANCH   6   7
ENDBRANCH   5   6
ENDBRANCH   2   5
BRANCH   4  30
HETATM   30  O   UNL     1     -12.102  14.013  66.892  1.00  0.00    -0.424 OA 
BRANCH  30  31
HETATM   31  C   UNL     1     -11.679  12.985  66.031  1.00  0.00    -0.393 A  
HETATM   32  C   UNL     1     -12.190  12.912  64.734  1.00  0.00    -0.499 A  
HETATM   33  C   UNL     1     -10.669  12.122  66.464  1.00  0.00    -0.290 A  
HETATM   34  C   UNL     1     -10.188  11.128  65.594  1.00  0.00    -0.256 A  
HETATM   35  C   UNL     1     -11.732  11.929  63.876  1.00  0.00    -0.509 A  
HETATM   36  C   UNL     1     -10.747  11.040  64.305  1.00  0.00    -0.348 A  
BRANCH  34  37
HETATM   37  N   UNL     1      -9.170  10.097  66.066  1.00  0.00    -0.152 N  
HETATM   38  C   UNL     1      -8.726   9.183  64.923  1.00  0.00    -0.182 C  
HETATM   39  C   UNL     1      -7.912  10.780  66.603  1.00  0.00    -0.139 C  
HETATM   40  C   UNL     1      -9.848   9.258  67.151  1.00  0.00    -0.195 C  
ENDBRANCH  34  37
ENDBRANCH  30  31
ENDBRANCH   4  30
TORSDOF 17
ENDMDL
MODEL      112
REMARK 921   NORMALIZED FREE ENERGY PREDICTED BY IDOCK:   -4.76 KCAL/MOL
REMARK 922        TOTAL FREE ENERGY PREDICTED BY IDOCK:  -11.72 KCAL/MOL
REMARK 923 INTER-LIGAND FREE ENERGY PREDICTED BY IDOCK:  -10.55 KCAL/MOL
REMARK 924 INTRA-LIGAND FREE ENERGY PREDICTED BY IDOCK:   -1.17 KCAL/MOL
REMARK 927      BINDING AFFINITY PREDICTED BY RF-SCORE:    0.00 PKD
ROOT
HETATM    1  C   UNL     1     -10.686  16.933  69.115  1.00  0.00    -0.298 C  
HETATM    2  N   UNL     1     -11.314  15.726  69.625  1.00  0.00    -0.307 N  
HETATM    3  O   UNL     1     -12.400  13.749  69.096  1.00  0.00    -0.303 OA 
HETATM    4  C   UNL     1     -11.747  14.732  68.758  1.00  0.00    -0.323 C  
ENDROOT
BRANCH   2   5
HETATM    5  C   UNL     1     -11.696  15.676  71.035  1.00  0.00    -0.403 C  
BRANCH   5   6
HETATM    6  C   UNL     1     -13.212  15.552  71.241  1.00  0.00    -0.588 C  
BRANCH   6   7
HETATM    7  C   UNL     1     -13.539  14.780  72.525  1.00  0.00    -0.571 C  
BRANCH   7   8
HETATM    8  C   UNL     1     -14.026  13.356  72.229  1.00  0.00    -0.605 C  
BRANCH   8   9
HETATM    9  C   UNL     1     -12.869  12.354  72.264  1.00  0.00    -0.021 C  
BRANCH   9  10
HETATM   10  C   UNL     1     -13.044  11.250  71.218  1.00  0.00    -0.317 C  
BRANCH  10  11
HETATM   11  C   UNL     1     -13.284   9.866  71.832  1.00  0.00    -0.558 C  
BRANCH  11  12
HETATM   12  C   UNL     1     -11.992   9.107  72.124  1.00  0.00    -0.364 C  
BRANCH  12  13
HETATM   13  C   UNL     1     -10.892   9.467  71.128  1.00  0.00    -0.427 C  
BRANCH  13  14
HETATM   14  C   UNL     1      -9.802   8.406  71.143  1.00  0.00    -0.192 C  
BRANCH  14  15
HETATM   15  N   UNL     1     -10.300   7.113  70.698  1.00  0.00    -0.203 N  
HETATM   16  C   UNL     1     -10.131   6.003  71.505  1.00  0.00    -0.192 C  
HETATM   17  C   UNL     1     -11.009   7.028  69.428  1.00  0.00    -0.201 C  
HETATM   18  O   UNL     1      -9.513   6.006  72.564  1.00  0.00    -0.148 OA 
BRANCH  16  19
HETATM   19  O   UNL     1     -10.624   4.851  70.911  1.00  0.00    -0.147 OA 
BRANCH  19  20
HETATM   20  C   UNL     1      -9.620   4.008  70.422  1.00  0.00    -0.195 A  
HETATM   21  C   UNL     1      -9.136   3.030  71.283  1.00  0.00    -0.179 A  
HETATM   22  C   UNL     1      -8.225   2.104  70.787  1.00  0.00    -0.067 A  
HETATM   23  C   UNL     1      -7.807   2.160  69.453  1.00  0.00    -0.049 A  
HETATM   24  C   UNL     1      -8.286   3.154  68.583  1.00  0.00    -0.064 A  
HETATM   25  C   UNL     1      -9.228   4.056  69.077  1.00  0.00    -0.215 A  
BRANCH  24  26
HETATM   26  N   UNL     1      -7.890   3.195  67.115  1.00  0.00    -0.078 N  
HETATM   27  C   UNL     1      -8.739   2.232  66.291  1.00  0.00    -0.120 C  
HETATM   28  C   UNL     1      -6.427   2.770  66.936  1.00  0.00    -0.036 C  
HETATM   29  C   UNL     1      -8.088   4.622  66.622  1.00  0.00    -0.103 C  
ENDBRANCH  24  26
ENDBRANCH  19  20
ENDBRANCH  16  19
ENDBRANCH  14  15
ENDBRANCH  13  14
ENDBRANCH  12  13
ENDBRANCH  11  12
ENDBRANCH  10  11
ENDBRANCH   9  10
ENDBRANCH   8   9
ENDBRANCH   7   8
ENDBRANCH   6   7
ENDBRANCH   5   6
ENDBRANCH   2   5
BRANCH   4  30
HETATM   30  O   UNL     1     -11.421  15.004  67.426  1.00  0.00    -0.341 OA 
BRANCH  30  31
HETATM   31  C   UNL     1     -11.438  13.866  66.602  1.00  0.00    -0.355 A  
HETATM   32  C   UNL     1     -12.380  13.765  65.577  1.00  0.00    -0.507 A  
HETATM   33  C   UNL     1     -10.433  12.908  66.763  1.00  0.00    -0.262 A  
HETATM   34  C   UNL     1     -10.395  11.794  65.906  1.00  0.00    -0.241 A  
HETATM   35  C   UNL     1     -12.358  12.666  64.738  1.00  0.00    -0.556 A  
HETATM   36  C   UNL     1     -11.381  11.686  64.907  1.00  0.00    -0.252 A  
BRANCH  34  37
HETATM   37  N   UNL     1      -9.386  10.672  66.121  1.00  0.00    -0.171 N  
HETATM   38  C   UNL     1      -9.060   9.953  64.811  1.00  0.00    -0.237 C  
HETATM   39  C   UNL     1      -8.068  11.222  66.666  1.00  0.00    -0.160 C  
HETATM   40  C   UNL     1     -10.018   9.680  67.099  1.00  0.00    -0.194 C  
ENDBRANCH  34  37
ENDBRANCH  30  31
ENDBRANCH   4  30
TORSDOF 17
ENDMDL
MODEL      113
REMARK 921   NORMALIZED FREE ENERGY PREDICTED BY IDOCK:   -4.75 KCAL/MOL
REMARK 922        TOTAL FREE ENERGY PREDICTED BY IDOCK:  -11.71 KCAL/MOL
REMARK 923 INTER-LIGAND FREE ENERGY PREDICTED BY IDOCK:   -9.45 KCAL/MOL
REMARK 924 INTRA-LIGAND FREE ENERGY PREDICTED BY IDOCK:   -2.26 KCAL/MOL
REMARK 927      BINDING AFFINITY PREDICTED BY RF-SCORE:    0.00 PKD
ROOT
HETATM    1  C   UNL     1     -12.299  11.839  70.639  1.00  0.00    -0.328 C  
HETATM    2  N   UNL     1     -11.610  11.055  69.628  1.00  0.00    -0.287 N  
HETATM    3  O   UNL     1     -10.073   9.372  69.213  1.00  0.00    -0.182 OA 
HETATM    4  C   UNL     1     -10.789   9.996  69.991  1.00  0.00    -0.302 C  
ENDROOT
BRANCH   2   5
HETATM    5  C   UNL     1     -11.603  11.539  68.249  1.00  0.00    -0.308 C  
BRANCH   5   6
HETATM    6  C   UNL     1     -10.414  12.460  67.943  1.00  0.00    -0.227 C  
BRANCH   6   7
HETATM    7  C   UNL     1     -10.785  13.935  68.141  1.00  0.00    -0.260 C  
BRANCH   7   8
HETATM    8  C   UNL     1     -12.026  14.326  67.328  1.00  0.00    -0.439 C  
BRANCH   8   9
HETATM    9  C   UNL     1     -11.698  14.446  65.837  1.00  0.00    -0.371 C  
BRANCH   9  10
HETATM   10  C   UNL     1     -12.738  13.730  64.970  1.00  0.00    -0.379 C  
BRANCH  10  11
HETATM   11  C   UNL     1     -12.120  12.728  63.988  1.00  0.00    -0.533 C  
BRANCH  11  12
HETATM   12  C   UNL     1     -10.678  12.362  64.331  1.00  0.00    -0.371 C  
BRANCH  12  13
HETATM   13  C   UNL     1     -10.329  10.953  63.859  1.00  0.00    -0.397 C  
BRANCH  13  14
HETATM   14  C   UNL     1      -8.819  10.775  63.808  1.00  0.00    -0.125 C  
BRANCH  14  15
HETATM   15  N   UNL     1      -8.354   9.817  64.800  1.00  0.00    -0.144 N  
HETATM   16  C   UNL     1      -8.131   8.504  64.426  1.00  0.00    -0.163 C  
HETATM   17  C   UNL     1      -8.092  10.275  66.157  1.00  0.00    -0.133 C  
HETATM   18  O   UNL     1      -8.368   8.052  63.311  1.00  0.00    -0.096 OA 
BRANCH  16  19
HETATM   19  O   UNL     1      -7.735   7.721  65.501  1.00  0.00    -0.089 OA 
BRANCH  19  20
HETATM   20  C   UNL     1      -8.607   6.659  65.761  1.00  0.00    -0.140 A  
HETATM   21  C   UNL     1      -9.635   6.887  66.669  1.00  0.00    -0.218 A  
HETATM   22  C   UNL     1     -10.586   5.890  66.857  1.00  0.00    -0.384 A  
HETATM   23  C   UNL     1     -10.505   4.686  66.149  1.00  0.00    -0.281 A  
HETATM   24  C   UNL     1      -9.460   4.447  65.240  1.00  0.00    -0.171 A  
HETATM   25  C   UNL     1      -8.533   5.466  65.028  1.00  0.00    -0.150 A  
BRANCH  24  26
HETATM   26  N   UNL     1      -9.389   3.170  64.417  1.00  0.00    -0.135 N  
HETATM   27  C   UNL     1      -9.132   1.958  65.306  1.00  0.00    -0.102 C  
HETATM   28  C   UNL     1      -8.235   3.240  63.409  1.00  0.00    -0.085 C  
HETATM   29  C   UNL     1     -10.716   3.014  63.688  1.00  0.00    -0.215 C  
ENDBRANCH  24  26
ENDBRANCH  19  20
ENDBRANCH  16  19
ENDBRANCH  14  15
ENDBRANCH  13  14
ENDBRANCH  12  13
ENDBRANCH  11  12
ENDBRANCH  10  11
ENDBRANCH   9  10
ENDBRANCH   8   9
ENDBRANCH   7   8
ENDBRANCH   6   7
ENDBRANCH   5   6
ENDBRANCH   2   5
BRANCH   4  30
HETATM   30  O   UNL     1     -10.804   9.754  71.367  1.00  0.00    -0.308 OA 
BRANCH  30  31
HETATM   31  C   UNL     1     -11.204   8.449  71.702  1.00  0.00    -0.278 A  
HETATM   32  C   UNL     1     -12.529   8.057  71.503  1.00  0.00    -0.334 A  
HETATM   33  C   UNL     1     -10.233   7.539  72.128  1.00  0.00    -0.238 A  
HETATM   34  C   UNL     1     -10.603   6.212  72.406  1.00  0.00    -0.210 A  
HETATM   35  C   UNL     1     -12.904   6.756  71.787  1.00  0.00    -0.307 A  
HETATM   36  C   UNL     1     -11.952   5.845  72.243  1.00  0.00    -0.211 A  
BRANCH  34  37
HETATM   37  N   UNL     1      -9.597   5.220  72.981  1.00  0.00    -0.142 N  
HETATM   38  C   UNL     1      -9.220   5.575  74.420  1.00  0.00    -0.124 C  
HETATM   39  C   UNL     1     -10.181   3.808  73.010  1.00  0.00    -0.158 C  
HETATM   40  C   UNL     1      -8.349   5.284  72.099  1.00  0.00    -0.125 C  
ENDBRANCH  34  37
ENDBRANCH  30  31
ENDBRANCH   4  30
TORSDOF 17
ENDMDL
MODEL      114
REMARK 921   NORMALIZED FREE ENERGY PREDICTED BY IDOCK:   -4.75 KCAL/MOL
REMARK 922        TOTAL FREE ENERGY PREDICTED BY IDOCK:  -11.70 KCAL/MOL
REMARK 923 INTER-LIGAND FREE ENERGY PREDICTED BY IDOCK:   -9.33 KCAL/MOL
REMARK 924 INTRA-LIGAND FREE ENERGY PREDICTED BY IDOCK:   -2.37 KCAL/MOL
REMARK 927      BINDING AFFINITY PREDICTED BY RF-SCORE:    0.00 PKD
ROOT
HETATM    1  C   UNL     1     -12.009  14.241  69.485  1.00  0.00    -0.336 C  
HETATM    2  N   UNL     1     -11.552  15.103  68.409  1.00  0.00    -0.332 N  
HETATM    3  O   UNL     1     -11.180  15.308  66.131  1.00  0.00    -0.318 OA 
HETATM    4  C   UNL     1     -11.659  14.701  67.085  1.00  0.00    -0.378 C  
ENDROOT
BRANCH   2   5
HETATM    5  C   UNL     1     -10.767  16.289  68.746  1.00  0.00    -0.309 C  
BRANCH   5   6
HETATM    6  C   UNL     1      -9.340  15.954  69.202  1.00  0.00    -0.252 C  
BRANCH   6   7
HETATM    7  C   UNL     1      -8.299  16.475  68.204  1.00  0.00    -0.186 C  
BRANCH   7   8
HETATM    8  C   UNL     1      -7.921  15.414  67.163  1.00  0.00    -0.251 C  
BRANCH   8   9
HETATM    9  C   UNL     1      -7.908  14.011  67.779  1.00  0.00    -0.176 C  
BRANCH   9  10
HETATM   10  C   UNL     1      -6.588  13.721  68.499  1.00  0.00    -0.099 C  
BRANCH  10  11
HETATM   11  C   UNL     1      -6.153  12.255  68.399  1.00  0.00    -0.052 C  
BRANCH  11  12
HETATM   12  C   UNL     1      -6.634  11.405  69.573  1.00  0.00    -0.129 C  
BRANCH  12  13
HETATM   13  C   UNL     1      -7.933  10.675  69.243  1.00  0.00    -0.139 C  
BRANCH  13  14
HETATM   14  C   UNL     1      -8.252   9.654  70.325  1.00  0.00    -0.191 C  
BRANCH  14  15
HETATM   15  N   UNL     1      -9.296   8.731  69.906  1.00  0.00    -0.158 N  
HETATM   16  C   UNL     1      -8.948   7.490  69.406  1.00  0.00    -0.139 C  
HETATM   17  C   UNL     1     -10.690   9.122  70.066  1.00  0.00    -0.232 C  
HETATM   18  O   UNL     1      -7.795   7.120  69.214  1.00  0.00    -0.112 OA 
BRANCH  16  19
HETATM   19  O   UNL     1     -10.060   6.759  69.016  1.00  0.00    -0.155 OA 
BRANCH  19  20
HETATM   20  C   UNL     1      -9.740   5.506  68.482  1.00  0.00    -0.134 A  
HETATM   21  C   UNL     1      -9.666   4.438  69.368  1.00  0.00    -0.267 A  
HETATM   22  C   UNL     1      -9.467   3.162  68.850  1.00  0.00    -0.183 A  
HETATM   23  C   UNL     1      -9.342   2.964  67.471  1.00  0.00    -0.218 A  
HETATM   24  C   UNL     1      -9.404   4.044  66.574  1.00  0.00    -0.181 A  
HETATM   25  C   UNL     1      -9.642   5.315  67.096  1.00  0.00    -0.149 A  
BRANCH  24  26
HETATM   26  N   UNL     1      -9.331   3.842  65.068  1.00  0.00    -0.148 N  
HETATM   27  C   UNL     1      -8.797   2.455  64.726  1.00  0.00    -0.117 C  
HETATM   28  C   UNL     1      -8.377   4.861  64.431  1.00  0.00    -0.133 C  
HETATM   29  C   UNL     1     -10.736   4.016  64.510  1.00  0.00    -0.158 C  
ENDBRANCH  24  26
ENDBRANCH  19  20
ENDBRANCH  16  19
ENDBRANCH  14  15
ENDBRANCH  13  14
ENDBRANCH  12  13
ENDBRANCH  11  12
ENDBRANCH  10  11
ENDBRANCH   9  10
ENDBRANCH   8   9
ENDBRANCH   7   8
ENDBRANCH   6   7
ENDBRANCH   5   6
ENDBRANCH   2   5
BRANCH   4  30
HETATM   30  O   UNL     1     -12.316  13.474  66.950  1.00  0.00    -0.345 OA 
BRANCH  30  31
HETATM   31  C   UNL     1     -11.880  12.724  65.844  1.00  0.00    -0.437 A  
HETATM   32  C   UNL     1     -12.463  12.929  64.592  1.00  0.00    -0.499 A  
HETATM   33  C   UNL     1     -10.790  11.863  66.006  1.00  0.00    -0.342 A  
HETATM   34  C   UNL     1     -10.300  11.153  64.896  1.00  0.00    -0.313 A  
HETATM   35  C   UNL     1     -11.995  12.224  63.498  1.00  0.00    -0.625 A  
HETATM   36  C   UNL     1     -10.930  11.338  63.651  1.00  0.00    -0.369 A  
BRANCH  34  37
HETATM   37  N   UNL     1      -9.189  10.121  65.054  1.00  0.00    -0.197 N  
HETATM   38  C   UNL     1      -7.919  10.748  65.631  1.00  0.00    -0.095 C  
HETATM   39  C   UNL     1      -9.611   9.009  66.015  1.00  0.00    -0.272 C  
HETATM   40  C   UNL     1      -8.891   9.563  63.662  1.00  0.00    -0.210 C  
ENDBRANCH  34  37
ENDBRANCH  30  31
ENDBRANCH   4  30
TORSDOF 17
ENDMDL
MODEL      115
REMARK 921   NORMALIZED FREE ENERGY PREDICTED BY IDOCK:   -4.74 KCAL/MOL
REMARK 922        TOTAL FREE ENERGY PREDICTED BY IDOCK:  -11.69 KCAL/MOL
REMARK 923 INTER-LIGAND FREE ENERGY PREDICTED BY IDOCK:  -10.58 KCAL/MOL
REMARK 924 INTRA-LIGAND FREE ENERGY PREDICTED BY IDOCK:   -1.10 KCAL/MOL
REMARK 927      BINDING AFFINITY PREDICTED BY RF-SCORE:    0.00 PKD
ROOT
HETATM    1  C   UNL     1     -12.141  12.444  63.235  1.00  0.00    -0.421 C  
HETATM    2  N   UNL     1     -10.863  12.402  63.925  1.00  0.00    -0.383 N  
HETATM    3  O   UNL     1      -9.359  13.548  65.263  1.00  0.00     0.235 OA 
HETATM    4  C   UNL     1     -10.470  13.445  64.752  1.00  0.00    -0.403 C  
ENDROOT
BRANCH   2   5
HETATM    5  C   UNL     1      -9.899  11.368  63.554  1.00  0.00    -0.375 C  
BRANCH   5   6
HETATM    6  C   UNL     1      -9.808  10.236  64.588  1.00  0.00    -0.396 C  
BRANCH   6   7
HETATM    7  C   UNL     1      -8.647   9.285  64.272  1.00  0.00    -0.214 C  
BRANCH   7   8
HETATM    8  C   UNL     1      -8.418   8.268  65.398  1.00  0.00    -0.189 C  
BRANCH   8   9
HETATM    9  C   UNL     1      -7.020   8.418  66.006  1.00  0.00    -0.065 C  
BRANCH   9  10
HETATM   10  C   UNL     1      -7.064   8.405  67.537  1.00  0.00    -0.083 C  
BRANCH  10  11
HETATM   11  C   UNL     1      -7.632   7.105  68.115  1.00  0.00    -0.115 C  
BRANCH  11  12
HETATM   12  C   UNL     1      -7.876   7.173  69.621  1.00  0.00    -0.118 C  
BRANCH  12  13
HETATM   13  C   UNL     1      -8.750   6.018  70.101  1.00  0.00    -0.139 C  
BRANCH  13  14
HETATM   14  C   UNL     1      -8.679   5.900  71.617  1.00  0.00    -0.136 C  
BRANCH  14  15
HETATM   15  N   UNL     1      -9.545   6.868  72.275  1.00  0.00    -0.148 N  
HETATM   16  C   UNL     1     -10.911   6.804  72.075  1.00  0.00    -0.238 C  
HETATM   17  C   UNL     1      -8.952   7.854  73.167  1.00  0.00    -0.243 C  
HETATM   18  O   UNL     1     -11.463   6.022  71.309  1.00  0.00    -0.274 OA 
BRANCH  16  19
HETATM   19  O   UNL     1     -11.578   7.824  72.739  1.00  0.00    -0.362 OA 
BRANCH  19  20
HETATM   20  C   UNL     1     -11.895   8.907  71.912  1.00  0.00    -0.370 A  
HETATM   21  C   UNL     1     -12.768   9.862  72.421  1.00  0.00    -0.143 A  
HETATM   22  C   UNL     1     -13.007  11.007  71.671  1.00  0.00    -0.561 A  
HETATM   23  C   UNL     1     -12.384  11.190  70.431  1.00  0.00    -0.430 A  
HETATM   24  C   UNL     1     -11.511  10.221  69.907  1.00  0.00    -0.273 A  
HETATM   25  C   UNL     1     -11.246   9.093  70.683  1.00  0.00    -0.322 A  
BRANCH  24  26
HETATM   26  N   UNL     1     -10.778  10.428  68.591  1.00  0.00    -0.204 N  
HETATM   27  C   UNL     1      -9.363  10.947  68.827  1.00  0.00    -0.185 C  
HETATM   28  C   UNL     1     -11.500  11.470  67.727  1.00  0.00    -0.286 C  
HETATM   29  C   UNL     1     -10.732   9.088  67.872  1.00  0.00    -0.138 C  
ENDBRANCH  24  26
ENDBRANCH  19  20
ENDBRANCH  16  19
ENDBRANCH  14  15
ENDBRANCH  13  14
ENDBRANCH  12  13
ENDBRANCH  11  12
ENDBRANCH  10  11
ENDBRANCH   9  10
ENDBRANCH   8   9
ENDBRANCH   7   8
ENDBRANCH   6   7
ENDBRANCH   5   6
ENDBRANCH   2   5
BRANCH   4  30
HETATM   30  O   UNL     1     -11.461  14.422  64.888  1.00  0.00    -0.350 OA 
BRANCH  30  31
HETATM   31  C   UNL     1     -11.296  15.231  66.026  1.00  0.00    -0.162 A  
HETATM   32  C   UNL     1     -11.738  14.777  67.270  1.00  0.00    -0.366 A  
HETATM   33  C   UNL     1     -10.592  16.432  65.898  1.00  0.00    -0.294 A  
HETATM   34  C   UNL     1     -10.363  17.224  67.037  1.00  0.00    -0.318 A  
HETATM   35  C   UNL     1     -11.527  15.557  68.393  1.00  0.00    -0.370 A  
HETATM   36  C   UNL     1     -10.854  16.772  68.276  1.00  0.00    -0.366 A  
BRANCH  34  37
HETATM   37  N   UNL     1      -9.700  18.591  66.921  1.00  0.00    -0.308 N  
HETATM   38  C   UNL     1      -8.342  18.499  66.223  1.00  0.00    -0.213 C  
HETATM   39  C   UNL     1     -10.561  19.545  66.093  1.00  0.00    -0.487 C  
HETATM   40  C   UNL     1      -9.503  19.119  68.343  1.00  0.00    -0.369 C  
ENDBRANCH  34  37
ENDBRANCH  30  31
ENDBRANCH   4  30
TORSDOF 17
ENDMDL
MODEL      116
REMARK 921   NORMALIZED FREE ENERGY PREDICTED BY IDOCK:   -4.74 KCAL/MOL
REMARK 922        TOTAL FREE ENERGY PREDICTED BY IDOCK:  -11.68 KCAL/MOL
REMARK 923 INTER-LIGAND FREE ENERGY PREDICTED BY IDOCK:  -10.05 KCAL/MOL
REMARK 924 INTRA-LIGAND FREE ENERGY PREDICTED BY IDOCK:   -1.63 KCAL/MOL
REMARK 927      BINDING AFFINITY PREDICTED BY RF-SCORE:    0.00 PKD
ROOT
HETATM    1  C   UNL     1     -12.095  13.029  64.240  1.00  0.00    -0.414 C  
HETATM    2  N   UNL     1     -11.537  12.218  65.309  1.00  0.00    -0.354 N  
HETATM    3  O   UNL     1     -11.123  12.047  67.582  1.00  0.00    -0.234 OA 
HETATM    4  C   UNL     1     -11.673  12.602  66.635  1.00  0.00    -0.398 C  
ENDROOT
BRANCH   2   5
HETATM    5  C   UNL     1     -10.632  11.124  64.959  1.00  0.00    -0.273 C  
BRANCH   5   6
HETATM    6  C   UNL     1     -10.097  11.224  63.524  1.00  0.00    -0.443 C  
BRANCH   6   7
HETATM    7  C   UNL     1      -9.098  10.100  63.222  1.00  0.00    -0.293 C  
BRANCH   7   8
HETATM    8  C   UNL     1      -8.541   9.469  64.504  1.00  0.00    -0.206 C  
BRANCH   8   9
HETATM    9  C   UNL     1      -7.323   8.589  64.207  1.00  0.00    -0.102 C  
BRANCH   9  10
HETATM   10  C   UNL     1      -7.706   7.344  63.402  1.00  0.00    -0.125 C  
BRANCH  10  11
HETATM   11  C   UNL     1      -7.317   6.033  64.092  1.00  0.00    -0.069 C  
BRANCH  11  12
HETATM   12  C   UNL     1      -8.500   5.089  64.297  1.00  0.00    -0.138 C  
BRANCH  12  13
HETATM   13  C   UNL     1      -8.617   4.644  65.753  1.00  0.00    -0.122 C  
BRANCH  13  14
HETATM   14  C   UNL     1      -8.942   5.836  66.642  1.00  0.00    -0.123 C  
BRANCH  14  15
HETATM   15  N   UNL     1      -9.782   5.456  67.768  1.00  0.00    -0.129 N  
HETATM   16  C   UNL     1     -10.668   6.377  68.297  1.00  0.00    -0.285 C  
HETATM   17  C   UNL     1      -9.703   4.096  68.281  1.00  0.00    -0.082 C  
HETATM   18  O   UNL     1     -10.753   7.545  67.931  1.00  0.00    -0.202 OA 
BRANCH  16  19
HETATM   19  O   UNL     1     -11.355   5.865  69.388  1.00  0.00    -0.346 OA 
BRANCH  19  20
HETATM   20  C   UNL     1     -11.111   6.567  70.574  1.00  0.00    -0.319 A  
HETATM   21  C   UNL     1     -12.154   7.329  71.088  1.00  0.00    -0.376 A  
HETATM   22  C   UNL     1     -11.979   7.939  72.325  1.00  0.00    -0.387 A  
HETATM   23  C   UNL     1     -10.781   7.790  73.030  1.00  0.00    -0.446 A  
HETATM   24  C   UNL     1      -9.720   7.030  72.508  1.00  0.00    -0.149 A  
HETATM   25  C   UNL     1      -9.916   6.389  71.286  1.00  0.00    -0.204 A  
BRANCH  24  26
HETATM   26  N   UNL     1      -8.433   6.806  73.287  1.00  0.00    -0.118 N  
HETATM   27  C   UNL     1      -8.183   7.943  74.273  1.00  0.00    -0.251 C  
HETATM   28  C   UNL     1      -7.228   6.761  72.339  1.00  0.00    -0.086 C  
HETATM   29  C   UNL     1      -8.567   5.486  74.032  1.00  0.00    -0.114 C  
ENDBRANCH  24  26
ENDBRANCH  19  20
ENDBRANCH  16  19
ENDBRANCH  14  15
ENDBRANCH  13  14
ENDBRANCH  12  13
ENDBRANCH  11  12
ENDBRANCH  10  11
ENDBRANCH   9  10
ENDBRANCH   8   9
ENDBRANCH   7   8
ENDBRANCH   6   7
ENDBRANCH   5   6
ENDBRANCH   2   5
BRANCH   4  30
HETATM   30  O   UNL     1     -12.457  13.750  66.782  1.00  0.00    -0.366 OA 
BRANCH  30  31
HETATM   31  C   UNL     1     -11.876  14.722  67.614  1.00  0.00    -0.292 A  
HETATM   32  C   UNL     1     -12.268  14.817  68.950  1.00  0.00    -0.157 A  
HETATM   33  C   UNL     1     -10.834  15.503  67.105  1.00  0.00    -0.316 A  
HETATM   34  C   UNL     1     -10.198  16.437  67.942  1.00  0.00    -0.268 A  
HETATM   35  C   UNL     1     -11.656  15.742  69.776  1.00  0.00    -0.359 A  
HETATM   36  C   UNL     1     -10.637  16.551  69.274  1.00  0.00    -0.327 A  
BRANCH  34  37
HETATM   37  N   UNL     1      -9.137  17.385  67.395  1.00  0.00    -0.234 N  
HETATM   38  C   UNL     1      -9.764  18.514  66.575  1.00  0.00    -0.343 C  
HETATM   39  C   UNL     1      -8.356  18.043  68.532  1.00  0.00    -0.304 C  
HETATM   40  C   UNL     1      -8.215  16.560  66.497  1.00  0.00    -0.300 C  
ENDBRANCH  34  37
ENDBRANCH  30  31
ENDBRANCH   4  30
TORSDOF 17
ENDMDL
MODEL      117
REMARK 921   NORMALIZED FREE ENERGY PREDICTED BY IDOCK:   -4.73 KCAL/MOL
REMARK 922        TOTAL FREE ENERGY PREDICTED BY IDOCK:  -11.66 KCAL/MOL
REMARK 923 INTER-LIGAND FREE ENERGY PREDICTED BY IDOCK:   -9.94 KCAL/MOL
REMARK 924 INTRA-LIGAND FREE ENERGY PREDICTED BY IDOCK:   -1.71 KCAL/MOL
REMARK 927      BINDING AFFINITY PREDICTED BY RF-SCORE:    0.00 PKD
ROOT
HETATM    1  C   UNL     1     -11.624  14.220  69.595  1.00  0.00    -0.296 C  
HETATM    2  N   UNL     1     -10.931  13.769  68.400  1.00  0.00    -0.245 N  
HETATM    3  O   UNL     1      -8.969  13.837  67.170  1.00  0.00    -0.216 OA 
HETATM    4  C   UNL     1      -9.589  14.066  68.204  1.00  0.00    -0.220 C  
ENDROOT
BRANCH   2   5
HETATM    5  C   UNL     1     -11.717  13.207  67.303  1.00  0.00    -0.374 C  
BRANCH   5   6
HETATM    6  C   UNL     1     -12.204  14.270  66.309  1.00  0.00    -0.433 C  
BRANCH   6   7
HETATM    7  C   UNL     1     -12.398  13.677  64.908  1.00  0.00    -0.442 C  
BRANCH   7   8
HETATM    8  C   UNL     1     -11.918  12.223  64.831  1.00  0.00    -0.420 C  
BRANCH   8   9
HETATM    9  C   UNL     1     -10.810  12.058  63.786  1.00  0.00    -0.481 C  
BRANCH   9  10
HETATM   10  C   UNL     1      -9.866  10.905  64.139  1.00  0.00    -0.369 C  
BRANCH  10  11
HETATM   11  C   UNL     1      -9.454  10.889  65.615  1.00  0.00    -0.252 C  
BRANCH  11  12
HETATM   12  C   UNL     1      -9.375   9.481  66.201  1.00  0.00    -0.254 C  
BRANCH  12  13
HETATM   13  C   UNL     1      -8.101   9.285  67.019  1.00  0.00    -0.112 C  
BRANCH  13  14
HETATM   14  C   UNL     1      -7.936  10.423  68.015  1.00  0.00    -0.105 C  
BRANCH  14  15
HETATM   15  N   UNL     1      -8.163   9.980  69.383  1.00  0.00    -0.141 N  
HETATM   16  C   UNL     1      -9.418  10.125  69.945  1.00  0.00    -0.107 C  
HETATM   17  C   UNL     1      -7.072   9.350  70.113  1.00  0.00    -0.083 C  
HETATM   18  O   UNL     1     -10.363  10.679  69.395  1.00  0.00    -0.218 OA 
BRANCH  16  19
HETATM   19  O   UNL     1      -9.446   9.694  71.263  1.00  0.00    -0.154 OA 
BRANCH  19  20
HETATM   20  C   UNL     1     -10.079   8.456  71.426  1.00  0.00    -0.215 A  
HETATM   21  C   UNL     1     -11.232   8.229  70.684  1.00  0.00    -0.270 A  
HETATM   22  C   UNL     1     -11.814   6.967  70.735  1.00  0.00    -0.401 A  
HETATM   23  C   UNL     1     -11.251   5.954  71.518  1.00  0.00    -0.290 A  
HETATM   24  C   UNL     1     -10.092   6.184  72.280  1.00  0.00    -0.179 A  
HETATM   25  C   UNL     1      -9.493   7.440  72.194  1.00  0.00    -0.169 A  
BRANCH  24  26
HETATM   26  N   UNL     1      -9.431   5.080  73.090  1.00  0.00    -0.134 N  
HETATM   27  C   UNL     1      -8.086   4.687  72.486  1.00  0.00    -0.103 C  
HETATM   28  C   UNL     1     -10.304   3.818  73.099  1.00  0.00    -0.165 C  
HETATM   29  C   UNL     1      -9.238   5.598  74.508  1.00  0.00    -0.129 C  
ENDBRANCH  24  26
ENDBRANCH  19  20
ENDBRANCH  16  19
ENDBRANCH  14  15
ENDBRANCH  13  14
ENDBRANCH  12  13
ENDBRANCH  11  12
ENDBRANCH  10  11
ENDBRANCH   9  10
ENDBRANCH   8   9
ENDBRANCH   7   8
ENDBRANCH   6   7
ENDBRANCH   5   6
ENDBRANCH   2   5
BRANCH   4  30
HETATM   30  O   UNL     1      -9.023  14.729  69.297  1.00  0.00    -0.134 OA 
BRANCH  30  31
HETATM   31  C   UNL     1      -8.471  15.979  68.969  1.00  0.00    -0.244 A  
HETATM   32  C   UNL     1      -7.176  16.296  69.382  1.00  0.00    -0.192 A  
HETATM   33  C   UNL     1      -9.199  16.835  68.138  1.00  0.00    -0.224 A  
HETATM   34  C   UNL     1      -8.636  18.063  67.747  1.00  0.00    -0.244 A  
HETATM   35  C   UNL     1      -6.620  17.508  69.013  1.00  0.00    -0.243 A  
HETATM   36  C   UNL     1      -7.347  18.386  68.210  1.00  0.00    -0.285 A  
BRANCH  34  37
HETATM   37  N   UNL     1      -9.442  19.072  66.937  1.00  0.00    -0.306 N  
HETATM   38  C   UNL     1     -10.431  18.378  66.000  1.00  0.00    -0.374 C  
HETATM   39  C   UNL     1     -10.261  19.979  67.856  1.00  0.00    -0.405 C  
HETATM   40  C   UNL     1      -8.444  19.883  66.108  1.00  0.00    -0.319 C  
ENDBRANCH  34  37
ENDBRANCH  30  31
ENDBRANCH   4  30
TORSDOF 17
ENDMDL
MODEL      118
REMARK 921   NORMALIZED FREE ENERGY PREDICTED BY IDOCK:   -4.72 KCAL/MOL
REMARK 922        TOTAL FREE ENERGY PREDICTED BY IDOCK:  -11.65 KCAL/MOL
REMARK 923 INTER-LIGAND FREE ENERGY PREDICTED BY IDOCK:  -10.44 KCAL/MOL
REMARK 924 INTRA-LIGAND FREE ENERGY PREDICTED BY IDOCK:   -1.21 KCAL/MOL
REMARK 927      BINDING AFFINITY PREDICTED BY RF-SCORE:    0.00 PKD
ROOT
HETATM    1  C   UNL     1      -9.221   4.331  68.125  1.00  0.00    -0.142 C  
HETATM    2  N   UNL     1     -10.078   4.911  69.146  1.00  0.00    -0.188 N  
HETATM    3  O   UNL     1     -11.643   6.544  69.646  1.00  0.00    -0.376 OA 
HETATM    4  C   UNL     1     -10.982   5.914  68.825  1.00  0.00    -0.241 C  
ENDROOT
BRANCH   2   5
HETATM    5  C   UNL     1      -9.811   4.595  70.548  1.00  0.00    -0.231 C  
BRANCH   5   6
HETATM    6  C   UNL     1      -8.367   4.905  70.967  1.00  0.00    -0.109 C  
BRANCH   6   7
HETATM    7  C   UNL     1      -8.310   6.093  71.935  1.00  0.00    -0.118 C  
BRANCH   7   8
HETATM    8  C   UNL     1      -9.664   6.346  72.611  1.00  0.00    -0.167 C  
BRANCH   8   9
HETATM    9  C   UNL     1      -9.944   7.846  72.749  1.00  0.00    -0.348 C  
BRANCH   9  10
HETATM   10  C   UNL     1     -11.439   8.156  72.627  1.00  0.00    -0.454 C  
BRANCH  10  11
HETATM   11  C   UNL     1     -11.738   9.341  71.703  1.00  0.00    -0.462 C  
BRANCH  11  12
HETATM   12  C   UNL     1     -13.133   9.927  71.911  1.00  0.00    -0.559 C  
BRANCH  12  13
HETATM   13  C   UNL     1     -13.148  11.436  71.676  1.00  0.00    -0.498 C  
BRANCH  13  14
HETATM   14  C   UNL     1     -12.130  11.812  70.610  1.00  0.00    -0.311 C  
BRANCH  14  15
HETATM   15  N   UNL     1     -12.125  13.244  70.350  1.00  0.00    -0.352 N  
HETATM   16  C   UNL     1     -11.466  13.731  69.236  1.00  0.00    -0.293 C  
HETATM   17  C   UNL     1     -12.855  14.128  71.247  1.00  0.00    -0.359 C  
HETATM   18  O   UNL     1     -10.805  13.042  68.467  1.00  0.00    -0.243 OA 
BRANCH  16  19
HETATM   19  O   UNL     1     -11.523  15.115  69.166  1.00  0.00    -0.270 OA 
BRANCH  19  20
HETATM   20  C   UNL     1     -10.676  15.655  68.192  1.00  0.00    -0.287 A  
HETATM   21  C   UNL     1     -11.033  15.467  66.862  1.00  0.00    -0.294 A  
HETATM   22  C   UNL     1     -10.276  16.093  65.878  1.00  0.00    -0.381 A  
HETATM   23  C   UNL     1      -9.179  16.890  66.223  1.00  0.00    -0.299 A  
HETATM   24  C   UNL     1      -8.807  17.072  67.566  1.00  0.00    -0.211 A  
HETATM   25  C   UNL     1      -9.594  16.473  68.549  1.00  0.00    -0.233 A  
BRANCH  24  26
HETATM   26  N   UNL     1      -7.656  17.983  67.964  1.00  0.00    -0.237 N  
HETATM   27  C   UNL     1      -6.817  17.355  69.071  1.00  0.00    -0.244 C  
HETATM   28  C   UNL     1      -8.184  19.318  68.504  1.00  0.00    -0.366 C  
HETATM   29  C   UNL     1      -6.802  18.217  66.726  1.00  0.00    -0.194 C  
ENDBRANCH  24  26
ENDBRANCH  19  20
ENDBRANCH  16  19
ENDBRANCH  14  15
ENDBRANCH  13  14
ENDBRANCH  12  13
ENDBRANCH  11  12
ENDBRANCH  10  11
ENDBRANCH   9  10
ENDBRANCH   8   9
ENDBRANCH   7   8
ENDBRANCH   6   7
ENDBRANCH   5   6
ENDBRANCH   2   5
BRANCH   4  30
HETATM   30  O   UNL     1     -11.012   6.190  67.455  1.00  0.00    -0.316 OA 
BRANCH  30  31
HETATM   31  C   UNL     1     -10.443   7.431  67.121  1.00  0.00    -0.333 A  
HETATM   32  C   UNL     1     -10.890   8.592  67.755  1.00  0.00    -0.075 A  
HETATM   33  C   UNL     1      -9.362   7.457  66.235  1.00  0.00    -0.166 A  
HETATM   34  C   UNL     1      -8.740   8.681  65.939  1.00  0.00    -0.172 A  
HETATM   35  C   UNL     1     -10.291   9.803  67.458  1.00  0.00    -0.291 A  
HETATM   36  C   UNL     1      -9.232   9.848  66.552  1.00  0.00    -0.190 A  
BRANCH  34  37
HETATM   37  N   UNL     1      -7.634   8.766  64.893  1.00  0.00    -0.095 N  
HETATM   38  C   UNL     1      -8.204   8.982  63.490  1.00  0.00    -0.178 C  
HETATM   39  C   UNL     1      -6.703   9.945  65.179  1.00  0.00    -0.109 C  
HETATM   40  C   UNL     1      -6.874   7.440  64.932  1.00  0.00    -0.050 C  
ENDBRANCH  34  37
ENDBRANCH  30  31
ENDBRANCH   4  30
TORSDOF 17
ENDMDL
MODEL      119
REMARK 921   NORMALIZED FREE ENERGY PREDICTED BY IDOCK:   -4.72 KCAL/MOL
REMARK 922        TOTAL FREE ENERGY PREDICTED BY IDOCK:  -11.64 KCAL/MOL
REMARK 923 INTER-LIGAND FREE ENERGY PREDICTED BY IDOCK:   -9.88 KCAL/MOL
REMARK 924 INTRA-LIGAND FREE ENERGY PREDICTED BY IDOCK:   -1.75 KCAL/MOL
REMARK 927      BINDING AFFINITY PREDICTED BY RF-SCORE:    0.00 PKD
ROOT
HETATM    1  C   UNL     1     -12.371  14.346  65.565  1.00  0.00    -0.345 C  
HETATM    2  N   UNL     1     -11.303  13.853  66.418  1.00  0.00    -0.319 N  
HETATM    3  O   UNL     1      -9.111  14.132  67.115  1.00  0.00    -0.211 OA 
HETATM    4  C   UNL     1     -10.104  14.545  66.525  1.00  0.00    -0.274 C  
ENDROOT
BRANCH   2   5
HETATM    5  C   UNL     1     -11.414  12.506  66.974  1.00  0.00    -0.356 C  
BRANCH   5   6
HETATM    6  C   UNL     1     -11.730  12.502  68.477  1.00  0.00    -0.369 C  
BRANCH   6   7
HETATM    7  C   UNL     1     -11.042  11.330  69.188  1.00  0.00    -0.312 C  
BRANCH   7   8
HETATM    8  C   UNL     1     -12.017  10.547  70.076  1.00  0.00    -0.367 C  
BRANCH   8   9
HETATM    9  C   UNL     1     -11.274   9.778  71.172  1.00  0.00    -0.444 C  
BRANCH   9  10
HETATM   10  C   UNL     1     -11.142   8.291  70.831  1.00  0.00    -0.289 C  
BRANCH  10  11
HETATM   11  C   UNL     1     -12.331   7.451  71.311  1.00  0.00    -0.380 C  
BRANCH  11  12
HETATM   12  C   UNL     1     -11.919   6.285  72.207  1.00  0.00    -0.296 C  
BRANCH  12  13
HETATM   13  C   UNL     1     -10.699   6.634  73.056  1.00  0.00    -0.299 C  
BRANCH  13  14
HETATM   14  C   UNL     1      -9.788   5.423  73.190  1.00  0.00    -0.162 C  
BRANCH  14  15
HETATM   15  N   UNL     1      -8.879   5.303  72.060  1.00  0.00    -0.130 N  
HETATM   16  C   UNL     1      -9.104   4.327  71.107  1.00  0.00    -0.127 C  
HETATM   17  C   UNL     1      -7.778   6.248  71.935  1.00  0.00    -0.097 C  
HETATM   18  O   UNL     1      -9.990   3.482  71.176  1.00  0.00    -0.158 OA 
BRANCH  16  19
HETATM   19  O   UNL     1      -8.122   4.325  70.127  1.00  0.00    -0.058 OA 
BRANCH  19  20
HETATM   20  C   UNL     1      -8.587   4.751  68.877  1.00  0.00    -0.084 A  
HETATM   21  C   UNL     1      -9.207   3.802  68.073  1.00  0.00    -0.216 A  
HETATM   22  C   UNL     1      -9.784   4.222  66.879  1.00  0.00    -0.239 A  
HETATM   23  C   UNL     1      -9.736   5.567  66.500  1.00  0.00    -0.179 A  
HETATM   24  C   UNL     1      -9.100   6.527  67.305  1.00  0.00    -0.117 A  
HETATM   25  C   UNL     1      -8.557   6.106  68.518  1.00  0.00    -0.113 A  
BRANCH  24  26
HETATM   26  N   UNL     1      -9.091   8.004  66.940  1.00  0.00    -0.145 N  
HETATM   27  C   UNL     1      -8.535   8.218  65.536  1.00  0.00    -0.161 C  
HETATM   28  C   UNL     1      -8.195   8.794  67.903  1.00  0.00    -0.111 C  
HETATM   29  C   UNL     1     -10.524   8.509  67.020  1.00  0.00    -0.292 C  
ENDBRANCH  24  26
ENDBRANCH  19  20
ENDBRANCH  16  19
ENDBRANCH  14  15
ENDBRANCH  13  14
ENDBRANCH  12  13
ENDBRANCH  11  12
ENDBRANCH  10  11
ENDBRANCH   9  10
ENDBRANCH   8   9
ENDBRANCH   7   8
ENDBRANCH   6   7
ENDBRANCH   5   6
ENDBRANCH   2   5
BRANCH   4  30
HETATM   30  O   UNL     1     -10.118  15.751  65.817  1.00  0.00    -0.319 OA 
BRANCH  30  31
HETATM   31  C   UNL     1      -9.752  16.861  66.596  1.00  0.00    -0.271 A  
HETATM   32  C   UNL     1     -10.594  17.299  67.620  1.00  0.00    -0.350 A  
HETATM   33  C   UNL     1      -8.493  17.436  66.395  1.00  0.00    -0.292 A  
HETATM   34  C   UNL     1      -8.084  18.507  67.208  1.00  0.00    -0.241 A  
HETATM   35  C   UNL     1     -10.204  18.362  68.415  1.00  0.00    -0.407 A  
HETATM   36  C   UNL     1      -8.965  18.965  68.205  1.00  0.00    -0.364 A  
BRANCH  34  37
HETATM   37  N   UNL     1      -6.769  19.233  66.946  1.00  0.00    -0.196 N  
HETATM   38  C   UNL     1      -6.325  19.080  65.491  1.00  0.00    -0.263 C  
HETATM   39  C   UNL     1      -6.913  20.732  67.211  1.00  0.00    -0.358 C  
HETATM   40  C   UNL     1      -5.719  18.608  67.865  1.00  0.00    -0.175 C  
ENDBRANCH  34  37
ENDBRANCH  30  31
ENDBRANCH   4  30
TORSDOF 17
ENDMDL
MODEL      120
REMARK 921   NORMALIZED FREE ENERGY PREDICTED BY IDOCK:   -4.71 KCAL/MOL
REMARK 922        TOTAL FREE ENERGY PREDICTED BY IDOCK:  -11.63 KCAL/MOL
REMARK 923 INTER-LIGAND FREE ENERGY PREDICTED BY IDOCK:   -9.91 KCAL/MOL
REMARK 924 INTRA-LIGAND FREE ENERGY PREDICTED BY IDOCK:   -1.72 KCAL/MOL
REMARK 927      BINDING AFFINITY PREDICTED BY RF-SCORE:    0.00 PKD
ROOT
HETATM    1  C   UNL     1     -11.057   6.173  68.670  1.00  0.00    -0.294 C  
HETATM    2  N   UNL     1      -9.937   6.142  69.595  1.00  0.00    -0.162 N  
HETATM    3  O   UNL     1      -7.696   5.632  69.891  1.00  0.00    -0.079 OA 
HETATM    4  C   UNL     1      -8.663   5.809  69.155  1.00  0.00    -0.113 C  
ENDROOT
BRANCH   2   5
HETATM    5  C   UNL     1     -10.209   6.233  71.028  1.00  0.00    -0.192 C  
BRANCH   5   6
HETATM    6  C   UNL     1      -9.941   7.632  71.602  1.00  0.00    -0.207 C  
BRANCH   6   7
HETATM    7  C   UNL     1     -10.880   7.943  72.773  1.00  0.00    -0.451 C  
BRANCH   7   8
HETATM    8  C   UNL     1     -12.288   8.317  72.294  1.00  0.00    -0.410 C  
BRANCH   8   9
HETATM    9  C   UNL     1     -12.237   9.384  71.196  1.00  0.00    -0.402 C  
BRANCH   9  10
HETATM   10  C   UNL     1     -12.847  10.708  71.664  1.00  0.00    -0.570 C  
BRANCH  10  11
HETATM   11  C   UNL     1     -12.399  11.911  70.827  1.00  0.00    -0.416 C  
BRANCH  11  12
HETATM   12  C   UNL     1     -11.663  11.512  69.549  1.00  0.00    -0.413 C  
BRANCH  12  13
HETATM   13  C   UNL     1     -11.797  12.581  68.468  1.00  0.00    -0.341 C  
BRANCH  13  14
HETATM   14  C   UNL     1     -10.484  13.332  68.306  1.00  0.00    -0.250 C  
BRANCH  14  15
HETATM   15  N   UNL     1     -10.620  14.739  68.655  1.00  0.00    -0.247 N  
HETATM   16  C   UNL     1      -9.511  15.562  68.607  1.00  0.00    -0.204 C  
HETATM   17  C   UNL     1     -11.936  15.256  69.004  1.00  0.00    -0.276 C  
HETATM   18  O   UNL     1      -8.374  15.177  68.357  1.00  0.00    -0.144 OA 
BRANCH  16  19
HETATM   19  O   UNL     1      -9.809  16.855  69.011  1.00  0.00    -0.259 OA 
BRANCH  19  20
HETATM   20  C   UNL     1      -9.579  17.812  68.017  1.00  0.00    -0.291 A  
HETATM   21  C   UNL     1     -10.693  18.392  67.423  1.00  0.00    -0.397 A  
HETATM   22  C   UNL     1     -10.496  19.430  66.519  1.00  0.00    -0.572 A  
HETATM   23  C   UNL     1      -9.205  19.875  66.215  1.00  0.00    -0.457 A  
HETATM   24  C   UNL     1      -8.075  19.283  66.805  1.00  0.00    -0.275 A  
HETATM   25  C   UNL     1      -8.282  18.269  67.740  1.00  0.00    -0.253 A  
BRANCH  24  26
HETATM   26  N   UNL     1      -6.668  19.793  66.535  1.00  0.00    -0.197 N  
HETATM   27  C   UNL     1      -6.309  20.937  67.477  1.00  0.00    -0.324 C  
HETATM   28  C   UNL     1      -6.554  20.336  65.105  1.00  0.00    -0.295 C  
HETATM   29  C   UNL     1      -5.708  18.628  66.735  1.00  0.00    -0.150 C  
ENDBRANCH  24  26
ENDBRANCH  19  20
ENDBRANCH  16  19
ENDBRANCH  14  15
ENDBRANCH  13  14
ENDBRANCH  12  13
ENDBRANCH  11  12
ENDBRANCH  10  11
ENDBRANCH   9  10
ENDBRANCH   8   9
ENDBRANCH   7   8
ENDBRANCH   6   7
ENDBRANCH   5   6
ENDBRANCH   2   5
BRANCH   4  30
HETATM   30  O   UNL     1      -8.607   5.620  67.771  1.00  0.00    -0.103 OA 
BRANCH  30  31
HETATM   31  C   UNL     1      -7.874   6.613  67.100  1.00  0.00    -0.105 A  
HETATM   32  C   UNL     1      -6.539   6.382  66.763  1.00  0.00    -0.051 A  
HETATM   33  C   UNL     1      -8.537   7.773  66.689  1.00  0.00    -0.138 A  
HETATM   34  C   UNL     1      -7.836   8.749  65.960  1.00  0.00    -0.105 A  
HETATM   35  C   UNL     1      -5.839   7.343  66.057  1.00  0.00    -0.037 A  
HETATM   36  C   UNL     1      -6.478   8.519  65.668  1.00  0.00    -0.056 A  
BRANCH  34  37
HETATM   37  N   UNL     1      -8.491  10.076  65.593  1.00  0.00    -0.142 N  
HETATM   38  C   UNL     1      -9.990  10.063  65.895  1.00  0.00    -0.269 C  
HETATM   39  C   UNL     1      -7.885  11.224  66.399  1.00  0.00    -0.109 C  
HETATM   40  C   UNL     1      -8.279  10.282  64.092  1.00  0.00    -0.152 C  
ENDBRANCH  34  37
ENDBRANCH  30  31
ENDBRANCH   4  30
TORSDOF 17
ENDMDL
MODEL      121
REMARK 921   NORMALIZED FREE ENERGY PREDICTED BY IDOCK:   -4.71 KCAL/MOL
REMARK 922        TOTAL FREE ENERGY PREDICTED BY IDOCK:  -11.63 KCAL/MOL
REMARK 923 INTER-LIGAND FREE ENERGY PREDICTED BY IDOCK:   -8.89 KCAL/MOL
REMARK 924 INTRA-LIGAND FREE ENERGY PREDICTED BY IDOCK:   -2.73 KCAL/MOL
REMARK 927      BINDING AFFINITY PREDICTED BY RF-SCORE:    0.00 PKD
ROOT
HETATM    1  C   UNL     1     -12.777  15.311  70.402  1.00  0.00    -0.356 C  
HETATM    2  N   UNL     1     -11.463  15.441  69.795  1.00  0.00    -0.298 N  
HETATM    3  O   UNL     1      -9.683  14.339  68.804  1.00  0.00    -0.221 OA 
HETATM    4  C   UNL     1     -10.838  14.344  69.217  1.00  0.00    -0.239 C  
ENDROOT
BRANCH   2   5
HETATM    5  C   UNL     1     -10.711  16.675  70.009  1.00  0.00    -0.153 C  
BRANCH   5   6
HETATM    6  C   UNL     1     -10.393  17.418  68.703  1.00  0.00    -0.364 C  
BRANCH   6   7
HETATM    7  C   UNL     1      -9.669  18.742  68.976  1.00  0.00    -0.328 C  
BRANCH   7   8
HETATM    8  C   UNL     1      -8.620  19.053  67.902  1.00  0.00    -0.333 C  
BRANCH   8   9
HETATM    9  C   UNL     1      -7.199  18.944  68.464  1.00  0.00    -0.320 C  
BRANCH   9  10
HETATM   10  C   UNL     1      -6.587  17.567  68.190  1.00  0.00    -0.186 C  
BRANCH  10  11
HETATM   11  C   UNL     1      -6.499  16.685  69.440  1.00  0.00    -0.220 C  
BRANCH  11  12
HETATM   12  C   UNL     1      -5.239  15.823  69.479  1.00  0.00    -0.105 C  
BRANCH  12  13
HETATM   13  C   UNL     1      -5.517  14.400  69.003  1.00  0.00    -0.084 C  
BRANCH  13  14
HETATM   14  C   UNL     1      -6.443  13.690  69.979  1.00  0.00    -0.002 C  
BRANCH  14  15
HETATM   15  N   UNL     1      -6.178  12.261  70.034  1.00  0.00    -0.125 N  
HETATM   16  C   UNL     1      -6.886  11.405  69.209  1.00  0.00    -0.119 C  
HETATM   17  C   UNL     1      -5.136  11.768  70.925  1.00  0.00    -0.130 C  
HETATM   18  O   UNL     1      -7.796  11.755  68.467  1.00  0.00    -0.137 OA 
BRANCH  16  19
HETATM   19  O   UNL     1      -6.539  10.079  69.421  1.00  0.00    -0.047 OA 
BRANCH  19  20
HETATM   20  C   UNL     1      -7.634   9.209  69.386  1.00  0.00    -0.079 A  
HETATM   21  C   UNL     1      -7.678   8.284  68.349  1.00  0.00    -0.105 A  
HETATM   22  C   UNL     1      -8.690   7.330  68.356  1.00  0.00    -0.122 A  
HETATM   23  C   UNL     1      -9.640   7.307  69.382  1.00  0.00    -0.154 A  
HETATM   24  C   UNL     1      -9.606   8.248  70.425  1.00  0.00    -0.168 A  
HETATM   25  C   UNL     1      -8.566   9.177  70.432  1.00  0.00    -0.236 A  
BRANCH  24  26
HETATM   26  N   UNL     1     -10.593   8.202  71.581  1.00  0.00    -0.222 N  
HETATM   27  C   UNL     1     -11.588   9.355  71.499  1.00  0.00    -0.397 C  
HETATM   28  C   UNL     1      -9.862   8.335  72.923  1.00  0.00    -0.233 C  
HETATM   29  C   UNL     1     -11.327   6.871  71.511  1.00  0.00    -0.266 C  
ENDBRANCH  24  26
ENDBRANCH  19  20
ENDBRANCH  16  19
ENDBRANCH  14  15
ENDBRANCH  13  14
ENDBRANCH  12  13
ENDBRANCH  11  12
ENDBRANCH  10  11
ENDBRANCH   9  10
ENDBRANCH   8   9
ENDBRANCH   7   8
ENDBRANCH   6   7
ENDBRANCH   5   6
ENDBRANCH   2   5
BRANCH   4  30
HETATM   30  O   UNL     1     -11.648  13.205  69.219  1.00  0.00    -0.281 OA 
BRANCH  30  31
HETATM   31  C   UNL     1     -11.381  12.327  68.154  1.00  0.00    -0.295 A  
HETATM   32  C   UNL     1     -11.227  10.962  68.401  1.00  0.00    -0.347 A  
HETATM   33  C   UNL     1     -11.385  12.834  66.851  1.00  0.00    -0.371 A  
HETATM   34  C   UNL     1     -11.183  11.960  65.768  1.00  0.00    -0.312 A  
HETATM   35  C   UNL     1     -11.015  10.098  67.342  1.00  0.00    -0.295 A  
HETATM   36  C   UNL     1     -10.985  10.594  66.040  1.00  0.00     0.050 A  
BRANCH  34  37
HETATM   37  N   UNL     1     -11.067  12.490  64.344  1.00  0.00    -0.318 N  
HETATM   38  C   UNL     1     -10.652  13.962  64.325  1.00  0.00    -0.060 C  
HETATM   39  C   UNL     1     -10.005  11.718  63.561  1.00  0.00    -0.408 C  
HETATM   40  C   UNL     1     -12.445  12.344  63.695  1.00  0.00    -0.508 C  
ENDBRANCH  34  37
ENDBRANCH  30  31
ENDBRANCH   4  30
TORSDOF 17
ENDMDL
MODEL      122
REMARK 921   NORMALIZED FREE ENERGY PREDICTED BY IDOCK:   -4.71 KCAL/MOL
REMARK 922        TOTAL FREE ENERGY PREDICTED BY IDOCK:  -11.63 KCAL/MOL
REMARK 923 INTER-LIGAND FREE ENERGY PREDICTED BY IDOCK:  -10.34 KCAL/MOL
REMARK 924 INTRA-LIGAND FREE ENERGY PREDICTED BY IDOCK:   -1.29 KCAL/MOL
REMARK 927      BINDING AFFINITY PREDICTED BY RF-SCORE:    0.00 PKD
ROOT
HETATM    1  C   UNL     1     -11.420   6.277  69.757  1.00  0.00    -0.379 C  
HETATM    2  N   UNL     1      -9.995   6.561  69.772  1.00  0.00    -0.164 N  
HETATM    3  O   UNL     1      -8.005   6.493  68.588  1.00  0.00    -0.111 OA 
HETATM    4  C   UNL     1      -9.229   6.402  68.626  1.00  0.00    -0.125 C  
ENDROOT
BRANCH   2   5
HETATM    5  C   UNL     1      -9.339   6.787  71.059  1.00  0.00    -0.160 C  
BRANCH   5   6
HETATM    6  C   UNL     1      -9.411   8.249  71.520  1.00  0.00    -0.236 C  
BRANCH   6   7
HETATM    7  C   UNL     1     -10.579   8.472  72.488  1.00  0.00    -0.308 C  
BRANCH   7   8
HETATM    8  C   UNL     1     -11.776   9.137  71.798  1.00  0.00    -0.456 C  
BRANCH   8   9
HETATM    9  C   UNL     1     -11.321  10.065  70.667  1.00  0.00    -0.425 C  
BRANCH   9  10
HETATM   10  C   UNL     1     -12.283  11.242  70.478  1.00  0.00    -0.474 C  
BRANCH  10  11
HETATM   11  C   UNL     1     -11.845  12.211  69.375  1.00  0.00    -0.370 C  
BRANCH  11  12
HETATM   12  C   UNL     1     -10.970  11.552  68.311  1.00  0.00    -0.272 C  
BRANCH  12  13
HETATM   13  C   UNL     1     -10.874  12.412  67.053  1.00  0.00    -0.282 C  
BRANCH  13  14
HETATM   14  C   UNL     1      -9.852  13.521  67.251  1.00  0.00    -0.237 C  
BRANCH  14  15
HETATM   15  N   UNL     1     -10.225  14.734  66.538  1.00  0.00    -0.269 N  
HETATM   16  C   UNL     1     -10.217  15.945  67.204  1.00  0.00    -0.278 C  
HETATM   17  C   UNL     1     -10.556  14.648  65.122  1.00  0.00    -0.421 C  
HETATM   18  O   UNL     1      -9.984  16.075  68.401  1.00  0.00    -0.214 OA 
BRANCH  16  19
HETATM   19  O   UNL     1     -10.640  16.986  66.390  1.00  0.00    -0.271 OA 
BRANCH  19  20
HETATM   20  C   UNL     1      -9.917  18.168  66.583  1.00  0.00    -0.362 A  
HETATM   21  C   UNL     1     -10.592  19.242  67.150  1.00  0.00    -0.575 A  
HETATM   22  C   UNL     1      -9.869  20.388  67.463  1.00  0.00    -0.564 A  
HETATM   23  C   UNL     1      -8.495  20.455  67.208  1.00  0.00    -0.405 A  
HETATM   24  C   UNL     1      -7.811  19.375  66.623  1.00  0.00    -0.277 A  
HETATM   25  C   UNL     1      -8.535  18.216  66.348  1.00  0.00    -0.263 A  
BRANCH  24  26
HETATM   26  N   UNL     1      -6.308  19.406  66.394  1.00  0.00    -0.181 N  
HETATM   27  C   UNL     1      -5.968  19.103  64.939  1.00  0.00    -0.281 C  
HETATM   28  C   UNL     1      -5.609  18.341  67.249  1.00  0.00    -0.139 C  
HETATM   29  C   UNL     1      -5.811  20.794  66.772  1.00  0.00    -0.209 C  
ENDBRANCH  24  26
ENDBRANCH  19  20
ENDBRANCH  16  19
ENDBRANCH  14  15
ENDBRANCH  13  14
ENDBRANCH  12  13
ENDBRANCH  11  12
ENDBRANCH  10  11
ENDBRANCH   9  10
ENDBRANCH   8   9
ENDBRANCH   7   8
ENDBRANCH   6   7
ENDBRANCH   5   6
ENDBRANCH   2   5
BRANCH   4  30
HETATM   30  O   UNL     1      -9.997   6.049  67.513  1.00  0.00    -0.120 OA 
BRANCH  30  31
HETATM   31  C   UNL     1      -9.629   4.818  66.946  1.00  0.00    -0.172 A  
HETATM   32  C   UNL     1      -9.388   3.717  67.771  1.00  0.00    -0.237 A  
HETATM   33  C   UNL     1      -9.618   4.698  65.553  1.00  0.00    -0.187 A  
HETATM   34  C   UNL     1      -9.314   3.456  64.968  1.00  0.00    -0.154 A  
HETATM   35  C   UNL     1      -9.075   2.496  67.203  1.00  0.00    -0.172 A  
HETATM   36  C   UNL     1      -9.030   2.369  65.815  1.00  0.00    -0.121 A  
BRANCH  34  37
HETATM   37  N   UNL     1      -9.181   3.313  63.456  1.00  0.00    -0.095 N  
HETATM   38  C   UNL     1      -8.477   4.521  62.838  1.00  0.00    -0.105 C  
HETATM   39  C   UNL     1      -8.349   2.082  63.097  1.00  0.00    -0.073 C  
HETATM   40  C   UNL     1     -10.597   3.207  62.888  1.00  0.00    -0.191 C  
ENDBRANCH  34  37
ENDBRANCH  30  31
ENDBRANCH   4  30
TORSDOF 17
ENDMDL
MODEL      123
REMARK 921   NORMALIZED FREE ENERGY PREDICTED BY IDOCK:   -4.71 KCAL/MOL
REMARK 922        TOTAL FREE ENERGY PREDICTED BY IDOCK:  -11.61 KCAL/MOL
REMARK 923 INTER-LIGAND FREE ENERGY PREDICTED BY IDOCK:   -9.40 KCAL/MOL
REMARK 924 INTRA-LIGAND FREE ENERGY PREDICTED BY IDOCK:   -2.22 KCAL/MOL
REMARK 927      BINDING AFFINITY PREDICTED BY RF-SCORE:    0.00 PKD
ROOT
HETATM    1  C   UNL     1     -11.604  10.766  68.120  1.00  0.00    -0.197 C  
HETATM    2  N   UNL     1     -11.830  11.499  69.354  1.00  0.00    -0.328 N  
HETATM    3  O   UNL     1     -12.540  11.388  71.557  1.00  0.00    -0.348 OA 
HETATM    4  C   UNL     1     -12.204  10.834  70.514  1.00  0.00    -0.366 C  
ENDROOT
BRANCH   2   5
HETATM    5  C   UNL     1     -11.890  12.958  69.303  1.00  0.00    -0.309 C  
BRANCH   5   6
HETATM    6  C   UNL     1     -12.283  13.494  67.919  1.00  0.00    -0.168 C  
BRANCH   6   7
HETATM    7  C   UNL     1     -11.476  14.747  67.557  1.00  0.00    -0.369 C  
BRANCH   7   8
HETATM    8  C   UNL     1     -11.385  14.950  66.039  1.00  0.00    -0.306 C  
BRANCH   8   9
HETATM    9  C   UNL     1     -12.425  14.101  65.301  1.00  0.00    -0.474 C  
BRANCH   9  10
HETATM   10  C   UNL     1     -11.837  13.453  64.044  1.00  0.00    -0.498 C  
BRANCH  10  11
HETATM   11  C   UNL     1     -11.319  12.030  64.282  1.00  0.00    -0.433 C  
BRANCH  11  12
HETATM   12  C   UNL     1     -10.124  11.672  63.401  1.00  0.00    -0.468 C  
BRANCH  12  13
HETATM   13  C   UNL     1      -9.434  10.399  63.884  1.00  0.00    -0.354 C  
BRANCH  13  14
HETATM   14  C   UNL     1      -9.421  10.353  65.405  1.00  0.00    -0.232 C  
BRANCH  14  15
HETATM   15  N   UNL     1      -8.157  10.826  65.949  1.00  0.00    -0.160 N  
HETATM   16  C   UNL     1      -8.147  11.919  66.796  1.00  0.00    -0.108 C  
HETATM   17  C   UNL     1      -6.933  10.107  65.623  1.00  0.00    -0.125 C  
HETATM   18  O   UNL     1      -9.137  12.586  67.077  1.00  0.00    -0.199 OA 
BRANCH  16  19
HETATM   19  O   UNL     1      -6.860  12.260  67.185  1.00  0.00    -0.147 OA 
BRANCH  19  20
HETATM   20  C   UNL     1      -6.813  13.391  68.007  1.00  0.00    -0.132 A  
HETATM   21  C   UNL     1      -6.405  13.203  69.323  1.00  0.00    -0.106 A  
HETATM   22  C   UNL     1      -6.234  14.323  70.129  1.00  0.00    -0.161 A  
HETATM   23  C   UNL     1      -6.470  15.606  69.625  1.00  0.00    -0.179 A  
HETATM   24  C   UNL     1      -6.894  15.799  68.299  1.00  0.00    -0.118 A  
HETATM   25  C   UNL     1      -7.026  14.675  67.485  1.00  0.00    -0.193 A  
BRANCH  24  26
HETATM   26  N   UNL     1      -7.097  17.189  67.714  1.00  0.00    -0.151 N  
HETATM   27  C   UNL     1      -8.521  17.364  67.199  1.00  0.00    -0.211 C  
HETATM   28  C   UNL     1      -6.157  17.417  66.524  1.00  0.00    -0.215 C  
HETATM   29  C   UNL     1      -6.809  18.200  68.815  1.00  0.00    -0.260 C  
ENDBRANCH  24  26
ENDBRANCH  19  20
ENDBRANCH  16  19
ENDBRANCH  14  15
ENDBRANCH  13  14
ENDBRANCH  12  13
ENDBRANCH  11  12
ENDBRANCH  10  11
ENDBRANCH   9  10
ENDBRANCH   8   9
ENDBRANCH   7   8
ENDBRANCH   6   7
ENDBRANCH   5   6
ENDBRANCH   2   5
BRANCH   4  30
HETATM   30  O   UNL     1     -12.231   9.446  70.350  1.00  0.00    -0.075 OA 
BRANCH  30  31
HETATM   31  C   UNL     1     -11.267   8.773  71.120  1.00  0.00    -0.277 A  
HETATM   32  C   UNL     1     -11.584   8.346  72.411  1.00  0.00    -0.450 A  
HETATM   33  C   UNL     1     -10.042   8.451  70.529  1.00  0.00    -0.211 A  
HETATM   34  C   UNL     1      -9.090   7.723  71.262  1.00  0.00    -0.137 A  
HETATM   35  C   UNL     1     -10.648   7.640  73.144  1.00  0.00    -0.438 A  
HETATM   36  C   UNL     1      -9.409   7.339  72.578  1.00  0.00    -0.174 A  
BRANCH  34  37
HETATM   37  N   UNL     1      -7.701   7.451  70.694  1.00  0.00    -0.090 N  
HETATM   38  C   UNL     1      -7.475   5.957  70.459  1.00  0.00    -0.090 C  
HETATM   39  C   UNL     1      -7.520   8.147  69.345  1.00  0.00    -0.091 C  
HETATM   40  C   UNL     1      -6.688   7.962  71.719  1.00  0.00    -0.053 C  
ENDBRANCH  34  37
ENDBRANCH  30  31
ENDBRANCH   4  30
TORSDOF 17
ENDMDL
MODEL      124
REMARK 921   NORMALIZED FREE ENERGY PREDICTED BY IDOCK:   -4.70 KCAL/MOL
REMARK 922        TOTAL FREE ENERGY PREDICTED BY IDOCK:  -11.60 KCAL/MOL
REMARK 923 INTER-LIGAND FREE ENERGY PREDICTED BY IDOCK:  -10.03 KCAL/MOL
REMARK 924 INTRA-LIGAND FREE ENERGY PREDICTED BY IDOCK:   -1.57 KCAL/MOL
REMARK 927      BINDING AFFINITY PREDICTED BY RF-SCORE:    0.00 PKD
ROOT
HETATM    1  C   UNL     1     -10.478   9.680  67.040  1.00  0.00    -0.232 C  
HETATM    2  N   UNL     1      -9.125   9.161  66.929  1.00  0.00    -0.132 N  
HETATM    3  O   UNL     1      -7.767   7.287  67.026  1.00  0.00    -0.106 OA 
HETATM    4  C   UNL     1      -8.883   7.795  66.980  1.00  0.00    -0.127 C  
ENDROOT
BRANCH   2   5
HETATM    5  C   UNL     1      -8.006  10.099  67.002  1.00  0.00    -0.110 C  
BRANCH   5   6
HETATM    6  C   UNL     1      -8.456  11.566  67.052  1.00  0.00    -0.164 C  
BRANCH   6   7
HETATM    7  C   UNL     1      -8.493  12.089  68.494  1.00  0.00    -0.098 C  
BRANCH   7   8
HETATM    8  C   UNL     1      -8.558  13.620  68.545  1.00  0.00    -0.103 C  
BRANCH   8   9
HETATM    9  C   UNL     1     -10.001  14.110  68.701  1.00  0.00    -0.222 C  
BRANCH   9  10
HETATM   10  C   UNL     1     -10.921  13.004  69.226  1.00  0.00    -0.122 C  
BRANCH  10  11
HETATM   11  C   UNL     1     -12.002  12.588  68.222  1.00  0.00    -0.274 C  
BRANCH  11  12
HETATM   12  C   UNL     1     -12.063  13.497  66.996  1.00  0.00    -0.401 C  
BRANCH  12  13
HETATM   13  C   UNL     1     -11.973  12.695  65.699  1.00  0.00    -0.507 C  
BRANCH  13  14
HETATM   14  C   UNL     1     -11.061  13.402  64.707  1.00  0.00    -0.351 C  
BRANCH  14  15
HETATM   15  N   UNL     1     -11.207  14.848  64.776  1.00  0.00    -0.394 N  
HETATM   16  C   UNL     1     -10.173  15.614  65.283  1.00  0.00    -0.324 C  
HETATM   17  C   UNL     1     -12.425  15.461  64.264  1.00  0.00     0.066 C  
HETATM   18  O   UNL     1      -9.141  15.154  65.760  1.00  0.00    -0.198 OA 
BRANCH  16  19
HETATM   19  O   UNL     1     -10.496  16.962  65.315  1.00  0.00    -0.638 OA 
BRANCH  19  20
HETATM   20  C   UNL     1     -10.024  17.616  66.459  1.00  0.00    -0.332 A  
HETATM   21  C   UNL     1     -10.784  17.500  67.617  1.00  0.00    -0.306 A  
HETATM   22  C   UNL     1     -10.279  18.038  68.796  1.00  0.00    -0.362 A  
HETATM   23  C   UNL     1      -9.038  18.682  68.811  1.00  0.00    -0.297 A  
HETATM   24  C   UNL     1      -8.272  18.813  67.639  1.00  0.00    -0.263 A  
HETATM   25  C   UNL     1      -8.766  18.237  66.469  1.00  0.00    -0.290 A  
BRANCH  24  26
HETATM   26  N   UNL     1      -6.894  19.455  67.647  1.00  0.00    -0.217 N  
HETATM   27  C   UNL     1      -6.019  18.891  66.533  1.00  0.00    -0.161 C  
HETATM   28  C   UNL     1      -6.173  19.172  68.971  1.00  0.00    -0.260 C  
HETATM   29  C   UNL     1      -7.081  20.954  67.460  1.00  0.00    -0.335 C  
ENDBRANCH  24  26
ENDBRANCH  19  20
ENDBRANCH  16  19
ENDBRANCH  14  15
ENDBRANCH  13  14
ENDBRANCH  12  13
ENDBRANCH  11  12
ENDBRANCH  10  11
ENDBRANCH   9  10
ENDBRANCH   8   9
ENDBRANCH   7   8
ENDBRANCH   6   7
ENDBRANCH   5   6
ENDBRANCH   2   5
BRANCH   4  30
HETATM   30  O   UNL     1     -10.061   7.046  67.047  1.00  0.00    -0.189 OA 
BRANCH  30  31
HETATM   31  C   UNL     1     -10.298   6.488  68.315  1.00  0.00    -0.190 A  
HETATM   32  C   UNL     1      -9.864   5.191  68.595  1.00  0.00    -0.225 A  
HETATM   33  C   UNL     1     -10.869   7.293  69.306  1.00  0.00    -0.177 A  
HETATM   34  C   UNL     1     -11.055   6.772  70.598  1.00  0.00    -0.291 A  
HETATM   35  C   UNL     1     -10.056   4.666  69.861  1.00  0.00    -0.257 A  
HETATM   36  C   UNL     1     -10.654   5.447  70.850  1.00  0.00    -0.283 A  
BRANCH  34  37
HETATM   37  N   UNL     1     -11.777   7.578  71.672  1.00  0.00    -0.272 N  
HETATM   38  C   UNL     1     -13.187   7.041  71.922  1.00  0.00    -0.194 C  
HETATM   39  C   UNL     1     -11.030   7.503  73.003  1.00  0.00    -0.390 C  
HETATM   40  C   UNL     1     -11.867   9.019  71.169  1.00  0.00    -0.301 C  
ENDBRANCH  34  37
ENDBRANCH  30  31
ENDBRANCH   4  30
TORSDOF 17
ENDMDL
MODEL      125
REMARK 921   NORMALIZED FREE ENERGY PREDICTED BY IDOCK:   -4.69 KCAL/MOL
REMARK 922        TOTAL FREE ENERGY PREDICTED BY IDOCK:  -11.59 KCAL/MOL
REMARK 923 INTER-LIGAND FREE ENERGY PREDICTED BY IDOCK:   -8.73 KCAL/MOL
REMARK 924 INTRA-LIGAND FREE ENERGY PREDICTED BY IDOCK:   -2.86 KCAL/MOL
REMARK 927      BINDING AFFINITY PREDICTED BY RF-SCORE:    0.00 PKD
ROOT
HETATM    1  C   UNL     1      -6.758  11.158  69.797  1.00  0.00    -0.121 C  
HETATM    2  N   UNL     1      -7.427  11.564  68.573  1.00  0.00    -0.108 N  
HETATM    3  O   UNL     1      -8.260  10.890  66.519  1.00  0.00    -0.145 OA 
HETATM    4  C   UNL     1      -7.813  10.621  67.630  1.00  0.00    -0.105 C  
ENDROOT
BRANCH   2   5
HETATM    5  C   UNL     1      -7.474  12.986  68.238  1.00  0.00    -0.128 C  
BRANCH   5   6
HETATM    6  C   UNL     1      -6.221  13.469  67.495  1.00  0.00    -0.073 C  
BRANCH   6   7
HETATM    7  C   UNL     1      -5.592  14.682  68.192  1.00  0.00    -0.125 C  
BRANCH   7   8
HETATM    8  C   UNL     1      -5.702  15.952  67.340  1.00  0.00    -0.089 C  
BRANCH   8   9
HETATM    9  C   UNL     1      -7.047  16.018  66.610  1.00  0.00     0.053 C  
BRANCH   9  10
HETATM   10  C   UNL     1      -7.356  17.435  66.118  1.00  0.00    -0.331 C  
BRANCH  10  11
HETATM   11  C   UNL     1      -7.086  18.514  67.172  1.00  0.00    -0.214 C  
BRANCH  11  12
HETATM   12  C   UNL     1      -8.350  19.248  67.615  1.00  0.00    -0.325 C  
BRANCH  12  13
HETATM   13  C   UNL     1      -8.887  18.695  68.933  1.00  0.00    -0.210 C  
BRANCH  13  14
HETATM   14  C   UNL     1     -10.162  17.903  68.689  1.00  0.00    -0.385 C  
BRANCH  14  15
HETATM   15  N   UNL     1     -10.033  16.522  69.130  1.00  0.00    -0.274 N  
HETATM   16  C   UNL     1     -11.148  15.705  69.142  1.00  0.00    -0.284 C  
HETATM   17  C   UNL     1      -8.718  16.020  69.504  1.00  0.00    -0.044 C  
HETATM   18  O   UNL     1     -12.284  16.079  68.873  1.00  0.00    -0.175 OA 
BRANCH  16  19
HETATM   19  O   UNL     1     -10.856  14.439  69.628  1.00  0.00    -0.211 OA 
BRANCH  19  20
HETATM   20  C   UNL     1     -11.013  13.429  68.673  1.00  0.00    -0.260 A  
HETATM   21  C   UNL     1     -11.134  12.125  69.140  1.00  0.00    -0.263 A  
HETATM   22  C   UNL     1     -11.412  11.117  68.223  1.00  0.00    -0.373 A  
HETATM   23  C   UNL     1     -11.561  11.412  66.864  1.00  0.00    -0.088 A  
HETATM   24  C   UNL     1     -11.427  12.727  66.387  1.00  0.00    -0.357 A  
HETATM   25  C   UNL     1     -11.188  13.738  67.317  1.00  0.00    -0.329 A  
BRANCH  24  26
HETATM   26  N   UNL     1     -11.646  13.076  64.923  1.00  0.00    -0.314 N  
HETATM   27  C   UNL     1     -12.152  14.507  64.770  1.00  0.00    -0.445 C  
HETATM   28  C   UNL     1     -12.704  12.157  64.299  1.00  0.00    -0.264 C  
HETATM   29  C   UNL     1     -10.315  12.911  64.204  1.00  0.00    -0.361 C  
ENDBRANCH  24  26
ENDBRANCH  19  20
ENDBRANCH  16  19
ENDBRANCH  14  15
ENDBRANCH  13  14
ENDBRANCH  12  13
ENDBRANCH  11  12
ENDBRANCH  10  11
ENDBRANCH   9  10
ENDBRANCH   8   9
ENDBRANCH   7   8
ENDBRANCH   6   7
ENDBRANCH   5   6
ENDBRANCH   2   5
BRANCH   4  30
HETATM   30  O   UNL     1      -7.570   9.311  68.053  1.00  0.00    -0.084 OA 
BRANCH  30  31
HETATM   31  C   UNL     1      -8.740   8.589  68.341  1.00  0.00    -0.143 A  
HETATM   32  C   UNL     1      -9.337   7.809  67.349  1.00  0.00    -0.168 A  
HETATM   33  C   UNL     1      -9.219   8.586  69.655  1.00  0.00    -0.157 A  
HETATM   34  C   UNL     1     -10.352   7.818  69.976  1.00  0.00    -0.221 A  
HETATM   35  C   UNL     1     -10.460   7.062  67.654  1.00  0.00    -0.301 A  
HETATM   36  C   UNL     1     -10.968   7.074  68.953  1.00  0.00    -0.162 A  
BRANCH  34  37
HETATM   37  N   UNL     1     -10.971   7.878  71.368  1.00  0.00    -0.229 N  
HETATM   38  C   UNL     1     -11.805   9.146  71.557  1.00  0.00    -0.358 C  
HETATM   39  C   UNL     1     -11.908   6.691  71.598  1.00  0.00    -0.336 C  
HETATM   40  C   UNL     1      -9.819   7.874  72.373  1.00  0.00    -0.225 C  
ENDBRANCH  34  37
ENDBRANCH  30  31
ENDBRANCH   4  30
TORSDOF 17
ENDMDL
MODEL      126
REMARK 921   NORMALIZED FREE ENERGY PREDICTED BY IDOCK:   -4.69 KCAL/MOL
REMARK 922        TOTAL FREE ENERGY PREDICTED BY IDOCK:  -11.58 KCAL/MOL
REMARK 923 INTER-LIGAND FREE ENERGY PREDICTED BY IDOCK:  -10.16 KCAL/MOL
REMARK 924 INTRA-LIGAND FREE ENERGY PREDICTED BY IDOCK:   -1.42 KCAL/MOL
REMARK 927      BINDING AFFINITY PREDICTED BY RF-SCORE:    0.00 PKD
ROOT
HETATM    1  C   UNL     1     -12.072  15.180  64.418  1.00  0.00    -0.300 C  
HETATM    2  N   UNL     1     -11.188  14.575  65.399  1.00  0.00    -0.329 N  
HETATM    3  O   UNL     1      -9.199  14.763  66.573  1.00  0.00    -0.259 OA 
HETATM    4  C   UNL     1     -10.062  15.251  65.850  1.00  0.00    -0.334 C  
ENDROOT
BRANCH   2   5
HETATM    5  C   UNL     1     -11.364  13.162  65.726  1.00  0.00    -0.306 C  
BRANCH   5   6
HETATM    6  C   UNL     1     -12.081  12.942  67.066  1.00  0.00    -0.296 C  
BRANCH   6   7
HETATM    7  C   UNL     1     -11.132  12.348  68.114  1.00  0.00    -0.288 C  
BRANCH   7   8
HETATM    8  C   UNL     1     -11.893  11.596  69.214  1.00  0.00    -0.396 C  
BRANCH   8   9
HETATM    9  C   UNL     1     -10.936  10.800  70.106  1.00  0.00    -0.230 C  
BRANCH   9  10
HETATM   10  C   UNL     1     -11.511   9.428  70.470  1.00  0.00    -0.317 C  
BRANCH  10  11
HETATM   11  C   UNL     1     -12.906   9.503  71.099  1.00  0.00    -0.361 C  
BRANCH  11  12
HETATM   12  C   UNL     1     -13.216   8.322  72.016  1.00  0.00    -0.342 C  
BRANCH  12  13
HETATM   13  C   UNL     1     -11.939   7.670  72.542  1.00  0.00    -0.261 C  
BRANCH  13  14
HETATM   14  C   UNL     1     -11.807   6.257  71.994  1.00  0.00    -0.318 C  
BRANCH  14  15
HETATM   15  N   UNL     1     -10.512   6.041  71.366  1.00  0.00    -0.223 N  
HETATM   16  C   UNL     1     -10.428   5.968  69.988  1.00  0.00    -0.250 C  
HETATM   17  C   UNL     1      -9.325   5.952  72.206  1.00  0.00    -0.144 C  
HETATM   18  O   UNL     1     -11.394   5.999  69.233  1.00  0.00    -0.384 OA 
BRANCH  16  19
HETATM   19  O   UNL     1      -9.132   5.715  69.562  1.00  0.00    -0.123 OA 
BRANCH  19  20
HETATM   20  C   UNL     1      -9.038   4.621  68.695  1.00  0.00    -0.117 A  
HETATM   21  C   UNL     1      -9.267   3.361  69.235  1.00  0.00    -0.221 A  
HETATM   22  C   UNL     1      -9.299   2.268  68.376  1.00  0.00    -0.260 A  
HETATM   23  C   UNL     1      -9.101   2.437  67.001  1.00  0.00    -0.148 A  
HETATM   24  C   UNL     1      -8.857   3.708  66.453  1.00  0.00    -0.129 A  
HETATM   25  C   UNL     1      -8.865   4.804  67.316  1.00  0.00    -0.104 A  
BRANCH  24  26
HETATM   26  N   UNL     1      -8.700   3.921  64.956  1.00  0.00    -0.113 N  
HETATM   27  C   UNL     1      -7.524   3.120  64.408  1.00  0.00    -0.075 C  
HETATM   28  C   UNL     1      -8.422   5.397  64.645  1.00  0.00    -0.126 C  
HETATM   29  C   UNL     1      -9.994   3.476  64.288  1.00  0.00    -0.191 C  
ENDBRANCH  24  26
ENDBRANCH  19  20
ENDBRANCH  16  19
ENDBRANCH  14  15
ENDBRANCH  13  14
ENDBRANCH  12  13
ENDBRANCH  11  12
ENDBRANCH  10  11
ENDBRANCH   9  10
ENDBRANCH   8   9
ENDBRANCH   7   8
ENDBRANCH   6   7
ENDBRANCH   5   6
ENDBRANCH   2   5
BRANCH   4  30
HETATM   30  O   UNL     1      -9.972  16.546  65.330  1.00  0.00    -0.552 OA 
BRANCH  30  31
HETATM   31  C   UNL     1      -9.705  17.523  66.304  1.00  0.00    -0.258 A  
HETATM   32  C   UNL     1     -10.705  17.896  67.205  1.00  0.00    -0.278 A  
HETATM   33  C   UNL     1      -8.404  18.021  66.416  1.00  0.00    -0.275 A  
HETATM   34  C   UNL     1      -8.103  18.952  67.425  1.00  0.00    -0.261 A  
HETATM   35  C   UNL     1     -10.420  18.821  68.193  1.00  0.00    -0.372 A  
HETATM   36  C   UNL     1      -9.134  19.350  68.296  1.00  0.00    -0.397 A  
BRANCH  34  37
HETATM   37  N   UNL     1      -6.727  19.602  67.508  1.00  0.00    -0.212 N  
HETATM   38  C   UNL     1      -6.471  20.526  66.317  1.00  0.00    -0.229 C  
HETATM   39  C   UNL     1      -6.605  20.459  68.769  1.00  0.00    -0.232 C  
HETATM   40  C   UNL     1      -5.695  18.474  67.505  1.00  0.00    -0.149 C  
ENDBRANCH  34  37
ENDBRANCH  30  31
ENDBRANCH   4  30
TORSDOF 17
ENDMDL
MODEL      127
REMARK 921   NORMALIZED FREE ENERGY PREDICTED BY IDOCK:   -4.69 KCAL/MOL
REMARK 922        TOTAL FREE ENERGY PREDICTED BY IDOCK:  -11.58 KCAL/MOL
REMARK 923 INTER-LIGAND FREE ENERGY PREDICTED BY IDOCK:   -9.48 KCAL/MOL
REMARK 924 INTRA-LIGAND FREE ENERGY PREDICTED BY IDOCK:   -2.10 KCAL/MOL
REMARK 927      BINDING AFFINITY PREDICTED BY RF-SCORE:    0.00 PKD
ROOT
HETATM    1  C   UNL     1     -11.922  12.564  69.966  1.00  0.00    -0.299 C  
HETATM    2  N   UNL     1     -11.517  11.794  68.802  1.00  0.00    -0.263 N  
HETATM    3  O   UNL     1     -11.612  11.596  66.496  1.00  0.00    -0.473 OA 
HETATM    4  C   UNL     1     -11.801  12.245  67.520  1.00  0.00    -0.261 C  
ENDROOT
BRANCH   2   5
HETATM    5  C   UNL     1     -11.022  10.433  69.000  1.00  0.00    -0.238 C  
BRANCH   5   6
HETATM    6  C   UNL     1      -9.502  10.372  69.201  1.00  0.00    -0.220 C  
BRANCH   6   7
HETATM    7  C   UNL     1      -8.808   9.697  68.011  1.00  0.00    -0.119 C  
BRANCH   7   8
HETATM    8  C   UNL     1      -9.785   8.855  67.181  1.00  0.00    -0.241 C  
BRANCH   8   9
HETATM    9  C   UNL     1      -9.106   8.286  65.932  1.00  0.00    -0.203 C  
BRANCH   9  10
HETATM   10  C   UNL     1      -8.798   6.794  66.085  1.00  0.00    -0.161 C  
BRANCH  10  11
HETATM   11  C   UNL     1     -10.024   5.958  66.468  1.00  0.00    -0.196 C  
BRANCH  11  12
HETATM   12  C   UNL     1      -9.666   4.674  67.213  1.00  0.00    -0.216 C  
BRANCH  12  13
HETATM   13  C   UNL     1      -8.332   4.103  66.738  1.00  0.00    -0.101 C  
BRANCH  13  14
HETATM   14  C   UNL     1      -8.008   2.825  67.496  1.00  0.00    -0.068 C  
BRANCH  14  15
HETATM   15  N   UNL     1      -7.842   3.070  68.922  1.00  0.00    -0.050 N  
HETATM   16  C   UNL     1      -8.694   2.456  69.821  1.00  0.00    -0.071 C  
HETATM   17  C   UNL     1      -6.749   3.922  69.370  1.00  0.00    -0.041 C  
HETATM   18  O   UNL     1      -9.651   1.759  69.503  1.00  0.00    -0.082 OA 
BRANCH  16  19
HETATM   19  O   UNL     1      -8.423   2.833  71.129  1.00  0.00    -0.060 OA 
BRANCH  19  20
HETATM   20  C   UNL     1      -9.481   3.515  71.738  1.00  0.00    -0.142 A  
HETATM   21  C   UNL     1      -9.952   3.012  72.945  1.00  0.00    -0.204 A  
HETATM   22  C   UNL     1     -10.920   3.737  73.631  1.00  0.00    -0.334 A  
HETATM   23  C   UNL     1     -11.409   4.941  73.114  1.00  0.00    -0.395 A  
HETATM   24  C   UNL     1     -10.945   5.446  71.888  1.00  0.00    -0.151 A  
HETATM   25  C   UNL     1      -9.946   4.735  71.224  1.00  0.00    -0.270 A  
BRANCH  24  26
HETATM   26  N   UNL     1     -11.419   6.783  71.339  1.00  0.00    -0.276 N  
HETATM   27  C   UNL     1     -12.891   7.017  71.661  1.00  0.00    -0.364 C  
HETATM   28  C   UNL     1     -11.282   6.820  69.811  1.00  0.00    -0.315 C  
HETATM   29  C   UNL     1     -10.564   7.872  71.970  1.00  0.00    -0.238 C  
ENDBRANCH  24  26
ENDBRANCH  19  20
ENDBRANCH  16  19
ENDBRANCH  14  15
ENDBRANCH  13  14
ENDBRANCH  12  13
ENDBRANCH  11  12
ENDBRANCH  10  11
ENDBRANCH   9  10
ENDBRANCH   8   9
ENDBRANCH   7   8
ENDBRANCH   6   7
ENDBRANCH   5   6
ENDBRANCH   2   5
BRANCH   4  30
HETATM   30  O   UNL     1     -12.401  13.507  67.518  1.00  0.00    -0.259 OA 
BRANCH  30  31
HETATM   31  C   UNL     1     -11.658  14.479  66.825  1.00  0.00    -0.376 A  
HETATM   32  C   UNL     1     -11.739  14.552  65.433  1.00  0.00    -0.354 A  
HETATM   33  C   UNL     1     -10.937  15.423  67.561  1.00  0.00    -0.315 A  
HETATM   34  C   UNL     1     -10.240  16.440  66.887  1.00  0.00    -0.290 A  
HETATM   35  C   UNL     1     -11.045  15.542  64.761  1.00  0.00    -0.421 A  
HETATM   36  C   UNL     1     -10.296  16.472  65.481  1.00  0.00    -0.307 A  
BRANCH  34  37
HETATM   37  N   UNL     1      -9.351  17.419  67.647  1.00  0.00    -0.243 N  
HETATM   38  C   UNL     1      -8.213  16.697  68.369  1.00  0.00    -0.206 C  
HETATM   39  C   UNL     1      -8.706  18.423  66.692  1.00  0.00    -0.286 C  
HETATM   40  C   UNL     1     -10.236  18.125  68.675  1.00  0.00    -0.366 C  
ENDBRANCH  34  37
ENDBRANCH  30  31
ENDBRANCH   4  30
TORSDOF 17
ENDMDL
MODEL      128
REMARK 921   NORMALIZED FREE ENERGY PREDICTED BY IDOCK:   -4.68 KCAL/MOL
REMARK 922        TOTAL FREE ENERGY PREDICTED BY IDOCK:  -11.57 KCAL/MOL
REMARK 923 INTER-LIGAND FREE ENERGY PREDICTED BY IDOCK:   -9.27 KCAL/MOL
REMARK 924 INTRA-LIGAND FREE ENERGY PREDICTED BY IDOCK:   -2.30 KCAL/MOL
REMARK 927      BINDING AFFINITY PREDICTED BY RF-SCORE:    0.00 PKD
ROOT
HETATM    1  C   UNL     1      -9.575   7.886  68.208  1.00  0.00    -0.156 C  
HETATM    2  N   UNL     1      -8.317   8.574  67.970  1.00  0.00    -0.126 N  
HETATM    3  O   UNL     1      -6.762   9.252  66.392  1.00  0.00    -0.070 OA 
HETATM    4  C   UNL     1      -7.867   8.799  66.676  1.00  0.00    -0.100 C  
ENDROOT
BRANCH   2   5
HETATM    5  C   UNL     1      -7.424   8.815  69.101  1.00  0.00    -0.076 C  
BRANCH   5   6
HETATM    6  C   UNL     1      -7.784  10.082  69.890  1.00  0.00    -0.183 C  
BRANCH   6   7
HETATM    7  C   UNL     1      -7.567  11.344  69.046  1.00  0.00    -0.084 C  
BRANCH   7   8
HETATM    8  C   UNL     1      -6.106  11.810  69.078  1.00  0.00    -0.066 C  
BRANCH   8   9
HETATM    9  C   UNL     1      -5.842  12.732  70.272  1.00  0.00    -0.157 C  
BRANCH   9  10
HETATM   10  C   UNL     1      -6.212  14.185  69.959  1.00  0.00    -0.151 C  
BRANCH  10  11
HETATM   11  C   UNL     1      -5.559  14.712  68.677  1.00  0.00    -0.093 C  
BRANCH  11  12
HETATM   12  C   UNL     1      -6.217  15.985  68.149  1.00  0.00    -0.127 C  
BRANCH  12  13
HETATM   13  C   UNL     1      -7.574  16.229  68.805  1.00  0.00    -0.199 C  
BRANCH  13  14
HETATM   14  C   UNL     1      -8.680  16.166  67.762  1.00  0.00    -0.172 C  
BRANCH  14  15
HETATM   15  N   UNL     1     -10.000  16.166  68.375  1.00  0.00    -0.226 N  
HETATM   16  C   UNL     1     -10.550  14.973  68.807  1.00  0.00    -0.240 C  
HETATM   17  C   UNL     1     -10.693  17.433  68.562  1.00  0.00    -0.279 C  
HETATM   18  O   UNL     1     -10.032  13.873  68.644  1.00  0.00    -0.227 OA 
BRANCH  16  19
HETATM   19  O   UNL     1     -11.825  15.148  69.324  1.00  0.00    -0.304 OA 
BRANCH  19  20
HETATM   20  C   UNL     1     -12.165  14.198  70.293  1.00  0.00    -0.349 A  
HETATM   21  C   UNL     1     -12.784  14.661  71.448  1.00  0.00    -0.403 A  
HETATM   22  C   UNL     1     -13.240  13.729  72.374  1.00  0.00    -0.580 A  
HETATM   23  C   UNL     1     -13.074  12.359  72.145  1.00  0.00    -0.419 A  
HETATM   24  C   UNL     1     -12.437  11.887  70.985  1.00  0.00    -0.290 A  
HETATM   25  C   UNL     1     -12.017  12.826  70.043  1.00  0.00    -0.371 A  
BRANCH  24  26
HETATM   26  N   UNL     1     -12.301  10.401  70.690  1.00  0.00    -0.323 N  
HETATM   27  C   UNL     1     -13.511   9.627  71.204  1.00  0.00    -0.226 C  
HETATM   28  C   UNL     1     -11.066   9.821  71.390  1.00  0.00    -0.247 C  
HETATM   29  C   UNL     1     -12.176  10.239  69.182  1.00  0.00     0.384 C  
ENDBRANCH  24  26
ENDBRANCH  19  20
ENDBRANCH  16  19
ENDBRANCH  14  15
ENDBRANCH  13  14
ENDBRANCH  12  13
ENDBRANCH  11  12
ENDBRANCH  10  11
ENDBRANCH   9  10
ENDBRANCH   8   9
ENDBRANCH   7   8
ENDBRANCH   6   7
ENDBRANCH   5   6
ENDBRANCH   2   5
BRANCH   4  30
HETATM   30  O   UNL     1      -8.787   8.382  65.709  1.00  0.00    -0.161 OA 
BRANCH  30  31
HETATM   31  C   UNL     1      -9.103   9.380  64.772  1.00  0.00    -0.193 A  
HETATM   32  C   UNL     1      -8.671   9.253  63.450  1.00  0.00    -0.193 A  
HETATM   33  C   UNL     1      -9.942  10.427  65.165  1.00  0.00    -0.390 A  
HETATM   34  C   UNL     1     -10.322  11.399  64.223  1.00  0.00    -0.328 A  
HETATM   35  C   UNL     1      -9.029  10.213  62.521  1.00  0.00    -0.284 A  
HETATM   36  C   UNL     1      -9.839  11.280  62.906  1.00  0.00    -0.317 A  
BRANCH  34  37
HETATM   37  N   UNL     1     -11.140  12.616  64.639  1.00  0.00    -0.299 N  
HETATM   38  C   UNL     1     -10.250  13.838  64.872  1.00  0.00    -0.348 C  
HETATM   39  C   UNL     1     -12.141  12.997  63.548  1.00  0.00    -0.542 C  
HETATM   40  C   UNL     1     -11.854  12.255  65.942  1.00  0.00    -0.354 C  
ENDBRANCH  34  37
ENDBRANCH  30  31
ENDBRANCH   4  30
TORSDOF 17
ENDMDL
MODEL      129
REMARK 921   NORMALIZED FREE ENERGY PREDICTED BY IDOCK:   -4.67 KCAL/MOL
REMARK 922        TOTAL FREE ENERGY PREDICTED BY IDOCK:  -11.54 KCAL/MOL
REMARK 923 INTER-LIGAND FREE ENERGY PREDICTED BY IDOCK:   -9.61 KCAL/MOL
REMARK 924 INTRA-LIGAND FREE ENERGY PREDICTED BY IDOCK:   -1.93 KCAL/MOL
REMARK 927      BINDING AFFINITY PREDICTED BY RF-SCORE:    0.00 PKD
ROOT
HETATM    1  C   UNL     1     -11.144   6.361  68.514  1.00  0.00    -0.300 C  
HETATM    2  N   UNL     1      -9.759   6.440  68.946  1.00  0.00    -0.126 N  
HETATM    3  O   UNL     1      -7.555   5.928  68.451  1.00  0.00    -0.087 OA 
HETATM    4  C   UNL     1      -8.732   6.016  68.115  1.00  0.00    -0.113 C  
ENDROOT
BRANCH   2   5
HETATM    5  C   UNL     1      -9.478   6.748  70.347  1.00  0.00    -0.166 C  
BRANCH   5   6
HETATM    6  C   UNL     1      -9.623   8.241  70.673  1.00  0.00    -0.190 C  
BRANCH   6   7
HETATM    7  C   UNL     1     -10.469   8.456  71.935  1.00  0.00    -0.366 C  
BRANCH   7   8
HETATM    8  C   UNL     1     -11.832   7.761  71.836  1.00  0.00    -0.338 C  
BRANCH   8   9
HETATM    9  C   UNL     1     -12.926   8.742  71.403  1.00  0.00    -0.306 C  
BRANCH   9  10
HETATM   10  C   UNL     1     -12.677  10.148  71.955  1.00  0.00    -0.493 C  
BRANCH  10  11
HETATM   11  C   UNL     1     -12.654  11.230  70.870  1.00  0.00    -0.467 C  
BRANCH  11  12
HETATM   12  C   UNL     1     -11.927  10.791  69.600  1.00  0.00    -0.385 C  
BRANCH  12  13
HETATM   13  C   UNL     1     -11.275  11.974  68.889  1.00  0.00    -0.315 C  
BRANCH  13  14
HETATM   14  C   UNL     1     -11.683  11.996  67.424  1.00  0.00    -0.281 C  
BRANCH  14  15
HETATM   15  N   UNL     1     -10.823  12.868  66.637  1.00  0.00    -0.265 N  
HETATM   16  C   UNL     1     -11.088  14.225  66.592  1.00  0.00    -0.321 C  
HETATM   17  C   UNL     1      -9.673  12.295  65.952  1.00  0.00    -0.235 C  
HETATM   18  O   UNL     1     -12.059  14.758  67.117  1.00  0.00    -0.308 OA 
BRANCH  16  19
HETATM   19  O   UNL     1     -10.200  14.897  65.765  1.00  0.00    -0.294 OA 
BRANCH  19  20
HETATM   20  C   UNL     1      -9.373  15.792  66.452  1.00  0.00    -0.301 A  
HETATM   21  C   UNL     1      -8.099  15.351  66.789  1.00  0.00    -0.212 A  
HETATM   22  C   UNL     1      -7.216  16.257  67.366  1.00  0.00    -0.200 A  
HETATM   23  C   UNL     1      -7.605  17.580  67.602  1.00  0.00    -0.203 A  
HETATM   24  C   UNL     1      -8.897  18.027  67.274  1.00  0.00    -0.247 A  
HETATM   25  C   UNL     1      -9.764  17.123  66.661  1.00  0.00    -0.285 A  
BRANCH  24  26
HETATM   26  N   UNL     1      -9.319  19.475  67.466  1.00  0.00    -0.309 N  
HETATM   27  C   UNL     1      -8.115  20.409  67.411  1.00  0.00    -0.321 C  
HETATM   28  C   UNL     1      -9.976  19.669  68.839  1.00  0.00    -0.438 C  
HETATM   29  C   UNL     1     -10.303  19.821  66.357  1.00  0.00    -0.508 C  
ENDBRANCH  24  26
ENDBRANCH  19  20
ENDBRANCH  16  19
ENDBRANCH  14  15
ENDBRANCH  13  14
ENDBRANCH  12  13
ENDBRANCH  11  12
ENDBRANCH  10  11
ENDBRANCH   9  10
ENDBRANCH   8   9
ENDBRANCH   7   8
ENDBRANCH   6   7
ENDBRANCH   5   6
ENDBRANCH   2   5
BRANCH   4  30
HETATM   30  O   UNL     1      -9.191   5.624  66.854  1.00  0.00    -0.117 OA 
BRANCH  30  31
HETATM   31  C   UNL     1      -8.330   5.991  65.805  1.00  0.00    -0.142 A  
HETATM   32  C   UNL     1      -7.545   5.020  65.180  1.00  0.00    -0.081 A  
HETATM   33  C   UNL     1      -8.363   7.309  65.341  1.00  0.00    -0.127 A  
HETATM   34  C   UNL     1      -7.556   7.678  64.251  1.00  0.00    -0.108 A  
HETATM   35  C   UNL     1      -6.738   5.379  64.116  1.00  0.00    -0.046 A  
HETATM   36  C   UNL     1      -6.736   6.697  63.662  1.00  0.00    -0.048 A  
BRANCH  34  37
HETATM   37  N   UNL     1      -7.478   9.129  63.788  1.00  0.00    -0.103 N  
HETATM   38  C   UNL     1      -8.862   9.684  63.450  1.00  0.00    -0.232 C  
HETATM   39  C   UNL     1      -6.898  10.020  64.886  1.00  0.00    -0.133 C  
HETATM   40  C   UNL     1      -6.602   9.155  62.535  1.00  0.00    -0.093 C  
ENDBRANCH  34  37
ENDBRANCH  30  31
ENDBRANCH   4  30
TORSDOF 17
ENDMDL
MODEL      130
REMARK 921   NORMALIZED FREE ENERGY PREDICTED BY IDOCK:   -4.66 KCAL/MOL
REMARK 922        TOTAL FREE ENERGY PREDICTED BY IDOCK:  -11.53 KCAL/MOL
REMARK 923 INTER-LIGAND FREE ENERGY PREDICTED BY IDOCK:   -9.38 KCAL/MOL
REMARK 924 INTRA-LIGAND FREE ENERGY PREDICTED BY IDOCK:   -2.15 KCAL/MOL
REMARK 927      BINDING AFFINITY PREDICTED BY RF-SCORE:    0.00 PKD
ROOT
HETATM    1  C   UNL     1      -9.600  11.310  62.709  1.00  0.00    -0.296 C  
HETATM    2  N   UNL     1     -10.348  11.242  63.952  1.00  0.00    -0.348 N  
HETATM    3  O   UNL     1     -10.409  10.429  66.121  1.00  0.00    -0.242 OA 
HETATM    4  C   UNL     1      -9.799  10.643  65.078  1.00  0.00    -0.293 C  
ENDROOT
BRANCH   2   5
HETATM    5  C   UNL     1     -11.766  11.596  63.938  1.00  0.00    -0.273 C  
BRANCH   5   6
HETATM    6  C   UNL     1     -12.031  12.983  63.336  1.00  0.00    -0.592 C  
BRANCH   6   7
HETATM    7  C   UNL     1     -12.360  14.010  64.427  1.00  0.00    -0.401 C  
BRANCH   7   8
HETATM    8  C   UNL     1     -12.559  13.348  65.796  1.00  0.00    -0.455 C  
BRANCH   8   9
HETATM    9  C   UNL     1     -11.959  14.200  66.918  1.00  0.00    -0.479 C  
BRANCH   9  10
HETATM   10  C   UNL     1     -11.082  13.365  67.856  1.00  0.00    -0.289 C  
BRANCH  10  11
HETATM   11  C   UNL     1     -11.849  12.792  69.052  1.00  0.00    -0.344 C  
BRANCH  11  12
HETATM   12  C   UNL     1     -11.964  11.269  69.016  1.00  0.00    -0.393 C  
BRANCH  12  13
HETATM   13  C   UNL     1     -11.314  10.629  70.240  1.00  0.00    -0.401 C  
BRANCH  13  14
HETATM   14  C   UNL     1     -10.931   9.188  69.939  1.00  0.00    -0.204 C  
BRANCH  14  15
HETATM   15  N   UNL     1     -10.579   8.458  71.148  1.00  0.00    -0.208 N  
HETATM   16  C   UNL     1     -11.321   7.352  71.516  1.00  0.00    -0.256 C  
HETATM   17  C   UNL     1      -9.419   8.886  71.918  1.00  0.00    -0.230 C  
HETATM   18  O   UNL     1     -12.327   6.966  70.929  1.00  0.00    -0.386 OA 
BRANCH  16  19
HETATM   19  O   UNL     1     -10.877   6.805  72.711  1.00  0.00    -0.236 OA 
BRANCH  19  20
HETATM   20  C   UNL     1     -10.600   5.437  72.624  1.00  0.00    -0.228 A  
HETATM   21  C   UNL     1     -11.249   4.598  73.523  1.00  0.00    -0.400 A  
HETATM   22  C   UNL     1     -11.085   3.225  73.383  1.00  0.00    -0.282 A  
HETATM   23  C   UNL     1     -10.283   2.703  72.362  1.00  0.00    -0.215 A  
HETATM   24  C   UNL     1      -9.615   3.548  71.460  1.00  0.00    -0.162 A  
HETATM   25  C   UNL     1      -9.815   4.923  71.582  1.00  0.00    -0.245 A  
BRANCH  24  26
HETATM   26  N   UNL     1      -8.789   2.999  70.307  1.00  0.00    -0.075 N  
HETATM   27  C   UNL     1      -9.446   1.765  69.699  1.00  0.00    -0.046 C  
HETATM   28  C   UNL     1      -7.398   2.573  70.794  1.00  0.00    -0.033 C  
HETATM   29  C   UNL     1      -8.667   4.098  69.261  1.00  0.00    -0.085 C  
ENDBRANCH  24  26
ENDBRANCH  19  20
ENDBRANCH  16  19
ENDBRANCH  14  15
ENDBRANCH  13  14
ENDBRANCH  12  13
ENDBRANCH  11  12
ENDBRANCH  10  11
ENDBRANCH   9  10
ENDBRANCH   8   9
ENDBRANCH   7   8
ENDBRANCH   6   7
ENDBRANCH   5   6
ENDBRANCH   2   5
BRANCH   4  30
HETATM   30  O   UNL     1      -8.477  10.236  64.876  1.00  0.00    -0.165 OA 
BRANCH  30  31
HETATM   31  C   UNL     1      -8.122   9.098  65.621  1.00  0.00    -0.113 A  
HETATM   32  C   UNL     1      -7.534   9.248  66.879  1.00  0.00    -0.091 A  
HETATM   33  C   UNL     1      -8.467   7.838  65.125  1.00  0.00    -0.075 A  
HETATM   34  C   UNL     1      -8.177   6.692  65.886  1.00  0.00    -0.132 A  
HETATM   35  C   UNL     1      -7.234   8.124  67.628  1.00  0.00    -0.092 A  
HETATM   36  C   UNL     1      -7.544   6.859  67.132  1.00  0.00    -0.107 A  
BRANCH  34  37
HETATM   37  N   UNL     1      -8.434   5.296  65.331  1.00  0.00    -0.139 N  
HETATM   38  C   UNL     1      -7.361   4.305  65.786  1.00  0.00    -0.080 C  
HETATM   39  C   UNL     1      -9.777   4.753  65.822  1.00  0.00    -0.188 C  
HETATM   40  C   UNL     1      -8.408   5.405  63.806  1.00  0.00    -0.102 C  
ENDBRANCH  34  37
ENDBRANCH  30  31
ENDBRANCH   4  30
TORSDOF 17
ENDMDL
MODEL      131
REMARK 921   NORMALIZED FREE ENERGY PREDICTED BY IDOCK:   -4.66 KCAL/MOL
REMARK 922        TOTAL FREE ENERGY PREDICTED BY IDOCK:  -11.53 KCAL/MOL
REMARK 923 INTER-LIGAND FREE ENERGY PREDICTED BY IDOCK:  -10.10 KCAL/MOL
REMARK 924 INTRA-LIGAND FREE ENERGY PREDICTED BY IDOCK:   -1.43 KCAL/MOL
REMARK 927      BINDING AFFINITY PREDICTED BY RF-SCORE:    0.00 PKD
ROOT
HETATM    1  C   UNL     1      -7.930  10.506  67.057  1.00  0.00    -0.118 C  
HETATM    2  N   UNL     1      -9.253  10.332  66.484  1.00  0.00    -0.151 N  
HETATM    3  O   UNL     1     -11.015  11.338  65.365  1.00  0.00    -0.230 OA 
HETATM    4  C   UNL     1      -9.855  11.357  65.767  1.00  0.00    -0.232 C  
ENDROOT
BRANCH   2   5
HETATM    5  C   UNL     1     -10.036   9.159  66.870  1.00  0.00    -0.258 C  
BRANCH   5   6
HETATM    6  C   UNL     1      -9.463   7.847  66.316  1.00  0.00    -0.220 C  
BRANCH   6   7
HETATM    7  C   UNL     1      -9.935   6.642  67.139  1.00  0.00    -0.209 C  
BRANCH   7   8
HETATM    8  C   UNL     1      -9.444   5.316  66.545  1.00  0.00    -0.155 C  
BRANCH   8   9
HETATM    9  C   UNL     1      -8.757   4.452  67.606  1.00  0.00    -0.113 C  
BRANCH   9  10
HETATM   10  C   UNL     1      -9.736   4.009  68.697  1.00  0.00    -0.138 C  
BRANCH  10  11
HETATM   11  C   UNL     1      -9.479   4.679  70.051  1.00  0.00    -0.242 C  
BRANCH  11  12
HETATM   12  C   UNL     1     -10.760   5.121  70.755  1.00  0.00    -0.132 C  
BRANCH  12  13
HETATM   13  C   UNL     1     -10.459   5.997  71.969  1.00  0.00    -0.251 C  
BRANCH  13  14
HETATM   14  C   UNL     1     -10.094   7.405  71.523  1.00  0.00    -0.185 C  
BRANCH  14  15
HETATM   15  N   UNL     1     -11.268   8.256  71.406  1.00  0.00    -0.246 N  
HETATM   16  C   UNL     1     -11.143   9.515  70.849  1.00  0.00    -0.336 C  
HETATM   17  C   UNL     1     -12.560   7.741  71.839  1.00  0.00    -0.311 C  
HETATM   18  O   UNL     1     -10.079  10.016  70.501  1.00  0.00    -0.216 OA 
BRANCH  16  19
HETATM   19  O   UNL     1     -12.347  10.205  70.855  1.00  0.00    -0.314 OA 
BRANCH  19  20
HETATM   20  C   UNL     1     -12.219  11.543  70.467  1.00  0.00    -0.377 A  
HETATM   21  C   UNL     1     -11.864  11.792  69.147  1.00  0.00    -0.389 A  
HETATM   22  C   UNL     1     -11.846  13.109  68.703  1.00  0.00    -0.363 A  
HETATM   23  C   UNL     1     -12.176  14.157  69.569  1.00  0.00    -0.351 A  
HETATM   24  C   UNL     1     -12.524  13.911  70.909  1.00  0.00    -0.375 A  
HETATM   25  C   UNL     1     -12.577  12.585  71.336  1.00  0.00    -0.297 A  
BRANCH  24  26
HETATM   26  N   UNL     1     -12.944  15.030  71.849  1.00  0.00    -0.323 N  
HETATM   27  C   UNL     1     -12.856  14.585  73.305  1.00  0.00    -0.399 C  
HETATM   28  C   UNL     1     -14.401  15.435  71.590  1.00  0.00    -0.505 C  
HETATM   29  C   UNL     1     -12.017  16.212  71.604  1.00  0.00    -0.462 C  
ENDBRANCH  24  26
ENDBRANCH  19  20
ENDBRANCH  16  19
ENDBRANCH  14  15
ENDBRANCH  13  14
ENDBRANCH  12  13
ENDBRANCH  11  12
ENDBRANCH  10  11
ENDBRANCH   9  10
ENDBRANCH   8   9
ENDBRANCH   7   8
ENDBRANCH   6   7
ENDBRANCH   5   6
ENDBRANCH   2   5
BRANCH   4  30
HETATM   30  O   UNL     1      -9.015  12.463  65.607  1.00  0.00     0.144 OA 
BRANCH  30  31
HETATM   31  C   UNL     1      -9.681  13.694  65.733  1.00  0.00    -0.140 A  
HETATM   32  C   UNL     1     -10.924  13.877  65.124  1.00  0.00    -0.352 A  
HETATM   33  C   UNL     1      -9.127  14.673  66.563  1.00  0.00    -0.267 A  
HETATM   34  C   UNL     1      -9.810  15.887  66.752  1.00  0.00    -0.244 A  
HETATM   35  C   UNL     1     -11.596  15.074  65.295  1.00  0.00    -0.258 A  
HETATM   36  C   UNL     1     -11.040  16.072  66.094  1.00  0.00     0.027 A  
BRANCH  34  37
HETATM   37  N   UNL     1      -9.185  17.021  67.556  1.00  0.00    -0.230 N  
HETATM   38  C   UNL     1      -8.202  16.493  68.601  1.00  0.00    -0.234 C  
HETATM   39  C   UNL     1      -8.401  17.967  66.646  1.00  0.00    -0.261 C  
HETATM   40  C   UNL     1     -10.327  17.755  68.261  1.00  0.00    -0.385 C  
ENDBRANCH  34  37
ENDBRANCH  30  31
ENDBRANCH   4  30
TORSDOF 17
ENDMDL
MODEL      132
REMARK 921   NORMALIZED FREE ENERGY PREDICTED BY IDOCK:   -4.66 KCAL/MOL
REMARK 922        TOTAL FREE ENERGY PREDICTED BY IDOCK:  -11.52 KCAL/MOL
REMARK 923 INTER-LIGAND FREE ENERGY PREDICTED BY IDOCK:   -8.36 KCAL/MOL
REMARK 924 INTRA-LIGAND FREE ENERGY PREDICTED BY IDOCK:   -3.17 KCAL/MOL
REMARK 927      BINDING AFFINITY PREDICTED BY RF-SCORE:    0.00 PKD
ROOT
HETATM    1  C   UNL     1     -12.440  14.003  65.455  1.00  0.00    -0.498 C  
HETATM    2  N   UNL     1     -11.609  13.939  66.645  1.00  0.00    -0.355 N  
HETATM    3  O   UNL     1     -10.720  12.587  68.303  1.00  0.00    -0.213 OA 
HETATM    4  C   UNL     1     -11.302  12.718  67.230  1.00  0.00    -0.314 C  
ENDROOT
BRANCH   2   5
HETATM    5  C   UNL     1     -11.297  15.180  67.350  1.00  0.00    -0.306 C  
BRANCH   5   6
HETATM    6  C   UNL     1     -10.361  16.102  66.557  1.00  0.00    -0.311 C  
BRANCH   6   7
HETATM    7  C   UNL     1      -9.039  15.400  66.223  1.00  0.00    -0.355 C  
BRANCH   7   8
HETATM    8  C   UNL     1      -8.166  15.200  67.468  1.00  0.00    -0.196 C  
BRANCH   8   9
HETATM    9  C   UNL     1      -7.460  13.841  67.440  1.00  0.00    -0.142 C  
BRANCH   9  10
HETATM   10  C   UNL     1      -6.455  13.701  68.587  1.00  0.00    -0.094 C  
BRANCH  10  11
HETATM   11  C   UNL     1      -6.113  12.245  68.919  1.00  0.00    -0.073 C  
BRANCH  11  12
HETATM   12  C   UNL     1      -7.152  11.252  68.402  1.00  0.00    -0.081 C  
BRANCH  12  13
HETATM   13  C   UNL     1      -6.912   9.850  68.955  1.00  0.00    -0.062 C  
BRANCH  13  14
HETATM   14  C   UNL     1      -7.339   9.780  70.413  1.00  0.00    -0.141 C  
BRANCH  14  15
HETATM   15  N   UNL     1      -8.449   8.858  70.607  1.00  0.00    -0.164 N  
HETATM   16  C   UNL     1      -8.192   7.554  70.988  1.00  0.00    -0.108 C  
HETATM   17  C   UNL     1      -9.811   9.346  70.439  1.00  0.00    -0.259 C  
HETATM   18  O   UNL     1      -7.069   7.077  71.108  1.00  0.00    -0.071 OA 
BRANCH  16  19
HETATM   19  O   UNL     1      -9.355   6.804  71.084  1.00  0.00    -0.159 OA 
BRANCH  19  20
HETATM   20  C   UNL     1      -9.289   5.590  70.393  1.00  0.00    -0.159 A  
HETATM   21  C   UNL     1      -9.446   4.426  71.137  1.00  0.00    -0.228 A  
HETATM   22  C   UNL     1      -9.504   3.212  70.462  1.00  0.00    -0.236 A  
HETATM   23  C   UNL     1      -9.404   3.167  69.067  1.00  0.00    -0.230 A  
HETATM   24  C   UNL     1      -9.233   4.340  68.313  1.00  0.00    -0.142 A  
HETATM   25  C   UNL     1      -9.214   5.557  68.993  1.00  0.00    -0.143 A  
BRANCH  24  26
HETATM   26  N   UNL     1      -9.183   4.318  66.793  1.00  0.00    -0.135 N  
HETATM   27  C   UNL     1     -10.435   4.950  66.194  1.00  0.00    -0.302 C  
HETATM   28  C   UNL     1      -9.116   2.876  66.274  1.00  0.00    -0.132 C  
HETATM   29  C   UNL     1      -7.946   5.091  66.359  1.00  0.00    -0.107 C  
ENDBRANCH  24  26
ENDBRANCH  19  20
ENDBRANCH  16  19
ENDBRANCH  14  15
ENDBRANCH  13  14
ENDBRANCH  12  13
ENDBRANCH  11  12
ENDBRANCH  10  11
ENDBRANCH   9  10
ENDBRANCH   8   9
ENDBRANCH   7   8
ENDBRANCH   6   7
ENDBRANCH   5   6
ENDBRANCH   2   5
BRANCH   4  30
HETATM   30  O   UNL     1     -11.795  11.634  66.498  1.00  0.00    -0.500 OA 
BRANCH  30  31
HETATM   31  C   UNL     1     -10.826  10.652  66.231  1.00  0.00    -0.027 A  
HETATM   32  C   UNL     1     -10.685   9.564  67.094  1.00  0.00    -0.252 A  
HETATM   33  C   UNL     1     -10.098  10.735  65.040  1.00  0.00    -0.377 A  
HETATM   34  C   UNL     1      -9.170   9.727  64.726  1.00  0.00    -0.261 A  
HETATM   35  C   UNL     1      -9.764   8.575  66.798  1.00  0.00    -0.303 A  
HETATM   36  C   UNL     1      -9.008   8.661  65.630  1.00  0.00    -0.231 A  
BRANCH  34  37
HETATM   37  N   UNL     1      -8.277   9.839  63.496  1.00  0.00    -0.144 N  
HETATM   38  C   UNL     1      -8.724  10.979  62.580  1.00  0.00    -0.287 C  
HETATM   39  C   UNL     1      -6.831  10.133  63.897  1.00  0.00    -0.106 C  
HETATM   40  C   UNL     1      -8.381   8.513  62.741  1.00  0.00    -0.154 C  
ENDBRANCH  34  37
ENDBRANCH  30  31
ENDBRANCH   4  30
TORSDOF 17
ENDMDL
MODEL      133
REMARK 921   NORMALIZED FREE ENERGY PREDICTED BY IDOCK:   -4.65 KCAL/MOL
REMARK 922        TOTAL FREE ENERGY PREDICTED BY IDOCK:  -11.51 KCAL/MOL
REMARK 923 INTER-LIGAND FREE ENERGY PREDICTED BY IDOCK:   -8.43 KCAL/MOL
REMARK 924 INTRA-LIGAND FREE ENERGY PREDICTED BY IDOCK:   -3.08 KCAL/MOL
REMARK 927      BINDING AFFINITY PREDICTED BY RF-SCORE:    0.00 PKD
ROOT
HETATM    1  C   UNL     1     -12.427  13.811  65.839  1.00  0.00    -0.468 C  
HETATM    2  N   UNL     1     -11.275  13.873  66.722  1.00  0.00    -0.310 N  
HETATM    3  O   UNL     1     -10.019  12.772  68.328  1.00  0.00    -0.223 OA 
HETATM    4  C   UNL     1     -10.893  12.765  67.466  1.00  0.00    -0.239 C  
ENDROOT
BRANCH   2   5
HETATM    5  C   UNL     1     -10.669  15.174  66.996  1.00  0.00    -0.307 C  
BRANCH   5   6
HETATM    6  C   UNL     1     -11.355  15.924  68.147  1.00  0.00    -0.311 C  
BRANCH   6   7
HETATM    7  C   UNL     1     -10.329  16.631  69.041  1.00  0.00    -0.317 C  
BRANCH   7   8
HETATM    8  C   UNL     1      -9.129  15.730  69.360  1.00  0.00    -0.254 C  
BRANCH   8   9
HETATM    9  C   UNL     1      -7.806  16.434  69.047  1.00  0.00    -0.231 C  
BRANCH   9  10
HETATM   10  C   UNL     1      -6.601  15.561  69.409  1.00  0.00    -0.158 C  
BRANCH  10  11
HETATM   11  C   UNL     1      -6.860  14.063  69.222  1.00  0.00    -0.105 C  
BRANCH  11  12
HETATM   12  C   UNL     1      -5.615  13.206  69.438  1.00  0.00    -0.084 C  
BRANCH  12  13
HETATM   13  C   UNL     1      -5.897  12.032  70.373  1.00  0.00    -0.157 C  
BRANCH  13  14
HETATM   14  C   UNL     1      -6.434  10.848  69.582  1.00  0.00    -0.114 C  
BRANCH  14  15
HETATM   15  N   UNL     1      -6.833   9.753  70.454  1.00  0.00    -0.120 N  
HETATM   16  C   UNL     1      -8.173   9.436  70.578  1.00  0.00    -0.189 C  
HETATM   17  C   UNL     1      -5.803   8.986  71.140  1.00  0.00    -0.051 C  
HETATM   18  O   UNL     1      -9.085  10.067  70.055  1.00  0.00    -0.202 OA 
BRANCH  16  19
HETATM   19  O   UNL     1      -8.378   8.400  71.478  1.00  0.00    -0.127 OA 
BRANCH  19  20
HETATM   20  C   UNL     1      -9.033   7.300  70.915  1.00  0.00    -0.150 A  
HETATM   21  C   UNL     1     -10.389   7.160  71.187  1.00  0.00    -0.214 A  
HETATM   22  C   UNL     1     -11.091   6.146  70.545  1.00  0.00    -0.405 A  
HETATM   23  C   UNL     1     -10.444   5.287  69.651  1.00  0.00    -0.320 A  
HETATM   24  C   UNL     1      -9.071   5.417  69.383  1.00  0.00    -0.108 A  
HETATM   25  C   UNL     1      -8.381   6.461  70.000  1.00  0.00    -0.130 A  
BRANCH  24  26
HETATM   26  N   UNL     1      -8.362   4.533  68.369  1.00  0.00    -0.089 N  
HETATM   27  C   UNL     1      -7.442   5.354  67.473  1.00  0.00    -0.084 C  
HETATM   28  C   UNL     1      -9.378   3.839  67.453  1.00  0.00    -0.198 C  
HETATM   29  C   UNL     1      -7.556   3.498  69.141  1.00  0.00    -0.052 C  
ENDBRANCH  24  26
ENDBRANCH  19  20
ENDBRANCH  16  19
ENDBRANCH  14  15
ENDBRANCH  13  14
ENDBRANCH  12  13
ENDBRANCH  11  12
ENDBRANCH  10  11
ENDBRANCH   9  10
ENDBRANCH   8   9
ENDBRANCH   7   8
ENDBRANCH   6   7
ENDBRANCH   5   6
ENDBRANCH   2   5
BRANCH   4  30
HETATM   30  O   UNL     1     -11.667  11.636  67.182  1.00  0.00    -0.566 OA 
BRANCH  30  31
HETATM   31  C   UNL     1     -10.904  10.496  66.879  1.00  0.00    -0.187 A  
HETATM   32  C   UNL     1     -11.033   9.347  67.661  1.00  0.00    -0.106 A  
HETATM   33  C   UNL     1     -10.111  10.506  65.728  1.00  0.00    -0.329 A  
HETATM   34  C   UNL     1      -9.390   9.352  65.374  1.00  0.00    -0.247 A  
HETATM   35  C   UNL     1     -10.317   8.211  67.327  1.00  0.00    -0.373 A  
HETATM   36  C   UNL     1      -9.496   8.218  66.200  1.00  0.00    -0.241 A  
BRANCH  34  37
HETATM   37  N   UNL     1      -8.427   9.360  64.193  1.00  0.00    -0.179 N  
HETATM   38  C   UNL     1      -8.060   7.941  63.759  1.00  0.00    -0.079 C  
HETATM   39  C   UNL     1      -9.058  10.046  62.981  1.00  0.00    -0.279 C  
HETATM   40  C   UNL     1      -7.164  10.094  64.647  1.00  0.00    -0.124 C  
ENDBRANCH  34  37
ENDBRANCH  30  31
ENDBRANCH   4  30
TORSDOF 17
ENDMDL
MODEL      134
REMARK 921   NORMALIZED FREE ENERGY PREDICTED BY IDOCK:   -4.65 KCAL/MOL
REMARK 922        TOTAL FREE ENERGY PREDICTED BY IDOCK:  -11.50 KCAL/MOL
REMARK 923 INTER-LIGAND FREE ENERGY PREDICTED BY IDOCK:   -8.84 KCAL/MOL
REMARK 924 INTRA-LIGAND FREE ENERGY PREDICTED BY IDOCK:   -2.66 KCAL/MOL
REMARK 927      BINDING AFFINITY PREDICTED BY RF-SCORE:    0.00 PKD
ROOT
HETATM    1  C   UNL     1     -12.694  13.896  65.490  1.00  0.00    -0.499 C  
HETATM    2  N   UNL     1     -11.346  14.115  65.986  1.00  0.00    -0.323 N  
HETATM    3  O   UNL     1      -9.409  13.135  66.795  1.00  0.00    -0.235 OA 
HETATM    4  C   UNL     1     -10.506  13.043  66.254  1.00  0.00    -0.276 C  
ENDROOT
BRANCH   2   5
HETATM    5  C   UNL     1     -10.968  15.458  66.421  1.00  0.00    -0.277 C  
BRANCH   5   6
HETATM    6  C   UNL     1     -11.242  15.705  67.911  1.00  0.00    -0.328 C  
BRANCH   6   7
HETATM    7  C   UNL     1     -10.587  17.006  68.391  1.00  0.00    -0.375 C  
BRANCH   7   8
HETATM    8  C   UNL     1      -9.097  16.816  68.703  1.00  0.00    -0.254 C  
BRANCH   8   9
HETATM    9  C   UNL     1      -8.311  18.109  68.471  1.00  0.00    -0.314 C  
BRANCH   9  10
HETATM   10  C   UNL     1      -6.863  17.826  68.060  1.00  0.00    -0.191 C  
BRANCH  10  11
HETATM   11  C   UNL     1      -6.691  16.490  67.329  1.00  0.00    -0.216 C  
BRANCH  11  12
HETATM   12  C   UNL     1      -5.286  15.908  67.465  1.00  0.00    -0.085 C  
BRANCH  12  13
HETATM   13  C   UNL     1      -5.174  14.990  68.679  1.00  0.00    -0.094 C  
BRANCH  13  14
HETATM   14  C   UNL     1      -6.480  14.239  68.892  1.00  0.00    -0.092 C  
BRANCH  14  15
HETATM   15  N   UNL     1      -6.295  12.798  68.806  1.00  0.00    -0.074 N  
HETATM   16  C   UNL     1      -6.075  12.070  69.961  1.00  0.00    -0.146 C  
HETATM   17  C   UNL     1      -6.393  12.150  67.506  1.00  0.00    -0.129 C  
HETATM   18  O   UNL     1      -5.946  12.563  71.076  1.00  0.00    -0.303 OA 
BRANCH  16  19
HETATM   19  O   UNL     1      -5.877  10.724  69.693  1.00  0.00    -0.043 OA 
BRANCH  19  20
HETATM   20  C   UNL     1      -6.761   9.887  70.382  1.00  0.00    -0.136 A  
HETATM   21  C   UNL     1      -6.257   9.191  71.475  1.00  0.00    -0.069 A  
HETATM   22  C   UNL     1      -7.139   8.446  72.250  1.00  0.00    -0.116 A  
HETATM   23  C   UNL     1      -8.501   8.399  71.932  1.00  0.00    -0.237 A  
HETATM   24  C   UNL     1      -9.012   9.091  70.821  1.00  0.00    -0.236 A  
HETATM   25  C   UNL     1      -8.128   9.867  70.071  1.00  0.00    -0.193 A  
BRANCH  24  26
HETATM   26  N   UNL     1     -10.497   9.101  70.494  1.00  0.00    -0.218 N  
HETATM   27  C   UNL     1     -11.339   9.067  71.766  1.00  0.00    -0.377 C  
HETATM   28  C   UNL     1     -10.879   7.865  69.670  1.00  0.00    -0.176 C  
HETATM   29  C   UNL     1     -10.789  10.370  69.706  1.00  0.00    -0.292 C  
ENDBRANCH  24  26
ENDBRANCH  19  20
ENDBRANCH  16  19
ENDBRANCH  14  15
ENDBRANCH  13  14
ENDBRANCH  12  13
ENDBRANCH  11  12
ENDBRANCH  10  11
ENDBRANCH   9  10
ENDBRANCH   8   9
ENDBRANCH   7   8
ENDBRANCH   6   7
ENDBRANCH   5   6
ENDBRANCH   2   5
BRANCH   4  30
HETATM   30  O   UNL     1     -11.078  11.815  65.906  1.00  0.00    -0.309 OA 
BRANCH  30  31
HETATM   31  C   UNL     1     -10.298  11.069  65.007  1.00  0.00    -0.295 A  
HETATM   32  C   UNL     1     -10.217  11.459  63.668  1.00  0.00    -0.448 A  
HETATM   33  C   UNL     1      -9.530  10.011  65.503  1.00  0.00    -0.296 A  
HETATM   34  C   UNL     1      -8.695   9.294  64.630  1.00  0.00    -0.192 A  
HETATM   35  C   UNL     1      -9.407  10.750  62.800  1.00  0.00    -0.352 A  
HETATM   36  C   UNL     1      -8.660   9.672  63.275  1.00  0.00    -0.210 A  
BRANCH  34  37
HETATM   37  N   UNL     1      -7.931   8.064  65.108  1.00  0.00    -0.120 N  
HETATM   38  C   UNL     1      -6.636   8.452  65.823  1.00  0.00    -0.053 C  
HETATM   39  C   UNL     1      -8.765   7.259  66.105  1.00  0.00    -0.155 C  
HETATM   40  C   UNL     1      -7.596   7.232  63.869  1.00  0.00    -0.110 C  
ENDBRANCH  34  37
ENDBRANCH  30  31
ENDBRANCH   4  30
TORSDOF 17
ENDMDL
MODEL      135
REMARK 921   NORMALIZED FREE ENERGY PREDICTED BY IDOCK:   -4.65 KCAL/MOL
REMARK 922        TOTAL FREE ENERGY PREDICTED BY IDOCK:  -11.50 KCAL/MOL
REMARK 923 INTER-LIGAND FREE ENERGY PREDICTED BY IDOCK:   -9.18 KCAL/MOL
REMARK 924 INTRA-LIGAND FREE ENERGY PREDICTED BY IDOCK:   -2.31 KCAL/MOL
REMARK 927      BINDING AFFINITY PREDICTED BY RF-SCORE:    0.00 PKD
ROOT
HETATM    1  C   UNL     1      -8.175   9.725  64.899  1.00  0.00    -0.142 C  
HETATM    2  N   UNL     1      -9.407   9.523  65.644  1.00  0.00    -0.222 N  
HETATM    3  O   UNL     1     -10.719   8.024  66.825  1.00  0.00    -0.289 OA 
HETATM    4  C   UNL     1      -9.655   8.320  66.289  1.00  0.00    -0.196 C  
ENDROOT
BRANCH   2   5
HETATM    5  C   UNL     1     -10.478  10.509  65.508  1.00  0.00    -0.150 C  
BRANCH   5   6
HETATM    6  C   UNL     1     -10.478  11.210  64.142  1.00  0.00    -0.442 C  
BRANCH   6   7
HETATM    7  C   UNL     1     -10.385  12.733  64.297  1.00  0.00    -0.402 C  
BRANCH   7   8
HETATM    8  C   UNL     1     -10.998  13.212  65.619  1.00  0.00    -0.295 C  
BRANCH   8   9
HETATM    9  C   UNL     1     -10.400  14.554  66.055  1.00  0.00    -0.320 C  
BRANCH   9  10
HETATM   10  C   UNL     1     -10.097  14.578  67.555  1.00  0.00    -0.228 C  
BRANCH  10  11
HETATM   11  C   UNL     1     -10.872  15.660  68.313  1.00  0.00    -0.298 C  
BRANCH  11  12
HETATM   12  C   UNL     1     -11.647  15.116  69.512  1.00  0.00    -0.340 C  
BRANCH  12  13
HETATM   13  C   UNL     1     -12.212  13.726  69.230  1.00  0.00    -0.307 C  
BRANCH  13  14
HETATM   14  C   UNL     1     -12.162  12.873  70.489  1.00  0.00    -0.314 C  
BRANCH  14  15
HETATM   15  N   UNL     1     -11.695  11.523  70.209  1.00  0.00    -0.320 N  
HETATM   16  C   UNL     1     -12.079  10.485  71.038  1.00  0.00    -0.387 C  
HETATM   17  C   UNL     1     -10.870  11.291  69.032  1.00  0.00    -0.222 C  
HETATM   18  O   UNL     1     -12.741  10.625  72.061  1.00  0.00    -0.366 OA 
BRANCH  16  19
HETATM   19  O   UNL     1     -11.512   9.279  70.653  1.00  0.00    -0.266 OA 
BRANCH  19  20
HETATM   20  C   UNL     1     -10.857   8.618  71.697  1.00  0.00    -0.304 A  
HETATM   21  C   UNL     1     -11.615   7.751  72.476  1.00  0.00    -0.422 A  
HETATM   22  C   UNL     1     -10.967   6.991  73.443  1.00  0.00    -0.249 A  
HETATM   23  C   UNL     1      -9.584   7.102  73.626  1.00  0.00    -0.287 A  
HETATM   24  C   UNL     1      -8.816   7.986  72.850  1.00  0.00    -0.224 A  
HETATM   25  C   UNL     1      -9.467   8.716  71.856  1.00  0.00    -0.369 A  
BRANCH  24  26
HETATM   26  N   UNL     1      -7.305   8.075  72.993  1.00  0.00    -0.104 N  
HETATM   27  C   UNL     1      -6.664   6.693  72.922  1.00  0.00    -0.068 C  
HETATM   28  C   UNL     1      -6.924   8.677  74.351  1.00  0.00    -0.100 C  
HETATM   29  C   UNL     1      -6.785   8.953  71.864  1.00  0.00    -0.011 C  
ENDBRANCH  24  26
ENDBRANCH  19  20
ENDBRANCH  16  19
ENDBRANCH  14  15
ENDBRANCH  13  14
ENDBRANCH  12  13
ENDBRANCH  11  12
ENDBRANCH  10  11
ENDBRANCH   9  10
ENDBRANCH   8   9
ENDBRANCH   7   8
ENDBRANCH   6   7
ENDBRANCH   5   6
ENDBRANCH   2   5
BRANCH   4  30
HETATM   30  O   UNL     1      -8.577   7.435  66.204  1.00  0.00    -0.133 OA 
BRANCH  30  31
HETATM   31  C   UNL     1      -8.899   6.122  66.590  1.00  0.00    -0.127 A  
HETATM   32  C   UNL     1      -9.269   5.186  65.622  1.00  0.00    -0.157 A  
HETATM   33  C   UNL     1      -8.733   5.757  67.929  1.00  0.00    -0.103 A  
HETATM   34  C   UNL     1      -8.989   4.432  68.321  1.00  0.00    -0.119 A  
HETATM   35  C   UNL     1      -9.535   3.883  66.002  1.00  0.00    -0.185 A  
HETATM   36  C   UNL     1      -9.405   3.512  67.340  1.00  0.00    -0.246 A  
BRANCH  34  37
HETATM   37  N   UNL     1      -8.931   4.023  69.788  1.00  0.00    -0.090 N  
HETATM   38  C   UNL     1      -9.405   2.582  69.988  1.00  0.00    -0.116 C  
HETATM   39  C   UNL     1      -7.499   4.097  70.318  1.00  0.00    -0.045 C  
HETATM   40  C   UNL     1      -9.853   4.970  70.557  1.00  0.00    -0.219 C  
ENDBRANCH  34  37
ENDBRANCH  30  31
ENDBRANCH   4  30
TORSDOF 17
ENDMDL
MODEL      136
REMARK 921   NORMALIZED FREE ENERGY PREDICTED BY IDOCK:   -4.64 KCAL/MOL
REMARK 922        TOTAL FREE ENERGY PREDICTED BY IDOCK:  -11.49 KCAL/MOL
REMARK 923 INTER-LIGAND FREE ENERGY PREDICTED BY IDOCK:   -8.63 KCAL/MOL
REMARK 924 INTRA-LIGAND FREE ENERGY PREDICTED BY IDOCK:   -2.86 KCAL/MOL
REMARK 927      BINDING AFFINITY PREDICTED BY RF-SCORE:    0.00 PKD
ROOT
HETATM    1  C   UNL     1     -11.914  13.586  63.647  1.00  0.00    -0.385 C  
HETATM    2  N   UNL     1     -11.804  12.458  64.556  1.00  0.00    -0.366 N  
HETATM    3  O   UNL     1     -11.914  11.740  66.756  1.00  0.00    -0.584 OA 
HETATM    4  C   UNL     1     -12.105  12.602  65.903  1.00  0.00    -0.396 C  
ENDROOT
BRANCH   2   5
HETATM    5  C   UNL     1     -11.150  11.239  64.085  1.00  0.00    -0.233 C  
BRANCH   5   6
HETATM    6  C   UNL     1      -9.618  11.339  64.092  1.00  0.00    -0.255 C  
BRANCH   6   7
HETATM    7  C   UNL     1      -9.035  11.069  62.699  1.00  0.00    -0.355 C  
BRANCH   7   8
HETATM    8  C   UNL     1      -8.310   9.719  62.634  1.00  0.00    -0.162 C  
BRANCH   8   9
HETATM    9  C   UNL     1      -8.193   9.083  64.023  1.00  0.00    -0.167 C  
BRANCH   9  10
HETATM   10  C   UNL     1      -6.852   8.366  64.206  1.00  0.00    -0.066 C  
BRANCH  10  11
HETATM   11  C   UNL     1      -6.887   6.897  63.770  1.00  0.00    -0.054 C  
BRANCH  11  12
HETATM   12  C   UNL     1      -8.250   6.240  63.982  1.00  0.00     0.003 C  
BRANCH  12  13
HETATM   13  C   UNL     1      -8.155   5.044  64.926  1.00  0.00    -0.112 C  
BRANCH  13  14
HETATM   14  C   UNL     1      -9.386   4.979  65.816  1.00  0.00    -0.160 C  
BRANCH  14  15
HETATM   15  N   UNL     1      -9.147   5.593  67.114  1.00  0.00    -0.112 N  
HETATM   16  C   UNL     1     -10.101   6.436  67.654  1.00  0.00    -0.151 C  
HETATM   17  C   UNL     1      -7.925   5.267  67.836  1.00  0.00    -0.095 C  
HETATM   18  O   UNL     1     -11.130   6.776  67.079  1.00  0.00    -0.403 OA 
BRANCH  16  19
HETATM   19  O   UNL     1      -9.694   6.966  68.869  1.00  0.00    -0.142 OA 
BRANCH  19  20
HETATM   20  C   UNL     1      -9.803   8.360  68.929  1.00  0.00    -0.180 A  
HETATM   21  C   UNL     1     -10.921   8.883  69.568  1.00  0.00    -0.097 A  
HETATM   22  C   UNL     1     -10.996  10.260  69.748  1.00  0.00    -0.338 A  
HETATM   23  C   UNL     1      -9.970  11.095  69.292  1.00  0.00    -0.034 A  
HETATM   24  C   UNL     1      -8.844  10.570  68.635  1.00  0.00    -0.147 A  
HETATM   25  C   UNL     1      -8.757   9.186  68.493  1.00  0.00    -0.129 A  
BRANCH  24  26
HETATM   26  N   UNL     1      -7.691  11.455  68.187  1.00  0.00    -0.111 N  
HETATM   27  C   UNL     1      -8.201  12.693  67.456  1.00  0.00    -0.178 C  
HETATM   28  C   UNL     1      -6.778  10.701  67.211  1.00  0.00    -0.078 C  
HETATM   29  C   UNL     1      -6.911  11.862  69.429  1.00  0.00    -0.001 C  
ENDBRANCH  24  26
ENDBRANCH  19  20
ENDBRANCH  16  19
ENDBRANCH  14  15
ENDBRANCH  13  14
ENDBRANCH  12  13
ENDBRANCH  11  12
ENDBRANCH  10  11
ENDBRANCH   9  10
ENDBRANCH   8   9
ENDBRANCH   7   8
ENDBRANCH   6   7
ENDBRANCH   5   6
ENDBRANCH   2   5
BRANCH   4  30
HETATM   30  O   UNL     1     -12.590  13.876  66.210  1.00  0.00    -0.435 OA 
BRANCH  30  31
HETATM   31  C   UNL     1     -11.953  14.468  67.314  1.00  0.00    -0.344 A  
HETATM   32  C   UNL     1     -10.824  15.266  67.118  1.00  0.00    -0.322 A  
HETATM   33  C   UNL     1     -12.534  14.327  68.578  1.00  0.00     0.181 A  
HETATM   34  C   UNL     1     -11.945  14.964  69.684  1.00  0.00    -0.320 A  
HETATM   35  C   UNL     1     -10.232  15.886  68.204  1.00  0.00    -0.232 A  
HETATM   36  C   UNL     1     -10.782  15.729  69.475  1.00  0.00    -0.278 A  
BRANCH  34  37
HETATM   37  N   UNL     1     -12.482  14.744  71.093  1.00  0.00    -0.305 N  
HETATM   38  C   UNL     1     -12.676  13.257  71.393  1.00  0.00    -0.309 C  
HETATM   39  C   UNL     1     -11.506  15.283  72.139  1.00  0.00    -0.407 C  
HETATM   40  C   UNL     1     -13.832  15.458  71.178  1.00  0.00    -0.365 C  
ENDBRANCH  34  37
ENDBRANCH  30  31
ENDBRANCH   4  30
TORSDOF 17
ENDMDL
MODEL      137
REMARK 921   NORMALIZED FREE ENERGY PREDICTED BY IDOCK:   -4.63 KCAL/MOL
REMARK 922        TOTAL FREE ENERGY PREDICTED BY IDOCK:  -11.47 KCAL/MOL
REMARK 923 INTER-LIGAND FREE ENERGY PREDICTED BY IDOCK:  -10.16 KCAL/MOL
REMARK 924 INTRA-LIGAND FREE ENERGY PREDICTED BY IDOCK:   -1.32 KCAL/MOL
REMARK 927      BINDING AFFINITY PREDICTED BY RF-SCORE:    0.00 PKD
ROOT
HETATM    1  C   UNL     1     -11.226  13.605  69.433  1.00  0.00    -0.196 C  
HETATM    2  N   UNL     1     -10.840  13.332  68.059  1.00  0.00    -0.237 N  
HETATM    3  O   UNL     1      -9.294  13.725  66.379  1.00  0.00    -0.262 OA 
HETATM    4  C   UNL     1      -9.633  13.798  67.557  1.00  0.00    -0.219 C  
ENDROOT
BRANCH   2   5
HETATM    5  C   UNL     1     -11.835  12.768  67.149  1.00  0.00    -0.350 C  
BRANCH   5   6
HETATM    6  C   UNL     1     -12.571  13.837  66.330  1.00  0.00    -0.372 C  
BRANCH   6   7
HETATM    7  C   UNL     1     -12.775  13.385  64.878  1.00  0.00    -0.365 C  
BRANCH   7   8
HETATM    8  C   UNL     1     -12.047  12.067  64.582  1.00  0.00    -0.313 C  
BRANCH   8   9
HETATM    9  C   UNL     1     -10.919  12.272  63.566  1.00  0.00    -0.521 C  
BRANCH   9  10
HETATM   10  C   UNL     1     -10.032  11.030  63.447  1.00  0.00    -0.428 C  
BRANCH  10  11
HETATM   11  C   UNL     1      -9.246  10.722  64.726  1.00  0.00    -0.245 C  
BRANCH  11  12
HETATM   12  C   UNL     1      -9.479   9.305  65.247  1.00  0.00    -0.234 C  
BRANCH  12  13
HETATM   13  C   UNL     1      -8.232   8.745  65.926  1.00  0.00    -0.118 C  
BRANCH  13  14
HETATM   14  C   UNL     1      -8.342   8.899  67.436  1.00  0.00    -0.108 C  
BRANCH  14  15
HETATM   15  N   UNL     1      -9.604   8.379  67.941  1.00  0.00    -0.153 N  
HETATM   16  C   UNL     1      -9.758   7.015  68.112  1.00  0.00    -0.133 C  
HETATM   17  C   UNL     1     -10.661   9.314  68.298  1.00  0.00    -0.145 C  
HETATM   18  O   UNL     1      -8.919   6.179  67.796  1.00  0.00    -0.117 OA 
BRANCH  16  19
HETATM   19  O   UNL     1     -11.031   6.691  68.558  1.00  0.00    -0.258 OA 
BRANCH  19  20
HETATM   20  C   UNL     1     -11.069   6.334  69.910  1.00  0.00    -0.401 A  
HETATM   21  C   UNL     1     -11.976   7.007  70.720  1.00  0.00    -0.392 A  
HETATM   22  C   UNL     1     -12.120   6.592  72.039  1.00  0.00    -0.358 A  
HETATM   23  C   UNL     1     -11.367   5.523  72.536  1.00  0.00    -0.323 A  
HETATM   24  C   UNL     1     -10.440   4.847  71.723  1.00  0.00    -0.144 A  
HETATM   25  C   UNL     1     -10.329   5.244  70.391  1.00  0.00    -0.345 A  
BRANCH  24  26
HETATM   26  N   UNL     1      -9.657   3.645  72.226  1.00  0.00    -0.136 N  
HETATM   27  C   UNL     1     -10.403   2.935  73.351  1.00  0.00    -0.138 C  
HETATM   28  C   UNL     1      -8.300   4.081  72.794  1.00  0.00    -0.096 C  
HETATM   29  C   UNL     1      -9.456   2.699  71.051  1.00  0.00    -0.154 C  
ENDBRANCH  24  26
ENDBRANCH  19  20
ENDBRANCH  16  19
ENDBRANCH  14  15
ENDBRANCH  13  14
ENDBRANCH  12  13
ENDBRANCH  11  12
ENDBRANCH  10  11
ENDBRANCH   9  10
ENDBRANCH   8   9
ENDBRANCH   7   8
ENDBRANCH   6   7
ENDBRANCH   5   6
ENDBRANCH   2   5
BRANCH   4  30
HETATM   30  O   UNL     1      -8.859  14.437  68.530  1.00  0.00    -0.177 OA 
BRANCH  30  31
HETATM   31  C   UNL     1      -8.307  15.654  68.097  1.00  0.00    -0.146 A  
HETATM   32  C   UNL     1      -6.976  15.703  67.678  1.00  0.00    -0.197 A  
HETATM   33  C   UNL     1      -9.143  16.770  67.993  1.00  0.00    -0.228 A  
HETATM   34  C   UNL     1      -8.624  17.980  67.501  1.00  0.00    -0.244 A  
HETATM   35  C   UNL     1      -6.455  16.894  67.205  1.00  0.00    -0.223 A  
HETATM   36  C   UNL     1      -7.268  18.023  67.126  1.00  0.00    -0.213 A  
BRANCH  34  37
HETATM   37  N   UNL     1      -9.472  19.247  67.481  1.00  0.00    -0.304 N  
HETATM   38  C   UNL     1      -8.648  20.467  67.066  1.00  0.00    -0.283 C  
HETATM   39  C   UNL     1     -10.615  19.120  66.474  1.00  0.00    -0.435 C  
HETATM   40  C   UNL     1     -10.006  19.455  68.899  1.00  0.00    -0.445 C  
ENDBRANCH  34  37
ENDBRANCH  30  31
ENDBRANCH   4  30
TORSDOF 17
ENDMDL
MODEL      138
REMARK 921   NORMALIZED FREE ENERGY PREDICTED BY IDOCK:   -4.63 KCAL/MOL
REMARK 922        TOTAL FREE ENERGY PREDICTED BY IDOCK:  -11.46 KCAL/MOL
REMARK 923 INTER-LIGAND FREE ENERGY PREDICTED BY IDOCK:   -8.73 KCAL/MOL
REMARK 924 INTRA-LIGAND FREE ENERGY PREDICTED BY IDOCK:   -2.73 KCAL/MOL
REMARK 927      BINDING AFFINITY PREDICTED BY RF-SCORE:    0.00 PKD
ROOT
HETATM    1  C   UNL     1     -11.863  14.588  64.597  1.00  0.00    -0.453 C  
HETATM    2  N   UNL     1     -11.780  13.979  65.913  1.00  0.00    -0.352 N  
HETATM    3  O   UNL     1     -12.002  12.035  67.153  1.00  0.00    -0.601 OA 
HETATM    4  C   UNL     1     -11.928  12.608  66.070  1.00  0.00    -0.417 C  
ENDROOT
BRANCH   2   5
HETATM    5  C   UNL     1     -11.775  14.847  67.089  1.00  0.00    -0.277 C  
BRANCH   5   6
HETATM    6  C   UNL     1     -10.650  15.891  67.059  1.00  0.00    -0.306 C  
BRANCH   6   7
HETATM    7  C   UNL     1      -9.286  15.249  67.343  1.00  0.00    -0.202 C  
BRANCH   7   8
HETATM    8  C   UNL     1      -9.380  14.159  68.418  1.00  0.00    -0.208 C  
BRANCH   8   9
HETATM    9  C   UNL     1      -8.513  12.948  68.059  1.00  0.00    -0.178 C  
BRANCH   9  10
HETATM   10  C   UNL     1      -7.177  13.371  67.442  1.00  0.00    -0.116 C  
BRANCH  10  11
HETATM   11  C   UNL     1      -5.962  12.808  68.186  1.00  0.00    -0.086 C  
BRANCH  11  12
HETATM   12  C   UNL     1      -6.106  12.871  69.706  1.00  0.00    -0.125 C  
BRANCH  12  13
HETATM   13  C   UNL     1      -5.344  11.739  70.389  1.00  0.00    -0.124 C  
BRANCH  13  14
HETATM   14  C   UNL     1      -5.804  10.393  69.847  1.00  0.00    -0.055 C  
BRANCH  14  15
HETATM   15  N   UNL     1      -6.622   9.674  70.813  1.00  0.00    -0.105 N  
HETATM   16  C   UNL     1      -7.984   9.562  70.601  1.00  0.00    -0.117 C  
HETATM   17  C   UNL     1      -5.977   9.049  71.959  1.00  0.00    -0.068 C  
HETATM   18  O   UNL     1      -8.587  10.096  69.676  1.00  0.00    -0.176 OA 
BRANCH  16  19
HETATM   19  O   UNL     1      -8.614   8.886  71.636  1.00  0.00    -0.280 OA 
BRANCH  19  20
HETATM   20  C   UNL     1      -9.455   7.859  71.194  1.00  0.00    -0.158 A  
HETATM   21  C   UNL     1     -10.822   8.039  71.368  1.00  0.00    -0.271 A  
HETATM   22  C   UNL     1     -11.687   7.091  70.832  1.00  0.00    -0.387 A  
HETATM   23  C   UNL     1     -11.189   5.983  70.138  1.00  0.00    -0.412 A  
HETATM   24  C   UNL     1      -9.807   5.792  69.972  1.00  0.00    -0.180 A  
HETATM   25  C   UNL     1      -8.947   6.766  70.478  1.00  0.00    -0.152 A  
BRANCH  24  26
HETATM   26  N   UNL     1      -9.248   4.628  69.169  1.00  0.00    -0.118 N  
HETATM   27  C   UNL     1      -9.434   3.309  69.912  1.00  0.00    -0.146 C  
HETATM   28  C   UNL     1      -7.742   4.803  68.937  1.00  0.00    -0.072 C  
HETATM   29  C   UNL     1      -9.985   4.588  67.837  1.00  0.00    -0.053 C  
ENDBRANCH  24  26
ENDBRANCH  19  20
ENDBRANCH  16  19
ENDBRANCH  14  15
ENDBRANCH  13  14
ENDBRANCH  12  13
ENDBRANCH  11  12
ENDBRANCH  10  11
ENDBRANCH   9  10
ENDBRANCH   8   9
ENDBRANCH   7   8
ENDBRANCH   6   7
ENDBRANCH   5   6
ENDBRANCH   2   5
BRANCH   4  30
HETATM   30  O   UNL     1     -12.059  11.940  64.849  1.00  0.00    -0.243 OA 
BRANCH  30  31
HETATM   31  C   UNL     1     -10.904  11.234  64.470  1.00  0.00    -0.284 A  
HETATM   32  C   UNL     1     -10.292  11.511  63.246  1.00  0.00    -0.435 A  
HETATM   33  C   UNL     1     -10.333  10.343  65.384  1.00  0.00    -0.270 A  
HETATM   34  C   UNL     1      -9.143   9.676  65.047  1.00  0.00    -0.233 A  
HETATM   35  C   UNL     1      -9.127  10.848  62.902  1.00  0.00    -0.327 A  
HETATM   36  C   UNL     1      -8.564   9.933  63.790  1.00  0.00    -0.205 A  
BRANCH  34  37
HETATM   37  N   UNL     1      -8.552   8.614  65.967  1.00  0.00    -0.145 N  
HETATM   38  C   UNL     1      -9.544   8.200  67.055  1.00  0.00    -0.196 C  
HETATM   39  C   UNL     1      -8.199   7.349  65.183  1.00  0.00    -0.113 C  
HETATM   40  C   UNL     1      -7.310   9.223  66.619  1.00  0.00    -0.086 C  
ENDBRANCH  34  37
ENDBRANCH  30  31
ENDBRANCH   4  30
TORSDOF 17
ENDMDL
MODEL      139
REMARK 921   NORMALIZED FREE ENERGY PREDICTED BY IDOCK:   -4.61 KCAL/MOL
REMARK 922        TOTAL FREE ENERGY PREDICTED BY IDOCK:  -11.43 KCAL/MOL
REMARK 923 INTER-LIGAND FREE ENERGY PREDICTED BY IDOCK:   -8.57 KCAL/MOL
REMARK 924 INTRA-LIGAND FREE ENERGY PREDICTED BY IDOCK:   -2.86 KCAL/MOL
REMARK 927      BINDING AFFINITY PREDICTED BY RF-SCORE:    0.00 PKD
ROOT
HETATM    1  C   UNL     1      -9.363  14.842  66.420  1.00  0.00    -0.291 C  
HETATM    2  N   UNL     1     -10.786  14.725  66.685  1.00  0.00    -0.313 N  
HETATM    3  O   UNL     1     -12.821  13.896  65.951  1.00  0.00    -0.472 OA 
HETATM    4  C   UNL     1     -11.597  13.943  65.874  1.00  0.00    -0.340 C  
ENDROOT
BRANCH   2   5
HETATM    5  C   UNL     1     -11.393  15.623  67.667  1.00  0.00    -0.228 C  
BRANCH   5   6
HETATM    6  C   UNL     1     -10.432  16.009  68.800  1.00  0.00    -0.248 C  
BRANCH   6   7
HETATM    7  C   UNL     1     -10.489  17.514  69.091  1.00  0.00    -0.190 C  
BRANCH   7   8
HETATM    8  C   UNL     1      -9.932  18.344  67.927  1.00  0.00    -0.370 C  
BRANCH   8   9
HETATM    9  C   UNL     1      -8.890  19.355  68.414  1.00  0.00    -0.397 C  
BRANCH   9  10
HETATM   10  C   UNL     1      -7.465  18.906  68.079  1.00  0.00    -0.277 C  
BRANCH  10  11
HETATM   11  C   UNL     1      -6.676  18.430  69.303  1.00  0.00    -0.248 C  
BRANCH  11  12
HETATM   12  C   UNL     1      -5.932  17.118  69.065  1.00  0.00    -0.174 C  
BRANCH  12  13
HETATM   13  C   UNL     1      -6.752  15.916  69.528  1.00  0.00    -0.192 C  
BRANCH  13  14
HETATM   14  C   UNL     1      -6.568  14.753  68.565  1.00  0.00    -0.094 C  
BRANCH  14  15
HETATM   15  N   UNL     1      -6.245  13.518  69.265  1.00  0.00    -0.100 N  
HETATM   16  C   UNL     1      -6.481  12.304  68.648  1.00  0.00    -0.073 C  
HETATM   17  C   UNL     1      -5.634  13.593  70.585  1.00  0.00    -0.165 C  
HETATM   18  O   UNL     1      -7.025  12.177  67.556  1.00  0.00    -0.111 OA 
BRANCH  16  19
HETATM   19  O   UNL     1      -6.157  11.234  69.470  1.00  0.00    -0.064 OA 
BRANCH  19  20
HETATM   20  C   UNL     1      -6.995  10.128  69.294  1.00  0.00    -0.068 A  
HETATM   21  C   UNL     1      -6.533   9.104  68.476  1.00  0.00    -0.054 A  
HETATM   22  C   UNL     1      -7.291   7.942  68.379  1.00  0.00    -0.101 A  
HETATM   23  C   UNL     1      -8.491   7.813  69.087  1.00  0.00    -0.138 A  
HETATM   24  C   UNL     1      -8.967   8.851  69.905  1.00  0.00    -0.156 A  
HETATM   25  C   UNL     1      -8.183   9.997  70.028  1.00  0.00    -0.139 A  
BRANCH  24  26
HETATM   26  N   UNL     1     -10.237   8.706  70.730  1.00  0.00    -0.196 N  
HETATM   27  C   UNL     1     -11.068   9.984  70.687  1.00  0.00    -0.335 C  
HETATM   28  C   UNL     1      -9.898   8.440  72.202  1.00  0.00    -0.302 C  
HETATM   29  C   UNL     1     -11.032   7.543  70.154  1.00  0.00    -0.254 C  
ENDBRANCH  24  26
ENDBRANCH  19  20
ENDBRANCH  16  19
ENDBRANCH  14  15
ENDBRANCH  13  14
ENDBRANCH  12  13
ENDBRANCH  11  12
ENDBRANCH  10  11
ENDBRANCH   9  10
ENDBRANCH   8   9
ENDBRANCH   7   8
ENDBRANCH   6   7
ENDBRANCH   5   6
ENDBRANCH   2   5
BRANCH   4  30
HETATM   30  O   UNL     1     -10.872  13.256  64.897  1.00  0.00    -0.311 OA 
BRANCH  30  31
HETATM   31  C   UNL     1     -10.427  11.990  65.315  1.00  0.00    -0.284 A  
HETATM   32  C   UNL     1     -10.987  11.398  66.449  1.00  0.00    -0.315 A  
HETATM   33  C   UNL     1      -9.506  11.306  64.517  1.00  0.00    -0.211 A  
HETATM   34  C   UNL     1      -9.097  10.012  64.887  1.00  0.00    -0.221 A  
HETATM   35  C   UNL     1     -10.581  10.130  66.826  1.00  0.00    -0.239 A  
HETATM   36  C   UNL     1      -9.639   9.448  66.057  1.00  0.00    -0.328 A  
BRANCH  34  37
HETATM   37  N   UNL     1      -8.011   9.280  64.107  1.00  0.00    -0.128 N  
HETATM   38  C   UNL     1      -8.300   9.284  62.605  1.00  0.00    -0.185 C  
HETATM   39  C   UNL     1      -6.653   9.955  64.301  1.00  0.00    -0.126 C  
HETATM   40  C   UNL     1      -7.988   7.837  64.614  1.00  0.00    -0.136 C  
ENDBRANCH  34  37
ENDBRANCH  30  31
ENDBRANCH   4  30
TORSDOF 17
ENDMDL
MODEL      140
REMARK 921   NORMALIZED FREE ENERGY PREDICTED BY IDOCK:   -4.61 KCAL/MOL
REMARK 922        TOTAL FREE ENERGY PREDICTED BY IDOCK:  -11.42 KCAL/MOL
REMARK 923 INTER-LIGAND FREE ENERGY PREDICTED BY IDOCK:   -9.53 KCAL/MOL
REMARK 924 INTRA-LIGAND FREE ENERGY PREDICTED BY IDOCK:   -1.89 KCAL/MOL
REMARK 927      BINDING AFFINITY PREDICTED BY RF-SCORE:    0.00 PKD
ROOT
HETATM    1  C   UNL     1     -12.262  14.380  63.989  1.00  0.00    -0.265 C  
HETATM    2  N   UNL     1     -12.148  13.098  64.662  1.00  0.00    -0.386 N  
HETATM    3  O   UNL     1     -12.073  11.991  66.696  1.00  0.00    -0.615 OA 
HETATM    4  C   UNL     1     -12.284  13.007  66.040  1.00  0.00    -0.399 C  
ENDROOT
BRANCH   2   5
HETATM    5  C   UNL     1     -11.654  11.949  63.905  1.00  0.00    -0.425 C  
BRANCH   5   6
HETATM    6  C   UNL     1     -10.183  11.624  64.200  1.00  0.00    -0.372 C  
BRANCH   6   7
HETATM    7  C   UNL     1      -9.498  10.987  62.985  1.00  0.00    -0.379 C  
BRANCH   7   8
HETATM    8  C   UNL     1      -8.897   9.616  63.320  1.00  0.00    -0.254 C  
BRANCH   8   9
HETATM    9  C   UNL     1      -7.388   9.716  63.565  1.00  0.00    -0.113 C  
BRANCH   9  10
HETATM   10  C   UNL     1      -7.072  10.044  65.027  1.00  0.00    -0.136 C  
BRANCH  10  11
HETATM   11  C   UNL     1      -6.796   8.802  65.880  1.00  0.00    -0.068 C  
BRANCH  11  12
HETATM   12  C   UNL     1      -8.041   8.270  66.587  1.00  0.00    -0.102 C  
BRANCH  12  13
HETATM   13  C   UNL     1      -8.535   9.239  67.659  1.00  0.00    -0.116 C  
BRANCH  13  14
HETATM   14  C   UNL     1     -10.051   9.348  67.610  1.00  0.00    -0.211 C  
BRANCH  14  15
HETATM   15  N   UNL     1     -10.641   9.266  68.938  1.00  0.00    -0.217 N  
HETATM   16  C   UNL     1     -10.838   8.027  69.519  1.00  0.00    -0.129 C  
HETATM   17  C   UNL     1     -10.969  10.497  69.643  1.00  0.00    -0.283 C  
HETATM   18  O   UNL     1     -10.617   6.957  68.962  1.00  0.00    -0.199 OA 
BRANCH  16  19
HETATM   19  O   UNL     1     -11.448   8.130  70.761  1.00  0.00    -0.278 OA 
BRANCH  19  20
HETATM   20  C   UNL     1     -10.587   7.841  71.825  1.00  0.00    -0.217 A  
HETATM   21  C   UNL     1     -11.156   7.310  72.977  1.00  0.00    -0.361 A  
HETATM   22  C   UNL     1     -10.312   6.903  74.004  1.00  0.00    -0.355 A  
HETATM   23  C   UNL     1      -8.924   7.029  73.879  1.00  0.00    -0.218 A  
HETATM   24  C   UNL     1      -8.346   7.577  72.721  1.00  0.00    -0.118 A  
HETATM   25  C   UNL     1      -9.196   7.947  71.679  1.00  0.00    -0.180 A  
BRANCH  24  26
HETATM   26  N   UNL     1      -6.839   7.666  72.540  1.00  0.00    -0.061 N  
HETATM   27  C   UNL     1      -6.438   9.005  71.930  1.00  0.00    -0.002 C  
HETATM   28  C   UNL     1      -6.342   6.572  71.586  1.00  0.00    -0.042 C  
HETATM   29  C   UNL     1      -6.198   7.501  73.911  1.00  0.00    -0.076 C  
ENDBRANCH  24  26
ENDBRANCH  19  20
ENDBRANCH  16  19
ENDBRANCH  14  15
ENDBRANCH  13  14
ENDBRANCH  12  13
ENDBRANCH  11  12
ENDBRANCH  10  11
ENDBRANCH   9  10
ENDBRANCH   8   9
ENDBRANCH   7   8
ENDBRANCH   6   7
ENDBRANCH   5   6
ENDBRANCH   2   5
BRANCH   4  30
HETATM   30  O   UNL     1     -12.624  14.230  66.626  1.00  0.00    -0.318 OA 
BRANCH  30  31
HETATM   31  C   UNL     1     -11.697  14.667  67.588  1.00  0.00    -0.363 A  
HETATM   32  C   UNL     1     -11.983  14.518  68.946  1.00  0.00    -0.326 A  
HETATM   33  C   UNL     1     -10.456  15.144  67.154  1.00  0.00    -0.280 A  
HETATM   34  C   UNL     1      -9.492  15.526  68.103  1.00  0.00    -0.198 A  
HETATM   35  C   UNL     1     -11.044  14.904  69.886  1.00  0.00    -0.288 A  
HETATM   36  C   UNL     1      -9.815  15.411  69.468  1.00  0.00    -0.262 A  
BRANCH  34  37
HETATM   37  N   UNL     1      -8.173  16.156  67.671  1.00  0.00    -0.145 N  
HETATM   38  C   UNL     1      -8.228  16.631  66.218  1.00  0.00    -0.330 C  
HETATM   39  C   UNL     1      -7.849  17.381  68.527  1.00  0.00    -0.268 C  
HETATM   40  C   UNL     1      -7.093  15.083  67.813  1.00  0.00    -0.170 C  
ENDBRANCH  34  37
ENDBRANCH  30  31
ENDBRANCH   4  30
TORSDOF 17
ENDMDL
MODEL      141
REMARK 921   NORMALIZED FREE ENERGY PREDICTED BY IDOCK:   -4.60 KCAL/MOL
REMARK 922        TOTAL FREE ENERGY PREDICTED BY IDOCK:  -11.41 KCAL/MOL
REMARK 923 INTER-LIGAND FREE ENERGY PREDICTED BY IDOCK:   -8.23 KCAL/MOL
REMARK 924 INTRA-LIGAND FREE ENERGY PREDICTED BY IDOCK:   -3.19 KCAL/MOL
REMARK 927      BINDING AFFINITY PREDICTED BY RF-SCORE:    0.00 PKD
ROOT
HETATM    1  C   UNL     1      -5.959   9.133  71.953  1.00  0.00    -0.054 C  
HETATM    2  N   UNL     1      -6.706   9.486  70.758  1.00  0.00    -0.105 N  
HETATM    3  O   UNL     1      -8.792   9.604  69.755  1.00  0.00    -0.176 OA 
HETATM    4  C   UNL     1      -8.094   9.449  70.753  1.00  0.00    -0.116 C  
ENDROOT
BRANCH   2   5
HETATM    5  C   UNL     1      -5.981   9.648  69.500  1.00  0.00    -0.033 C  
BRANCH   5   6
HETATM    6  C   UNL     1      -6.038  11.082  68.955  1.00  0.00    -0.043 C  
BRANCH   6   7
HETATM    7  C   UNL     1      -5.387  12.074  69.927  1.00  0.00    -0.088 C  
BRANCH   7   8
HETATM    8  C   UNL     1      -6.036  13.461  69.850  1.00  0.00    -0.133 C  
BRANCH   8   9
HETATM    9  C   UNL     1      -6.607  13.731  68.454  1.00  0.00    -0.096 C  
BRANCH   9  10
HETATM   10  C   UNL     1      -8.105  14.045  68.507  1.00  0.00    -0.139 C  
BRANCH  10  11
HETATM   11  C   UNL     1      -8.405  15.525  68.768  1.00  0.00    -0.187 C  
BRANCH  11  12
HETATM   12  C   UNL     1      -9.820  15.768  69.288  1.00  0.00    -0.265 C  
BRANCH  12  13
HETATM   13  C   UNL     1     -10.855  15.664  68.171  1.00  0.00    -0.301 C  
BRANCH  13  14
HETATM   14  C   UNL     1     -11.853  14.558  68.480  1.00  0.00    -0.320 C  
BRANCH  14  15
HETATM   15  N   UNL     1     -11.902  13.564  67.418  1.00  0.00    -0.376 N  
HETATM   16  C   UNL     1     -11.481  12.272  67.676  1.00  0.00    -0.336 C  
HETATM   17  C   UNL     1     -12.439  13.943  66.118  1.00  0.00    -0.436 C  
HETATM   18  O   UNL     1     -10.988  11.903  68.736  1.00  0.00    -0.213 OA 
BRANCH  16  19
HETATM   19  O   UNL     1     -11.554  11.470  66.547  1.00  0.00    -0.444 OA 
BRANCH  19  20
HETATM   20  C   UNL     1     -10.406  10.698  66.342  1.00  0.00    -0.231 A  
HETATM   21  C   UNL     1      -9.235  11.373  66.016  1.00  0.00    -0.229 A  
HETATM   22  C   UNL     1      -8.055  10.644  65.924  1.00  0.00    -0.159 A  
HETATM   23  C   UNL     1      -8.050   9.264  66.152  1.00  0.00    -0.110 A  
HETATM   24  C   UNL     1      -9.233   8.576  66.470  1.00  0.00    -0.190 A  
HETATM   25  C   UNL     1     -10.406   9.319  66.598  1.00  0.00    -0.292 A  
BRANCH  24  26
HETATM   26  N   UNL     1      -9.238   7.087  66.781  1.00  0.00    -0.147 N  
HETATM   27  C   UNL     1      -8.337   6.773  67.971  1.00  0.00    -0.120 C  
HETATM   28  C   UNL     1      -8.704   6.283  65.589  1.00  0.00    -0.114 C  
HETATM   29  C   UNL     1     -10.673   6.684  67.088  1.00  0.00    -0.370 C  
ENDBRANCH  24  26
ENDBRANCH  19  20
ENDBRANCH  16  19
ENDBRANCH  14  15
ENDBRANCH  13  14
ENDBRANCH  12  13
ENDBRANCH  11  12
ENDBRANCH  10  11
ENDBRANCH   9  10
ENDBRANCH   8   9
ENDBRANCH   7   8
ENDBRANCH   6   7
ENDBRANCH   5   6
ENDBRANCH   2   5
BRANCH   4  30
HETATM   30  O   UNL     1      -8.626   9.142  72.009  1.00  0.00    -0.321 OA 
BRANCH  30  31
HETATM   31  C   UNL     1      -9.525   8.063  71.988  1.00  0.00    -0.197 A  
HETATM   32  C   UNL     1     -10.892   8.296  72.153  1.00  0.00    -0.390 A  
HETATM   33  C   UNL     1      -9.036   6.788  71.691  1.00  0.00    -0.136 A  
HETATM   34  C   UNL     1      -9.930   5.707  71.603  1.00  0.00    -0.174 A  
HETATM   35  C   UNL     1     -11.777   7.235  72.080  1.00  0.00    -0.329 A  
HETATM   36  C   UNL     1     -11.299   5.952  71.817  1.00  0.00    -0.289 A  
BRANCH  34  37
HETATM   37  N   UNL     1      -9.423   4.284  71.394  1.00  0.00    -0.147 N  
HETATM   38  C   UNL     1     -10.157   3.290  72.294  1.00  0.00    -0.145 C  
HETATM   39  C   UNL     1      -9.651   3.831  69.952  1.00  0.00    -0.184 C  
HETATM   40  C   UNL     1      -7.934   4.281  71.745  1.00  0.00    -0.087 C  
ENDBRANCH  34  37
ENDBRANCH  30  31
ENDBRANCH   4  30
TORSDOF 17
ENDMDL
MODEL      142
REMARK 921   NORMALIZED FREE ENERGY PREDICTED BY IDOCK:   -4.60 KCAL/MOL
REMARK 922        TOTAL FREE ENERGY PREDICTED BY IDOCK:  -11.41 KCAL/MOL
REMARK 923 INTER-LIGAND FREE ENERGY PREDICTED BY IDOCK:   -8.60 KCAL/MOL
REMARK 924 INTRA-LIGAND FREE ENERGY PREDICTED BY IDOCK:   -2.80 KCAL/MOL
REMARK 927      BINDING AFFINITY PREDICTED BY RF-SCORE:    0.00 PKD
ROOT
HETATM    1  C   UNL     1     -11.966  12.731  69.555  1.00  0.00    -0.276 C  
HETATM    2  N   UNL     1     -11.605  13.911  68.788  1.00  0.00    -0.310 N  
HETATM    3  O   UNL     1     -11.452  14.868  66.684  1.00  0.00    -0.349 OA 
HETATM    4  C   UNL     1     -11.843  13.969  67.422  1.00  0.00    -0.409 C  
ENDROOT
BRANCH   2   5
HETATM    5  C   UNL     1     -10.777  14.935  69.424  1.00  0.00    -0.256 C  
BRANCH   5   6
HETATM    6  C   UNL     1     -11.314  16.357  69.212  1.00  0.00    -0.225 C  
BRANCH   6   7
HETATM    7  C   UNL     1     -10.171  17.366  69.047  1.00  0.00    -0.317 C  
BRANCH   7   8
HETATM    8  C   UNL     1      -9.858  17.641  67.571  1.00  0.00    -0.299 C  
BRANCH   8   9
HETATM    9  C   UNL     1      -8.415  17.258  67.227  1.00  0.00    -0.212 C  
BRANCH   9  10
HETATM   10  C   UNL     1      -8.354  15.986  66.376  1.00  0.00    -0.344 C  
BRANCH  10  11
HETATM   11  C   UNL     1      -7.935  14.745  67.171  1.00  0.00    -0.205 C  
BRANCH  11  12
HETATM   12  C   UNL     1      -7.113  15.078  68.415  1.00  0.00    -0.108 C  
BRANCH  12  13
HETATM   13  C   UNL     1      -6.746  13.821  69.198  1.00  0.00    -0.112 C  
BRANCH  13  14
HETATM   14  C   UNL     1      -7.348  12.592  68.532  1.00  0.00    -0.115 C  
BRANCH  14  15
HETATM   15  N   UNL     1      -7.203  11.404  69.360  1.00  0.00    -0.077 N  
HETATM   16  C   UNL     1      -8.238  10.490  69.426  1.00  0.00    -0.119 C  
HETATM   17  C   UNL     1      -5.948  11.182  70.064  1.00  0.00    -0.125 C  
HETATM   18  O   UNL     1      -9.329  10.639  68.886  1.00  0.00    -0.172 OA 
BRANCH  16  19
HETATM   19  O   UNL     1      -7.950   9.444  70.290  1.00  0.00    -0.124 OA 
BRANCH  19  20
HETATM   20  C   UNL     1      -8.246   8.186  69.754  1.00  0.00    -0.122 A  
HETATM   21  C   UNL     1      -9.385   7.545  70.228  1.00  0.00    -0.161 A  
HETATM   22  C   UNL     1      -9.769   6.350  69.629  1.00  0.00    -0.170 A  
HETATM   23  C   UNL     1      -9.023   5.809  68.577  1.00  0.00    -0.112 A  
HETATM   24  C   UNL     1      -7.865   6.448  68.103  1.00  0.00    -0.105 A  
HETATM   25  C   UNL     1      -7.507   7.665  68.682  1.00  0.00    -0.103 A  
BRANCH  24  26
HETATM   26  N   UNL     1      -7.075   5.907  66.921  1.00  0.00    -0.069 N  
HETATM   27  C   UNL     1      -7.998   5.247  65.902  1.00  0.00    -0.105 C  
HETATM   28  C   UNL     1      -6.076   4.838  67.381  1.00  0.00    -0.031 C  
HETATM   29  C   UNL     1      -6.340   7.076  66.283  1.00  0.00    -0.050 C  
ENDBRANCH  24  26
ENDBRANCH  19  20
ENDBRANCH  16  19
ENDBRANCH  14  15
ENDBRANCH  13  14
ENDBRANCH  12  13
ENDBRANCH  11  12
ENDBRANCH  10  11
ENDBRANCH   9  10
ENDBRANCH   8   9
ENDBRANCH   7   8
ENDBRANCH   6   7
ENDBRANCH   5   6
ENDBRANCH   2   5
BRANCH   4  30
HETATM   30  O   UNL     1     -12.525  12.843  66.950  1.00  0.00    -0.308 OA 
BRANCH  30  31
HETATM   31  C   UNL     1     -11.928  12.260  65.820  1.00  0.00    -0.293 A  
HETATM   32  C   UNL     1     -12.358  12.623  64.542  1.00  0.00    -0.537 A  
HETATM   33  C   UNL     1     -10.836  11.406  66.004  1.00  0.00    -0.306 A  
HETATM   34  C   UNL     1     -10.185  10.864  64.882  1.00  0.00    -0.316 A  
HETATM   35  C   UNL     1     -11.731  12.083  63.433  1.00  0.00    -0.519 A  
HETATM   36  C   UNL     1     -10.661  11.205  63.602  1.00  0.00    -0.381 A  
BRANCH  34  37
HETATM   37  N   UNL     1      -9.066   9.842  65.043  1.00  0.00    -0.214 N  
HETATM   38  C   UNL     1      -8.670   9.228  63.699  1.00  0.00    -0.167 C  
HETATM   39  C   UNL     1      -7.810  10.495  65.621  1.00  0.00    -0.150 C  
HETATM   40  C   UNL     1      -9.590   8.741  65.967  1.00  0.00    -0.226 C  
ENDBRANCH  34  37
ENDBRANCH  30  31
ENDBRANCH   4  30
TORSDOF 17
ENDMDL
MODEL      143
REMARK 921   NORMALIZED FREE ENERGY PREDICTED BY IDOCK:   -4.59 KCAL/MOL
REMARK 922        TOTAL FREE ENERGY PREDICTED BY IDOCK:  -11.38 KCAL/MOL
REMARK 923 INTER-LIGAND FREE ENERGY PREDICTED BY IDOCK:   -9.52 KCAL/MOL
REMARK 924 INTRA-LIGAND FREE ENERGY PREDICTED BY IDOCK:   -1.86 KCAL/MOL
REMARK 927      BINDING AFFINITY PREDICTED BY RF-SCORE:    0.00 PKD
ROOT
HETATM    1  C   UNL     1     -11.511  11.790  68.054  1.00  0.00    -0.319 C  
HETATM    2  N   UNL     1     -11.983  12.647  69.129  1.00  0.00    -0.276 N  
HETATM    3  O   UNL     1     -12.215  14.820  69.899  1.00  0.00    -0.308 OA 
HETATM    4  C   UNL     1     -11.960  14.029  68.996  1.00  0.00    -0.357 C  
ENDROOT
BRANCH   2   5
HETATM    5  C   UNL     1     -12.257  12.049  70.434  1.00  0.00    -0.294 C  
BRANCH   5   6
HETATM    6  C   UNL     1     -12.515  10.537  70.358  1.00  0.00    -0.392 C  
BRANCH   6   7
HETATM    7  C   UNL     1     -12.803   9.951  71.746  1.00  0.00    -0.540 C  
BRANCH   7   8
HETATM    8  C   UNL     1     -11.911   8.741  72.052  1.00  0.00    -0.446 C  
BRANCH   8   9
HETATM    9  C   UNL     1     -12.518   7.449  71.496  1.00  0.00    -0.394 C  
BRANCH   9  10
HETATM   10  C   UNL     1     -11.854   6.207  72.099  1.00  0.00    -0.339 C  
BRANCH  10  11
HETATM   11  C   UNL     1     -10.396   6.029  71.665  1.00  0.00    -0.260 C  
BRANCH  11  12
HETATM   12  C   UNL     1     -10.027   4.573  71.383  1.00  0.00    -0.259 C  
BRANCH  12  13
HETATM   13  C   UNL     1      -9.045   4.459  70.220  1.00  0.00    -0.162 C  
BRANCH  13  14
HETATM   14  C   UNL     1      -9.767   3.987  68.967  1.00  0.00    -0.091 C  
BRANCH  14  15
HETATM   15  N   UNL     1      -9.392   4.772  67.800  1.00  0.00    -0.129 N  
HETATM   16  C   UNL     1     -10.097   5.923  67.499  1.00  0.00    -0.165 C  
HETATM   17  C   UNL     1      -8.250   4.350  67.002  1.00  0.00    -0.101 C  
HETATM   18  O   UNL     1     -11.087   6.308  68.112  1.00  0.00    -0.329 OA 
BRANCH  16  19
HETATM   19  O   UNL     1      -9.637   6.521  66.335  1.00  0.00    -0.163 OA 
BRANCH  19  20
HETATM   20  C   UNL     1      -8.647   7.484  66.562  1.00  0.00    -0.132 A  
HETATM   21  C   UNL     1      -7.803   7.790  65.502  1.00  0.00    -0.111 A  
HETATM   22  C   UNL     1      -6.889   8.826  65.661  1.00  0.00    -0.075 A  
HETATM   23  C   UNL     1      -6.823   9.539  66.863  1.00  0.00    -0.080 A  
HETATM   24  C   UNL     1      -7.666   9.224  67.942  1.00  0.00    -0.088 A  
HETATM   25  C   UNL     1      -8.606   8.209  67.761  1.00  0.00    -0.131 A  
BRANCH  24  26
HETATM   26  N   UNL     1      -7.651  10.025  69.234  1.00  0.00    -0.097 N  
HETATM   27  C   UNL     1      -7.711  11.523  68.952  1.00  0.00    -0.088 C  
HETATM   28  C   UNL     1      -6.357   9.768  70.016  1.00  0.00    -0.064 C  
HETATM   29  C   UNL     1      -8.858   9.598  70.058  1.00  0.00    -0.232 C  
ENDBRANCH  24  26
ENDBRANCH  19  20
ENDBRANCH  16  19
ENDBRANCH  14  15
ENDBRANCH  13  14
ENDBRANCH  12  13
ENDBRANCH  11  12
ENDBRANCH  10  11
ENDBRANCH   9  10
ENDBRANCH   8   9
ENDBRANCH   7   8
ENDBRANCH   6   7
ENDBRANCH   5   6
ENDBRANCH   2   5
BRANCH   4  30
HETATM   30  O   UNL     1     -11.540  14.437  67.726  1.00  0.00    -0.319 OA 
BRANCH  30  31
HETATM   31  C   UNL     1     -10.420  15.284  67.753  1.00  0.00    -0.253 A  
HETATM   32  C   UNL     1      -9.161  14.762  68.055  1.00  0.00    -0.194 A  
HETATM   33  C   UNL     1     -10.579  16.618  67.366  1.00  0.00    -0.295 A  
HETATM   34  C   UNL     1      -9.458  17.465  67.325  1.00  0.00    -0.251 A  
HETATM   35  C   UNL     1      -8.055  15.592  68.030  1.00  0.00    -0.140 A  
HETATM   36  C   UNL     1      -8.204  16.932  67.678  1.00  0.00    -0.196 A  
BRANCH  34  37
HETATM   37  N   UNL     1      -9.608  18.951  67.020  1.00  0.00    -0.303 N  
HETATM   38  C   UNL     1      -8.318  19.538  66.445  1.00  0.00    -0.347 C  
HETATM   39  C   UNL     1     -10.704  19.186  65.981  1.00  0.00    -0.364 C  
HETATM   40  C   UNL     1      -9.939  19.651  68.339  1.00  0.00    -0.439 C  
ENDBRANCH  34  37
ENDBRANCH  30  31
ENDBRANCH   4  30
TORSDOF 17
ENDMDL
MODEL      144
REMARK 921   NORMALIZED FREE ENERGY PREDICTED BY IDOCK:   -4.59 KCAL/MOL
REMARK 922        TOTAL FREE ENERGY PREDICTED BY IDOCK:  -11.38 KCAL/MOL
REMARK 923 INTER-LIGAND FREE ENERGY PREDICTED BY IDOCK:   -9.66 KCAL/MOL
REMARK 924 INTRA-LIGAND FREE ENERGY PREDICTED BY IDOCK:   -1.72 KCAL/MOL
REMARK 927      BINDING AFFINITY PREDICTED BY RF-SCORE:    0.00 PKD
ROOT
HETATM    1  C   UNL     1     -12.306  14.307  64.050  1.00  0.00    -0.244 C  
HETATM    2  N   UNL     1     -12.115  13.027  64.710  1.00  0.00    -0.390 N  
HETATM    3  O   UNL     1     -11.971  11.905  66.732  1.00  0.00    -0.613 OA 
HETATM    4  C   UNL     1     -12.242  12.914  66.088  1.00  0.00    -0.317 C  
ENDROOT
BRANCH   2   5
HETATM    5  C   UNL     1     -11.559  11.916  63.939  1.00  0.00    -0.425 C  
BRANCH   5   6
HETATM    6  C   UNL     1     -10.117  12.170  63.478  1.00  0.00    -0.410 C  
BRANCH   6   7
HETATM    7  C   UNL     1      -9.495  10.905  62.874  1.00  0.00    -0.377 C  
BRANCH   7   8
HETATM    8  C   UNL     1      -9.167   9.859  63.947  1.00  0.00    -0.295 C  
BRANCH   8   9
HETATM    9  C   UNL     1      -7.680   9.885  64.312  1.00  0.00    -0.139 C  
BRANCH   9  10
HETATM   10  C   UNL     1      -7.460  10.333  65.760  1.00  0.00    -0.144 C  
BRANCH  10  11
HETATM   11  C   UNL     1      -6.214   9.715  66.403  1.00  0.00    -0.068 C  
BRANCH  11  12
HETATM   12  C   UNL     1      -6.384   8.236  66.742  1.00  0.00    -0.056 C  
BRANCH  12  13
HETATM   13  C   UNL     1      -6.884   8.043  68.172  1.00  0.00    -0.069 C  
BRANCH  13  14
HETATM   14  C   UNL     1      -6.490   9.235  69.031  1.00  0.00    -0.047 C  
BRANCH  14  15
HETATM   15  N   UNL     1      -7.302   9.323  70.236  1.00  0.00    -0.085 N  
HETATM   16  C   UNL     1      -8.649   9.619  70.129  1.00  0.00    -0.214 C  
HETATM   17  C   UNL     1      -6.684   9.051  71.527  1.00  0.00    -0.052 C  
HETATM   18  O   UNL     1      -9.216   9.893  69.077  1.00  0.00    -0.150 OA 
BRANCH  16  19
HETATM   19  O   UNL     1      -9.259   9.707  71.372  1.00  0.00    -0.104 OA 
BRANCH  19  20
HETATM   20  C   UNL     1     -10.228   8.721  71.583  1.00  0.00    -0.324 A  
HETATM   21  C   UNL     1     -11.513   8.982  71.120  1.00  0.00    -0.376 A  
HETATM   22  C   UNL     1     -12.466   7.974  71.209  1.00  0.00    -0.270 A  
HETATM   23  C   UNL     1     -12.137   6.728  71.753  1.00  0.00    -0.393 A  
HETATM   24  C   UNL     1     -10.842   6.464  72.233  1.00  0.00    -0.239 A  
HETATM   25  C   UNL     1      -9.882   7.467  72.106  1.00  0.00    -0.205 A  
BRANCH  24  26
HETATM   26  N   UNL     1     -10.449   5.098  72.772  1.00  0.00    -0.203 N  
HETATM   27  C   UNL     1     -11.653   4.373  73.364  1.00  0.00    -0.130 C  
HETATM   28  C   UNL     1      -9.413   5.237  73.895  1.00  0.00    -0.134 C  
HETATM   29  C   UNL     1      -9.869   4.294  71.617  1.00  0.00    -0.187 C  
ENDBRANCH  24  26
ENDBRANCH  19  20
ENDBRANCH  16  19
ENDBRANCH  14  15
ENDBRANCH  13  14
ENDBRANCH  12  13
ENDBRANCH  11  12
ENDBRANCH  10  11
ENDBRANCH   9  10
ENDBRANCH   8   9
ENDBRANCH   7   8
ENDBRANCH   6   7
ENDBRANCH   5   6
ENDBRANCH   2   5
BRANCH   4  30
HETATM   30  O   UNL     1     -12.650  14.109  66.687  1.00  0.00    -0.349 OA 
BRANCH  30  31
HETATM   31  C   UNL     1     -11.777  14.556  67.694  1.00  0.00    -0.382 A  
HETATM   32  C   UNL     1     -11.979  14.155  69.016  1.00  0.00    -0.376 A  
HETATM   33  C   UNL     1     -10.658  15.309  67.325  1.00  0.00    -0.290 A  
HETATM   34  C   UNL     1      -9.740  15.711  68.311  1.00  0.00    -0.201 A  
HETATM   35  C   UNL     1     -11.087  14.557  69.994  1.00  0.00    -0.170 A  
HETATM   36  C   UNL     1      -9.983  15.336  69.645  1.00  0.00    -0.236 A  
BRANCH  34  37
HETATM   37  N   UNL     1      -8.571  16.627  67.967  1.00  0.00    -0.189 N  
HETATM   38  C   UNL     1      -8.938  18.099  68.158  1.00  0.00    -0.290 C  
HETATM   39  C   UNL     1      -7.374  16.346  68.875  1.00  0.00    -0.214 C  
HETATM   40  C   UNL     1      -8.221  16.379  66.499  1.00  0.00    -0.306 C  
ENDBRANCH  34  37
ENDBRANCH  30  31
ENDBRANCH   4  30
TORSDOF 17
ENDMDL
MODEL      145
REMARK 921   NORMALIZED FREE ENERGY PREDICTED BY IDOCK:   -4.58 KCAL/MOL
REMARK 922        TOTAL FREE ENERGY PREDICTED BY IDOCK:  -11.37 KCAL/MOL
REMARK 923 INTER-LIGAND FREE ENERGY PREDICTED BY IDOCK:   -9.31 KCAL/MOL
REMARK 924 INTRA-LIGAND FREE ENERGY PREDICTED BY IDOCK:   -2.06 KCAL/MOL
REMARK 927      BINDING AFFINITY PREDICTED BY RF-SCORE:    0.00 PKD
ROOT
HETATM    1  C   UNL     1     -12.191  13.761  63.676  1.00  0.00    -0.256 C  
HETATM    2  N   UNL     1     -11.871  12.672  64.582  1.00  0.00    -0.359 N  
HETATM    3  O   UNL     1     -11.581  12.023  66.787  1.00  0.00    -0.438 OA 
HETATM    4  C   UNL     1     -11.957  12.845  65.956  1.00  0.00    -0.446 C  
ENDROOT
BRANCH   2   5
HETATM    5  C   UNL     1     -11.234  11.473  64.040  1.00  0.00    -0.333 C  
BRANCH   5   6
HETATM    6  C   UNL     1      -9.727  11.649  63.808  1.00  0.00    -0.276 C  
BRANCH   6   7
HETATM    7  C   UNL     1      -9.255  10.854  62.585  1.00  0.00    -0.357 C  
BRANCH   7   8
HETATM    8  C   UNL     1      -8.446   9.613  62.985  1.00  0.00    -0.184 C  
BRANCH   8   9
HETATM    9  C   UNL     1      -8.592   9.313  64.480  1.00  0.00    -0.217 C  
BRANCH   9  10
HETATM   10  C   UNL     1      -7.254   8.920  65.111  1.00  0.00    -0.087 C  
BRANCH  10  11
HETATM   11  C   UNL     1      -7.327   7.626  65.929  1.00  0.00    -0.074 C  
BRANCH  11  12
HETATM   12  C   UNL     1      -8.153   6.534  65.252  1.00  0.00    -0.133 C  
BRANCH  12  13
HETATM   13  C   UNL     1      -7.281   5.361  64.813  1.00  0.00    -0.062 C  
BRANCH  13  14
HETATM   14  C   UNL     1      -7.746   4.079  65.487  1.00  0.00    -0.086 C  
BRANCH  14  15
HETATM   15  N   UNL     1      -7.688   4.180  66.937  1.00  0.00    -0.091 N  
HETATM   16  C   UNL     1      -8.855   4.085  67.673  1.00  0.00    -0.115 C  
HETATM   17  C   UNL     1      -6.392   4.333  67.584  1.00  0.00    -0.037 C  
HETATM   18  O   UNL     1      -9.976   3.993  67.185  1.00  0.00    -0.164 OA 
BRANCH  16  19
HETATM   19  O   UNL     1      -8.624   4.246  69.032  1.00  0.00    -0.081 OA 
BRANCH  19  20
HETATM   20  C   UNL     1      -9.355   5.297  69.596  1.00  0.00    -0.126 A  
HETATM   21  C   UNL     1     -10.072   5.022  70.755  1.00  0.00    -0.307 A  
HETATM   22  C   UNL     1     -10.709   6.074  71.403  1.00  0.00    -0.314 A  
HETATM   23  C   UNL     1     -10.631   7.376  70.897  1.00  0.00    -0.234 A  
HETATM   24  C   UNL     1      -9.917   7.655  69.719  1.00  0.00    -0.184 A  
HETATM   25  C   UNL     1      -9.248   6.603  69.095  1.00  0.00    -0.136 A  
BRANCH  24  26
HETATM   26  N   UNL     1      -9.769   9.072  69.186  1.00  0.00    -0.164 N  
HETATM   27  C   UNL     1     -10.568  10.061  70.028  1.00  0.00    -0.293 C  
HETATM   28  C   UNL     1     -10.305   9.169  67.752  1.00  0.00    -0.245 C  
HETATM   29  C   UNL     1      -8.290   9.427  69.221  1.00  0.00    -0.131 C  
ENDBRANCH  24  26
ENDBRANCH  19  20
ENDBRANCH  16  19
ENDBRANCH  14  15
ENDBRANCH  13  14
ENDBRANCH  12  13
ENDBRANCH  11  12
ENDBRANCH  10  11
ENDBRANCH   9  10
ENDBRANCH   8   9
ENDBRANCH   7   8
ENDBRANCH   6   7
ENDBRANCH   5   6
ENDBRANCH   2   5
BRANCH   4  30
HETATM   30  O   UNL     1     -12.458  14.102  66.307  1.00  0.00    -0.466 OA 
BRANCH  30  31
HETATM   31  C   UNL     1     -11.898  14.618  67.488  1.00  0.00    -0.347 A  
HETATM   32  C   UNL     1     -10.801  15.479  67.417  1.00  0.00    -0.312 A  
HETATM   33  C   UNL     1     -12.527  14.341  68.705  1.00  0.00     0.114 A  
HETATM   34  C   UNL     1     -12.018  14.901  69.890  1.00  0.00    -0.330 A  
HETATM   35  C   UNL     1     -10.286  16.023  68.580  1.00  0.00    -0.241 A  
HETATM   36  C   UNL     1     -10.884  15.729  69.805  1.00  0.00    -0.314 A  
BRANCH  34  37
HETATM   37  N   UNL     1     -12.605  14.531  71.247  1.00  0.00    -0.322 N  
HETATM   38  C   UNL     1     -14.021  15.085  71.415  1.00  0.00    -0.479 C  
HETATM   39  C   UNL     1     -12.700  13.014  71.405  1.00  0.00    -0.281 C  
HETATM   40  C   UNL     1     -11.693  15.141  72.313  1.00  0.00    -0.401 C  
ENDBRANCH  34  37
ENDBRANCH  30  31
ENDBRANCH   4  30
TORSDOF 17
ENDMDL
MODEL      146
REMARK 921   NORMALIZED FREE ENERGY PREDICTED BY IDOCK:   -4.58 KCAL/MOL
REMARK 922        TOTAL FREE ENERGY PREDICTED BY IDOCK:  -11.37 KCAL/MOL
REMARK 923 INTER-LIGAND FREE ENERGY PREDICTED BY IDOCK:   -9.38 KCAL/MOL
REMARK 924 INTRA-LIGAND FREE ENERGY PREDICTED BY IDOCK:   -1.98 KCAL/MOL
REMARK 927      BINDING AFFINITY PREDICTED BY RF-SCORE:    0.00 PKD
ROOT
HETATM    1  C   UNL     1      -5.813  11.495  68.425  1.00  0.00    -0.045 C  
HETATM    2  N   UNL     1      -7.230  11.520  68.745  1.00  0.00    -0.105 N  
HETATM    3  O   UNL     1      -9.058  10.305  69.486  1.00  0.00    -0.206 OA 
HETATM    4  C   UNL     1      -7.848  10.413  69.309  1.00  0.00    -0.147 C  
ENDROOT
BRANCH   2   5
HETATM    5  C   UNL     1      -8.041  12.630  68.251  1.00  0.00    -0.161 C  
BRANCH   5   6
HETATM    6  C   UNL     1      -7.206  13.732  67.583  1.00  0.00    -0.183 C  
BRANCH   6   7
HETATM    7  C   UNL     1      -7.681  15.127  68.007  1.00  0.00    -0.131 C  
BRANCH   7   8
HETATM    8  C   UNL     1      -6.507  16.084  68.244  1.00  0.00    -0.122 C  
BRANCH   8   9
HETATM    9  C   UNL     1      -6.887  17.199  69.223  1.00  0.00    -0.209 C  
BRANCH   9  10
HETATM   10  C   UNL     1      -5.835  18.311  69.252  1.00  0.00    -0.234 C  
BRANCH  10  11
HETATM   11  C   UNL     1      -6.419  19.690  69.576  1.00  0.00    -0.374 C  
BRANCH  11  12
HETATM   12  C   UNL     1      -5.778  20.818  68.772  1.00  0.00    -0.398 C  
BRANCH  12  13
HETATM   13  C   UNL     1      -6.242  20.804  67.317  1.00  0.00    -0.322 C  
BRANCH  13  14
HETATM   14  C   UNL     1      -7.761  20.745  67.251  1.00  0.00    -0.278 C  
BRANCH  14  15
HETATM   15  N   UNL     1      -8.223  19.593  66.490  1.00  0.00    -0.312 N  
HETATM   16  C   UNL     1      -9.581  19.377  66.341  1.00  0.00    -0.377 C  
HETATM   17  C   UNL     1      -7.241  18.719  65.863  1.00  0.00    -0.235 C  
HETATM   18  O   UNL     1     -10.452  20.056  66.874  1.00  0.00    -0.450 OA 
BRANCH  16  19
HETATM   19  O   UNL     1      -9.844  18.216  65.628  1.00  0.00    -0.478 OA 
BRANCH  19  20
HETATM   20  C   UNL     1     -10.280  17.159  66.435  1.00  0.00    -0.328 A  
HETATM   21  C   UNL     1     -10.521  17.439  67.775  1.00  0.00    -0.376 A  
HETATM   22  C   UNL     1     -11.068  16.440  68.571  1.00  0.00    -0.357 A  
HETATM   23  C   UNL     1     -11.364  15.183  68.034  1.00  0.00    -0.346 A  
HETATM   24  C   UNL     1     -11.110  14.892  66.683  1.00  0.00    -0.329 A  
HETATM   25  C   UNL     1     -10.598  15.911  65.881  1.00  0.00    -0.348 A  
BRANCH  24  26
HETATM   26  N   UNL     1     -11.481  13.552  66.065  1.00  0.00    -0.317 N  
HETATM   27  C   UNL     1     -12.859  13.611  65.414  1.00  0.00    -0.389 C  
HETATM   28  C   UNL     1     -11.539  12.459  67.140  1.00  0.00    -0.365 C  
HETATM   29  C   UNL     1     -10.424  13.214  65.025  1.00  0.00    -0.342 C  
ENDBRANCH  24  26
ENDBRANCH  19  20
ENDBRANCH  16  19
ENDBRANCH  14  15
ENDBRANCH  13  14
ENDBRANCH  12  13
ENDBRANCH  11  12
ENDBRANCH  10  11
ENDBRANCH   9  10
ENDBRANCH   8   9
ENDBRANCH   7   8
ENDBRANCH   6   7
ENDBRANCH   5   6
ENDBRANCH   2   5
BRANCH   4  30
HETATM   30  O   UNL     1      -6.947   9.383  69.594  1.00  0.00    -0.052 OA 
BRANCH  30  31
HETATM   31  C   UNL     1      -7.352   8.131  69.101  1.00  0.00    -0.082 A  
HETATM   32  C   UNL     1      -7.327   7.886  67.726  1.00  0.00    -0.096 A  
HETATM   33  C   UNL     1      -7.667   7.121  70.014  1.00  0.00    -0.103 A  
HETATM   34  C   UNL     1      -8.013   5.843  69.539  1.00  0.00    -0.105 A  
HETATM   35  C   UNL     1      -7.679   6.636  67.251  1.00  0.00    -0.104 A  
HETATM   36  C   UNL     1      -8.027   5.627  68.149  1.00  0.00    -0.097 A  
BRANCH  34  37
HETATM   37  N   UNL     1      -8.473   4.749  70.496  1.00  0.00    -0.094 N  
HETATM   38  C   UNL     1      -7.928   4.973  71.907  1.00  0.00    -0.111 C  
HETATM   39  C   UNL     1      -9.998   4.729  70.607  1.00  0.00    -0.230 C  
HETATM   40  C   UNL     1      -7.941   3.423  69.952  1.00  0.00    -0.046 C  
ENDBRANCH  34  37
ENDBRANCH  30  31
ENDBRANCH   4  30
TORSDOF 17
ENDMDL
MODEL      147
REMARK 921   NORMALIZED FREE ENERGY PREDICTED BY IDOCK:   -4.58 KCAL/MOL
REMARK 922        TOTAL FREE ENERGY PREDICTED BY IDOCK:  -11.36 KCAL/MOL
REMARK 923 INTER-LIGAND FREE ENERGY PREDICTED BY IDOCK:   -9.31 KCAL/MOL
REMARK 924 INTRA-LIGAND FREE ENERGY PREDICTED BY IDOCK:   -2.05 KCAL/MOL
REMARK 927      BINDING AFFINITY PREDICTED BY RF-SCORE:    0.00 PKD
ROOT
HETATM    1  C   UNL     1     -13.008   9.950  71.274  1.00  0.00    -0.395 C  
HETATM    2  N   UNL     1     -11.675   9.878  70.699  1.00  0.00    -0.303 N  
HETATM    3  O   UNL     1     -10.181  10.789  69.182  1.00  0.00    -0.208 OA 
HETATM    4  C   UNL     1     -11.234  10.847  69.808  1.00  0.00    -0.281 C  
ENDROOT
BRANCH   2   5
HETATM    5  C   UNL     1     -10.896   8.655  70.884  1.00  0.00    -0.239 C  
BRANCH   5   6
HETATM    6  C   UNL     1     -10.357   8.498  72.313  1.00  0.00    -0.402 C  
BRANCH   6   7
HETATM    7  C   UNL     1     -10.770   7.152  72.920  1.00  0.00    -0.339 C  
BRANCH   7   8
HETATM    8  C   UNL     1      -9.993   6.841  74.206  1.00  0.00    -0.354 C  
BRANCH   8   9
HETATM    9  C   UNL     1     -10.077   5.353  74.560  1.00  0.00    -0.291 C  
BRANCH   9  10
HETATM   10  C   UNL     1     -10.895   4.571  73.528  1.00  0.00    -0.360 C  
BRANCH  10  11
HETATM   11  C   UNL     1     -10.399   3.136  73.324  1.00  0.00    -0.240 C  
BRANCH  11  12
HETATM   12  C   UNL     1     -10.159   2.786  71.857  1.00  0.00    -0.151 C  
BRANCH  12  13
HETATM   13  C   UNL     1      -9.154   3.736  71.211  1.00  0.00    -0.181 C  
BRANCH  13  14
HETATM   14  C   UNL     1      -9.882   4.812  70.420  1.00  0.00    -0.239 C  
BRANCH  14  15
HETATM   15  N   UNL     1      -9.249   5.057  69.132  1.00  0.00    -0.104 N  
HETATM   16  C   UNL     1      -8.474   6.189  68.959  1.00  0.00    -0.118 C  
HETATM   17  C   UNL     1      -9.409   4.076  68.068  1.00  0.00    -0.169 C  
HETATM   18  O   UNL     1      -8.332   7.067  69.803  1.00  0.00    -0.129 OA 
BRANCH  16  19
HETATM   19  O   UNL     1      -7.985   6.287  67.664  1.00  0.00    -0.110 OA 
BRANCH  19  20
HETATM   20  C   UNL     1      -8.188   7.547  67.091  1.00  0.00    -0.114 A  
HETATM   21  C   UNL     1      -9.304   7.703  66.277  1.00  0.00    -0.189 A  
HETATM   22  C   UNL     1      -9.596   8.973  65.791  1.00  0.00    -0.287 A  
HETATM   23  C   UNL     1      -8.782  10.064  66.113  1.00  0.00    -0.153 A  
HETATM   24  C   UNL     1      -7.645   9.908  66.926  1.00  0.00    -0.095 A  
HETATM   25  C   UNL     1      -7.381   8.639  67.441  1.00  0.00    -0.089 A  
BRANCH  24  26
HETATM   26  N   UNL     1      -6.783  11.091  67.337  1.00  0.00    -0.075 N  
HETATM   27  C   UNL     1      -7.600  12.378  67.375  1.00  0.00    -0.160 C  
HETATM   28  C   UNL     1      -5.648  11.309  66.328  1.00  0.00    -0.131 C  
HETATM   29  C   UNL     1      -6.212  10.790  68.715  1.00  0.00    -0.040 C  
ENDBRANCH  24  26
ENDBRANCH  19  20
ENDBRANCH  16  19
ENDBRANCH  14  15
ENDBRANCH  13  14
ENDBRANCH  12  13
ENDBRANCH  11  12
ENDBRANCH  10  11
ENDBRANCH   9  10
ENDBRANCH   8   9
ENDBRANCH   7   8
ENDBRANCH   6   7
ENDBRANCH   5   6
ENDBRANCH   2   5
BRANCH   4  30
HETATM   30  O   UNL     1     -12.162  11.879  69.639  1.00  0.00    -0.241 OA 
BRANCH  30  31
HETATM   31  C   UNL     1     -11.635  13.001  68.976  1.00  0.00    -0.318 A  
HETATM   32  C   UNL     1     -10.965  13.986  69.704  1.00  0.00    -0.087 A  
HETATM   33  C   UNL     1     -11.704  13.048  67.580  1.00  0.00    -0.415 A  
HETATM   34  C   UNL     1     -11.126  14.132  66.896  1.00  0.00    -0.307 A  
HETATM   35  C   UNL     1     -10.406  15.062  69.039  1.00  0.00    -0.243 A  
HETATM   36  C   UNL     1     -10.494  15.138  67.649  1.00  0.00    -0.253 A  
BRANCH  34  37
HETATM   37  N   UNL     1     -11.278  14.277  65.386  1.00  0.00    -0.317 N  
HETATM   38  C   UNL     1     -10.442  13.239  64.636  1.00  0.00    -0.402 C  
HETATM   39  C   UNL     1     -12.732  14.067  64.963  1.00  0.00    -0.328 C  
HETATM   40  C   UNL     1     -10.794  15.680  65.018  1.00  0.00    -0.450 C  
ENDBRANCH  34  37
ENDBRANCH  30  31
ENDBRANCH   4  30
TORSDOF 17
ENDMDL
MODEL      148
REMARK 921   NORMALIZED FREE ENERGY PREDICTED BY IDOCK:   -4.57 KCAL/MOL
REMARK 922        TOTAL FREE ENERGY PREDICTED BY IDOCK:  -11.35 KCAL/MOL
REMARK 923 INTER-LIGAND FREE ENERGY PREDICTED BY IDOCK:   -9.62 KCAL/MOL
REMARK 924 INTRA-LIGAND FREE ENERGY PREDICTED BY IDOCK:   -1.73 KCAL/MOL
REMARK 927      BINDING AFFINITY PREDICTED BY RF-SCORE:    0.00 PKD
ROOT
HETATM    1  C   UNL     1     -11.035   9.453  69.543  1.00  0.00    -0.173 C  
HETATM    2  N   UNL     1     -11.877   9.992  70.598  1.00  0.00    -0.304 N  
HETATM    3  O   UNL     1     -13.517   9.542  72.171  1.00  0.00    -0.420 OA 
HETATM    4  C   UNL     1     -12.685   9.155  71.356  1.00  0.00    -0.318 C  
ENDROOT
BRANCH   2   5
HETATM    5  C   UNL     1     -12.041  11.441  70.694  1.00  0.00    -0.372 C  
BRANCH   5   6
HETATM    6  C   UNL     1     -12.008  12.139  69.328  1.00  0.00    -0.318 C  
BRANCH   6   7
HETATM    7  C   UNL     1     -11.814  13.653  69.480  1.00  0.00    -0.394 C  
BRANCH   7   8
HETATM    8  C   UNL     1     -11.577  14.339  68.129  1.00  0.00    -0.365 C  
BRANCH   8   9
HETATM    9  C   UNL     1     -12.205  13.540  66.982  1.00  0.00    -0.351 C  
BRANCH   9  10
HETATM   10  C   UNL     1     -11.162  13.134  65.938  1.00  0.00    -0.311 C  
BRANCH  10  11
HETATM   11  C   UNL     1     -11.102  11.621  65.698  1.00  0.00    -0.308 C  
BRANCH  11  12
HETATM   12  C   UNL     1     -10.034  11.216  64.684  1.00  0.00    -0.345 C  
BRANCH  12  13
HETATM   13  C   UNL     1      -9.398   9.876  65.046  1.00  0.00    -0.323 C  
BRANCH  13  14
HETATM   14  C   UNL     1      -8.769   9.949  66.429  1.00  0.00    -0.132 C  
BRANCH  14  15
HETATM   15  N   UNL     1      -7.639  10.865  66.461  1.00  0.00    -0.138 N  
HETATM   16  C   UNL     1      -7.624  11.896  67.383  1.00  0.00    -0.151 C  
HETATM   17  C   UNL     1      -6.525  10.645  65.549  1.00  0.00    -0.066 C  
HETATM   18  O   UNL     1      -8.546  12.152  68.149  1.00  0.00    -0.165 OA 
BRANCH  16  19
HETATM   19  O   UNL     1      -6.499  12.696  67.245  1.00  0.00    -0.157 OA 
BRANCH  19  20
HETATM   20  C   UNL     1      -6.596  13.910  67.934  1.00  0.00    -0.161 A  
HETATM   21  C   UNL     1      -5.939  14.002  69.155  1.00  0.00    -0.091 A  
HETATM   22  C   UNL     1      -5.918  15.232  69.803  1.00  0.00    -0.134 A  
HETATM   23  C   UNL     1      -6.548  16.346  69.238  1.00  0.00    -0.206 A  
HETATM   24  C   UNL     1      -7.224  16.253  68.010  1.00  0.00    -0.132 A  
HETATM   25  C   UNL     1      -7.207  15.027  67.347  1.00  0.00    -0.224 A  
BRANCH  24  26
HETATM   26  N   UNL     1      -7.862  17.466  67.350  1.00  0.00    -0.193 N  
HETATM   27  C   UNL     1      -9.115  17.073  66.575  1.00  0.00    -0.264 C  
HETATM   28  C   UNL     1      -6.895  18.106  66.345  1.00  0.00    -0.229 C  
HETATM   29  C   UNL     1      -8.214  18.458  68.448  1.00  0.00    -0.312 C  
ENDBRANCH  24  26
ENDBRANCH  19  20
ENDBRANCH  16  19
ENDBRANCH  14  15
ENDBRANCH  13  14
ENDBRANCH  12  13
ENDBRANCH  11  12
ENDBRANCH  10  11
ENDBRANCH   9  10
ENDBRANCH   8   9
ENDBRANCH   7   8
ENDBRANCH   6   7
ENDBRANCH   5   6
ENDBRANCH   2   5
BRANCH   4  30
HETATM   30  O   UNL     1     -12.504   7.806  71.040  1.00  0.00    -0.258 OA 
BRANCH  30  31
HETATM   31  C   UNL     1     -11.488   7.187  71.789  1.00  0.00    -0.267 A  
HETATM   32  C   UNL     1     -11.106   7.726  73.019  1.00  0.00    -0.419 A  
HETATM   33  C   UNL     1     -10.960   5.977  71.330  1.00  0.00    -0.336 A  
HETATM   34  C   UNL     1      -9.989   5.311  72.098  1.00  0.00    -0.184 A  
HETATM   35  C   UNL     1     -10.142   7.084  73.774  1.00  0.00    -0.390 A  
HETATM   36  C   UNL     1      -9.582   5.893  73.314  1.00  0.00    -0.143 A  
BRANCH  34  37
HETATM   37  N   UNL     1      -9.306   4.051  71.579  1.00  0.00    -0.132 N  
HETATM   38  C   UNL     1      -9.423   3.936  70.058  1.00  0.00    -0.192 C  
HETATM   39  C   UNL     1      -7.814   4.063  71.910  1.00  0.00    -0.075 C  
HETATM   40  C   UNL     1     -10.007   2.858  72.231  1.00  0.00    -0.168 C  
ENDBRANCH  34  37
ENDBRANCH  30  31
ENDBRANCH   4  30
TORSDOF 17
ENDMDL
MODEL      149
REMARK 921   NORMALIZED FREE ENERGY PREDICTED BY IDOCK:   -4.54 KCAL/MOL
REMARK 922        TOTAL FREE ENERGY PREDICTED BY IDOCK:  -11.29 KCAL/MOL
REMARK 923 INTER-LIGAND FREE ENERGY PREDICTED BY IDOCK:   -9.86 KCAL/MOL
REMARK 924 INTRA-LIGAND FREE ENERGY PREDICTED BY IDOCK:   -1.44 KCAL/MOL
REMARK 927      BINDING AFFINITY PREDICTED BY RF-SCORE:    0.00 PKD
ROOT
HETATM    1  C   UNL     1     -12.222  14.387  63.955  1.00  0.00    -0.265 C  
HETATM    2  N   UNL     1     -12.137  13.127  64.675  1.00  0.00    -0.386 N  
HETATM    3  O   UNL     1     -12.049  12.096  66.747  1.00  0.00    -0.609 OA 
HETATM    4  C   UNL     1     -12.240  13.094  66.059  1.00  0.00    -0.414 C  
ENDROOT
BRANCH   2   5
HETATM    5  C   UNL     1     -11.709  11.933  63.950  1.00  0.00    -0.415 C  
BRANCH   5   6
HETATM    6  C   UNL     1     -10.338  11.414  64.408  1.00  0.00    -0.375 C  
BRANCH   6   7
HETATM    7  C   UNL     1      -9.548  10.817  63.236  1.00  0.00    -0.384 C  
BRANCH   7   8
HETATM    8  C   UNL     1      -8.763   9.567  63.653  1.00  0.00    -0.239 C  
BRANCH   8   9
HETATM    9  C   UNL     1      -7.321   9.918  64.033  1.00  0.00    -0.132 C  
BRANCH   9  10
HETATM   10  C   UNL     1      -7.187  10.216  65.529  1.00  0.00    -0.142 C  
BRANCH  10  11
HETATM   11  C   UNL     1      -6.667   9.024  66.340  1.00  0.00    -0.075 C  
BRANCH  11  12
HETATM   12  C   UNL     1      -7.783   8.211  66.994  1.00  0.00    -0.096 C  
BRANCH  12  13
HETATM   13  C   UNL     1      -8.618   9.066  67.944  1.00  0.00    -0.125 C  
BRANCH  13  14
HETATM   14  C   UNL     1     -10.098   8.777  67.747  1.00  0.00    -0.207 C  
BRANCH  14  15
HETATM   15  N   UNL     1     -10.782   8.579  69.017  1.00  0.00    -0.151 N  
HETATM   16  C   UNL     1     -11.224   7.315  69.361  1.00  0.00     0.011 C  
HETATM   17  C   UNL     1     -10.944   9.712  69.917  1.00  0.00    -0.252 C  
HETATM   18  O   UNL     1     -11.149   6.332  68.631  1.00  0.00    -0.334 OA 
BRANCH  16  19
HETATM   19  O   UNL     1     -11.891   7.314  70.578  1.00  0.00    -0.276 OA 
BRANCH  19  20
HETATM   20  C   UNL     1     -11.125   6.795  71.628  1.00  0.00    -0.246 A  
HETATM   21  C   UNL     1     -11.067   7.539  72.800  1.00  0.00    -0.416 A  
HETATM   22  C   UNL     1     -10.413   6.992  73.899  1.00  0.00    -0.332 A  
HETATM   23  C   UNL     1      -9.826   5.725  73.820  1.00  0.00    -0.175 A  
HETATM   24  C   UNL     1      -9.872   4.975  72.632  1.00  0.00    -0.159 A  
HETATM   25  C   UNL     1     -10.563   5.513  71.547  1.00  0.00    -0.302 A  
BRANCH  24  26
HETATM   26  N   UNL     1      -9.293   3.571  72.545  1.00  0.00    -0.115 N  
HETATM   27  C   UNL     1      -9.983   2.632  73.529  1.00  0.00    -0.104 C  
HETATM   28  C   UNL     1      -7.801   3.578  72.902  1.00  0.00    -0.065 C  
HETATM   29  C   UNL     1      -9.492   3.077  71.120  1.00  0.00    -0.152 C  
ENDBRANCH  24  26
ENDBRANCH  19  20
ENDBRANCH  16  19
ENDBRANCH  14  15
ENDBRANCH  13  14
ENDBRANCH  12  13
ENDBRANCH  11  12
ENDBRANCH  10  11
ENDBRANCH   9  10
ENDBRANCH   8   9
ENDBRANCH   7   8
ENDBRANCH   6   7
ENDBRANCH   5   6
ENDBRANCH   2   5
BRANCH   4  30
HETATM   30  O   UNL     1     -12.517  14.350  66.605  1.00  0.00    -0.351 OA 
BRANCH  30  31
HETATM   31  C   UNL     1     -11.582  14.759  67.571  1.00  0.00    -0.361 A  
HETATM   32  C   UNL     1     -11.894  14.653  68.928  1.00  0.00    -0.344 A  
HETATM   33  C   UNL     1     -10.312  15.163  67.147  1.00  0.00    -0.263 A  
HETATM   34  C   UNL     1      -9.343  15.514  68.102  1.00  0.00    -0.197 A  
HETATM   35  C   UNL     1     -10.950  15.010  69.874  1.00  0.00    -0.282 A  
HETATM   36  C   UNL     1      -9.690  15.445  69.465  1.00  0.00    -0.259 A  
BRANCH  34  37
HETATM   37  N   UNL     1      -7.988  16.068  67.678  1.00  0.00    -0.138 N  
HETATM   38  C   UNL     1      -7.547  17.223  68.578  1.00  0.00    -0.251 C  
HETATM   39  C   UNL     1      -6.906  14.992  67.775  1.00  0.00    -0.170 C  
HETATM   40  C   UNL     1      -8.137  16.572  66.242  1.00  0.00    -0.306 C  
ENDBRANCH  34  37
ENDBRANCH  30  31
ENDBRANCH   4  30
TORSDOF 17
ENDMDL
MODEL      150
REMARK 921   NORMALIZED FREE ENERGY PREDICTED BY IDOCK:   -4.54 KCAL/MOL
REMARK 922        TOTAL FREE ENERGY PREDICTED BY IDOCK:  -11.29 KCAL/MOL
REMARK 923 INTER-LIGAND FREE ENERGY PREDICTED BY IDOCK:   -9.16 KCAL/MOL
REMARK 924 INTRA-LIGAND FREE ENERGY PREDICTED BY IDOCK:   -2.13 KCAL/MOL
REMARK 927      BINDING AFFINITY PREDICTED BY RF-SCORE:    0.00 PKD
ROOT
HETATM    1  C   UNL     1     -13.160  10.571  71.390  1.00  0.00    -0.410 C  
HETATM    2  N   UNL     1     -11.898  10.203  70.771  1.00  0.00    -0.324 N  
HETATM    3  O   UNL     1     -10.296  10.753  69.191  1.00  0.00    -0.205 OA 
HETATM    4  C   UNL     1     -11.287  11.046  69.852  1.00  0.00    -0.287 C  
ENDROOT
BRANCH   2   5
HETATM    5  C   UNL     1     -11.402   8.840  70.947  1.00  0.00    -0.275 C  
BRANCH   5   6
HETATM    6  C   UNL     1     -10.194   8.759  71.891  1.00  0.00    -0.415 C  
BRANCH   6   7
HETATM    7  C   UNL     1     -10.461   7.801  73.058  1.00  0.00    -0.432 C  
BRANCH   7   8
HETATM    8  C   UNL     1      -9.190   7.515  73.867  1.00  0.00    -0.314 C  
BRANCH   8   9
HETATM    9  C   UNL     1      -9.263   6.147  74.553  1.00  0.00    -0.173 C  
BRANCH   9  10
HETATM   10  C   UNL     1     -10.494   5.355  74.104  1.00  0.00    -0.310 C  
BRANCH  10  11
HETATM   11  C   UNL     1     -10.162   4.221  73.128  1.00  0.00    -0.219 C  
BRANCH  11  12
HETATM   12  C   UNL     1     -10.356   4.613  71.665  1.00  0.00    -0.189 C  
BRANCH  12  13
HETATM   13  C   UNL     1      -9.037   4.582  70.896  1.00  0.00    -0.185 C  
BRANCH  13  14
HETATM   14  C   UNL     1      -8.897   5.833  70.042  1.00  0.00    -0.135 C  
BRANCH  14  15
HETATM   15  N   UNL     1      -9.398   5.624  68.692  1.00  0.00    -0.121 N  
HETATM   16  C   UNL     1      -8.540   5.156  67.713  1.00  0.00    -0.103 C  
HETATM   17  C   UNL     1     -10.806   5.869  68.414  1.00  0.00    -0.240 C  
HETATM   18  O   UNL     1      -7.340   4.967  67.877  1.00  0.00    -0.073 OA 
BRANCH  16  19
HETATM   19  O   UNL     1      -9.169   5.057  66.480  1.00  0.00    -0.127 OA 
BRANCH  19  20
HETATM   20  C   UNL     1      -8.625   5.908  65.512  1.00  0.00    -0.150 A  
HETATM   21  C   UNL     1      -8.061   5.315  64.388  1.00  0.00    -0.121 A  
HETATM   22  C   UNL     1      -7.622   6.138  63.356  1.00  0.00    -0.085 A  
HETATM   23  C   UNL     1      -7.744   7.528  63.453  1.00  0.00    -0.129 A  
HETATM   24  C   UNL     1      -8.302   8.131  64.593  1.00  0.00    -0.079 A  
HETATM   25  C   UNL     1      -8.775   7.299  65.606  1.00  0.00    -0.092 A  
BRANCH  24  26
HETATM   26  N   UNL     1      -8.498   9.636  64.690  1.00  0.00    -0.160 N  
HETATM   27  C   UNL     1      -9.704   9.977  65.559  1.00  0.00    -0.289 C  
HETATM   28  C   UNL     1      -8.759  10.239  63.304  1.00  0.00    -0.207 C  
HETATM   29  C   UNL     1      -7.233  10.229  65.293  1.00  0.00    -0.134 C  
ENDBRANCH  24  26
ENDBRANCH  19  20
ENDBRANCH  16  19
ENDBRANCH  14  15
ENDBRANCH  13  14
ENDBRANCH  12  13
ENDBRANCH  11  12
ENDBRANCH  10  11
ENDBRANCH   9  10
ENDBRANCH   8   9
ENDBRANCH   7   8
ENDBRANCH   6   7
ENDBRANCH   5   6
ENDBRANCH   2   5
BRANCH   4  30
HETATM   30  O   UNL     1     -11.970  12.256  69.700  1.00  0.00    -0.306 OA 
BRANCH  30  31
HETATM   31  C   UNL     1     -11.642  12.939  68.516  1.00  0.00    -0.323 A  
HETATM   32  C   UNL     1     -12.115  12.467  67.290  1.00  0.00    -0.133 A  
HETATM   33  C   UNL     1     -10.936  14.142  68.610  1.00  0.00    -0.275 A  
HETATM   34  C   UNL     1     -10.655  14.871  67.441  1.00  0.00    -0.263 A  
HETATM   35  C   UNL     1     -11.830  13.172  66.134  1.00  0.00    -0.453 A  
HETATM   36  C   UNL     1     -11.100  14.357  66.209  1.00  0.00    -0.331 A  
BRANCH  34  37
HETATM   37  N   UNL     1      -9.791  16.126  67.489  1.00  0.00    -0.235 N  
HETATM   38  C   UNL     1      -8.494  15.885  68.262  1.00  0.00    -0.170 C  
HETATM   39  C   UNL     1      -9.393  16.567  66.080  1.00  0.00    -0.304 C  
HETATM   40  C   UNL     1     -10.608  17.208  68.196  1.00  0.00    -0.380 C  
ENDBRANCH  34  37
ENDBRANCH  30  31
ENDBRANCH   4  30
TORSDOF 17
ENDMDL
MODEL      151
REMARK 921   NORMALIZED FREE ENERGY PREDICTED BY IDOCK:   -4.54 KCAL/MOL
REMARK 922        TOTAL FREE ENERGY PREDICTED BY IDOCK:  -11.29 KCAL/MOL
REMARK 923 INTER-LIGAND FREE ENERGY PREDICTED BY IDOCK:  -10.28 KCAL/MOL
REMARK 924 INTRA-LIGAND FREE ENERGY PREDICTED BY IDOCK:   -1.01 KCAL/MOL
REMARK 927      BINDING AFFINITY PREDICTED BY RF-SCORE:    0.00 PKD
ROOT
HETATM    1  C   UNL     1     -11.711  12.708  66.567  1.00  0.00    -0.400 C  
HETATM    2  N   UNL     1     -11.143  11.371  66.529  1.00  0.00    -0.281 N  
HETATM    3  O   UNL     1     -10.717   9.425  67.711  1.00  0.00    -0.265 OA 
HETATM    4  C   UNL     1     -11.275  10.514  67.612  1.00  0.00    -0.265 C  
ENDROOT
BRANCH   2   5
HETATM    5  C   UNL     1     -10.234  11.027  65.438  1.00  0.00    -0.274 C  
BRANCH   5   6
HETATM    6  C   UNL     1      -8.798  11.515  65.677  1.00  0.00    -0.016 C  
BRANCH   6   7
HETATM    7  C   UNL     1      -7.870  10.353  66.051  1.00  0.00    -0.142 C  
BRANCH   7   8
HETATM    8  C   UNL     1      -6.423  10.612  65.612  1.00  0.00    -0.090 C  
BRANCH   8   9
HETATM    9  C   UNL     1      -5.473  10.632  66.813  1.00  0.00    -0.051 C  
BRANCH   9  10
HETATM   10  C   UNL     1      -6.151  11.204  68.062  1.00  0.00    -0.049 C  
BRANCH  10  11
HETATM   11  C   UNL     1      -5.458  12.456  68.608  1.00  0.00    -0.054 C  
BRANCH  11  12
HETATM   12  C   UNL     1      -6.413  13.404  69.330  1.00  0.00    -0.100 C  
BRANCH  12  13
HETATM   13  C   UNL     1      -7.151  14.312  68.349  1.00  0.00    -0.105 C  
BRANCH  13  14
HETATM   14  C   UNL     1      -8.614  13.906  68.256  1.00  0.00    -0.177 C  
BRANCH  14  15
HETATM   15  N   UNL     1      -9.499  15.060  68.310  1.00  0.00    -0.192 N  
HETATM   16  C   UNL     1      -9.772  15.762  67.151  1.00  0.00    -0.223 C  
HETATM   17  C   UNL     1     -10.114  15.420  69.580  1.00  0.00    -0.276 C  
HETATM   18  O   UNL     1      -9.258  15.529  66.063  1.00  0.00    -0.326 OA 
BRANCH  16  19
HETATM   19  O   UNL     1     -10.595  16.854  67.390  1.00  0.00    -0.329 OA 
BRANCH  19  20
HETATM   20  C   UNL     1      -9.936  18.081  67.262  1.00  0.00    -0.323 A  
HETATM   21  C   UNL     1     -10.696  19.172  66.856  1.00  0.00    -0.515 A  
HETATM   22  C   UNL     1     -10.096  20.426  66.835  1.00  0.00    -0.503 A  
HETATM   23  C   UNL     1      -8.758  20.581  67.212  1.00  0.00    -0.387 A  
HETATM   24  C   UNL     1      -7.983  19.479  67.611  1.00  0.00    -0.285 A  
HETATM   25  C   UNL     1      -8.602  18.231  67.666  1.00  0.00    -0.261 A  
BRANCH  24  26
HETATM   26  N   UNL     1      -6.545  19.636  68.083  1.00  0.00    -0.252 N  
HETATM   27  C   UNL     1      -5.653  18.548  67.495  1.00  0.00    -0.146 C  
HETATM   28  C   UNL     1      -6.460  19.511  69.609  1.00  0.00    -0.315 C  
HETATM   29  C   UNL     1      -6.060  21.009  67.639  1.00  0.00    -0.340 C  
ENDBRANCH  24  26
ENDBRANCH  19  20
ENDBRANCH  16  19
ENDBRANCH  14  15
ENDBRANCH  13  14
ENDBRANCH  12  13
ENDBRANCH  11  12
ENDBRANCH  10  11
ENDBRANCH   9  10
ENDBRANCH   8   9
ENDBRANCH   7   8
ENDBRANCH   6   7
ENDBRANCH   5   6
ENDBRANCH   2   5
BRANCH   4  30
HETATM   30  O   UNL     1     -12.065  11.056  68.631  1.00  0.00    -0.551 OA 
BRANCH  30  31
HETATM   31  C   UNL     1     -11.976  10.351  69.843  1.00  0.00    -0.215 A  
HETATM   32  C   UNL     1     -13.095  10.253  70.672  1.00  0.00    -0.292 A  
HETATM   33  C   UNL     1     -10.791   9.671  70.138  1.00  0.00    -0.325 A  
HETATM   34  C   UNL     1     -10.706   8.908  71.315  1.00  0.00    -0.287 A  
HETATM   35  C   UNL     1     -13.015   9.515  71.840  1.00  0.00    -0.514 A  
HETATM   36  C   UNL     1     -11.829   8.857  72.162  1.00  0.00    -0.417 A  
BRANCH  34  37
HETATM   37  N   UNL     1      -9.397   8.246  71.728  1.00  0.00    -0.181 N  
HETATM   38  C   UNL     1      -9.240   8.212  73.249  1.00  0.00    -0.246 C  
HETATM   39  C   UNL     1      -9.343   6.797  71.244  1.00  0.00    -0.165 C  
HETATM   40  C   UNL     1      -8.262   9.073  71.121  1.00  0.00    -0.149 C  
ENDBRANCH  34  37
ENDBRANCH  30  31
ENDBRANCH   4  30
TORSDOF 17
ENDMDL
MODEL      152
REMARK 921   NORMALIZED FREE ENERGY PREDICTED BY IDOCK:   -4.54 KCAL/MOL
REMARK 922        TOTAL FREE ENERGY PREDICTED BY IDOCK:  -11.29 KCAL/MOL
REMARK 923 INTER-LIGAND FREE ENERGY PREDICTED BY IDOCK:  -10.26 KCAL/MOL
REMARK 924 INTRA-LIGAND FREE ENERGY PREDICTED BY IDOCK:   -1.03 KCAL/MOL
REMARK 927      BINDING AFFINITY PREDICTED BY RF-SCORE:    0.00 PKD
ROOT
HETATM    1  C   UNL     1      -9.253  14.362  67.316  1.00  0.00    -0.209 C  
HETATM    2  N   UNL     1     -10.465  13.641  67.666  1.00  0.00    -0.237 N  
HETATM    3  O   UNL     1     -12.354  12.555  66.880  1.00  0.00    -0.431 OA 
HETATM    4  C   UNL     1     -11.254  13.063  66.681  1.00  0.00    -0.307 C  
ENDROOT
BRANCH   2   5
HETATM    5  C   UNL     1     -10.965  13.733  69.036  1.00  0.00    -0.243 C  
BRANCH   5   6
HETATM    6  C   UNL     1     -10.684  15.095  69.686  1.00  0.00    -0.289 C  
BRANCH   6   7
HETATM    7  C   UNL     1     -11.115  15.110  71.158  1.00  0.00    -0.274 C  
BRANCH   7   8
HETATM    8  C   UNL     1     -12.333  16.013  71.389  1.00  0.00    -0.393 C  
BRANCH   8   9
HETATM    9  C   UNL     1     -13.610  15.188  71.572  1.00  0.00    -0.564 C  
BRANCH   9  10
HETATM   10  C   UNL     1     -13.474  14.181  72.718  1.00  0.00    -0.592 C  
BRANCH  10  11
HETATM   11  C   UNL     1     -13.858  12.752  72.317  1.00  0.00    -0.395 C  
BRANCH  11  12
HETATM   12  C   UNL     1     -12.775  12.045  71.505  1.00  0.00    -0.360 C  
BRANCH  12  13
HETATM   13  C   UNL     1     -13.261  10.700  70.973  1.00  0.00    -0.267 C  
BRANCH  13  14
HETATM   14  C   UNL     1     -13.346   9.686  72.104  1.00  0.00    -0.454 C  
BRANCH  14  15
HETATM   15  N   UNL     1     -12.826   8.387  71.705  1.00  0.00    -0.333 N  
HETATM   16  C   UNL     1     -11.465   8.227  71.519  1.00  0.00    -0.275 C  
HETATM   17  C   UNL     1     -13.750   7.271  71.556  1.00  0.00    -0.351 C  
HETATM   18  O   UNL     1     -10.645   9.134  71.594  1.00  0.00    -0.339 OA 
BRANCH  16  19
HETATM   19  O   UNL     1     -11.149   6.943  71.100  1.00  0.00    -0.244 OA 
BRANCH  19  20
HETATM   20  C   UNL     1      -9.782   6.655  71.182  1.00  0.00    -0.174 A  
HETATM   21  C   UNL     1      -9.117   7.056  72.335  1.00  0.00    -0.147 A  
HETATM   22  C   UNL     1      -7.788   6.678  72.497  1.00  0.00    -0.102 A  
HETATM   23  C   UNL     1      -7.140   5.917  71.519  1.00  0.00    -0.078 A  
HETATM   24  C   UNL     1      -7.806   5.520  70.346  1.00  0.00    -0.101 A  
HETATM   25  C   UNL     1      -9.149   5.869  70.209  1.00  0.00    -0.156 A  
BRANCH  24  26
HETATM   26  N   UNL     1      -7.137   4.641  69.301  1.00  0.00    -0.051 N  
HETATM   27  C   UNL     1      -8.076   3.533  68.835  1.00  0.00    -0.061 C  
HETATM   28  C   UNL     1      -5.892   3.961  69.882  1.00  0.00    -0.018 C  
HETATM   29  C   UNL     1      -6.753   5.530  68.127  1.00  0.00    -0.054 C  
ENDBRANCH  24  26
ENDBRANCH  19  20
ENDBRANCH  16  19
ENDBRANCH  14  15
ENDBRANCH  13  14
ENDBRANCH  12  13
ENDBRANCH  11  12
ENDBRANCH  10  11
ENDBRANCH   9  10
ENDBRANCH   8   9
ENDBRANCH   7   8
ENDBRANCH   6   7
ENDBRANCH   5   6
ENDBRANCH   2   5
BRANCH   4  30
HETATM   30  O   UNL     1     -10.695  13.186  65.406  1.00  0.00    -0.283 OA 
BRANCH  30  31
HETATM   31  C   UNL     1     -10.261  11.964  64.866  1.00  0.00    -0.271 A  
HETATM   32  C   UNL     1     -10.137  11.821  63.482  1.00  0.00    -0.463 A  
HETATM   33  C   UNL     1      -9.858  10.950  65.740  1.00  0.00    -0.286 A  
HETATM   34  C   UNL     1      -9.361   9.743  65.217  1.00  0.00    -0.255 A  
HETATM   35  C   UNL     1      -9.661  10.632  62.960  1.00  0.00    -0.379 A  
HETATM   36  C   UNL     1      -9.285   9.600  63.819  1.00  0.00    -0.170 A  
BRANCH  34  37
HETATM   37  N   UNL     1      -9.019   8.573  66.132  1.00  0.00    -0.168 N  
HETATM   38  C   UNL     1      -8.429   7.401  65.347  1.00  0.00    -0.092 C  
HETATM   39  C   UNL     1      -7.974   8.982  67.171  1.00  0.00    -0.102 C  
HETATM   40  C   UNL     1     -10.320   8.131  66.803  1.00  0.00    -0.291 C  
ENDBRANCH  34  37
ENDBRANCH  30  31
ENDBRANCH   4  30
TORSDOF 17
ENDMDL
MODEL      153
REMARK 921   NORMALIZED FREE ENERGY PREDICTED BY IDOCK:   -4.53 KCAL/MOL
REMARK 922        TOTAL FREE ENERGY PREDICTED BY IDOCK:  -11.27 KCAL/MOL
REMARK 923 INTER-LIGAND FREE ENERGY PREDICTED BY IDOCK:   -8.96 KCAL/MOL
REMARK 924 INTRA-LIGAND FREE ENERGY PREDICTED BY IDOCK:   -2.31 KCAL/MOL
REMARK 927      BINDING AFFINITY PREDICTED BY RF-SCORE:    0.00 PKD
ROOT
HETATM    1  C   UNL     1      -8.015  10.306  64.401  1.00  0.00    -0.135 C  
HETATM    2  N   UNL     1      -9.228   9.939  65.112  1.00  0.00    -0.214 N  
HETATM    3  O   UNL     1     -10.288   8.341  66.413  1.00  0.00    -0.227 OA 
HETATM    4  C   UNL     1      -9.272   8.790  65.890  1.00  0.00    -0.220 C  
ENDROOT
BRANCH   2   5
HETATM    5  C   UNL     1     -10.463  10.659  64.811  1.00  0.00    -0.210 C  
BRANCH   5   6
HETATM    6  C   UNL     1     -10.361  11.522  63.545  1.00  0.00    -0.484 C  
BRANCH   6   7
HETATM    7  C   UNL     1     -11.457  12.593  63.511  1.00  0.00    -0.557 C  
BRANCH   7   8
HETATM    8  C   UNL     1     -12.352  12.537  64.756  1.00  0.00    -0.544 C  
BRANCH   8   9
HETATM    9  C   UNL     1     -12.319  13.862  65.525  1.00  0.00    -0.506 C  
BRANCH   9  10
HETATM   10  C   UNL     1     -11.298  13.828  66.666  1.00  0.00    -0.340 C  
BRANCH  10  11
HETATM   11  C   UNL     1     -11.910  14.141  68.035  1.00  0.00    -0.400 C  
BRANCH  11  12
HETATM   12  C   UNL     1     -11.844  12.963  69.006  1.00  0.00    -0.352 C  
BRANCH  12  13
HETATM   13  C   UNL     1     -11.415  11.679  68.301  1.00  0.00    -0.369 C  
BRANCH  13  14
HETATM   14  C   UNL     1     -11.650  10.479  69.206  1.00  0.00    -0.236 C  
BRANCH  14  15
HETATM   15  N   UNL     1     -10.427  10.060  69.875  1.00  0.00    -0.257 N  
HETATM   16  C   UNL     1     -10.504   9.449  71.113  1.00  0.00    -0.322 C  
HETATM   17  C   UNL     1      -9.151  10.252  69.200  1.00  0.00    -0.191 C  
HETATM   18  O   UNL     1     -11.543   9.293  71.745  1.00  0.00    -0.366 OA 
BRANCH  16  19
HETATM   19  O   UNL     1      -9.247   9.156  71.623  1.00  0.00    -0.320 OA 
BRANCH  19  20
HETATM   20  C   UNL     1      -9.195   7.928  72.292  1.00  0.00    -0.165 A  
HETATM   21  C   UNL     1      -9.310   7.954  73.677  1.00  0.00    -0.288 A  
HETATM   22  C   UNL     1      -9.382   6.743  74.358  1.00  0.00    -0.259 A  
HETATM   23  C   UNL     1      -9.336   5.531  73.661  1.00  0.00    -0.137 A  
HETATM   24  C   UNL     1      -9.207   5.501  72.262  1.00  0.00    -0.142 A  
HETATM   25  C   UNL     1      -9.175   6.719  71.583  1.00  0.00    -0.144 A  
BRANCH  24  26
HETATM   26  N   UNL     1      -9.217   4.196  71.482  1.00  0.00    -0.127 N  
HETATM   27  C   UNL     1      -9.980   3.112  72.236  1.00  0.00    -0.166 C  
HETATM   28  C   UNL     1      -7.788   3.678  71.275  1.00  0.00    -0.059 C  
HETATM   29  C   UNL     1      -9.879   4.465  70.138  1.00  0.00    -0.217 C  
ENDBRANCH  24  26
ENDBRANCH  19  20
ENDBRANCH  16  19
ENDBRANCH  14  15
ENDBRANCH  13  14
ENDBRANCH  12  13
ENDBRANCH  11  12
ENDBRANCH  10  11
ENDBRANCH   9  10
ENDBRANCH   8   9
ENDBRANCH   7   8
ENDBRANCH   6   7
ENDBRANCH   5   6
ENDBRANCH   2   5
BRANCH   4  30
HETATM   30  O   UNL     1      -8.034   8.143  65.961  1.00  0.00    -0.092 OA 
BRANCH  30  31
HETATM   31  C   UNL     1      -8.033   6.871  65.365  1.00  0.00    -0.125 A  
HETATM   32  C   UNL     1      -8.030   6.756  63.973  1.00  0.00    -0.075 A  
HETATM   33  C   UNL     1      -7.924   5.746  66.188  1.00  0.00    -0.102 A  
HETATM   34  C   UNL     1      -7.857   4.468  65.606  1.00  0.00    -0.094 A  
HETATM   35  C   UNL     1      -7.978   5.501  63.394  1.00  0.00    -0.101 A  
HETATM   36  C   UNL     1      -7.901   4.368  64.203  1.00  0.00    -0.085 A  
BRANCH  34  37
HETATM   37  N   UNL     1      -7.853   3.212  66.470  1.00  0.00    -0.077 N  
HETATM   38  C   UNL     1      -9.262   2.851  66.942  1.00  0.00    -0.136 C  
HETATM   39  C   UNL     1      -7.326   2.011  65.683  1.00  0.00    -0.065 C  
HETATM   40  C   UNL     1      -6.971   3.505  67.685  1.00  0.00    -0.051 C  
ENDBRANCH  34  37
ENDBRANCH  30  31
ENDBRANCH   4  30
TORSDOF 17
ENDMDL
MODEL      154
REMARK 921   NORMALIZED FREE ENERGY PREDICTED BY IDOCK:   -4.52 KCAL/MOL
REMARK 922        TOTAL FREE ENERGY PREDICTED BY IDOCK:  -11.25 KCAL/MOL
REMARK 923 INTER-LIGAND FREE ENERGY PREDICTED BY IDOCK:   -8.99 KCAL/MOL
REMARK 924 INTRA-LIGAND FREE ENERGY PREDICTED BY IDOCK:   -2.27 KCAL/MOL
REMARK 927      BINDING AFFINITY PREDICTED BY RF-SCORE:    0.00 PKD
ROOT
HETATM    1  C   UNL     1      -9.504   3.194  67.715  1.00  0.00    -0.156 C  
HETATM    2  N   UNL     1      -9.842   4.137  68.769  1.00  0.00    -0.088 N  
HETATM    3  O   UNL     1     -10.258   6.350  69.311  1.00  0.00    -0.173 OA 
HETATM    4  C   UNL     1     -10.096   5.469  68.473  1.00  0.00    -0.180 C  
ENDROOT
BRANCH   2   5
HETATM    5  C   UNL     1      -9.680   3.721  70.160  1.00  0.00    -0.147 C  
BRANCH   5   6
HETATM    6  C   UNL     1      -8.209   3.607  70.584  1.00  0.00    -0.073 C  
BRANCH   6   7
HETATM    7  C   UNL     1      -7.899   4.525  71.774  1.00  0.00    -0.096 C  
BRANCH   7   8
HETATM    8  C   UNL     1      -9.161   5.213  72.310  1.00  0.00    -0.144 C  
BRANCH   8   9
HETATM    9  C   UNL     1      -8.907   5.850  73.679  1.00  0.00    -0.124 C  
BRANCH   9  10
HETATM   10  C   UNL     1      -9.827   7.050  73.925  1.00  0.00    -0.354 C  
BRANCH  10  11
HETATM   11  C   UNL     1     -10.381   7.662  72.634  1.00  0.00    -0.332 C  
BRANCH  11  12
HETATM   12  C   UNL     1     -11.908   7.675  72.583  1.00  0.00    -0.269 C  
BRANCH  12  13
HETATM   13  C   UNL     1     -12.424   8.581  71.468  1.00  0.00    -0.353 C  
BRANCH  13  14
HETATM   14  C   UNL     1     -11.374   9.622  71.109  1.00  0.00    -0.386 C  
BRANCH  14  15
HETATM   15  N   UNL     1     -11.978  10.897  70.753  1.00  0.00    -0.344 N  
HETATM   16  C   UNL     1     -11.458  11.627  69.700  1.00  0.00    -0.288 C  
HETATM   17  C   UNL     1     -13.149  11.354  71.488  1.00  0.00    -0.335 C  
HETATM   18  O   UNL     1     -10.455  11.312  69.069  1.00  0.00    -0.212 OA 
BRANCH  16  19
HETATM   19  O   UNL     1     -12.123  12.832  69.527  1.00  0.00    -0.280 OA 
BRANCH  19  20
HETATM   20  C   UNL     1     -11.688  13.547  68.406  1.00  0.00    -0.358 A  
HETATM   21  C   UNL     1     -12.213  13.178  67.173  1.00  0.00    -0.250 A  
HETATM   22  C   UNL     1     -11.891  13.947  66.060  1.00  0.00    -0.412 A  
HETATM   23  C   UNL     1     -11.057  15.063  66.182  1.00  0.00    -0.329 A  
HETATM   24  C   UNL     1     -10.515  15.433  67.425  1.00  0.00    -0.277 A  
HETATM   25  C   UNL     1     -10.873  14.680  68.543  1.00  0.00    -0.256 A  
BRANCH  24  26
HETATM   26  N   UNL     1      -9.656  16.677  67.590  1.00  0.00    -0.237 N  
HETATM   27  C   UNL     1      -8.883  16.640  68.904  1.00  0.00    -0.238 C  
HETATM   28  C   UNL     1     -10.529  17.938  67.617  1.00  0.00    -0.397 C  
HETATM   29  C   UNL     1      -8.690  16.730  66.415  1.00  0.00    -0.302 C  
ENDBRANCH  24  26
ENDBRANCH  19  20
ENDBRANCH  16  19
ENDBRANCH  14  15
ENDBRANCH  13  14
ENDBRANCH  12  13
ENDBRANCH  11  12
ENDBRANCH  10  11
ENDBRANCH   9  10
ENDBRANCH   8   9
ENDBRANCH   7   8
ENDBRANCH   6   7
ENDBRANCH   5   6
ENDBRANCH   2   5
BRANCH   4  30
HETATM   30  O   UNL     1     -10.077   5.725  67.099  1.00  0.00    -0.144 OA 
BRANCH  30  31
HETATM   31  C   UNL     1      -9.065   6.619  66.709  1.00  0.00    -0.142 A  
HETATM   32  C   UNL     1      -7.739   6.187  66.659  1.00  0.00    -0.103 A  
HETATM   33  C   UNL     1      -9.430   7.897  66.276  1.00  0.00    -0.220 A  
HETATM   34  C   UNL     1      -8.438   8.783  65.823  1.00  0.00    -0.148 A  
HETATM   35  C   UNL     1      -6.755   7.057  66.227  1.00  0.00    -0.053 A  
HETATM   36  C   UNL     1      -7.100   8.346  65.821  1.00  0.00    -0.071 A  
BRANCH  34  37
HETATM   37  N   UNL     1      -8.781  10.221  65.450  1.00  0.00    -0.161 N  
HETATM   38  C   UNL     1     -10.281  10.491  65.579  1.00  0.00    -0.256 C  
HETATM   39  C   UNL     1      -8.070  11.208  66.376  1.00  0.00    -0.159 C  
HETATM   40  C   UNL     1      -8.354  10.423  63.995  1.00  0.00    -0.139 C  
ENDBRANCH  34  37
ENDBRANCH  30  31
ENDBRANCH   4  30
TORSDOF 17
ENDMDL
MODEL      155
REMARK 921   NORMALIZED FREE ENERGY PREDICTED BY IDOCK:   -4.52 KCAL/MOL
REMARK 922        TOTAL FREE ENERGY PREDICTED BY IDOCK:  -11.24 KCAL/MOL
REMARK 923 INTER-LIGAND FREE ENERGY PREDICTED BY IDOCK:   -9.28 KCAL/MOL
REMARK 924 INTRA-LIGAND FREE ENERGY PREDICTED BY IDOCK:   -1.96 KCAL/MOL
REMARK 927      BINDING AFFINITY PREDICTED BY RF-SCORE:    0.00 PKD
ROOT
HETATM    1  C   UNL     1     -11.062   6.106  68.228  1.00  0.00    -0.239 C  
HETATM    2  N   UNL     1      -9.902   5.648  68.974  1.00  0.00    -0.147 N  
HETATM    3  O   UNL     1      -7.723   4.869  68.860  1.00  0.00    -0.071 OA 
HETATM    4  C   UNL     1      -8.703   5.380  68.327  1.00  0.00    -0.101 C  
ENDROOT
BRANCH   2   5
HETATM    5  C   UNL     1     -10.079   5.248  70.369  1.00  0.00    -0.254 C  
BRANCH   5   6
HETATM    6  C   UNL     1      -9.561   6.297  71.363  1.00  0.00    -0.170 C  
BRANCH   6   7
HETATM    7  C   UNL     1     -10.534   6.482  72.534  1.00  0.00    -0.229 C  
BRANCH   7   8
HETATM    8  C   UNL     1     -11.972   6.115  72.148  1.00  0.00    -0.314 C  
BRANCH   8   9
HETATM    9  C   UNL     1     -12.733   7.334  71.618  1.00  0.00    -0.410 C  
BRANCH   9  10
HETATM   10  C   UNL     1     -12.306   8.621  72.329  1.00  0.00    -0.449 C  
BRANCH  10  11
HETATM   11  C   UNL     1     -11.836   9.718  71.368  1.00  0.00    -0.488 C  
BRANCH  11  12
HETATM   12  C   UNL     1     -11.339   9.171  70.031  1.00  0.00    -0.108 C  
BRANCH  12  13
HETATM   13  C   UNL     1     -10.295  10.091  69.402  1.00  0.00    -0.245 C  
BRANCH  13  14
HETATM   14  C   UNL     1     -10.949  11.379  68.926  1.00  0.00    -0.226 C  
BRANCH  14  15
HETATM   15  N   UNL     1     -10.250  11.950  67.785  1.00  0.00    -0.196 N  
HETATM   16  C   UNL     1     -10.961  12.276  66.644  1.00  0.00    -0.278 C  
HETATM   17  C   UNL     1      -8.820  12.208  67.888  1.00  0.00    -0.177 C  
HETATM   18  O   UNL     1     -12.156  12.049  66.485  1.00  0.00    -0.617 OA 
BRANCH  16  19
HETATM   19  O   UNL     1     -10.136  12.765  65.642  1.00  0.00    -0.274 OA 
BRANCH  19  20
HETATM   20  C   UNL     1     -10.339  14.122  65.372  1.00  0.00    -0.365 A  
HETATM   21  C   UNL     1     -11.386  14.450  64.518  1.00  0.00    -0.328 A  
HETATM   22  C   UNL     1     -11.687  15.794  64.325  1.00  0.00    -0.162 A  
HETATM   23  C   UNL     1     -10.950  16.789  64.976  1.00  0.00    -0.118 A  
HETATM   24  C   UNL     1      -9.883  16.462  65.830  1.00  0.00    -0.315 A  
HETATM   25  C   UNL     1      -9.612  15.112  66.048  1.00  0.00    -0.365 A  
BRANCH  24  26
HETATM   26  N   UNL     1      -9.109  17.526  66.593  1.00  0.00    -0.261 N  
HETATM   27  C   UNL     1      -7.660  17.593  66.123  1.00  0.00    -0.280 C  
HETATM   28  C   UNL     1      -9.080  17.203  68.093  1.00  0.00    -0.247 C  
HETATM   29  C   UNL     1      -9.800  18.861  66.355  1.00  0.00    -0.375 C  
ENDBRANCH  24  26
ENDBRANCH  19  20
ENDBRANCH  16  19
ENDBRANCH  14  15
ENDBRANCH  13  14
ENDBRANCH  12  13
ENDBRANCH  11  12
ENDBRANCH  10  11
ENDBRANCH   9  10
ENDBRANCH   8   9
ENDBRANCH   7   8
ENDBRANCH   6   7
ENDBRANCH   5   6
ENDBRANCH   2   5
BRANCH   4  30
HETATM   30  O   UNL     1      -8.749   5.691  66.965  1.00  0.00    -0.110 OA 
BRANCH  30  31
HETATM   31  C   UNL     1      -8.290   6.986  66.670  1.00  0.00    -0.118 A  
HETATM   32  C   UNL     1      -7.692   7.755  67.671  1.00  0.00    -0.121 A  
HETATM   33  C   UNL     1      -8.347   7.433  65.347  1.00  0.00    -0.122 A  
HETATM   34  C   UNL     1      -7.834   8.700  65.022  1.00  0.00    -0.116 A  
HETATM   35  C   UNL     1      -7.196   9.009  67.361  1.00  0.00    -0.083 A  
HETATM   36  C   UNL     1      -7.275   9.480  66.052  1.00  0.00    -0.093 A  
BRANCH  34  37
HETATM   37  N   UNL     1      -7.979   9.269  63.615  1.00  0.00    -0.133 N  
HETATM   38  C   UNL     1      -6.761  10.104  63.219  1.00  0.00    -0.131 C  
HETATM   39  C   UNL     1      -8.103   8.146  62.584  1.00  0.00    -0.161 C  
HETATM   40  C   UNL     1      -9.225  10.157  63.615  1.00  0.00    -0.282 C  
ENDBRANCH  34  37
ENDBRANCH  30  31
ENDBRANCH   4  30
TORSDOF 17
ENDMDL
MODEL      156
REMARK 921   NORMALIZED FREE ENERGY PREDICTED BY IDOCK:   -4.51 KCAL/MOL
REMARK 922        TOTAL FREE ENERGY PREDICTED BY IDOCK:  -11.23 KCAL/MOL
REMARK 923 INTER-LIGAND FREE ENERGY PREDICTED BY IDOCK:   -8.98 KCAL/MOL
REMARK 924 INTRA-LIGAND FREE ENERGY PREDICTED BY IDOCK:   -2.25 KCAL/MOL
REMARK 927      BINDING AFFINITY PREDICTED BY RF-SCORE:    0.00 PKD
ROOT
HETATM    1  C   UNL     1     -10.579   5.476  68.622  1.00  0.00    -0.145 C  
HETATM    2  N   UNL     1      -9.579   4.424  68.554  1.00  0.00    -0.154 N  
HETATM    3  O   UNL     1      -8.630   2.750  67.264  1.00  0.00    -0.091 OA 
HETATM    4  C   UNL     1      -9.357   3.733  67.371  1.00  0.00    -0.198 C  
ENDROOT
BRANCH   2   5
HETATM    5  C   UNL     1      -8.981   3.944  69.798  1.00  0.00    -0.103 C  
BRANCH   5   6
HETATM    6  C   UNL     1      -8.495   5.081  70.708  1.00  0.00    -0.119 C  
BRANCH   6   7
HETATM    7  C   UNL     1      -8.939   4.862  72.159  1.00  0.00    -0.144 C  
BRANCH   7   8
HETATM    8  C   UNL     1     -10.428   4.503  72.255  1.00  0.00    -0.215 C  
BRANCH   8   9
HETATM    9  C   UNL     1     -11.215   5.590  72.993  1.00  0.00    -0.346 C  
BRANCH   9  10
HETATM   10  C   UNL     1     -10.287   6.629  73.628  1.00  0.00    -0.343 C  
BRANCH  10  11
HETATM   11  C   UNL     1     -10.355   8.000  72.946  1.00  0.00    -0.397 C  
BRANCH  11  12
HETATM   12  C   UNL     1     -11.539   8.136  71.991  1.00  0.00    -0.389 C  
BRANCH  12  13
HETATM   13  C   UNL     1     -11.078   8.295  70.544  1.00  0.00    -0.259 C  
BRANCH  13  14
HETATM   14  C   UNL     1     -10.597   9.717  70.299  1.00  0.00    -0.292 C  
BRANCH  14  15
HETATM   15  N   UNL     1     -10.405   9.985  68.881  1.00  0.00    -0.191 N  
HETATM   16  C   UNL     1     -11.351  10.724  68.194  1.00  0.00    -0.308 C  
HETATM   17  C   UNL     1      -9.194   9.507  68.229  1.00  0.00    -0.130 C  
HETATM   18  O   UNL     1     -12.405  11.121  68.679  1.00  0.00    -0.549 OA 
BRANCH  16  19
HETATM   19  O   UNL     1     -11.034  10.846  66.849  1.00  0.00    -0.271 OA 
BRANCH  19  20
HETATM   20  C   UNL     1     -11.117  12.161  66.379  1.00  0.00    -0.314 A  
HETATM   21  C   UNL     1     -12.055  12.425  65.389  1.00  0.00    -0.428 A  
HETATM   22  C   UNL     1     -12.242  13.744  64.988  1.00  0.00    -0.448 A  
HETATM   23  C   UNL     1     -11.498  14.776  65.569  1.00  0.00    -0.329 A  
HETATM   24  C   UNL     1     -10.540  14.512  66.562  1.00  0.00    -0.297 A  
HETATM   25  C   UNL     1     -10.386  13.193  66.986  1.00  0.00    -0.249 A  
BRANCH  24  26
HETATM   26  N   UNL     1      -9.766  15.627  67.249  1.00  0.00    -0.218 N  
HETATM   27  C   UNL     1     -10.690  16.495  68.097  1.00  0.00    -0.343 C  
HETATM   28  C   UNL     1      -9.110  16.548  66.212  1.00  0.00    -0.313 C  
HETATM   29  C   UNL     1      -8.703  14.980  68.125  1.00  0.00    -0.165 C  
ENDBRANCH  24  26
ENDBRANCH  19  20
ENDBRANCH  16  19
ENDBRANCH  14  15
ENDBRANCH  13  14
ENDBRANCH  12  13
ENDBRANCH  11  12
ENDBRANCH  10  11
ENDBRANCH   9  10
ENDBRANCH   8   9
ENDBRANCH   7   8
ENDBRANCH   6   7
ENDBRANCH   5   6
ENDBRANCH   2   5
BRANCH   4  30
HETATM   30  O   UNL     1     -10.114   4.234  66.308  1.00  0.00    -0.227 OA 
BRANCH  30  31
HETATM   31  C   UNL     1      -9.343   4.581  65.186  1.00  0.00    -0.159 A  
HETATM   32  C   UNL     1      -9.484   3.860  63.998  1.00  0.00    -0.157 A  
HETATM   33  C   UNL     1      -8.529   5.715  65.256  1.00  0.00    -0.147 A  
HETATM   34  C   UNL     1      -7.799   6.113  64.123  1.00  0.00    -0.117 A  
HETATM   35  C   UNL     1      -8.759   4.239  62.882  1.00  0.00    -0.110 A  
HETATM   36  C   UNL     1      -7.918   5.349  62.947  1.00  0.00    -0.092 A  
BRANCH  34  37
HETATM   37  N   UNL     1      -6.815   7.275  64.192  1.00  0.00    -0.047 N  
HETATM   38  C   UNL     1      -5.393   6.789  64.477  1.00  0.00    -0.027 C  
HETATM   39  C   UNL     1      -6.768   8.030  62.864  1.00  0.00    -0.085 C  
HETATM   40  C   UNL     1      -7.275   8.188  65.330  1.00  0.00    -0.068 C  
ENDBRANCH  34  37
ENDBRANCH  30  31
ENDBRANCH   4  30
TORSDOF 17
ENDMDL
MODEL      157
REMARK 921   NORMALIZED FREE ENERGY PREDICTED BY IDOCK:   -4.49 KCAL/MOL
REMARK 922        TOTAL FREE ENERGY PREDICTED BY IDOCK:  -11.18 KCAL/MOL
REMARK 923 INTER-LIGAND FREE ENERGY PREDICTED BY IDOCK:   -9.07 KCAL/MOL
REMARK 924 INTRA-LIGAND FREE ENERGY PREDICTED BY IDOCK:   -2.11 KCAL/MOL
REMARK 927      BINDING AFFINITY PREDICTED BY RF-SCORE:    0.00 PKD
ROOT
HETATM    1  C   UNL     1     -13.471   8.904  72.382  1.00  0.00    -0.450 C  
HETATM    2  N   UNL     1     -12.071   9.095  72.043  1.00  0.00    -0.372 N  
HETATM    3  O   UNL     1     -10.556  10.122  70.623  1.00  0.00    -0.272 OA 
HETATM    4  C   UNL     1     -11.697   9.998  71.058  1.00  0.00    -0.392 C  
ENDROOT
BRANCH   2   5
HETATM    5  C   UNL     1     -11.085   8.160  72.583  1.00  0.00    -0.380 C  
BRANCH   5   6
HETATM    6  C   UNL     1     -10.966   6.872  71.756  1.00  0.00    -0.259 C  
BRANCH   6   7
HETATM    7  C   UNL     1     -11.675   5.700  72.446  1.00  0.00    -0.240 C  
BRANCH   7   8
HETATM    8  C   UNL     1     -10.872   5.166  73.638  1.00  0.00    -0.363 C  
BRANCH   8   9
HETATM    9  C   UNL     1     -11.029   3.649  73.780  1.00  0.00    -0.311 C  
BRANCH   9  10
HETATM   10  C   UNL     1      -9.687   2.925  73.640  1.00  0.00    -0.140 C  
BRANCH  10  11
HETATM   11  C   UNL     1      -9.114   2.980  72.220  1.00  0.00    -0.142 C  
BRANCH  11  12
HETATM   12  C   UNL     1      -7.873   3.862  72.107  1.00  0.00    -0.072 C  
BRANCH  12  13
HETATM   13  C   UNL     1      -7.973   4.822  70.924  1.00  0.00    -0.082 C  
BRANCH  13  14
HETATM   14  C   UNL     1      -7.597   4.108  69.635  1.00  0.00    -0.053 C  
BRANCH  14  15
HETATM   15  N   UNL     1      -8.489   4.464  68.541  1.00  0.00    -0.091 N  
HETATM   16  C   UNL     1      -8.050   4.335  67.236  1.00  0.00    -0.100 C  
HETATM   17  C   UNL     1      -9.842   4.907  68.847  1.00  0.00    -0.170 C  
HETATM   18  O   UNL     1      -6.913   4.003  66.917  1.00  0.00    -0.057 OA 
BRANCH  16  19
HETATM   19  O   UNL     1      -9.006   4.759  66.324  1.00  0.00    -0.116 OA 
BRANCH  19  20
HETATM   20  C   UNL     1      -8.587   5.843  65.547  1.00  0.00    -0.150 A  
HETATM   21  C   UNL     1      -8.192   5.575  64.242  1.00  0.00    -0.124 A  
HETATM   22  C   UNL     1      -7.884   6.646  63.410  1.00  0.00    -0.106 A  
HETATM   23  C   UNL     1      -7.970   7.960  63.880  1.00  0.00    -0.121 A  
HETATM   24  C   UNL     1      -8.357   8.235  65.203  1.00  0.00    -0.157 A  
HETATM   25  C   UNL     1      -8.701   7.158  66.019  1.00  0.00    -0.162 A  
BRANCH  24  26
HETATM   26  N   UNL     1      -8.514   9.659  65.715  1.00  0.00    -0.130 N  
HETATM   27  C   UNL     1      -9.082  10.571  64.633  1.00  0.00    -0.218 C  
HETATM   28  C   UNL     1      -7.155  10.240  66.124  1.00  0.00    -0.121 C  
HETATM   29  C   UNL     1      -9.453   9.618  66.912  1.00  0.00    -0.153 C  
ENDBRANCH  24  26
ENDBRANCH  19  20
ENDBRANCH  16  19
ENDBRANCH  14  15
ENDBRANCH  13  14
ENDBRANCH  12  13
ENDBRANCH  11  12
ENDBRANCH  10  11
ENDBRANCH   9  10
ENDBRANCH   8   9
ENDBRANCH   7   8
ENDBRANCH   6   7
ENDBRANCH   5   6
ENDBRANCH   2   5
BRANCH   4  30
HETATM   30  O   UNL     1     -12.784  10.715  70.548  1.00  0.00    -0.340 OA 
BRANCH  30  31
HETATM   31  C   UNL     1     -12.601  12.108  70.583  1.00  0.00    -0.169 A  
HETATM   32  C   UNL     1     -13.014  12.834  71.701  1.00  0.00    -0.402 A  
HETATM   33  C   UNL     1     -11.908  12.719  69.534  1.00  0.00    -0.379 A  
HETATM   34  C   UNL     1     -11.660  14.102  69.582  1.00  0.00    -0.292 A  
HETATM   35  C   UNL     1     -12.785  14.198  71.750  1.00  0.00    -0.420 A  
HETATM   36  C   UNL     1     -12.123  14.826  70.696  1.00  0.00    -0.374 A  
BRANCH  34  37
HETATM   37  N   UNL     1     -11.009  14.823  68.407  1.00  0.00    -0.244 N  
HETATM   38  C   UNL     1      -9.520  14.493  68.302  1.00  0.00    -0.207 C  
HETATM   39  C   UNL     1     -11.652  14.403  67.086  1.00  0.00    -0.386 C  
HETATM   40  C   UNL     1     -11.179  16.324  68.651  1.00  0.00    -0.354 C  
ENDBRANCH  34  37
ENDBRANCH  30  31
ENDBRANCH   4  30
TORSDOF 17
ENDMDL
MODEL      158
REMARK 921   NORMALIZED FREE ENERGY PREDICTED BY IDOCK:   -4.45 KCAL/MOL
REMARK 922        TOTAL FREE ENERGY PREDICTED BY IDOCK:  -11.11 KCAL/MOL
REMARK 923 INTER-LIGAND FREE ENERGY PREDICTED BY IDOCK:   -8.92 KCAL/MOL
REMARK 924 INTRA-LIGAND FREE ENERGY PREDICTED BY IDOCK:   -2.19 KCAL/MOL
REMARK 927      BINDING AFFINITY PREDICTED BY RF-SCORE:    0.00 PKD
ROOT
HETATM    1  C   UNL     1      -5.830  13.676  70.577  1.00  0.00    -0.169 C  
HETATM    2  N   UNL     1      -5.561  13.924  69.170  1.00  0.00    -0.077 N  
HETATM    3  O   UNL     1      -5.624  15.463  67.440  1.00  0.00    -0.330 OA 
HETATM    4  C   UNL     1      -5.703  15.197  68.636  1.00  0.00    -0.090 C  
ENDROOT
BRANCH   2   5
HETATM    5  C   UNL     1      -5.372  12.780  68.280  1.00  0.00    -0.068 C  
BRANCH   5   6
HETATM    6  C   UNL     1      -6.085  11.513  68.773  1.00  0.00    -0.049 C  
BRANCH   6   7
HETATM    7  C   UNL     1      -5.740  10.302  67.897  1.00  0.00    -0.041 C  
BRANCH   7   8
HETATM    8  C   UNL     1      -6.363   9.009  68.436  1.00  0.00    -0.054 C  
BRANCH   8   9
HETATM    9  C   UNL     1      -7.008   8.192  67.312  1.00  0.00    -0.075 C  
BRANCH   9  10
HETATM   10  C   UNL     1      -8.517   8.034  67.520  1.00  0.00    -0.127 C  
BRANCH  10  11
HETATM   11  C   UNL     1      -9.349   9.006  66.677  1.00  0.00    -0.229 C  
BRANCH  11  12
HETATM   12  C   UNL     1      -8.584   9.570  65.482  1.00  0.00    -0.163 C  
BRANCH  12  13
HETATM   13  C   UNL     1      -8.697  11.091  65.411  1.00  0.00    -0.122 C  
BRANCH  13  14
HETATM   14  C   UNL     1     -10.119  11.528  65.728  1.00  0.00    -0.237 C  
BRANCH  14  15
HETATM   15  N   UNL     1     -10.190  12.271  66.977  1.00  0.00    -0.215 N  
HETATM   16  C   UNL     1     -11.410  12.424  67.610  1.00  0.00    -0.312 C  
HETATM   17  C   UNL     1      -8.962  12.797  67.557  1.00  0.00    -0.192 C  
HETATM   18  O   UNL     1     -12.480  12.036  67.153  1.00  0.00    -0.016 OA 
BRANCH  16  19
HETATM   19  O   UNL     1     -11.303  13.192  68.760  1.00  0.00    -0.254 OA 
BRANCH  19  20
HETATM   20  C   UNL     1     -11.852  12.576  69.889  1.00  0.00    -0.303 A  
HETATM   21  C   UNL     1     -12.542  13.386  70.784  1.00  0.00    -0.369 A  
HETATM   22  C   UNL     1     -13.199  12.783  71.851  1.00  0.00    -0.511 A  
HETATM   23  C   UNL     1     -13.162  11.395  72.019  1.00  0.00    -0.432 A  
HETATM   24  C   UNL     1     -12.455  10.574  71.124  1.00  0.00    -0.412 A  
HETATM   25  C   UNL     1     -11.831  11.181  70.034  1.00  0.00    -0.441 A  
BRANCH  24  26
HETATM   26  N   UNL     1     -12.452   9.059  71.254  1.00  0.00    -0.307 N  
HETATM   27  C   UNL     1     -11.601   8.416  70.164  1.00  0.00     0.104 C  
HETATM   28  C   UNL     1     -13.873   8.500  71.102  1.00  0.00    -0.040 C  
HETATM   29  C   UNL     1     -11.894   8.714  72.627  1.00  0.00    -0.164 C  
ENDBRANCH  24  26
ENDBRANCH  19  20
ENDBRANCH  16  19
ENDBRANCH  14  15
ENDBRANCH  13  14
ENDBRANCH  12  13
ENDBRANCH  11  12
ENDBRANCH  10  11
ENDBRANCH   9  10
ENDBRANCH   8   9
ENDBRANCH   7   8
ENDBRANCH   6   7
ENDBRANCH   5   6
ENDBRANCH   2   5
BRANCH   4  30
HETATM   30  O   UNL     1      -6.021  16.152  69.605  1.00  0.00    -0.150 OA 
BRANCH  30  31
HETATM   31  C   UNL     1      -6.749  17.242  69.099  1.00  0.00    -0.243 A  
HETATM   32  C   UNL     1      -6.144  18.497  69.004  1.00  0.00    -0.240 A  
HETATM   33  C   UNL     1      -8.035  17.015  68.599  1.00  0.00    -0.258 A  
HETATM   34  C   UNL     1      -8.754  18.081  68.031  1.00  0.00    -0.261 A  
HETATM   35  C   UNL     1      -6.850  19.554  68.458  1.00  0.00    -0.330 A  
HETATM   36  C   UNL     1      -8.146  19.349  67.984  1.00  0.00    -0.345 A  
BRANCH  34  37
HETATM   37  N   UNL     1     -10.199  17.900  67.580  1.00  0.00    -0.346 N  
HETATM   38  C   UNL     1     -10.278  17.418  66.130  1.00  0.00    -0.328 C  
HETATM   39  C   UNL     1     -10.910  16.852  68.436  1.00  0.00    -0.347 C  
HETATM   40  C   UNL     1     -10.881  19.264  67.697  1.00  0.00    -0.375 C  
ENDBRANCH  34  37
ENDBRANCH  30  31
ENDBRANCH   4  30
TORSDOF 17
ENDMDL
MODEL      159
REMARK 921   NORMALIZED FREE ENERGY PREDICTED BY IDOCK:   -4.45 KCAL/MOL
REMARK 922        TOTAL FREE ENERGY PREDICTED BY IDOCK:  -11.11 KCAL/MOL
REMARK 923 INTER-LIGAND FREE ENERGY PREDICTED BY IDOCK:   -9.36 KCAL/MOL
REMARK 924 INTRA-LIGAND FREE ENERGY PREDICTED BY IDOCK:   -1.75 KCAL/MOL
REMARK 927      BINDING AFFINITY PREDICTED BY RF-SCORE:    0.00 PKD
ROOT
HETATM    1  C   UNL     1     -11.359  15.779  68.209  1.00  0.00    -0.354 C  
HETATM    2  N   UNL     1     -10.713  16.120  66.953  1.00  0.00    -0.290 N  
HETATM    3  O   UNL     1     -10.333  15.503  64.753  1.00  0.00    -0.376 OA 
HETATM    4  C   UNL     1     -10.937  15.362  65.812  1.00  0.00    -0.309 C  
ENDROOT
BRANCH   2   5
HETATM    5  C   UNL     1      -9.648  17.121  66.962  1.00  0.00    -0.260 C  
BRANCH   5   6
HETATM    6  C   UNL     1     -10.061  18.442  66.299  1.00  0.00    -0.409 C  
BRANCH   6   7
HETATM    7  C   UNL     1     -10.870  19.320  67.261  1.00  0.00    -0.554 C  
BRANCH   7   8
HETATM    8  C   UNL     1      -9.972  20.274  68.058  1.00  0.00    -0.459 C  
BRANCH   8   9
HETATM    9  C   UNL     1      -9.001  19.502  68.956  1.00  0.00    -0.240 C  
BRANCH   9  10
HETATM   10  C   UNL     1      -7.542  19.815  68.612  1.00  0.00    -0.319 C  
BRANCH  10  11
HETATM   11  C   UNL     1      -6.656  18.566  68.537  1.00  0.00    -0.246 C  
BRANCH  11  12
HETATM   12  C   UNL     1      -6.147  18.107  69.901  1.00  0.00    -0.157 C  
BRANCH  12  13
HETATM   13  C   UNL     1      -5.908  16.600  69.933  1.00  0.00    -0.217 C  
BRANCH  13  14
HETATM   14  C   UNL     1      -6.736  15.914  68.857  1.00  0.00    -0.134 C  
BRANCH  14  15
HETATM   15  N   UNL     1      -6.700  14.465  68.990  1.00  0.00    -0.101 N  
HETATM   16  C   UNL     1      -7.268  13.677  68.005  1.00  0.00    -0.130 C  
HETATM   17  C   UNL     1      -6.024  13.877  70.138  1.00  0.00    -0.152 C  
HETATM   18  O   UNL     1      -7.881  14.114  67.037  1.00  0.00    -0.102 OA 
BRANCH  16  19
HETATM   19  O   UNL     1      -7.184  12.327  68.311  1.00  0.00    -0.085 OA 
BRANCH  19  20
HETATM   20  C   UNL     1      -8.375  11.801  68.824  1.00  0.00    -0.009 A  
HETATM   21  C   UNL     1      -9.544  12.505  68.564  1.00  0.00    -0.114 A  
HETATM   22  C   UNL     1     -10.755  11.945  68.958  1.00  0.00    -0.197 A  
HETATM   23  C   UNL     1     -10.790  10.704  69.601  1.00  0.00    -0.318 A  
HETATM   24  C   UNL     1      -9.608   9.994  69.876  1.00  0.00    -0.192 A  
HETATM   25  C   UNL     1      -8.401  10.544  69.444  1.00  0.00    -0.117 A  
BRANCH  24  26
HETATM   26  N   UNL     1      -9.629   8.617  70.520  1.00  0.00    -0.173 N  
HETATM   27  C   UNL     1      -9.099   8.670  71.949  1.00  0.00    -0.256 C  
HETATM   28  C   UNL     1      -8.732   7.643  69.744  1.00  0.00    -0.140 C  
HETATM   29  C   UNL     1     -11.070   8.125  70.513  1.00  0.00    -0.253 C  
ENDBRANCH  24  26
ENDBRANCH  19  20
ENDBRANCH  16  19
ENDBRANCH  14  15
ENDBRANCH  13  14
ENDBRANCH  12  13
ENDBRANCH  11  12
ENDBRANCH  10  11
ENDBRANCH   9  10
ENDBRANCH   8   9
ENDBRANCH   7   8
ENDBRANCH   6   7
ENDBRANCH   5   6
ENDBRANCH   2   5
BRANCH   4  30
HETATM   30  O   UNL     1     -11.886  14.356  66.016  1.00  0.00    -0.373 OA 
BRANCH  30  31
HETATM   31  C   UNL     1     -11.708  13.242  65.178  1.00  0.00    -0.330 A  
HETATM   32  C   UNL     1     -12.544  13.063  64.074  1.00  0.00    -0.289 A  
HETATM   33  C   UNL     1     -10.622  12.394  65.413  1.00  0.00    -0.316 A  
HETATM   34  C   UNL     1     -10.391  11.310  64.548  1.00  0.00    -0.322 A  
HETATM   35  C   UNL     1     -12.332  11.991  63.226  1.00  0.00    -0.553 A  
HETATM   36  C   UNL     1     -11.271  11.118  63.466  1.00  0.00     0.015 A  
BRANCH  34  37
HETATM   37  N   UNL     1      -9.288  10.298  64.834  1.00  0.00    -0.228 N  
HETATM   38  C   UNL     1      -9.711   9.296  65.909  1.00  0.00    -0.285 C  
HETATM   39  C   UNL     1      -8.951   9.491  63.581  1.00  0.00    -0.173 C  
HETATM   40  C   UNL     1      -8.072  11.086  65.327  1.00  0.00     0.158 C  
ENDBRANCH  34  37
ENDBRANCH  30  31
ENDBRANCH   4  30
TORSDOF 17
ENDMDL
MODEL      160
REMARK 921   NORMALIZED FREE ENERGY PREDICTED BY IDOCK:   -4.43 KCAL/MOL
REMARK 922        TOTAL FREE ENERGY PREDICTED BY IDOCK:  -11.07 KCAL/MOL
REMARK 923 INTER-LIGAND FREE ENERGY PREDICTED BY IDOCK:   -9.21 KCAL/MOL
REMARK 924 INTRA-LIGAND FREE ENERGY PREDICTED BY IDOCK:   -1.85 KCAL/MOL
REMARK 927      BINDING AFFINITY PREDICTED BY RF-SCORE:    0.00 PKD
ROOT
HETATM    1  C   UNL     1     -11.864  13.842  64.069  1.00  0.00    -0.370 C  
HETATM    2  N   UNL     1     -11.852  12.708  64.978  1.00  0.00    -0.373 N  
HETATM    3  O   UNL     1     -11.974  12.006  67.182  1.00  0.00    -0.601 OA 
HETATM    4  C   UNL     1     -12.095  12.884  66.333  1.00  0.00    -0.329 C  
ENDROOT
BRANCH   2   5
HETATM    5  C   UNL     1     -11.350  11.425  64.491  1.00  0.00    -0.114 C  
BRANCH   5   6
HETATM    6  C   UNL     1      -9.818  11.332  64.514  1.00  0.00    -0.317 C  
BRANCH   6   7
HETATM    7  C   UNL     1      -9.295  10.464  63.363  1.00  0.00    -0.334 C  
BRANCH   7   8
HETATM    8  C   UNL     1      -8.629   9.179  63.872  1.00  0.00    -0.188 C  
BRANCH   8   9
HETATM    9  C   UNL     1      -8.957   8.930  65.348  1.00  0.00    -0.232 C  
BRANCH   9  10
HETATM   10  C   UNL     1      -7.825   8.185  66.061  1.00  0.00    -0.093 C  
BRANCH  10  11
HETATM   11  C   UNL     1      -8.317   7.018  66.923  1.00  0.00    -0.118 C  
BRANCH  11  12
HETATM   12  C   UNL     1      -8.739   5.801  66.102  1.00  0.00    -0.139 C  
BRANCH  12  13
HETATM   13  C   UNL     1      -7.625   4.759  66.032  1.00  0.00    -0.090 C  
BRANCH  13  14
HETATM   14  C   UNL     1      -8.051   3.486  66.746  1.00  0.00    -0.091 C  
BRANCH  14  15
HETATM   15  N   UNL     1      -7.814   3.566  68.180  1.00  0.00    -0.067 N  
HETATM   16  C   UNL     1      -8.750   3.045  69.055  1.00  0.00    -0.083 C  
HETATM   17  C   UNL     1      -6.571   4.155  68.659  1.00  0.00    -0.045 C  
HETATM   18  O   UNL     1      -9.828   2.571  68.713  1.00  0.00     0.047 OA 
BRANCH  16  19
HETATM   19  O   UNL     1      -8.388   3.245  70.379  1.00  0.00    -0.051 OA 
BRANCH  19  20
HETATM   20  C   UNL     1      -9.374   3.893  71.130  1.00  0.00    -0.146 A  
HETATM   21  C   UNL     1      -9.792   3.271  72.301  1.00  0.00    -0.232 A  
HETATM   22  C   UNL     1     -10.683   3.947  73.128  1.00  0.00    -0.270 A  
HETATM   23  C   UNL     1     -11.147   5.221  72.784  1.00  0.00    -0.346 A  
HETATM   24  C   UNL     1     -10.736   5.848  71.594  1.00  0.00    -0.252 A  
HETATM   25  C   UNL     1      -9.814   5.180  70.790  1.00  0.00    -0.270 A  
BRANCH  24  26
HETATM   26  N   UNL     1     -11.182   7.256  71.233  1.00  0.00    -0.251 N  
HETATM   27  C   UNL     1     -10.768   7.614  69.809  1.00  0.00    -0.240 C  
HETATM   28  C   UNL     1     -10.528   8.286  72.163  1.00  0.00    -0.301 C  
HETATM   29  C   UNL     1     -12.697   7.311  71.368  1.00  0.00    -0.389 C  
ENDBRANCH  24  26
ENDBRANCH  19  20
ENDBRANCH  16  19
ENDBRANCH  14  15
ENDBRANCH  13  14
ENDBRANCH  12  13
ENDBRANCH  11  12
ENDBRANCH  10  11
ENDBRANCH   9  10
ENDBRANCH   8   9
ENDBRANCH   7   8
ENDBRANCH   6   7
ENDBRANCH   5   6
ENDBRANCH   2   5
BRANCH   4  30
HETATM   30  O   UNL     1     -12.427  14.204  66.650  1.00  0.00    -0.426 OA 
BRANCH  30  31
HETATM   31  C   UNL     1     -11.562  14.789  67.591  1.00  0.00    -0.354 A  
HETATM   32  C   UNL     1     -12.021  15.061  68.881  1.00  0.00    -0.287 A  
HETATM   33  C   UNL     1     -10.223  14.984  67.239  1.00  0.00    -0.242 A  
HETATM   34  C   UNL     1      -9.328  15.509  68.188  1.00  0.00    -0.197 A  
HETATM   35  C   UNL     1     -11.150  15.590  69.816  1.00  0.00    -0.300 A  
HETATM   36  C   UNL     1      -9.819  15.820  69.470  1.00  0.00    -0.283 A  
BRANCH  34  37
HETATM   37  N   UNL     1      -7.890  15.842  67.809  1.00  0.00    -0.133 N  
HETATM   38  C   UNL     1      -7.190  16.639  68.912  1.00  0.00    -0.219 C  
HETATM   39  C   UNL     1      -7.073  14.567  67.596  1.00  0.00    -0.183 C  
HETATM   40  C   UNL     1      -7.944  16.683  66.533  1.00  0.00    -0.307 C  
ENDBRANCH  34  37
ENDBRANCH  30  31
ENDBRANCH   4  30
TORSDOF 17
ENDMDL
MODEL      161
REMARK 921   NORMALIZED FREE ENERGY PREDICTED BY IDOCK:   -4.43 KCAL/MOL
REMARK 922        TOTAL FREE ENERGY PREDICTED BY IDOCK:  -11.06 KCAL/MOL
REMARK 923 INTER-LIGAND FREE ENERGY PREDICTED BY IDOCK:   -8.59 KCAL/MOL
REMARK 924 INTRA-LIGAND FREE ENERGY PREDICTED BY IDOCK:   -2.46 KCAL/MOL
REMARK 927      BINDING AFFINITY PREDICTED BY RF-SCORE:    0.00 PKD
ROOT
HETATM    1  C   UNL     1     -10.073   8.015  68.498  1.00  0.00    -0.199 C  
HETATM    2  N   UNL     1     -10.574   8.818  69.600  1.00  0.00    -0.221 N  
HETATM    3  O   UNL     1     -11.939   8.882  71.471  1.00  0.00    -0.294 OA 
HETATM    4  C   UNL     1     -11.371   8.251  70.585  1.00  0.00    -0.244 C  
ENDROOT
BRANCH   2   5
HETATM    5  C   UNL     1     -10.426  10.271  69.534  1.00  0.00    -0.244 C  
BRANCH   5   6
HETATM    6  C   UNL     1     -11.400  10.928  68.547  1.00  0.00    -0.367 C  
BRANCH   6   7
HETATM    7  C   UNL     1     -11.824  12.322  69.026  1.00  0.00    -0.358 C  
BRANCH   7   8
HETATM    8  C   UNL     1     -10.945  13.425  68.424  1.00  0.00    -0.291 C  
BRANCH   8   9
HETATM    9  C   UNL     1     -11.787  14.449  67.656  1.00  0.00    -0.412 C  
BRANCH   9  10
HETATM   10  C   UNL     1     -11.553  14.356  66.146  1.00  0.00    -0.372 C  
BRANCH  10  11
HETATM   11  C   UNL     1     -12.646  13.573  65.411  1.00  0.00    -0.531 C  
BRANCH  11  12
HETATM   12  C   UNL     1     -12.093  12.458  64.525  1.00  0.00    -0.492 C  
BRANCH  12  13
HETATM   13  C   UNL     1     -10.772  11.916  65.064  1.00  0.00    -0.341 C  
BRANCH  13  14
HETATM   14  C   UNL     1     -10.277  10.774  64.190  1.00  0.00    -0.344 C  
BRANCH  14  15
HETATM   15  N   UNL     1      -9.126  10.104  64.778  1.00  0.00    -0.201 N  
HETATM   16  C   UNL     1      -8.446   9.150  64.043  1.00  0.00    -0.184 C  
HETATM   17  C   UNL     1      -8.691  10.488  66.113  1.00  0.00    -0.158 C  
HETATM   18  O   UNL     1      -8.786   8.760  62.931  1.00  0.00    -0.158 OA 
BRANCH  16  19
HETATM   19  O   UNL     1      -7.408   8.583  64.768  1.00  0.00    -0.086 OA 
BRANCH  19  20
HETATM   20  C   UNL     1      -7.347   7.190  64.649  1.00  0.00    -0.079 A  
HETATM   21  C   UNL     1      -6.254   6.657  63.975  1.00  0.00    -0.035 A  
HETATM   22  C   UNL     1      -6.106   5.275  63.945  1.00  0.00    -0.022 A  
HETATM   23  C   UNL     1      -7.037   4.444  64.576  1.00  0.00    -0.054 A  
HETATM   24  C   UNL     1      -8.150   4.979  65.248  1.00  0.00    -0.117 A  
HETATM   25  C   UNL     1      -8.271   6.367  65.307  1.00  0.00    -0.137 A  
BRANCH  24  26
HETATM   26  N   UNL     1      -9.140   4.097  65.992  1.00  0.00    -0.129 N  
HETATM   27  C   UNL     1      -8.790   4.008  67.474  1.00  0.00    -0.115 C  
HETATM   28  C   UNL     1      -9.112   2.666  65.439  1.00  0.00    -0.129 C  
HETATM   29  C   UNL     1     -10.524   4.703  65.816  1.00  0.00    -0.255 C  
ENDBRANCH  24  26
ENDBRANCH  19  20
ENDBRANCH  16  19
ENDBRANCH  14  15
ENDBRANCH  13  14
ENDBRANCH  12  13
ENDBRANCH  11  12
ENDBRANCH  10  11
ENDBRANCH   9  10
ENDBRANCH   8   9
ENDBRANCH   7   8
ENDBRANCH   6   7
ENDBRANCH   5   6
ENDBRANCH   2   5
BRANCH   4  30
HETATM   30  O   UNL     1     -11.524   6.871  70.420  1.00  0.00    -0.308 OA 
BRANCH  30  31
HETATM   31  C   UNL     1     -10.914   6.115  71.435  1.00  0.00    -0.277 A  
HETATM   32  C   UNL     1     -11.655   5.728  72.553  1.00  0.00    -0.321 A  
HETATM   33  C   UNL     1      -9.601   5.674  71.245  1.00  0.00    -0.198 A  
HETATM   34  C   UNL     1      -8.996   4.863  72.221  1.00  0.00    -0.130 A  
HETATM   35  C   UNL     1     -11.062   4.941  73.524  1.00  0.00    -0.405 A  
HETATM   36  C   UNL     1      -9.743   4.521  73.364  1.00  0.00    -0.151 A  
BRANCH  34  37
HETATM   37  N   UNL     1      -7.531   4.457  72.105  1.00  0.00    -0.070 N  
HETATM   38  C   UNL     1      -6.977   4.748  70.710  1.00  0.00    -0.037 C  
HETATM   39  C   UNL     1      -6.669   5.239  73.097  1.00  0.00    -0.076 C  
HETATM   40  C   UNL     1      -7.457   2.954  72.376  1.00  0.00    -0.052 C  
ENDBRANCH  34  37
ENDBRANCH  30  31
ENDBRANCH   4  30
TORSDOF 17
ENDMDL
MODEL      162
REMARK 921   NORMALIZED FREE ENERGY PREDICTED BY IDOCK:   -4.41 KCAL/MOL
REMARK 922        TOTAL FREE ENERGY PREDICTED BY IDOCK:  -11.02 KCAL/MOL
REMARK 923 INTER-LIGAND FREE ENERGY PREDICTED BY IDOCK:   -8.85 KCAL/MOL
REMARK 924 INTRA-LIGAND FREE ENERGY PREDICTED BY IDOCK:   -2.17 KCAL/MOL
REMARK 927      BINDING AFFINITY PREDICTED BY RF-SCORE:    0.00 PKD
ROOT
HETATM    1  C   UNL     1     -12.860  10.528  71.490  1.00  0.00    -0.463 C  
HETATM    2  N   UNL     1     -11.571  10.312  70.855  1.00  0.00    -0.359 N  
HETATM    3  O   UNL     1     -10.317  10.530  68.920  1.00  0.00    -0.185 OA 
HETATM    4  C   UNL     1     -11.325  10.783  69.573  1.00  0.00    -0.289 C  
ENDROOT
BRANCH   2   5
HETATM    5  C   UNL     1     -10.625   9.392  71.485  1.00  0.00    -0.261 C  
BRANCH   5   6
HETATM    6  C   UNL     1     -10.975   7.917  71.247  1.00  0.00    -0.266 C  
BRANCH   6   7
HETATM    7  C   UNL     1     -11.440   7.238  72.541  1.00  0.00    -0.322 C  
BRANCH   7   8
HETATM    8  C   UNL     1     -10.268   6.944  73.486  1.00  0.00    -0.345 C  
BRANCH   8   9
HETATM    9  C   UNL     1     -10.500   5.652  74.275  1.00  0.00    -0.255 C  
BRANCH   9  10
HETATM   10  C   UNL     1      -9.734   4.473  73.668  1.00  0.00    -0.154 C  
BRANCH  10  11
HETATM   11  C   UNL     1     -10.331   3.978  72.346  1.00  0.00    -0.207 C  
BRANCH  11  12
HETATM   12  C   UNL     1      -9.272   3.614  71.308  1.00  0.00    -0.197 C  
BRANCH  12  13
HETATM   13  C   UNL     1      -9.284   4.586  70.130  1.00  0.00    -0.197 C  
BRANCH  13  14
HETATM   14  C   UNL     1      -8.347   5.753  70.402  1.00  0.00    -0.121 C  
BRANCH  14  15
HETATM   15  N   UNL     1      -7.441   5.989  69.288  1.00  0.00    -0.087 N  
HETATM   16  C   UNL     1      -7.739   6.975  68.366  1.00  0.00    -0.120 C  
HETATM   17  C   UNL     1      -6.214   5.209  69.198  1.00  0.00    -0.033 C  
HETATM   18  O   UNL     1      -8.771   7.637  68.369  1.00  0.00    -0.128 OA 
BRANCH  16  19
HETATM   19  O   UNL     1      -6.795   7.035  67.350  1.00  0.00    -0.068 OA 
BRANCH  19  20
HETATM   20  C   UNL     1      -7.333   6.794  66.081  1.00  0.00    -0.072 A  
HETATM   21  C   UNL     1      -7.171   7.788  65.123  1.00  0.00    -0.065 A  
HETATM   22  C   UNL     1      -7.589   7.527  63.823  1.00  0.00    -0.118 A  
HETATM   23  C   UNL     1      -8.160   6.294  63.492  1.00  0.00    -0.049 A  
HETATM   24  C   UNL     1      -8.337   5.292  64.460  1.00  0.00    -0.138 A  
HETATM   25  C   UNL     1      -7.880   5.545  65.753  1.00  0.00    -0.104 A  
BRANCH  24  26
HETATM   26  N   UNL     1      -8.899   3.924  64.107  1.00  0.00    -0.113 N  
HETATM   27  C   UNL     1     -10.376   3.825  64.478  1.00  0.00    -0.200 C  
HETATM   28  C   UNL     1      -8.167   2.821  64.883  1.00  0.00    -0.087 C  
HETATM   29  C   UNL     1      -8.720   3.722  62.610  1.00  0.00    -0.091 C  
ENDBRANCH  24  26
ENDBRANCH  19  20
ENDBRANCH  16  19
ENDBRANCH  14  15
ENDBRANCH  13  14
ENDBRANCH  12  13
ENDBRANCH  11  12
ENDBRANCH  10  11
ENDBRANCH   9  10
ENDBRANCH   8   9
ENDBRANCH   7   8
ENDBRANCH   6   7
ENDBRANCH   5   6
ENDBRANCH   2   5
BRANCH   4  30
HETATM   30  O   UNL     1     -12.391  11.529  69.063  1.00  0.00    -0.360 OA 
BRANCH  30  31
HETATM   31  C   UNL     1     -12.027  12.826  68.664  1.00  0.00    -0.233 A  
HETATM   32  C   UNL     1     -11.822  13.816  69.627  1.00  0.00    -0.393 A  
HETATM   33  C   UNL     1     -11.771  13.065  67.311  1.00  0.00    -0.429 A  
HETATM   34  C   UNL     1     -11.344  14.340  66.902  1.00  0.00    -0.343 A  
HETATM   35  C   UNL     1     -11.414  15.078  69.231  1.00  0.00    -0.326 A  
HETATM   36  C   UNL     1     -11.186  15.339  67.881  1.00  0.00    -0.333 A  
BRANCH  34  37
HETATM   37  N   UNL     1     -11.165  14.671  65.425  1.00  0.00    -0.334 N  
HETATM   38  C   UNL     1     -10.420  13.558  64.687  1.00  0.00    -0.421 C  
HETATM   39  C   UNL     1     -12.520  14.833  64.735  1.00  0.00    -0.210 C  
HETATM   40  C   UNL     1     -10.350  15.963  65.349  1.00  0.00    -0.372 C  
ENDBRANCH  34  37
ENDBRANCH  30  31
ENDBRANCH   4  30
TORSDOF 17
ENDMDL
MODEL      163
REMARK 921   NORMALIZED FREE ENERGY PREDICTED BY IDOCK:   -4.39 KCAL/MOL
REMARK 922        TOTAL FREE ENERGY PREDICTED BY IDOCK:  -10.99 KCAL/MOL
REMARK 923 INTER-LIGAND FREE ENERGY PREDICTED BY IDOCK:   -9.34 KCAL/MOL
REMARK 924 INTRA-LIGAND FREE ENERGY PREDICTED BY IDOCK:   -1.65 KCAL/MOL
REMARK 927      BINDING AFFINITY PREDICTED BY RF-SCORE:    0.00 PKD
ROOT
HETATM    1  C   UNL     1      -6.093   7.943  66.049  1.00  0.00    -0.038 C  
HETATM    2  N   UNL     1      -6.242   9.388  66.021  1.00  0.00    -0.066 N  
HETATM    3  O   UNL     1      -6.783  11.292  67.225  1.00  0.00    -0.086 OA 
HETATM    4  C   UNL     1      -6.514  10.095  67.184  1.00  0.00    -0.068 C  
ENDROOT
BRANCH   2   5
HETATM    5  C   UNL     1      -6.338  10.058  64.726  1.00  0.00    -0.127 C  
BRANCH   5   6
HETATM    6  C   UNL     1      -7.331   9.380  63.772  1.00  0.00    -0.108 C  
BRANCH   6   7
HETATM    7  C   UNL     1      -8.743   9.346  64.368  1.00  0.00    -0.227 C  
BRANCH   7   8
HETATM    8  C   UNL     1      -9.232  10.746  64.761  1.00  0.00    -0.245 C  
BRANCH   8   9
HETATM    9  C   UNL     1     -10.618  11.035  64.175  1.00  0.00    -0.412 C  
BRANCH   9  10
HETATM   10  C   UNL     1     -10.711  12.459  63.618  1.00  0.00    -0.497 C  
BRANCH  10  11
HETATM   11  C   UNL     1     -12.110  13.069  63.747  1.00  0.00    -0.574 C  
BRANCH  11  12
HETATM   12  C   UNL     1     -12.646  13.047  65.177  1.00  0.00    -0.530 C  
BRANCH  12  13
HETATM   13  C   UNL     1     -11.846  13.971  66.091  1.00  0.00    -0.422 C  
BRANCH  13  14
HETATM   14  C   UNL     1     -11.511  13.261  67.394  1.00  0.00    -0.332 C  
BRANCH  14  15
HETATM   15  N   UNL     1     -11.003  14.185  68.397  1.00  0.00    -0.246 N  
HETATM   16  C   UNL     1      -9.656  14.495  68.416  1.00  0.00    -0.213 C  
HETATM   17  C   UNL     1     -11.937  14.799  69.331  1.00  0.00    -0.303 C  
HETATM   18  O   UNL     1      -8.818  13.985  67.680  1.00  0.00    -0.170 OA 
BRANCH  16  19
HETATM   19  O   UNL     1      -9.337  15.352  69.459  1.00  0.00    -0.265 OA 
BRANCH  19  20
HETATM   20  C   UNL     1      -8.362  16.297  69.120  1.00  0.00    -0.211 A  
HETATM   21  C   UNL     1      -7.034  15.943  69.331  1.00  0.00    -0.211 A  
HETATM   22  C   UNL     1      -6.041  16.812  68.893  1.00  0.00    -0.157 A  
HETATM   23  C   UNL     1      -6.374  18.014  68.260  1.00  0.00    -0.189 A  
HETATM   24  C   UNL     1      -7.715  18.381  68.057  1.00  0.00    -0.261 A  
HETATM   25  C   UNL     1      -8.705  17.487  68.463  1.00  0.00    -0.282 A  
BRANCH  24  26
HETATM   26  N   UNL     1      -8.097  19.653  67.317  1.00  0.00    -0.273 N  
HETATM   27  C   UNL     1      -7.253  20.834  67.784  1.00  0.00    -0.234 C  
HETATM   28  C   UNL     1      -9.563  20.016  67.584  1.00  0.00    -0.389 C  
HETATM   29  C   UNL     1      -7.878  19.408  65.831  1.00  0.00    -0.215 C  
ENDBRANCH  24  26
ENDBRANCH  19  20
ENDBRANCH  16  19
ENDBRANCH  14  15
ENDBRANCH  13  14
ENDBRANCH  12  13
ENDBRANCH  11  12
ENDBRANCH  10  11
ENDBRANCH   9  10
ENDBRANCH   8   9
ENDBRANCH   7   8
ENDBRANCH   6   7
ENDBRANCH   5   6
ENDBRANCH   2   5
BRANCH   4  30
HETATM   30  O   UNL     1      -6.522   9.277  68.318  1.00  0.00    -0.054 OA 
BRANCH  30  31
HETATM   31  C   UNL     1      -7.799   9.114  68.882  1.00  0.00    -0.094 A  
HETATM   32  C   UNL     1      -8.508  10.231  69.328  1.00  0.00    -0.172 A  
HETATM   33  C   UNL     1      -8.374   7.840  68.881  1.00  0.00    -0.128 A  
HETATM   34  C   UNL     1      -9.676   7.669  69.383  1.00  0.00    -0.165 A  
HETATM   35  C   UNL     1      -9.785  10.069  69.836  1.00  0.00    -0.245 A  
HETATM   36  C   UNL     1     -10.359   8.799  69.871  1.00  0.00    -0.212 A  
BRANCH  34  37
HETATM   37  N   UNL     1     -10.293   6.280  69.505  1.00  0.00    -0.195 N  
HETATM   38  C   UNL     1     -10.568   5.667  68.131  1.00  0.00    -0.183 C  
HETATM   39  C   UNL     1      -9.349   5.327  70.237  1.00  0.00    -0.158 C  
HETATM   40  C   UNL     1     -11.613   6.439  70.261  1.00  0.00    -0.383 C  
ENDBRANCH  34  37
ENDBRANCH  30  31
ENDBRANCH   4  30
TORSDOF 17
ENDMDL
MODEL      164
REMARK 921   NORMALIZED FREE ENERGY PREDICTED BY IDOCK:   -4.38 KCAL/MOL
REMARK 922        TOTAL FREE ENERGY PREDICTED BY IDOCK:  -10.97 KCAL/MOL
REMARK 923 INTER-LIGAND FREE ENERGY PREDICTED BY IDOCK:   -9.05 KCAL/MOL
REMARK 924 INTRA-LIGAND FREE ENERGY PREDICTED BY IDOCK:   -1.93 KCAL/MOL
REMARK 927      BINDING AFFINITY PREDICTED BY RF-SCORE:    0.00 PKD
ROOT
HETATM    1  C   UNL     1     -10.987  16.290  65.334  1.00  0.00    -0.197 C  
HETATM    2  N   UNL     1     -10.378  15.755  66.540  1.00  0.00    -0.286 N  
HETATM    3  O   UNL     1     -10.562  14.235  68.279  1.00  0.00    -0.235 OA 
HETATM    4  C   UNL     1     -10.936  14.663  67.191  1.00  0.00    -0.316 C  
ENDROOT
BRANCH   2   5
HETATM    5  C   UNL     1      -9.314  16.520  67.187  1.00  0.00    -0.233 C  
BRANCH   5   6
HETATM    6  C   UNL     1      -8.257  17.032  66.199  1.00  0.00    -0.284 C  
BRANCH   6   7
HETATM    7  C   UNL     1      -6.837  16.792  66.727  1.00  0.00    -0.265 C  
BRANCH   7   8
HETATM    8  C   UNL     1      -6.745  17.014  68.242  1.00  0.00    -0.158 C  
BRANCH   8   9
HETATM    9  C   UNL     1      -5.503  16.336  68.829  1.00  0.00    -0.109 C  
BRANCH   9  10
HETATM   10  C   UNL     1      -5.840  15.526  70.084  1.00  0.00    -0.148 C  
BRANCH  10  11
HETATM   11  C   UNL     1      -6.210  14.069  69.784  1.00  0.00    -0.137 C  
BRANCH  11  12
HETATM   12  C   UNL     1      -5.644  13.084  70.805  1.00  0.00    -0.183 C  
BRANCH  12  13
HETATM   13  C   UNL     1      -5.479  11.689  70.206  1.00  0.00    -0.125 C  
BRANCH  13  14
HETATM   14  C   UNL     1      -6.782  11.235  69.566  1.00  0.00    -0.128 C  
BRANCH  14  15
HETATM   15  N   UNL     1      -7.369  10.109  70.276  1.00  0.00    -0.151 N  
HETATM   16  C   UNL     1      -8.701   9.796  70.073  1.00  0.00    -0.209 C  
HETATM   17  C   UNL     1      -6.525   9.307  71.151  1.00  0.00    -0.083 C  
HETATM   18  O   UNL     1      -9.469  10.453  69.379  1.00  0.00    -0.216 OA 
BRANCH  16  19
HETATM   19  O   UNL     1      -9.106   8.726  70.858  1.00  0.00    -0.170 OA 
BRANCH  19  20
HETATM   20  C   UNL     1      -9.528   7.621  70.112  1.00  0.00    -0.161 A  
HETATM   21  C   UNL     1     -10.869   7.267  70.203  1.00  0.00    -0.274 A  
HETATM   22  C   UNL     1     -11.342   6.250  69.382  1.00  0.00    -0.448 A  
HETATM   23  C   UNL     1     -10.485   5.597  68.490  1.00  0.00    -0.273 A  
HETATM   24  C   UNL     1      -9.125   5.943  68.404  1.00  0.00    -0.115 A  
HETATM   25  C   UNL     1      -8.667   6.991  69.202  1.00  0.00    -0.132 A  
BRANCH  24  26
HETATM   26  N   UNL     1      -8.191   5.288  67.398  1.00  0.00    -0.104 N  
HETATM   27  C   UNL     1      -7.894   3.844  67.786  1.00  0.00    -0.078 C  
HETATM   28  C   UNL     1      -6.847   6.025  67.349  1.00  0.00    -0.063 C  
HETATM   29  C   UNL     1      -8.869   5.338  66.037  1.00  0.00    -0.141 C  
ENDBRANCH  24  26
ENDBRANCH  19  20
ENDBRANCH  16  19
ENDBRANCH  14  15
ENDBRANCH  13  14
ENDBRANCH  12  13
ENDBRANCH  11  12
ENDBRANCH  10  11
ENDBRANCH   9  10
ENDBRANCH   8   9
ENDBRANCH   7   8
ENDBRANCH   6   7
ENDBRANCH   5   6
ENDBRANCH   2   5
BRANCH   4  30
HETATM   30  O   UNL     1     -12.033  14.135  66.505  1.00  0.00    -0.406 OA 
BRANCH  30  31
HETATM   31  C   UNL     1     -11.684  13.157  65.559  1.00  0.00    -0.357 A  
HETATM   32  C   UNL     1     -12.234  13.204  64.276  1.00  0.00    -0.463 A  
HETATM   33  C   UNL     1     -10.706  12.217  65.896  1.00  0.00    -0.302 A  
HETATM   34  C   UNL     1     -10.298  11.270  64.941  1.00  0.00    -0.304 A  
HETATM   35  C   UNL     1     -11.847  12.267  63.335  1.00  0.00    -0.563 A  
HETATM   36  C   UNL     1     -10.895  11.304  63.667  1.00  0.00    -0.410 A  
BRANCH  34  37
HETATM   37  N   UNL     1      -9.318  10.160  65.305  1.00  0.00    -0.203 N  
HETATM   38  C   UNL     1      -9.988   9.078  66.152  1.00  0.00    -0.241 C  
HETATM   39  C   UNL     1      -8.782   9.473  64.049  1.00  0.00    -0.216 C  
HETATM   40  C   UNL     1      -8.186  10.804  66.107  1.00  0.00    -0.163 C  
ENDBRANCH  34  37
ENDBRANCH  30  31
ENDBRANCH   4  30
TORSDOF 17
ENDMDL
MODEL      165
REMARK 921   NORMALIZED FREE ENERGY PREDICTED BY IDOCK:   -4.38 KCAL/MOL
REMARK 922        TOTAL FREE ENERGY PREDICTED BY IDOCK:  -10.96 KCAL/MOL
REMARK 923 INTER-LIGAND FREE ENERGY PREDICTED BY IDOCK:   -8.64 KCAL/MOL
REMARK 924 INTRA-LIGAND FREE ENERGY PREDICTED BY IDOCK:   -2.33 KCAL/MOL
REMARK 927      BINDING AFFINITY PREDICTED BY RF-SCORE:    0.00 PKD
ROOT
HETATM    1  C   UNL     1      -8.575   2.084  68.580  1.00  0.00    -0.065 C  
HETATM    2  N   UNL     1      -8.895   2.981  69.677  1.00  0.00    -0.077 N  
HETATM    3  O   UNL     1      -9.840   5.003  70.298  1.00  0.00    -0.194 OA 
HETATM    4  C   UNL     1      -9.640   4.132  69.457  1.00  0.00    -0.204 C  
ENDROOT
BRANCH   2   5
HETATM    5  C   UNL     1      -8.227   2.784  70.962  1.00  0.00    -0.057 C  
BRANCH   5   6
HETATM    6  C   UNL     1      -6.701   2.925  70.872  1.00  0.00    -0.032 C  
BRANCH   6   7
HETATM    7  C   UNL     1      -6.173   3.938  71.895  1.00  0.00    -0.014 C  
BRANCH   7   8
HETATM    8  C   UNL     1      -7.249   4.340  72.911  1.00  0.00    -0.069 C  
BRANCH   8   9
HETATM    9  C   UNL     1      -6.704   5.346  73.930  1.00  0.00    -0.076 C  
BRANCH   9  10
HETATM   10  C   UNL     1      -7.755   6.393  74.310  1.00  0.00    -0.094 C  
BRANCH  10  11
HETATM   11  C   UNL     1      -8.704   6.744  73.159  1.00  0.00    -0.137 C  
BRANCH  11  12
HETATM   12  C   UNL     1     -10.169   6.804  73.586  1.00  0.00    -0.354 C  
BRANCH  12  13
HETATM   13  C   UNL     1     -11.052   7.378  72.481  1.00  0.00    -0.350 C  
BRANCH  13  14
HETATM   14  C   UNL     1     -10.557   8.758  72.075  1.00  0.00    -0.344 C  
BRANCH  14  15
HETATM   15  N   UNL     1     -11.610   9.548  71.455  1.00  0.00    -0.381 N  
HETATM   16  C   UNL     1     -11.370  10.172  70.245  1.00  0.00    -0.315 C  
HETATM   17  C   UNL     1     -12.911   9.626  72.105  1.00  0.00    -0.406 C  
HETATM   18  O   UNL     1     -10.287  10.172  69.669  1.00  0.00    -0.219 OA 
BRANCH  16  19
HETATM   19  O   UNL     1     -12.461  10.915  69.821  1.00  0.00    -0.311 OA 
BRANCH  19  20
HETATM   20  C   UNL     1     -12.104  12.061  69.101  1.00  0.00    -0.183 A  
HETATM   21  C   UNL     1     -11.815  13.207  69.832  1.00  0.00    -0.378 A  
HETATM   22  C   UNL     1     -11.342  14.324  69.152  1.00  0.00    -0.312 A  
HETATM   23  C   UNL     1     -11.166  14.291  67.764  1.00  0.00    -0.309 A  
HETATM   24  C   UNL     1     -11.469  13.138  67.020  1.00  0.00    -0.336 A  
HETATM   25  C   UNL     1     -11.906  12.010  67.714  1.00  0.00    -0.308 A  
BRANCH  24  26
HETATM   26  N   UNL     1     -11.227  13.063  65.521  1.00  0.00    -0.285 N  
HETATM   27  C   UNL     1     -10.937  14.444  64.942  1.00  0.00    -0.406 C  
HETATM   28  C   UNL     1     -12.469  12.525  64.798  1.00  0.00    -0.457 C  
HETATM   29  C   UNL     1     -10.041  12.138  65.289  1.00  0.00    -0.265 C  
ENDBRANCH  24  26
ENDBRANCH  19  20
ENDBRANCH  16  19
ENDBRANCH  14  15
ENDBRANCH  13  14
ENDBRANCH  12  13
ENDBRANCH  11  12
ENDBRANCH  10  11
ENDBRANCH   9  10
ENDBRANCH   8   9
ENDBRANCH   7   8
ENDBRANCH   6   7
ENDBRANCH   5   6
ENDBRANCH   2   5
BRANCH   4  30
HETATM   30  O   UNL     1     -10.088   4.235  68.137  1.00  0.00    -0.027 OA 
BRANCH  30  31
HETATM   31  C   UNL     1      -9.893   5.509  67.578  1.00  0.00    -0.144 A  
HETATM   32  C   UNL     1     -10.938   6.434  67.577  1.00  0.00    -0.454 A  
HETATM   33  C   UNL     1      -8.614   5.857  67.131  1.00  0.00    -0.106 A  
HETATM   34  C   UNL     1      -8.385   7.149  66.627  1.00  0.00    -0.114 A  
HETATM   35  C   UNL     1     -10.724   7.704  67.071  1.00  0.00    -0.340 A  
HETATM   36  C   UNL     1      -9.462   8.054  66.592  1.00  0.00    -0.273 A  
BRANCH  34  37
HETATM   37  N   UNL     1      -7.037   7.529  66.026  1.00  0.00    -0.068 N  
HETATM   38  C   UNL     1      -5.930   7.522  67.082  1.00  0.00    -0.046 C  
HETATM   39  C   UNL     1      -6.623   6.533  64.943  1.00  0.00    -0.042 C  
HETATM   40  C   UNL     1      -7.181   8.939  65.453  1.00  0.00    -0.084 C  
ENDBRANCH  34  37
ENDBRANCH  30  31
ENDBRANCH   4  30
TORSDOF 17
ENDMDL
MODEL      166
REMARK 921   NORMALIZED FREE ENERGY PREDICTED BY IDOCK:   -4.37 KCAL/MOL
REMARK 922        TOTAL FREE ENERGY PREDICTED BY IDOCK:  -10.94 KCAL/MOL
REMARK 923 INTER-LIGAND FREE ENERGY PREDICTED BY IDOCK:   -9.26 KCAL/MOL
REMARK 924 INTRA-LIGAND FREE ENERGY PREDICTED BY IDOCK:   -1.68 KCAL/MOL
REMARK 927      BINDING AFFINITY PREDICTED BY RF-SCORE:    0.00 PKD
ROOT
HETATM    1  C   UNL     1      -9.053   5.990  70.536  1.00  0.00    -0.149 C  
HETATM    2  N   UNL     1     -10.175   6.598  69.841  1.00  0.00    -0.182 N  
HETATM    3  O   UNL     1     -10.844   8.016  68.135  1.00  0.00    -0.079 OA 
HETATM    4  C   UNL     1      -9.971   7.365  68.702  1.00  0.00    -0.169 C  
ENDROOT
BRANCH   2   5
HETATM    5  C   UNL     1     -11.487   6.591  70.485  1.00  0.00    -0.387 C  
BRANCH   5   6
HETATM    6  C   UNL     1     -11.409   6.777  72.007  1.00  0.00    -0.308 C  
BRANCH   6   7
HETATM    7  C   UNL     1     -11.626   8.243  72.401  1.00  0.00    -0.464 C  
BRANCH   7   8
HETATM    8  C   UNL     1     -12.376   9.023  71.314  1.00  0.00    -0.361 C  
BRANCH   8   9
HETATM    9  C   UNL     1     -11.599  10.272  70.889  1.00  0.00    -0.454 C  
BRANCH   9  10
HETATM   10  C   UNL     1     -12.266  10.979  69.705  1.00  0.00    -0.388 C  
BRANCH  10  11
HETATM   11  C   UNL     1     -11.502  12.220  69.233  1.00  0.00    -0.352 C  
BRANCH  11  12
HETATM   12  C   UNL     1     -10.196  11.885  68.516  1.00  0.00    -0.221 C  
BRANCH  12  13
HETATM   13  C   UNL     1     -10.092  12.603  67.173  1.00  0.00    -0.224 C  
BRANCH  13  14
HETATM   14  C   UNL     1      -8.881  13.524  67.161  1.00  0.00    -0.226 C  
BRANCH  14  15
HETATM   15  N   UNL     1      -9.122  14.742  67.920  1.00  0.00    -0.180 N  
HETATM   16  C   UNL     1      -9.937  15.725  67.389  1.00  0.00    -0.237 C  
HETATM   17  C   UNL     1      -8.533  14.877  69.245  1.00  0.00    -0.116 C  
HETATM   18  O   UNL     1     -10.430  15.684  66.267  1.00  0.00    -0.288 OA 
BRANCH  16  19
HETATM   19  O   UNL     1     -10.022  16.831  68.222  1.00  0.00    -0.252 OA 
BRANCH  19  20
HETATM   20  C   UNL     1      -9.528  18.002  67.638  1.00  0.00    -0.264 A  
HETATM   21  C   UNL     1     -10.319  19.141  67.728  1.00  0.00    -0.513 A  
HETATM   22  C   UNL     1      -9.802  20.345  67.262  1.00  0.00    -0.597 A  
HETATM   23  C   UNL     1      -8.516  20.403  66.714  1.00  0.00    -0.275 A  
HETATM   24  C   UNL     1      -7.718  19.251  66.610  1.00  0.00    -0.255 A  
HETATM   25  C   UNL     1      -8.228  18.056  67.114  1.00  0.00    -0.231 A  
BRANCH  24  26
HETATM   26  N   UNL     1      -6.296  19.305  66.073  1.00  0.00    -0.187 N  
HETATM   27  C   UNL     1      -5.453  20.309  66.853  1.00  0.00    -0.165 C  
HETATM   28  C   UNL     1      -6.288  19.755  64.607  1.00  0.00    -0.217 C  
HETATM   29  C   UNL     1      -5.701  17.910  66.200  1.00  0.00    -0.200 C  
ENDBRANCH  24  26
ENDBRANCH  19  20
ENDBRANCH  16  19
ENDBRANCH  14  15
ENDBRANCH  13  14
ENDBRANCH  12  13
ENDBRANCH  11  12
ENDBRANCH  10  11
ENDBRANCH   9  10
ENDBRANCH   8   9
ENDBRANCH   7   8
ENDBRANCH   6   7
ENDBRANCH   5   6
ENDBRANCH   2   5
BRANCH   4  30
HETATM   30  O   UNL     1      -8.633   7.378  68.298  1.00  0.00    -0.124 OA 
BRANCH  30  31
HETATM   31  C   UNL     1      -8.456   7.078  66.937  1.00  0.00    -0.119 A  
HETATM   32  C   UNL     1      -8.054   8.080  66.051  1.00  0.00    -0.110 A  
HETATM   33  C   UNL     1      -8.582   5.749  66.522  1.00  0.00    -0.121 A  
HETATM   34  C   UNL     1      -8.346   5.419  65.176  1.00  0.00    -0.144 A  
HETATM   35  C   UNL     1      -7.832   7.765  64.723  1.00  0.00    -0.129 A  
HETATM   36  C   UNL     1      -7.986   6.450  64.288  1.00  0.00    -0.102 A  
BRANCH  34  37
HETATM   37  N   UNL     1      -8.584   4.004  64.661  1.00  0.00    -0.113 N  
HETATM   38  C   UNL     1      -8.573   2.984  65.801  1.00  0.00    -0.116 C  
HETATM   39  C   UNL     1      -9.948   3.894  63.980  1.00  0.00    -0.186 C  
HETATM   40  C   UNL     1      -7.452   3.684  63.684  1.00  0.00    -0.059 C  
ENDBRANCH  34  37
ENDBRANCH  30  31
ENDBRANCH   4  30
TORSDOF 17
ENDMDL
MODEL      167
REMARK 921   NORMALIZED FREE ENERGY PREDICTED BY IDOCK:   -4.35 KCAL/MOL
REMARK 922        TOTAL FREE ENERGY PREDICTED BY IDOCK:  -10.91 KCAL/MOL
REMARK 923 INTER-LIGAND FREE ENERGY PREDICTED BY IDOCK:   -9.25 KCAL/MOL
REMARK 924 INTRA-LIGAND FREE ENERGY PREDICTED BY IDOCK:   -1.65 KCAL/MOL
REMARK 927      BINDING AFFINITY PREDICTED BY RF-SCORE:    0.00 PKD
ROOT
HETATM    1  C   UNL     1     -10.200  10.960  69.014  1.00  0.00    -0.203 C  
HETATM    2  N   UNL     1     -11.329  11.863  69.156  1.00  0.00    -0.259 N  
HETATM    3  O   UNL     1     -12.285  13.869  68.500  1.00  0.00    -0.342 OA 
HETATM    4  C   UNL     1     -11.439  12.992  68.356  1.00  0.00    -0.310 C  
ENDROOT
BRANCH   2   5
HETATM    5  C   UNL     1     -12.219  11.699  70.304  1.00  0.00    -0.318 C  
BRANCH   5   6
HETATM    6  C   UNL     1     -12.813  10.287  70.405  1.00  0.00    -0.202 C  
BRANCH   6   7
HETATM    7  C   UNL     1     -13.324   9.997  71.822  1.00  0.00    -0.492 C  
BRANCH   7   8
HETATM    8  C   UNL     1     -12.694   8.727  72.408  1.00  0.00    -0.433 C  
BRANCH   8   9
HETATM    9  C   UNL     1     -12.564   7.630  71.347  1.00  0.00    -0.359 C  
BRANCH   9  10
HETATM   10  C   UNL     1     -11.746   6.441  71.860  1.00  0.00    -0.378 C  
BRANCH  10  11
HETATM   11  C   UNL     1     -10.233   6.669  71.784  1.00  0.00    -0.206 C  
BRANCH  11  12
HETATM   12  C   UNL     1      -9.420   5.413  72.092  1.00  0.00    -0.164 C  
BRANCH  12  13
HETATM   13  C   UNL     1      -8.824   4.807  70.824  1.00  0.00    -0.153 C  
BRANCH  13  14
HETATM   14  C   UNL     1      -9.929   4.251  69.938  1.00  0.00    -0.109 C  
BRANCH  14  15
HETATM   15  N   UNL     1      -9.618   4.408  68.525  1.00  0.00    -0.154 N  
HETATM   16  C   UNL     1      -9.944   5.589  67.883  1.00  0.00    -0.149 C  
HETATM   17  C   UNL     1      -8.926   3.331  67.829  1.00  0.00    -0.150 C  
HETATM   18  O   UNL     1     -10.557   6.513  68.405  1.00  0.00    -0.197 OA 
BRANCH  16  19
HETATM   19  O   UNL     1      -9.618   5.551  66.535  1.00  0.00    -0.143 OA 
BRANCH  19  20
HETATM   20  C   UNL     1      -8.650   6.495  66.174  1.00  0.00    -0.145 A  
HETATM   21  C   UNL     1      -7.346   6.040  66.019  1.00  0.00    -0.077 A  
HETATM   22  C   UNL     1      -6.387   6.929  65.546  1.00  0.00    -0.043 A  
HETATM   23  C   UNL     1      -6.731   8.249  65.237  1.00  0.00    -0.052 A  
HETATM   24  C   UNL     1      -8.046   8.716  65.404  1.00  0.00    -0.121 A  
HETATM   25  C   UNL     1      -9.010   7.809  65.843  1.00  0.00    -0.155 A  
BRANCH  24  26
HETATM   26  N   UNL     1      -8.452  10.130  65.017  1.00  0.00    -0.155 N  
HETATM   27  C   UNL     1      -9.963  10.312  65.115  1.00  0.00    -0.325 C  
HETATM   28  C   UNL     1      -8.057  10.428  63.565  1.00  0.00    -0.116 C  
HETATM   29  C   UNL     1      -7.745  11.090  65.963  1.00  0.00    -0.059 C  
ENDBRANCH  24  26
ENDBRANCH  19  20
ENDBRANCH  16  19
ENDBRANCH  14  15
ENDBRANCH  13  14
ENDBRANCH  12  13
ENDBRANCH  11  12
ENDBRANCH  10  11
ENDBRANCH   9  10
ENDBRANCH   8   9
ENDBRANCH   7   8
ENDBRANCH   6   7
ENDBRANCH   5   6
ENDBRANCH   2   5
BRANCH   4  30
HETATM   30  O   UNL     1     -10.426  13.067  67.395  1.00  0.00    -0.232 OA 
BRANCH  30  31
HETATM   31  C   UNL     1     -10.483  14.232  66.611  1.00  0.00    -0.278 A  
HETATM   32  C   UNL     1     -11.034  14.179  65.329  1.00  0.00    -0.339 A  
HETATM   33  C   UNL     1     -10.084  15.444  67.182  1.00  0.00    -0.245 A  
HETATM   34  C   UNL     1     -10.194  16.630  66.434  1.00  0.00    -0.315 A  
HETATM   35  C   UNL     1     -11.133  15.339  64.582  1.00  0.00    -0.346 A  
HETATM   36  C   UNL     1     -10.709  16.551  65.126  1.00  0.00    -0.261 A  
BRANCH  34  37
HETATM   37  N   UNL     1      -9.665  17.952  66.977  1.00  0.00    -0.287 N  
HETATM   38  C   UNL     1      -8.137  17.959  67.043  1.00  0.00    -0.221 C  
HETATM   39  C   UNL     1     -10.076  19.115  66.075  1.00  0.00    -0.373 C  
HETATM   40  C   UNL     1     -10.233  18.119  68.387  1.00  0.00    -0.387 C  
ENDBRANCH  34  37
ENDBRANCH  30  31
ENDBRANCH   4  30
TORSDOF 17
ENDMDL
MODEL      168
REMARK 921   NORMALIZED FREE ENERGY PREDICTED BY IDOCK:   -4.33 KCAL/MOL
REMARK 922        TOTAL FREE ENERGY PREDICTED BY IDOCK:  -10.86 KCAL/MOL
REMARK 923 INTER-LIGAND FREE ENERGY PREDICTED BY IDOCK:   -8.33 KCAL/MOL
REMARK 924 INTRA-LIGAND FREE ENERGY PREDICTED BY IDOCK:   -2.52 KCAL/MOL
REMARK 927      BINDING AFFINITY PREDICTED BY RF-SCORE:    0.00 PKD
ROOT
HETATM    1  C   UNL     1      -6.535  11.565  69.831  1.00  0.00    -0.106 C  
HETATM    2  N   UNL     1      -7.250  11.939  68.622  1.00  0.00    -0.104 N  
HETATM    3  O   UNL     1      -7.905  11.296  66.496  1.00  0.00    -0.153 OA 
HETATM    4  C   UNL     1      -7.432  11.024  67.595  1.00  0.00    -0.096 C  
ENDROOT
BRANCH   2   5
HETATM    5  C   UNL     1      -7.565  13.349  68.402  1.00  0.00    -0.133 C  
BRANCH   5   6
HETATM    6  C   UNL     1      -6.574  14.044  67.457  1.00  0.00    -0.101 C  
BRANCH   6   7
HETATM    7  C   UNL     1      -5.772  15.127  68.189  1.00  0.00    -0.139 C  
BRANCH   7   8
HETATM    8  C   UNL     1      -5.714  16.435  67.389  1.00  0.00    -0.183 C  
BRANCH   8   9
HETATM    9  C   UNL     1      -6.977  16.627  66.545  1.00  0.00    -0.176 C  
BRANCH   9  10
HETATM   10  C   UNL     1      -7.160  18.088  66.124  1.00  0.00    -0.330 C  
BRANCH  10  11
HETATM   11  C   UNL     1      -7.345  19.041  67.310  1.00  0.00    -0.237 C  
BRANCH  11  12
HETATM   12  C   UNL     1      -8.762  19.602  67.413  1.00  0.00    -0.364 C  
BRANCH  12  13
HETATM   13  C   UNL     1      -9.525  18.987  68.583  1.00  0.00    -0.457 C  
BRANCH  13  14
HETATM   14  C   UNL     1     -10.493  17.926  68.080  1.00  0.00    -0.382 C  
BRANCH  14  15
HETATM   15  N   UNL     1     -10.316  16.660  68.776  1.00  0.00    -0.280 N  
HETATM   16  C   UNL     1     -11.381  15.784  68.876  1.00  0.00    -0.356 C  
HETATM   17  C   UNL     1      -9.004  16.325  69.311  1.00  0.00    -0.170 C  
HETATM   18  O   UNL     1     -12.516  16.026  68.478  1.00  0.00     0.360 OA 
BRANCH  16  19
HETATM   19  O   UNL     1     -11.052  14.651  69.605  1.00  0.00    -0.257 OA 
BRANCH  19  20
HETATM   20  C   UNL     1     -11.153  13.468  68.865  1.00  0.00    -0.267 A  
HETATM   21  C   UNL     1     -11.475  12.309  69.560  1.00  0.00    -0.318 A  
HETATM   22  C   UNL     1     -11.700  11.143  68.835  1.00  0.00    -0.406 A  
HETATM   23  C   UNL     1     -11.600  11.142  67.440  1.00  0.00    -0.157 A  
HETATM   24  C   UNL     1     -11.262  12.310  66.735  1.00  0.00    -0.318 A  
HETATM   25  C   UNL     1     -11.077  13.483  67.465  1.00  0.00    -0.293 A  
BRANCH  24  26
HETATM   26  N   UNL     1     -11.209  12.343  65.215  1.00  0.00    -0.308 N  
HETATM   27  C   UNL     1     -10.644  11.041  64.657  1.00  0.00    -0.299 C  
HETATM   28  C   UNL     1     -10.292  13.474  64.731  1.00  0.00    -0.385 C  
HETATM   29  C   UNL     1     -12.627  12.560  64.707  1.00  0.00    -0.413 C  
ENDBRANCH  24  26
ENDBRANCH  19  20
ENDBRANCH  16  19
ENDBRANCH  14  15
ENDBRANCH  13  14
ENDBRANCH  12  13
ENDBRANCH  11  12
ENDBRANCH  10  11
ENDBRANCH   9  10
ENDBRANCH   8   9
ENDBRANCH   7   8
ENDBRANCH   6   7
ENDBRANCH   5   6
ENDBRANCH   2   5
BRANCH   4  30
HETATM   30  O   UNL     1      -6.948   9.753  67.919  1.00  0.00    -0.076 OA 
BRANCH  30  31
HETATM   31  C   UNL     1      -7.934   8.752  67.881  1.00  0.00    -0.107 A  
HETATM   32  C   UNL     1      -9.073   8.869  68.680  1.00  0.00    -0.137 A  
HETATM   33  C   UNL     1      -7.798   7.712  66.957  1.00  0.00    -0.112 A  
HETATM   34  C   UNL     1      -8.805   6.736  66.861  1.00  0.00    -0.119 A  
HETATM   35  C   UNL     1     -10.062   7.906  68.600  1.00  0.00    -0.210 A  
HETATM   36  C   UNL     1      -9.925   6.845  67.706  1.00  0.00    -0.180 A  
BRANCH  34  37
HETATM   37  N   UNL     1      -8.640   5.526  65.948  1.00  0.00    -0.136 N  
HETATM   38  C   UNL     1      -8.210   5.940  64.540  1.00  0.00    -0.110 C  
HETATM   39  C   UNL     1      -7.562   4.583  66.483  1.00  0.00    -0.090 C  
HETATM   40  C   UNL     1      -9.999   4.827  65.877  1.00  0.00    -0.228 C  
ENDBRANCH  34  37
ENDBRANCH  30  31
ENDBRANCH   4  30
TORSDOF 17
ENDMDL
MODEL      169
REMARK 921   NORMALIZED FREE ENERGY PREDICTED BY IDOCK:   -4.32 KCAL/MOL
REMARK 922        TOTAL FREE ENERGY PREDICTED BY IDOCK:  -10.84 KCAL/MOL
REMARK 923 INTER-LIGAND FREE ENERGY PREDICTED BY IDOCK:   -9.03 KCAL/MOL
REMARK 924 INTRA-LIGAND FREE ENERGY PREDICTED BY IDOCK:   -1.81 KCAL/MOL
REMARK 927      BINDING AFFINITY PREDICTED BY RF-SCORE:    0.00 PKD
ROOT
HETATM    1  C   UNL     1     -12.072  13.581  70.130  1.00  0.00    -0.354 C  
HETATM    2  N   UNL     1     -11.778  13.291  68.737  1.00  0.00    -0.308 N  
HETATM    3  O   UNL     1     -11.572  14.147  66.594  1.00  0.00    -0.349 OA 
HETATM    4  C   UNL     1     -11.686  14.315  67.804  1.00  0.00    -0.374 C  
ENDROOT
BRANCH   2   5
HETATM    5  C   UNL     1     -11.816  11.901  68.287  1.00  0.00    -0.277 C  
BRANCH   5   6
HETATM    6  C   UNL     1     -11.330  10.912  69.355  1.00  0.00    -0.347 C  
BRANCH   6   7
HETATM    7  C   UNL     1      -9.950  10.343  69.002  1.00  0.00    -0.224 C  
BRANCH   7   8
HETATM    8  C   UNL     1      -9.679  10.395  67.493  1.00  0.00    -0.195 C  
BRANCH   8   9
HETATM    9  C   UNL     1      -8.443   9.570  67.122  1.00  0.00    -0.131 C  
BRANCH   9  10
HETATM   10  C   UNL     1      -8.624   8.090  67.470  1.00  0.00    -0.126 C  
BRANCH  10  11
HETATM   11  C   UNL     1      -9.196   7.262  66.314  1.00  0.00    -0.175 C  
BRANCH  11  12
HETATM   12  C   UNL     1      -9.394   5.790  66.671  1.00  0.00    -0.155 C  
BRANCH  12  13
HETATM   13  C   UNL     1      -8.287   4.917  66.083  1.00  0.00    -0.112 C  
BRANCH  13  14
HETATM   14  C   UNL     1      -8.153   3.630  66.883  1.00  0.00    -0.095 C  
BRANCH  14  15
HETATM   15  N   UNL     1      -7.885   3.894  68.289  1.00  0.00    -0.069 N  
HETATM   16  C   UNL     1      -8.637   3.252  69.256  1.00  0.00    -0.067 C  
HETATM   17  C   UNL     1      -6.797   4.794  68.644  1.00  0.00    -0.051 C  
HETATM   18  O   UNL     1      -9.586   2.514  69.019  1.00  0.00    -0.126 OA 
BRANCH  16  19
HETATM   19  O   UNL     1      -8.279   3.651  70.536  1.00  0.00    -0.053 OA 
BRANCH  19  20
HETATM   20  C   UNL     1      -9.352   4.157  71.278  1.00  0.00    -0.151 A  
HETATM   21  C   UNL     1      -9.622   3.552  72.500  1.00  0.00    -0.194 A  
HETATM   22  C   UNL     1     -10.605   4.110  73.311  1.00  0.00    -0.267 A  
HETATM   23  C   UNL     1     -11.304   5.250  72.902  1.00  0.00    -0.368 A  
HETATM   24  C   UNL     1     -11.042   5.857  71.661  1.00  0.00    -0.258 A  
HETATM   25  C   UNL     1     -10.029   5.315  70.870  1.00  0.00    -0.274 A  
BRANCH  24  26
HETATM   26  N   UNL     1     -11.748   7.131  71.225  1.00  0.00    -0.290 N  
HETATM   27  C   UNL     1     -11.182   8.348  71.951  1.00  0.00    -0.311 C  
HETATM   28  C   UNL     1     -13.243   7.064  71.562  1.00  0.00    -0.317 C  
HETATM   29  C   UNL     1     -11.552   7.278  69.723  1.00  0.00     0.084 C  
ENDBRANCH  24  26
ENDBRANCH  19  20
ENDBRANCH  16  19
ENDBRANCH  14  15
ENDBRANCH  13  14
ENDBRANCH  12  13
ENDBRANCH  11  12
ENDBRANCH  10  11
ENDBRANCH   9  10
ENDBRANCH   8   9
ENDBRANCH   7   8
ENDBRANCH   6   7
ENDBRANCH   5   6
ENDBRANCH   2   5
BRANCH   4  30
HETATM   30  O   UNL     1     -11.809  15.581  68.385  1.00  0.00    -0.351 OA 
BRANCH  30  31
HETATM   31  C   UNL     1     -10.613  16.319  68.379  1.00  0.00    -0.301 A  
HETATM   32  C   UNL     1      -9.429  15.725  68.819  1.00  0.00    -0.219 A  
HETATM   33  C   UNL     1     -10.621  17.603  67.827  1.00  0.00    -0.380 A  
HETATM   34  C   UNL     1      -9.421  18.332  67.754  1.00  0.00    -0.276 A  
HETATM   35  C   UNL     1      -8.246  16.440  68.763  1.00  0.00    -0.234 A  
HETATM   36  C   UNL     1      -8.244  17.734  68.244  1.00  0.00    -0.285 A  
BRANCH  34  37
HETATM   37  N   UNL     1      -9.408  19.775  67.265  1.00  0.00    -0.330 N  
HETATM   38  C   UNL     1      -7.992  20.353  67.259  1.00  0.00    -0.335 C  
HETATM   39  C   UNL     1      -9.932  19.869  65.832  1.00  0.00    -0.393 C  
HETATM   40  C   UNL     1     -10.281  20.584  68.226  1.00  0.00     0.013 C  
ENDBRANCH  34  37
ENDBRANCH  30  31
ENDBRANCH   4  30
TORSDOF 17
ENDMDL
MODEL      170
REMARK 921   NORMALIZED FREE ENERGY PREDICTED BY IDOCK:   -4.30 KCAL/MOL
REMARK 922        TOTAL FREE ENERGY PREDICTED BY IDOCK:  -10.81 KCAL/MOL
REMARK 923 INTER-LIGAND FREE ENERGY PREDICTED BY IDOCK:   -9.74 KCAL/MOL
REMARK 924 INTRA-LIGAND FREE ENERGY PREDICTED BY IDOCK:   -1.07 KCAL/MOL
REMARK 927      BINDING AFFINITY PREDICTED BY RF-SCORE:    0.00 PKD
ROOT
HETATM    1  C   UNL     1     -14.246   8.126  71.723  1.00  0.00    -0.462 C  
HETATM    2  N   UNL     1     -12.952   8.788  71.696  1.00  0.00    -0.336 N  
HETATM    3  O   UNL     1     -10.653   8.525  71.797  1.00  0.00    -0.251 OA 
HETATM    4  C   UNL     1     -11.778   8.047  71.688  1.00  0.00    -0.283 C  
ENDROOT
BRANCH   2   5
HETATM    5  C   UNL     1     -12.898  10.232  71.916  1.00  0.00    -0.426 C  
BRANCH   5   6
HETATM    6  C   UNL     1     -13.027  11.041  70.618  1.00  0.00    -0.213 C  
BRANCH   6   7
HETATM    7  C   UNL     1     -11.656  11.288  69.977  1.00  0.00    -0.404 C  
BRANCH   7   8
HETATM    8  C   UNL     1     -11.706  12.412  68.933  1.00  0.00    -0.372 C  
BRANCH   8   9
HETATM    9  C   UNL     1     -11.585  11.855  67.511  1.00  0.00    -0.374 C  
BRANCH   9  10
HETATM   10  C   UNL     1     -11.143  10.389  67.513  1.00  0.00    -0.336 C  
BRANCH  10  11
HETATM   11  C   UNL     1      -9.920  10.125  66.627  1.00  0.00    -0.272 C  
BRANCH  11  12
HETATM   12  C   UNL     1      -8.710   9.620  67.410  1.00  0.00    -0.130 C  
BRANCH  12  13
HETATM   13  C   UNL     1      -7.579  10.645  67.416  1.00  0.00    -0.095 C  
BRANCH  13  14
HETATM   14  C   UNL     1      -7.124  10.917  68.842  1.00  0.00    -0.090 C  
BRANCH  14  15
HETATM   15  N   UNL     1      -6.876  12.333  69.069  1.00  0.00    -0.101 N  
HETATM   16  C   UNL     1      -7.526  13.271  68.288  1.00  0.00    -0.126 C  
HETATM   17  C   UNL     1      -5.983  12.730  70.149  1.00  0.00    -0.135 C  
HETATM   18  O   UNL     1      -8.259  12.997  67.344  1.00  0.00    -0.167 OA 
BRANCH  16  19
HETATM   19  O   UNL     1      -7.143  14.565  68.609  1.00  0.00    -0.101 OA 
BRANCH  19  20
HETATM   20  C   UNL     1      -8.221  15.450  68.718  1.00  0.00    -0.172 A  
HETATM   21  C   UNL     1      -9.337  15.009  69.418  1.00  0.00    -0.120 A  
HETATM   22  C   UNL     1     -10.374  15.908  69.645  1.00  0.00    -0.299 A  
HETATM   23  C   UNL     1     -10.292  17.222  69.174  1.00  0.00    -0.290 A  
HETATM   24  C   UNL     1      -9.170  17.669  68.455  1.00  0.00    -0.288 A  
HETATM   25  C   UNL     1      -8.118  16.773  68.265  1.00  0.00    -0.202 A  
BRANCH  24  26
HETATM   26  N   UNL     1      -9.036  19.110  67.988  1.00  0.00    -0.301 N  
HETATM   27  C   UNL     1      -7.789  19.763  68.576  1.00  0.00    -0.275 C  
HETATM   28  C   UNL     1     -10.239  19.942  68.450  1.00  0.00    -0.433 C  
HETATM   29  C   UNL     1      -8.956  19.098  66.469  1.00  0.00    -0.341 C  
ENDBRANCH  24  26
ENDBRANCH  19  20
ENDBRANCH  16  19
ENDBRANCH  14  15
ENDBRANCH  13  14
ENDBRANCH  12  13
ENDBRANCH  11  12
ENDBRANCH  10  11
ENDBRANCH   9  10
ENDBRANCH   8   9
ENDBRANCH   7   8
ENDBRANCH   6   7
ENDBRANCH   5   6
ENDBRANCH   2   5
BRANCH   4  30
HETATM   30  O   UNL     1     -12.014   6.671  71.613  1.00  0.00    -0.318 OA 
BRANCH  30  31
HETATM   31  C   UNL     1     -10.902   5.936  71.169  1.00  0.00    -0.269 A  
HETATM   32  C   UNL     1     -10.063   5.318  72.098  1.00  0.00    -0.241 A  
HETATM   33  C   UNL     1     -10.726   5.752  69.794  1.00  0.00    -0.418 A  
HETATM   34  C   UNL     1      -9.656   4.966  69.333  1.00  0.00    -0.169 A  
HETATM   35  C   UNL     1      -8.999   4.554  71.652  1.00  0.00    -0.158 A  
HETATM   36  C   UNL     1      -8.793   4.387  70.283  1.00  0.00    -0.126 A  
BRANCH  34  37
HETATM   37  N   UNL     1      -9.364   4.835  67.843  1.00  0.00    -0.126 N  
HETATM   38  C   UNL     1      -7.954   5.322  67.503  1.00  0.00    -0.100 C  
HETATM   39  C   UNL     1      -9.449   3.375  67.398  1.00  0.00    -0.176 C  
HETATM   40  C   UNL     1     -10.389   5.698  67.106  1.00  0.00    -0.248 C  
ENDBRANCH  34  37
ENDBRANCH  30  31
ENDBRANCH   4  30
TORSDOF 17
ENDMDL
MODEL      171
REMARK 921   NORMALIZED FREE ENERGY PREDICTED BY IDOCK:   -4.30 KCAL/MOL
REMARK 922        TOTAL FREE ENERGY PREDICTED BY IDOCK:  -10.81 KCAL/MOL
REMARK 923 INTER-LIGAND FREE ENERGY PREDICTED BY IDOCK:   -9.13 KCAL/MOL
REMARK 924 INTRA-LIGAND FREE ENERGY PREDICTED BY IDOCK:   -1.67 KCAL/MOL
REMARK 927      BINDING AFFINITY PREDICTED BY RF-SCORE:    0.00 PKD
ROOT
HETATM    1  C   UNL     1      -9.050   2.765  68.410  1.00  0.00    -0.167 C  
HETATM    2  N   UNL     1      -9.682   3.670  69.355  1.00  0.00    -0.114 N  
HETATM    3  O   UNL     1     -10.720   5.719  69.659  1.00  0.00    -0.293 OA 
HETATM    4  C   UNL     1     -10.283   4.843  68.919  1.00  0.00    -0.067 C  
ENDROOT
BRANCH   2   5
HETATM    5  C   UNL     1      -9.470   3.452  70.785  1.00  0.00    -0.170 C  
BRANCH   5   6
HETATM    6  C   UNL     1      -8.000   3.594  71.202  1.00  0.00    -0.059 C  
BRANCH   6   7
HETATM    7  C   UNL     1      -7.867   4.344  72.533  1.00  0.00    -0.085 C  
BRANCH   7   8
HETATM    8  C   UNL     1      -8.881   5.489  72.648  1.00  0.00    -0.123 C  
BRANCH   8   9
HETATM    9  C   UNL     1      -8.488   6.469  73.757  1.00  0.00    -0.131 C  
BRANCH   9  10
HETATM   10  C   UNL     1      -9.313   7.758  73.692  1.00  0.00    -0.336 C  
BRANCH  10  11
HETATM   11  C   UNL     1      -9.860   8.057  72.292  1.00  0.00    -0.301 C  
BRANCH  11  12
HETATM   12  C   UNL     1     -11.349   8.397  72.290  1.00  0.00    -0.448 C  
BRANCH  12  13
HETATM   13  C   UNL     1     -11.758   9.117  71.007  1.00  0.00    -0.363 C  
BRANCH  13  14
HETATM   14  C   UNL     1     -10.666   8.978  69.956  1.00  0.00    -0.229 C  
BRANCH  14  15
HETATM   15  N   UNL     1     -10.353  10.255  69.332  1.00  0.00    -0.221 N  
HETATM   16  C   UNL     1     -11.381  11.066  68.889  1.00  0.00    -0.280 C  
HETATM   17  C   UNL     1      -8.961  10.669  69.230  1.00  0.00    -0.082 C  
HETATM   18  O   UNL     1     -12.568  10.757  68.915  1.00  0.00    -0.283 OA 
BRANCH  16  19
HETATM   19  O   UNL     1     -10.905  12.220  68.283  1.00  0.00    -0.206 OA 
BRANCH  19  20
HETATM   20  C   UNL     1     -11.297  13.391  68.939  1.00  0.00    -0.287 A  
HETATM   21  C   UNL     1     -11.156  14.587  68.244  1.00  0.00    -0.275 A  
HETATM   22  C   UNL     1     -11.647  15.751  68.824  1.00  0.00    -0.401 A  
HETATM   23  C   UNL     1     -12.264  15.717  70.079  1.00  0.00    -0.351 A  
HETATM   24  C   UNL     1     -12.397  14.512  70.790  1.00  0.00    -0.340 A  
HETATM   25  C   UNL     1     -11.937  13.342  70.185  1.00  0.00    -0.396 A  
BRANCH  24  26
HETATM   26  N   UNL     1     -13.118  14.443  72.127  1.00  0.00    -0.342 N  
HETATM   27  C   UNL     1     -14.299  15.408  72.163  1.00  0.00    -0.544 C  
HETATM   28  C   UNL     1     -12.177  14.843  73.271  1.00  0.00    -0.329 C  
HETATM   29  C   UNL     1     -13.602  13.013  72.319  1.00  0.00    -0.547 C  
ENDBRANCH  24  26
ENDBRANCH  19  20
ENDBRANCH  16  19
ENDBRANCH  14  15
ENDBRANCH  13  14
ENDBRANCH  12  13
ENDBRANCH  11  12
ENDBRANCH  10  11
ENDBRANCH   9  10
ENDBRANCH   8   9
ENDBRANCH   7   8
ENDBRANCH   6   7
ENDBRANCH   5   6
ENDBRANCH   2   5
BRANCH   4  30
HETATM   30  O   UNL     1     -10.277   4.961  67.526  1.00  0.00    -0.159 OA 
BRANCH  30  31
HETATM   31  C   UNL     1      -9.758   6.184  67.070  1.00  0.00    -0.142 A  
HETATM   32  C   UNL     1     -10.624   7.235  66.763  1.00  0.00    -0.288 A  
HETATM   33  C   UNL     1      -8.370   6.353  67.039  1.00  0.00    -0.112 A  
HETATM   34  C   UNL     1      -7.833   7.591  66.647  1.00  0.00    -0.106 A  
HETATM   35  C   UNL     1     -10.103   8.453  66.364  1.00  0.00    -0.242 A  
HETATM   36  C   UNL     1      -8.721   8.626  66.297  1.00  0.00    -0.165 A  
BRANCH  34  37
HETATM   37  N   UNL     1      -6.328   7.779  66.491  1.00  0.00    -0.045 N  
HETATM   38  C   UNL     1      -5.560   6.525  66.910  1.00  0.00    -0.013 C  
HETATM   39  C   UNL     1      -5.962   8.059  65.033  1.00  0.00    -0.045 C  
HETATM   40  C   UNL     1      -5.924   8.946  67.394  1.00  0.00    -0.047 C  
ENDBRANCH  34  37
ENDBRANCH  30  31
ENDBRANCH   4  30
TORSDOF 17
ENDMDL
MODEL      172
REMARK 921   NORMALIZED FREE ENERGY PREDICTED BY IDOCK:   -4.29 KCAL/MOL
REMARK 922        TOTAL FREE ENERGY PREDICTED BY IDOCK:  -10.78 KCAL/MOL
REMARK 923 INTER-LIGAND FREE ENERGY PREDICTED BY IDOCK:   -8.85 KCAL/MOL
REMARK 924 INTRA-LIGAND FREE ENERGY PREDICTED BY IDOCK:   -1.93 KCAL/MOL
REMARK 927      BINDING AFFINITY PREDICTED BY RF-SCORE:    0.00 PKD
ROOT
HETATM    1  C   UNL     1      -9.833   9.738  69.062  1.00  0.00    -0.181 C  
HETATM    2  N   UNL     1     -10.075   9.227  70.401  1.00  0.00    -0.218 N  
HETATM    3  O   UNL     1     -11.499   9.210  72.228  1.00  0.00    -0.281 OA 
HETATM    4  C   UNL     1     -11.270   9.491  71.056  1.00  0.00    -0.362 C  
ENDROOT
BRANCH   2   5
HETATM    5  C   UNL     1      -8.959   8.635  71.137  1.00  0.00    -0.201 C  
BRANCH   5   6
HETATM    6  C   UNL     1      -7.599   8.891  70.473  1.00  0.00    -0.093 C  
BRANCH   6   7
HETATM    7  C   UNL     1      -6.901   7.575  70.108  1.00  0.00    -0.051 C  
BRANCH   7   8
HETATM    8  C   UNL     1      -7.901   6.426  69.931  1.00  0.00    -0.114 C  
BRANCH   8   9
HETATM    9  C   UNL     1      -7.525   5.540  68.739  1.00  0.00    -0.079 C  
BRANCH   9  10
HETATM   10  C   UNL     1      -6.957   6.363  67.580  1.00  0.00    -0.078 C  
BRANCH  10  11
HETATM   11  C   UNL     1      -8.033   6.877  66.618  1.00  0.00    -0.108 C  
BRANCH  11  12
HETATM   12  C   UNL     1      -7.579   8.082  65.797  1.00  0.00    -0.083 C  
BRANCH  12  13
HETATM   13  C   UNL     1      -8.767   8.869  65.250  1.00  0.00    -0.220 C  
BRANCH  13  14
HETATM   14  C   UNL     1      -8.329  10.269  64.846  1.00  0.00    -0.172 C  
BRANCH  14  15
HETATM   15  N   UNL     1      -8.685  11.258  65.853  1.00  0.00    -0.178 N  
HETATM   16  C   UNL     1      -9.936  11.847  65.816  1.00  0.00    -0.236 C  
HETATM   17  C   UNL     1      -7.728  11.570  66.906  1.00  0.00    -0.157 C  
HETATM   18  O   UNL     1     -10.767  11.651  64.937  1.00  0.00    -0.277 OA 
BRANCH  16  19
HETATM   19  O   UNL     1     -10.091  12.793  66.819  1.00  0.00    -0.229 OA 
BRANCH  19  20
HETATM   20  C   UNL     1      -9.929  14.108  66.367  1.00  0.00    -0.293 A  
HETATM   21  C   UNL     1     -10.893  14.605  65.498  1.00  0.00    -0.352 A  
HETATM   22  C   UNL     1     -10.824  15.943  65.128  1.00  0.00    -0.438 A  
HETATM   23  C   UNL     1      -9.804  16.766  65.619  1.00  0.00    -0.111 A  
HETATM   24  C   UNL     1      -8.821  16.264  66.489  1.00  0.00    -0.283 A  
HETATM   25  C   UNL     1      -8.919  14.931  66.886  1.00  0.00    -0.277 A  
BRANCH  24  26
HETATM   26  N   UNL     1      -7.741  17.156  67.081  1.00  0.00    -0.168 N  
HETATM   27  C   UNL     1      -8.262  17.914  68.298  1.00  0.00    -0.290 C  
HETATM   28  C   UNL     1      -7.286  18.207  66.059  1.00  0.00    -0.255 C  
HETATM   29  C   UNL     1      -6.572  16.266  67.478  1.00  0.00    -0.164 C  
ENDBRANCH  24  26
ENDBRANCH  19  20
ENDBRANCH  16  19
ENDBRANCH  14  15
ENDBRANCH  13  14
ENDBRANCH  12  13
ENDBRANCH  11  12
ENDBRANCH  10  11
ENDBRANCH   9  10
ENDBRANCH   8   9
ENDBRANCH   7   8
ENDBRANCH   6   7
ENDBRANCH   5   6
ENDBRANCH   2   5
BRANCH   4  30
HETATM   30  O   UNL     1     -12.177  10.188  70.252  1.00  0.00    -0.248 OA 
BRANCH  30  31
HETATM   31  C   UNL     1     -12.536  11.443  70.772  1.00  0.00    -0.365 A  
HETATM   32  C   UNL     1     -13.451  11.524  71.823  1.00  0.00    -0.203 A  
HETATM   33  C   UNL     1     -11.879  12.580  70.290  1.00  0.00    -0.305 A  
HETATM   34  C   UNL     1     -12.179  13.837  70.843  1.00  0.00    -0.349 A  
HETATM   35  C   UNL     1     -13.761  12.759  72.363  1.00  0.00    -0.457 A  
HETATM   36  C   UNL     1     -13.138  13.905  71.871  1.00  0.00    -0.469 A  
BRANCH  34  37
HETATM   37  N   UNL     1     -11.570  15.112  70.269  1.00  0.00    -0.268 N  
HETATM   38  C   UNL     1     -11.727  16.290  71.231  1.00  0.00    -0.343 C  
HETATM   39  C   UNL     1     -10.072  14.936  70.022  1.00  0.00     0.118 C  
HETATM   40  C   UNL     1     -12.312  15.418  68.967  1.00  0.00    -0.012 C  
ENDBRANCH  34  37
ENDBRANCH  30  31
ENDBRANCH   4  30
TORSDOF 17
ENDMDL
MODEL      173
REMARK 921   NORMALIZED FREE ENERGY PREDICTED BY IDOCK:   -4.28 KCAL/MOL
REMARK 922        TOTAL FREE ENERGY PREDICTED BY IDOCK:  -10.76 KCAL/MOL
REMARK 923 INTER-LIGAND FREE ENERGY PREDICTED BY IDOCK:   -9.56 KCAL/MOL
REMARK 924 INTRA-LIGAND FREE ENERGY PREDICTED BY IDOCK:   -1.20 KCAL/MOL
REMARK 927      BINDING AFFINITY PREDICTED BY RF-SCORE:    0.00 PKD
ROOT
HETATM    1  C   UNL     1      -8.999  13.133  68.790  1.00  0.00     0.166 C  
HETATM    2  N   UNL     1      -9.561  13.510  67.503  1.00  0.00    -0.215 N  
HETATM    3  O   UNL     1      -9.426  14.944  65.689  1.00  0.00    -0.282 OA 
HETATM    4  C   UNL     1      -8.949  14.478  66.719  1.00  0.00    -0.246 C  
ENDROOT
BRANCH   2   5
HETATM    5  C   UNL     1     -10.897  13.032  67.154  1.00  0.00    -0.260 C  
BRANCH   5   6
HETATM    6  C   UNL     1     -11.952  14.147  67.155  1.00  0.00    -0.460 C  
BRANCH   6   7
HETATM    7  C   UNL     1     -12.664  14.242  65.800  1.00  0.00    -0.365 C  
BRANCH   7   8
HETATM    8  C   UNL     1     -12.651  12.904  65.051  1.00  0.00    -0.538 C  
BRANCH   8   9
HETATM    9  C   UNL     1     -12.107  13.068  63.629  1.00  0.00    -0.604 C  
BRANCH   9  10
HETATM   10  C   UNL     1     -10.986  12.068  63.332  1.00  0.00    -0.475 C  
BRANCH  10  11
HETATM   11  C   UNL     1     -10.836  10.990  64.410  1.00  0.00    -0.263 C  
BRANCH  11  12
HETATM   12  C   UNL     1      -9.397  10.503  64.577  1.00  0.00    -0.299 C  
BRANCH  12  13
HETATM   13  C   UNL     1      -9.279   9.478  65.701  1.00  0.00    -0.281 C  
BRANCH  13  14
HETATM   14  C   UNL     1      -7.970   8.712  65.578  1.00  0.00    -0.108 C  
BRANCH  14  15
HETATM   15  N   UNL     1      -7.590   8.087  66.836  1.00  0.00    -0.094 N  
HETATM   16  C   UNL     1      -7.926   6.766  67.068  1.00  0.00    -0.109 C  
HETATM   17  C   UNL     1      -6.822   8.857  67.805  1.00  0.00    -0.070 C  
HETATM   18  O   UNL     1      -8.601   6.080  66.308  1.00  0.00    -0.127 OA 
BRANCH  16  19
HETATM   19  O   UNL     1      -7.527   6.344  68.328  1.00  0.00    -0.087 OA 
BRANCH  19  20
HETATM   20  C   UNL     1      -8.598   5.996  69.159  1.00  0.00    -0.117 A  
HETATM   21  C   UNL     1      -8.928   4.649  69.239  1.00  0.00    -0.140 A  
HETATM   22  C   UNL     1      -9.908   4.261  70.147  1.00  0.00    -0.271 A  
HETATM   23  C   UNL     1     -10.545   5.208  70.955  1.00  0.00    -0.201 A  
HETATM   24  C   UNL     1     -10.222   6.573  70.868  1.00  0.00    -0.190 A  
HETATM   25  C   UNL     1      -9.212   6.949  69.984  1.00  0.00    -0.155 A  
BRANCH  24  26
HETATM   26  N   UNL     1     -10.860   7.609  71.781  1.00  0.00    -0.226 N  
HETATM   27  C   UNL     1     -10.859   7.137  73.231  1.00  0.00    -0.338 C  
HETATM   28  C   UNL     1     -12.323   7.849  71.388  1.00  0.00    -0.312 C  
HETATM   29  C   UNL     1     -10.060   8.897  71.647  1.00  0.00    -0.341 C  
ENDBRANCH  24  26
ENDBRANCH  19  20
ENDBRANCH  16  19
ENDBRANCH  14  15
ENDBRANCH  13  14
ENDBRANCH  12  13
ENDBRANCH  11  12
ENDBRANCH  10  11
ENDBRANCH   9  10
ENDBRANCH   8   9
ENDBRANCH   7   8
ENDBRANCH   6   7
ENDBRANCH   5   6
ENDBRANCH   2   5
BRANCH   4  30
HETATM   30  O   UNL     1      -7.745  14.930  67.269  1.00  0.00    -0.192 OA 
BRANCH  30  31
HETATM   31  C   UNL     1      -7.575  16.321  67.176  1.00  0.00    -0.195 A  
HETATM   32  C   UNL     1      -6.340  16.845  66.787  1.00  0.00    -0.239 A  
HETATM   33  C   UNL     1      -8.686  17.147  67.371  1.00  0.00    -0.211 A  
HETATM   34  C   UNL     1      -8.549  18.538  67.219  1.00  0.00    -0.262 A  
HETATM   35  C   UNL     1      -6.194  18.214  66.648  1.00  0.00    -0.208 A  
HETATM   36  C   UNL     1      -7.285  19.052  66.871  1.00  0.00    -0.221 A  
BRANCH  34  37
HETATM   37  N   UNL     1      -9.706  19.480  67.534  1.00  0.00    -0.331 N  
HETATM   38  C   UNL     1     -10.996  19.031  66.847  1.00  0.00    -0.169 C  
HETATM   39  C   UNL     1      -9.989  19.511  69.036  1.00  0.00    -0.414 C  
HETATM   40  C   UNL     1      -9.313  20.864  67.017  1.00  0.00    -0.108 C  
ENDBRANCH  34  37
ENDBRANCH  30  31
ENDBRANCH   4  30
TORSDOF 17
ENDMDL
MODEL      174
REMARK 921   NORMALIZED FREE ENERGY PREDICTED BY IDOCK:   -4.27 KCAL/MOL
REMARK 922        TOTAL FREE ENERGY PREDICTED BY IDOCK:  -10.75 KCAL/MOL
REMARK 923 INTER-LIGAND FREE ENERGY PREDICTED BY IDOCK:   -8.85 KCAL/MOL
REMARK 924 INTRA-LIGAND FREE ENERGY PREDICTED BY IDOCK:   -1.90 KCAL/MOL
REMARK 927      BINDING AFFINITY PREDICTED BY RF-SCORE:    0.00 PKD
ROOT
HETATM    1  C   UNL     1      -9.415   8.201  72.622  1.00  0.00    -0.276 C  
HETATM    2  N   UNL     1     -10.513   8.245  71.672  1.00  0.00    -0.222 N  
HETATM    3  O   UNL     1     -12.144   7.035  70.557  1.00  0.00    -0.313 OA 
HETATM    4  C   UNL     1     -11.289   7.118  71.433  1.00  0.00    -0.259 C  
ENDROOT
BRANCH   2   5
HETATM    5  C   UNL     1     -10.642   9.412  70.802  1.00  0.00    -0.303 C  
BRANCH   5   6
HETATM    6  C   UNL     1      -9.901   9.249  69.467  1.00  0.00    -0.188 C  
BRANCH   6   7
HETATM    7  C   UNL     1      -9.189  10.546  69.063  1.00  0.00    -0.193 C  
BRANCH   7   8
HETATM    8  C   UNL     1      -7.678  10.473  69.320  1.00  0.00    -0.144 C  
BRANCH   8   9
HETATM    9  C   UNL     1      -7.003  11.822  69.050  1.00  0.00    -0.107 C  
BRANCH   9  10
HETATM   10  C   UNL     1      -7.944  12.791  68.327  1.00  0.00    -0.151 C  
BRANCH  10  11
HETATM   11  C   UNL     1      -7.209  13.791  67.429  1.00  0.00    -0.107 C  
BRANCH  11  12
HETATM   12  C   UNL     1      -7.559  15.245  67.737  1.00  0.00    -0.171 C  
BRANCH  12  13
HETATM   13  C   UNL     1      -8.398  15.363  69.007  1.00  0.00    -0.223 C  
BRANCH  13  14
HETATM   14  C   UNL     1      -9.756  15.968  68.685  1.00  0.00    -0.217 C  
BRANCH  14  15
HETATM   15  N   UNL     1     -10.740  14.946  68.360  1.00  0.00    -0.239 N  
HETATM   16  C   UNL     1     -11.103  14.746  67.041  1.00  0.00    -0.333 C  
HETATM   17  C   UNL     1     -11.286  14.124  69.431  1.00  0.00    -0.255 C  
HETATM   18  O   UNL     1     -10.707  15.429  66.103  1.00  0.00    -0.304 OA 
BRANCH  16  19
HETATM   19  O   UNL     1     -12.080  13.768  66.916  1.00  0.00    -0.414 OA 
BRANCH  19  20
HETATM   20  C   UNL     1     -11.839  12.878  65.865  1.00  0.00    -0.424 A  
HETATM   21  C   UNL     1     -12.600  13.034  64.712  1.00  0.00    -0.460 A  
HETATM   22  C   UNL     1     -12.301  12.242  63.609  1.00  0.00    -0.664 A  
HETATM   23  C   UNL     1     -11.260  11.309  63.663  1.00  0.00    -0.221 A  
HETATM   24  C   UNL     1     -10.496  11.139  64.831  1.00  0.00    -0.308 A  
HETATM   25  C   UNL     1     -10.777  11.964  65.920  1.00  0.00    -0.326 A  
BRANCH  24  26
HETATM   26  N   UNL     1      -9.323  10.174  64.890  1.00  0.00    -0.230 N  
HETATM   27  C   UNL     1      -8.076  10.859  65.441  1.00  0.00     0.015 C  
HETATM   28  C   UNL     1      -8.971   9.662  63.488  1.00  0.00    -0.217 C  
HETATM   29  C   UNL     1      -9.723   9.013  65.789  1.00  0.00    -0.184 C  
ENDBRANCH  24  26
ENDBRANCH  19  20
ENDBRANCH  16  19
ENDBRANCH  14  15
ENDBRANCH  13  14
ENDBRANCH  12  13
ENDBRANCH  11  12
ENDBRANCH  10  11
ENDBRANCH   9  10
ENDBRANCH   8   9
ENDBRANCH   7   8
ENDBRANCH   6   7
ENDBRANCH   5   6
ENDBRANCH   2   5
BRANCH   4  30
HETATM   30  O   UNL     1     -10.941   6.045  72.259  1.00  0.00    -0.238 OA 
BRANCH  30  31
HETATM   31  C   UNL     1     -10.124   5.093  71.625  1.00  0.00    -0.200 A  
HETATM   32  C   UNL     1     -10.271   4.852  70.258  1.00  0.00    -0.299 A  
HETATM   33  C   UNL     1      -9.104   4.488  72.364  1.00  0.00    -0.144 A  
HETATM   34  C   UNL     1      -8.236   3.581  71.732  1.00  0.00    -0.066 A  
HETATM   35  C   UNL     1      -9.430   3.951  69.631  1.00  0.00    -0.263 A  
HETATM   36  C   UNL     1      -8.428   3.315  70.363  1.00  0.00    -0.095 A  
BRANCH  34  37
HETATM   37  N   UNL     1      -7.185   2.815  72.528  1.00  0.00    -0.035 N  
HETATM   38  C   UNL     1      -7.713   2.403  73.902  1.00  0.00    -0.050 C  
HETATM   39  C   UNL     1      -6.782   1.531  71.803  1.00  0.00    -0.019 C  
HETATM   40  C   UNL     1      -5.986   3.748  72.705  1.00  0.00    -0.008 C  
ENDBRANCH  34  37
ENDBRANCH  30  31
ENDBRANCH   4  30
TORSDOF 17
ENDMDL
MODEL      175
REMARK 921   NORMALIZED FREE ENERGY PREDICTED BY IDOCK:   -4.27 KCAL/MOL
REMARK 922        TOTAL FREE ENERGY PREDICTED BY IDOCK:  -10.74 KCAL/MOL
REMARK 923 INTER-LIGAND FREE ENERGY PREDICTED BY IDOCK:   -9.48 KCAL/MOL
REMARK 924 INTRA-LIGAND FREE ENERGY PREDICTED BY IDOCK:   -1.27 KCAL/MOL
REMARK 927      BINDING AFFINITY PREDICTED BY RF-SCORE:    0.00 PKD
ROOT
HETATM    1  C   UNL     1     -12.455  12.729  64.620  1.00  0.00    -0.456 C  
HETATM    2  N   UNL     1     -11.089  12.678  65.114  1.00  0.00    -0.287 N  
HETATM    3  O   UNL     1      -9.364  13.842  66.130  1.00  0.00    -0.213 OA 
HETATM    4  C   UNL     1     -10.542  13.754  65.798  1.00  0.00    -0.293 C  
ENDROOT
BRANCH   2   5
HETATM    5  C   UNL     1     -10.227  11.581  64.678  1.00  0.00    -0.285 C  
BRANCH   5   6
HETATM    6  C   UNL     1      -9.596  10.813  65.848  1.00  0.00    -0.252 C  
BRANCH   6   7
HETATM    7  C   UNL     1      -8.539   9.817  65.356  1.00  0.00    -0.163 C  
BRANCH   7   8
HETATM    8  C   UNL     1      -8.804   8.398  65.873  1.00  0.00    -0.212 C  
BRANCH   8   9
HETATM    9  C   UNL     1      -7.604   7.859  66.658  1.00  0.00    -0.093 C  
BRANCH   9  10
HETATM   10  C   UNL     1      -7.314   8.706  67.900  1.00  0.00    -0.092 C  
BRANCH  10  11
HETATM   11  C   UNL     1      -7.866   8.095  69.192  1.00  0.00    -0.107 C  
BRANCH  11  12
HETATM   12  C   UNL     1      -8.390   9.141  70.175  1.00  0.00    -0.174 C  
BRANCH  12  13
HETATM   13  C   UNL     1      -8.069   8.764  71.619  1.00  0.00    -0.153 C  
BRANCH  13  14
HETATM   14  C   UNL     1      -9.353   8.628  72.423  1.00  0.00    -0.214 C  
BRANCH  14  15
HETATM   15  N   UNL     1     -10.321   7.771  71.754  1.00  0.00    -0.196 N  
HETATM   16  C   UNL     1     -10.058   6.420  71.623  1.00  0.00    -0.186 C  
HETATM   17  C   UNL     1     -11.569   8.351  71.279  1.00  0.00    -0.283 C  
HETATM   18  O   UNL     1      -9.012   5.882  71.970  1.00  0.00    -0.137 OA 
BRANCH  16  19
HETATM   19  O   UNL     1     -11.060   5.763  70.925  1.00  0.00    -0.268 OA 
BRANCH  19  20
HETATM   20  C   UNL     1     -10.687   5.406  69.625  1.00  0.00    -0.196 A  
HETATM   21  C   UNL     1     -11.152   6.206  68.587  1.00  0.00    -0.378 A  
HETATM   22  C   UNL     1     -10.700   5.947  67.298  1.00  0.00    -0.380 A  
HETATM   23  C   UNL     1      -9.801   4.903  67.055  1.00  0.00    -0.214 A  
HETATM   24  C   UNL     1      -9.338   4.084  68.099  1.00  0.00    -0.164 A  
HETATM   25  C   UNL     1      -9.765   4.375  69.395  1.00  0.00    -0.267 A  
BRANCH  24  26
HETATM   26  N   UNL     1      -8.314   2.984  67.865  1.00  0.00    -0.078 N  
HETATM   27  C   UNL     1      -7.481   2.734  69.117  1.00  0.00    -0.044 C  
HETATM   28  C   UNL     1      -7.339   3.381  66.749  1.00  0.00    -0.075 C  
HETATM   29  C   UNL     1      -9.072   1.723  67.478  1.00  0.00    -0.138 C  
ENDBRANCH  24  26
ENDBRANCH  19  20
ENDBRANCH  16  19
ENDBRANCH  14  15
ENDBRANCH  13  14
ENDBRANCH  12  13
ENDBRANCH  11  12
ENDBRANCH  10  11
ENDBRANCH   9  10
ENDBRANCH   8   9
ENDBRANCH   7   8
ENDBRANCH   6   7
ENDBRANCH   5   6
ENDBRANCH   2   5
BRANCH   4  30
HETATM   30  O   UNL     1     -11.468  14.779  66.011  1.00  0.00    -0.351 OA 
BRANCH  30  31
HETATM   31  C   UNL     1     -11.114  15.644  67.061  1.00  0.00    -0.200 A  
HETATM   32  C   UNL     1     -11.398  15.287  68.380  1.00  0.00    -0.338 A  
HETATM   33  C   UNL     1     -10.384  16.798  66.761  1.00  0.00    -0.293 A  
HETATM   34  C   UNL     1      -9.966  17.642  67.805  1.00  0.00    -0.315 A  
HETATM   35  C   UNL     1     -11.001  16.119  69.412  1.00  0.00    -0.333 A  
HETATM   36  C   UNL     1     -10.300  17.290  69.126  1.00  0.00    -0.290 A  
BRANCH  34  37
HETATM   37  N   UNL     1      -9.268  18.965  67.511  1.00  0.00    -0.288 N  
HETATM   38  C   UNL     1      -8.181  18.802  66.448  1.00  0.00    -0.284 C  
HETATM   39  C   UNL     1     -10.261  19.998  66.977  1.00  0.00    -0.451 C  
HETATM   40  C   UNL     1      -8.631  19.438  68.819  1.00  0.00    -0.335 C  
ENDBRANCH  34  37
ENDBRANCH  30  31
ENDBRANCH   4  30
TORSDOF 17
ENDMDL
MODEL      176
REMARK 921   NORMALIZED FREE ENERGY PREDICTED BY IDOCK:   -4.27 KCAL/MOL
REMARK 922        TOTAL FREE ENERGY PREDICTED BY IDOCK:  -10.74 KCAL/MOL
REMARK 923 INTER-LIGAND FREE ENERGY PREDICTED BY IDOCK:   -8.39 KCAL/MOL
REMARK 924 INTRA-LIGAND FREE ENERGY PREDICTED BY IDOCK:   -2.35 KCAL/MOL
REMARK 927      BINDING AFFINITY PREDICTED BY RF-SCORE:    0.00 PKD
ROOT
HETATM    1  C   UNL     1      -8.572   9.881  69.653  1.00  0.00    -0.194 C  
HETATM    2  N   UNL     1      -9.005   9.278  68.404  1.00  0.00    -0.129 N  
HETATM    3  O   UNL     1     -10.807   8.621  67.106  1.00  0.00    -0.212 OA 
HETATM    4  C   UNL     1     -10.351   9.225  68.072  1.00  0.00    -0.221 C  
ENDROOT
BRANCH   2   5
HETATM    5  C   UNL     1      -8.033   8.521  67.617  1.00  0.00    -0.107 C  
BRANCH   5   6
HETATM    6  C   UNL     1      -7.037   9.418  66.870  1.00  0.00    -0.086 C  
BRANCH   6   7
HETATM    7  C   UNL     1      -7.729  10.217  65.759  1.00  0.00    -0.136 C  
BRANCH   7   8
HETATM    8  C   UNL     1      -8.223   9.310  64.625  1.00  0.00    -0.148 C  
BRANCH   8   9
HETATM    9  C   UNL     1      -7.264   9.342  63.431  1.00  0.00    -0.102 C  
BRANCH   9  10
HETATM   10  C   UNL     1      -6.794   7.937  63.043  1.00  0.00    -0.084 C  
BRANCH  10  11
HETATM   11  C   UNL     1      -7.606   6.822  63.710  1.00  0.00    -0.104 C  
BRANCH  11  12
HETATM   12  C   UNL     1      -7.379   5.452  63.074  1.00  0.00    -0.046 C  
BRANCH  12  13
HETATM   13  C   UNL     1      -7.502   4.329  64.102  1.00  0.00    -0.070 C  
BRANCH  13  14
HETATM   14  C   UNL     1      -8.860   4.390  64.785  1.00  0.00    -0.145 C  
BRANCH  14  15
HETATM   15  N   UNL     1      -8.813   3.836  66.130  1.00  0.00    -0.121 N  
HETATM   16  C   UNL     1      -9.657   4.339  67.103  1.00  0.00    -0.194 C  
HETATM   17  C   UNL     1      -7.907   2.730  66.408  1.00  0.00    -0.077 C  
HETATM   18  O   UNL     1     -10.413   5.291  66.939  1.00  0.00    -0.245 OA 
BRANCH  16  19
HETATM   19  O   UNL     1      -9.449   3.730  68.332  1.00  0.00    -0.164 OA 
BRANCH  19  20
HETATM   20  C   UNL     1      -9.144   4.637  69.354  1.00  0.00    -0.108 A  
HETATM   21  C   UNL     1      -7.881   5.216  69.332  1.00  0.00    -0.080 A  
HETATM   22  C   UNL     1      -7.592   6.208  70.264  1.00  0.00    -0.096 A  
HETATM   23  C   UNL     1      -8.552   6.607  71.199  1.00  0.00    -0.130 A  
HETATM   24  C   UNL     1      -9.826   6.015  71.232  1.00  0.00    -0.178 A  
HETATM   25  C   UNL     1     -10.121   5.049  70.271  1.00  0.00    -0.339 A  
BRANCH  24  26
HETATM   26  N   UNL     1     -10.903   6.477  72.201  1.00  0.00    -0.224 N  
HETATM   27  C   UNL     1     -10.431   7.679  73.013  1.00  0.00    -0.356 C  
HETATM   28  C   UNL     1     -11.244   5.366  73.202  1.00  0.00    -0.297 C  
HETATM   29  C   UNL     1     -12.133   6.846  71.384  1.00  0.00    -0.364 C  
ENDBRANCH  24  26
ENDBRANCH  19  20
ENDBRANCH  16  19
ENDBRANCH  14  15
ENDBRANCH  13  14
ENDBRANCH  12  13
ENDBRANCH  11  12
ENDBRANCH  10  11
ENDBRANCH   9  10
ENDBRANCH   8   9
ENDBRANCH   7   8
ENDBRANCH   6   7
ENDBRANCH   5   6
ENDBRANCH   2   5
BRANCH   4  30
HETATM   30  O   UNL     1     -11.159   9.881  69.006  1.00  0.00    -0.213 OA 
BRANCH  30  31
HETATM   31  C   UNL     1     -11.455  11.209  68.655  1.00  0.00    -0.298 A  
HETATM   32  C   UNL     1     -11.781  12.134  69.649  1.00  0.00    -0.396 A  
HETATM   33  C   UNL     1     -11.308  11.598  67.320  1.00  0.00    -0.372 A  
HETATM   34  C   UNL     1     -11.539  12.938  66.960  1.00  0.00    -0.362 A  
HETATM   35  C   UNL     1     -12.022  13.451  69.301  1.00  0.00    -0.367 A  
HETATM   36  C   UNL     1     -11.911  13.847  67.969  1.00  0.00    -0.411 A  
BRANCH  34  37
HETATM   37  N   UNL     1     -11.501  13.376  65.501  1.00  0.00    -0.301 N  
HETATM   38  C   UNL     1     -12.800  13.024  64.776  1.00  0.00    -0.265 C  
HETATM   39  C   UNL     1     -11.327  14.891  65.392  1.00  0.00    -0.346 C  
HETATM   40  C   UNL     1     -10.336  12.638  64.839  1.00  0.00    -0.308 C  
ENDBRANCH  34  37
ENDBRANCH  30  31
ENDBRANCH   4  30
TORSDOF 17
ENDMDL
MODEL      177
REMARK 921   NORMALIZED FREE ENERGY PREDICTED BY IDOCK:   -4.26 KCAL/MOL
REMARK 922        TOTAL FREE ENERGY PREDICTED BY IDOCK:  -10.73 KCAL/MOL
REMARK 923 INTER-LIGAND FREE ENERGY PREDICTED BY IDOCK:   -8.11 KCAL/MOL
REMARK 924 INTRA-LIGAND FREE ENERGY PREDICTED BY IDOCK:   -2.62 KCAL/MOL
REMARK 927      BINDING AFFINITY PREDICTED BY RF-SCORE:    0.00 PKD
ROOT
HETATM    1  C   UNL     1      -9.393  13.616  67.452  1.00  0.00    -0.227 C  
HETATM    2  N   UNL     1     -10.760  13.210  67.730  1.00  0.00    -0.236 N  
HETATM    3  O   UNL     1     -12.210  11.436  68.073  1.00  0.00    -0.607 OA 
HETATM    4  C   UNL     1     -11.070  11.877  67.962  1.00  0.00    -0.240 C  
ENDROOT
BRANCH   2   5
HETATM    5  C   UNL     1     -11.834  14.181  67.530  1.00  0.00    -0.401 C  
BRANCH   5   6
HETATM    6  C   UNL     1     -12.599  13.965  66.217  1.00  0.00    -0.376 C  
BRANCH   6   7
HETATM    7  C   UNL     1     -11.942  14.724  65.057  1.00  0.00    -0.318 C  
BRANCH   7   8
HETATM    8  C   UNL     1     -11.220  13.777  64.090  1.00  0.00    -0.238 C  
BRANCH   8   9
HETATM    9  C   UNL     1     -11.951  12.437  63.974  1.00  0.00    -0.546 C  
BRANCH   9  10
HETATM   10  C   UNL     1     -11.031  11.259  64.308  1.00  0.00    -0.358 C  
BRANCH  10  11
HETATM   11  C   UNL     1      -9.915  11.052  63.279  1.00  0.00    -0.414 C  
BRANCH  11  12
HETATM   12  C   UNL     1      -8.654  10.433  63.877  1.00  0.00    -0.178 C  
BRANCH  12  13
HETATM   13  C   UNL     1      -8.478   8.981  63.437  1.00  0.00    -0.176 C  
BRANCH  13  14
HETATM   14  C   UNL     1      -7.031   8.723  63.045  1.00  0.00    -0.090 C  
BRANCH  14  15
HETATM   15  N   UNL     1      -6.226   8.321  64.189  1.00  0.00    -0.066 N  
HETATM   16  C   UNL     1      -6.092   6.978  64.489  1.00  0.00    -0.037 C  
HETATM   17  C   UNL     1      -5.539   9.345  64.965  1.00  0.00    -0.057 C  
HETATM   18  O   UNL     1      -6.673   6.075  63.896  1.00  0.00    -0.036 OA 
BRANCH  16  19
HETATM   19  O   UNL     1      -5.331   6.776  65.631  1.00  0.00    -0.024 OA 
BRANCH  19  20
HETATM   20  C   UNL     1      -6.066   6.256  66.701  1.00  0.00    -0.029 A  
HETATM   21  C   UNL     1      -6.264   7.084  67.799  1.00  0.00    -0.042 A  
HETATM   22  C   UNL     1      -7.090   6.638  68.825  1.00  0.00    -0.082 A  
HETATM   23  C   UNL     1      -7.702   5.382  68.751  1.00  0.00    -0.083 A  
HETATM   24  C   UNL     1      -7.494   4.536  67.648  1.00  0.00    -0.074 A  
HETATM   25  C   UNL     1      -6.696   5.007  66.606  1.00  0.00    -0.057 A  
BRANCH  24  26
HETATM   26  N   UNL     1      -8.199   3.195  67.520  1.00  0.00    -0.080 N  
HETATM   27  C   UNL     1      -8.774   3.009  66.120  1.00  0.00    -0.132 C  
HETATM   28  C   UNL     1      -9.373   3.104  68.504  1.00  0.00    -0.177 C  
HETATM   29  C   UNL     1      -7.178   2.106  67.817  1.00  0.00    -0.047 C  
ENDBRANCH  24  26
ENDBRANCH  19  20
ENDBRANCH  16  19
ENDBRANCH  14  15
ENDBRANCH  13  14
ENDBRANCH  12  13
ENDBRANCH  11  12
ENDBRANCH  10  11
ENDBRANCH   9  10
ENDBRANCH   8   9
ENDBRANCH   7   8
ENDBRANCH   6   7
ENDBRANCH   5   6
ENDBRANCH   2   5
BRANCH   4  30
HETATM   30  O   UNL     1      -9.936  11.060  67.984  1.00  0.00    -0.166 OA 
BRANCH  30  31
HETATM   31  C   UNL     1     -10.235   9.691  68.093  1.00  0.00    -0.190 A  
HETATM   32  C   UNL     1     -10.275   8.896  66.946  1.00  0.00    -0.347 A  
HETATM   33  C   UNL     1     -10.377   9.135  69.368  1.00  0.00    -0.220 A  
HETATM   34  C   UNL     1     -10.613   7.756  69.499  1.00  0.00    -0.221 A  
HETATM   35  C   UNL     1     -10.520   7.540  67.066  1.00  0.00    -0.409 A  
HETATM   36  C   UNL     1     -10.696   6.977  68.329  1.00  0.00    -0.231 A  
BRANCH  34  37
HETATM   37  N   UNL     1     -10.887   7.133  70.863  1.00  0.00    -0.239 N  
HETATM   38  C   UNL     1     -11.035   5.614  70.765  1.00  0.00    -0.187 C  
HETATM   39  C   UNL     1      -9.732   7.405  71.828  1.00  0.00    -0.153 C  
HETATM   40  C   UNL     1     -12.193   7.737  71.380  1.00  0.00    -0.319 C  
ENDBRANCH  34  37
ENDBRANCH  30  31
ENDBRANCH   4  30
TORSDOF 17
ENDMDL
MODEL      178
REMARK 921   NORMALIZED FREE ENERGY PREDICTED BY IDOCK:   -4.21 KCAL/MOL
REMARK 922        TOTAL FREE ENERGY PREDICTED BY IDOCK:  -10.64 KCAL/MOL
REMARK 923 INTER-LIGAND FREE ENERGY PREDICTED BY IDOCK:   -9.04 KCAL/MOL
REMARK 924 INTRA-LIGAND FREE ENERGY PREDICTED BY IDOCK:   -1.60 KCAL/MOL
REMARK 927      BINDING AFFINITY PREDICTED BY RF-SCORE:    0.00 PKD
ROOT
HETATM    1  C   UNL     1     -10.507   9.840  69.194  1.00  0.00    -0.215 C  
HETATM    2  N   UNL     1     -11.182  10.032  70.466  1.00  0.00    -0.313 N  
HETATM    3  O   UNL     1     -12.548  11.409  71.733  1.00  0.00    -0.275 OA 
HETATM    4  C   UNL     1     -12.044  11.103  70.657  1.00  0.00    -0.379 C  
ENDROOT
BRANCH   2   5
HETATM    5  C   UNL     1     -10.762   9.227  71.612  1.00  0.00    -0.323 C  
BRANCH   5   6
HETATM    6  C   UNL     1      -9.280   8.830  71.554  1.00  0.00    -0.332 C  
BRANCH   6   7
HETATM    7  C   UNL     1      -8.885   7.974  72.763  1.00  0.00    -0.277 C  
BRANCH   7   8
HETATM    8  C   UNL     1     -10.111   7.473  73.536  1.00  0.00    -0.378 C  
BRANCH   8   9
HETATM    9  C   UNL     1     -10.368   5.987  73.268  1.00  0.00    -0.238 C  
BRANCH   9  10
HETATM   10  C   UNL     1     -11.385   5.783  72.142  1.00  0.00    -0.317 C  
BRANCH  10  11
HETATM   11  C   UNL     1     -10.742   5.384  70.810  1.00  0.00    -0.252 C  
BRANCH  11  12
HETATM   12  C   UNL     1      -9.811   4.179  70.930  1.00  0.00    -0.247 C  
BRANCH  12  13
HETATM   13  C   UNL     1      -9.405   3.645  69.559  1.00  0.00    -0.247 C  
BRANCH  13  14
HETATM   14  C   UNL     1      -9.754   4.656  68.477  1.00  0.00    -0.142 C  
BRANCH  14  15
HETATM   15  N   UNL     1      -8.633   4.894  67.579  1.00  0.00    -0.104 N  
HETATM   16  C   UNL     1      -8.817   4.770  66.214  1.00  0.00    -0.114 C  
HETATM   17  C   UNL     1      -7.353   5.303  68.139  1.00  0.00    -0.072 C  
HETATM   18  O   UNL     1      -9.859   4.395  65.687  1.00  0.00    -0.187 OA 
BRANCH  16  19
HETATM   19  O   UNL     1      -7.640   4.988  65.512  1.00  0.00    -0.083 OA 
BRANCH  19  20
HETATM   20  C   UNL     1      -7.716   6.069  64.628  1.00  0.00    -0.099 A  
HETATM   21  C   UNL     1      -7.675   5.782  63.268  1.00  0.00    -0.089 A  
HETATM   22  C   UNL     1      -7.868   6.823  62.367  1.00  0.00    -0.107 A  
HETATM   23  C   UNL     1      -8.095   8.126  62.821  1.00  0.00    -0.151 A  
HETATM   24  C   UNL     1      -8.124   8.422  64.195  1.00  0.00    -0.145 A  
HETATM   25  C   UNL     1      -7.969   7.367  65.093  1.00  0.00    -0.128 A  
BRANCH  24  26
HETATM   26  N   UNL     1      -8.429   9.820  64.709  1.00  0.00    -0.152 N  
HETATM   27  C   UNL     1      -9.790   9.867  65.397  1.00  0.00    -0.313 C  
HETATM   28  C   UNL     1      -8.478  10.825  63.550  1.00  0.00    -0.022 C  
HETATM   29  C   UNL     1      -7.331  10.202  65.691  1.00  0.00    -0.144 C  
ENDBRANCH  24  26
ENDBRANCH  19  20
ENDBRANCH  16  19
ENDBRANCH  14  15
ENDBRANCH  13  14
ENDBRANCH  12  13
ENDBRANCH  11  12
ENDBRANCH  10  11
ENDBRANCH   9  10
ENDBRANCH   8   9
ENDBRANCH   7   8
ENDBRANCH   6   7
ENDBRANCH   5   6
ENDBRANCH   2   5
BRANCH   4  30
HETATM   30  O   UNL     1     -12.229  11.855  69.492  1.00  0.00    -0.235 OA 
BRANCH  30  31
HETATM   31  C   UNL     1     -11.854  13.202  69.630  1.00  0.00    -0.324 A  
HETATM   32  C   UNL     1     -12.396  13.972  70.661  1.00  0.00    -0.446 A  
HETATM   33  C   UNL     1     -10.857  13.709  68.791  1.00  0.00    -0.279 A  
HETATM   34  C   UNL     1     -10.424  15.036  68.956  1.00  0.00    -0.245 A  
HETATM   35  C   UNL     1     -11.984  15.282  70.821  1.00  0.00    -0.384 A  
HETATM   36  C   UNL     1     -11.014  15.812  69.971  1.00  0.00    -0.344 A  
BRANCH  34  37
HETATM   37  N   UNL     1      -9.423  15.660  67.990  1.00  0.00    -0.194 N  
HETATM   38  C   UNL     1      -8.452  14.616  67.437  1.00  0.00    -0.204 C  
HETATM   39  C   UNL     1     -10.139  16.281  66.790  1.00  0.00    -0.278 C  
HETATM   40  C   UNL     1      -8.641  16.716  68.773  1.00  0.00    -0.261 C  
ENDBRANCH  34  37
ENDBRANCH  30  31
ENDBRANCH   4  30
TORSDOF 17
ENDMDL
MODEL      179
REMARK 921   NORMALIZED FREE ENERGY PREDICTED BY IDOCK:   -4.21 KCAL/MOL
REMARK 922        TOTAL FREE ENERGY PREDICTED BY IDOCK:  -10.63 KCAL/MOL
REMARK 923 INTER-LIGAND FREE ENERGY PREDICTED BY IDOCK:   -9.36 KCAL/MOL
REMARK 924 INTRA-LIGAND FREE ENERGY PREDICTED BY IDOCK:   -1.26 KCAL/MOL
REMARK 927      BINDING AFFINITY PREDICTED BY RF-SCORE:    0.00 PKD
ROOT
HETATM    1  C   UNL     1     -14.023   8.644  72.148  1.00  0.00    -0.435 C  
HETATM    2  N   UNL     1     -12.782   9.320  71.809  1.00  0.00    -0.353 N  
HETATM    3  O   UNL     1     -10.468   9.230  71.843  1.00  0.00    -0.305 OA 
HETATM    4  C   UNL     1     -11.560   8.686  71.980  1.00  0.00    -0.370 C  
ENDROOT
BRANCH   2   5
HETATM    5  C   UNL     1     -12.822  10.751  71.511  1.00  0.00    -0.462 C  
BRANCH   5   6
HETATM    6  C   UNL     1     -13.019  11.048  70.018  1.00  0.00     0.073 C  
BRANCH   6   7
HETATM    7  C   UNL     1     -11.704  11.480  69.358  1.00  0.00    -0.413 C  
BRANCH   7   8
HETATM    8  C   UNL     1     -11.907  12.658  68.396  1.00  0.00    -0.347 C  
BRANCH   8   9
HETATM    9  C   UNL     1     -11.728  12.222  66.938  1.00  0.00    -0.404 C  
BRANCH   9  10
HETATM   10  C   UNL     1     -10.656  11.137  66.799  1.00  0.00    -0.311 C  
BRANCH  10  11
HETATM   11  C   UNL     1      -9.466  11.568  65.937  1.00  0.00    -0.251 C  
BRANCH  11  12
HETATM   12  C   UNL     1      -8.133  11.006  66.428  1.00  0.00    -0.166 C  
BRANCH  12  13
HETATM   13  C   UNL     1      -7.178  12.118  66.854  1.00  0.00    -0.002 C  
BRANCH  13  14
HETATM   14  C   UNL     1      -7.189  12.270  68.367  1.00  0.00    -0.102 C  
BRANCH  14  15
HETATM   15  N   UNL     1      -7.539  13.624  68.772  1.00  0.00    -0.111 N  
HETATM   16  C   UNL     1      -6.554  14.467  69.252  1.00  0.00    -0.122 C  
HETATM   17  C   UNL     1      -8.915  14.074  68.616  1.00  0.00    -0.104 C  
HETATM   18  O   UNL     1      -5.388  14.133  69.439  1.00  0.00    -0.083 OA 
BRANCH  16  19
HETATM   19  O   UNL     1      -7.067  15.699  69.630  1.00  0.00    -0.195 OA 
BRANCH  19  20
HETATM   20  C   UNL     1      -7.124  16.620  68.579  1.00  0.00    -0.172 A  
HETATM   21  C   UNL     1      -6.143  16.528  67.598  1.00  0.00    -0.162 A  
HETATM   22  C   UNL     1      -6.245  17.351  66.482  1.00  0.00    -0.251 A  
HETATM   23  C   UNL     1      -7.308  18.251  66.355  1.00  0.00    -0.283 A  
HETATM   24  C   UNL     1      -8.295  18.356  67.350  1.00  0.00    -0.252 A  
HETATM   25  C   UNL     1      -8.208  17.500  68.448  1.00  0.00    -0.278 A  
BRANCH  24  26
HETATM   26  N   UNL     1      -9.490  19.284  67.202  1.00  0.00    -0.315 N  
HETATM   27  C   UNL     1      -9.057  20.663  66.717  1.00  0.00    -0.089 C  
HETATM   28  C   UNL     1     -10.192  19.482  68.551  1.00  0.00    -0.416 C  
HETATM   29  C   UNL     1     -10.445  18.651  66.199  1.00  0.00    -0.430 C  
ENDBRANCH  24  26
ENDBRANCH  19  20
ENDBRANCH  16  19
ENDBRANCH  14  15
ENDBRANCH  13  14
ENDBRANCH  12  13
ENDBRANCH  11  12
ENDBRANCH  10  11
ENDBRANCH   9  10
ENDBRANCH   8   9
ENDBRANCH   7   8
ENDBRANCH   6   7
ENDBRANCH   5   6
ENDBRANCH   2   5
BRANCH   4  30
HETATM   30  O   UNL     1     -11.699   7.361  72.402  1.00  0.00    -0.290 OA 
BRANCH  30  31
HETATM   31  C   UNL     1     -11.068   6.434  71.554  1.00  0.00    -0.273 A  
HETATM   32  C   UNL     1     -11.424   6.371  70.206  1.00  0.00    -0.468 A  
HETATM   33  C   UNL     1     -10.015   5.669  72.064  1.00  0.00    -0.217 A  
HETATM   34  C   UNL     1      -9.330   4.783  71.215  1.00  0.00    -0.148 A  
HETATM   35  C   UNL     1     -10.764   5.492  69.367  1.00  0.00    -0.312 A  
HETATM   36  C   UNL     1      -9.733   4.699  69.869  1.00  0.00    -0.279 A  
BRANCH  34  37
HETATM   37  N   UNL     1      -8.253   3.850  71.758  1.00  0.00    -0.080 N  
HETATM   38  C   UNL     1      -8.614   3.329  73.150  1.00  0.00    -0.081 C  
HETATM   39  C   UNL     1      -8.086   2.627  70.856  1.00  0.00    -0.049 C  
HETATM   40  C   UNL     1      -6.957   4.657  71.840  1.00  0.00    -0.059 C  
ENDBRANCH  34  37
ENDBRANCH  30  31
ENDBRANCH   4  30
TORSDOF 17
ENDMDL
MODEL      180
REMARK 921   NORMALIZED FREE ENERGY PREDICTED BY IDOCK:   -4.20 KCAL/MOL
REMARK 922        TOTAL FREE ENERGY PREDICTED BY IDOCK:  -10.61 KCAL/MOL
REMARK 923 INTER-LIGAND FREE ENERGY PREDICTED BY IDOCK:   -9.24 KCAL/MOL
REMARK 924 INTRA-LIGAND FREE ENERGY PREDICTED BY IDOCK:   -1.37 KCAL/MOL
REMARK 927      BINDING AFFINITY PREDICTED BY RF-SCORE:    0.00 PKD
ROOT
HETATM    1  C   UNL     1     -10.489   8.647  70.136  1.00  0.00    -0.217 C  
HETATM    2  N   UNL     1     -11.363   8.800  71.287  1.00  0.00    -0.272 N  
HETATM    3  O   UNL     1     -13.148   9.953  72.209  1.00  0.00    -0.418 OA 
HETATM    4  C   UNL     1     -12.444   9.669  71.244  1.00  0.00    -0.355 C  
ENDROOT
BRANCH   2   5
HETATM    5  C   UNL     1     -10.955   8.211  72.561  1.00  0.00    -0.369 C  
BRANCH   5   6
HETATM    6  C   UNL     1      -9.431   8.171  72.742  1.00  0.00    -0.349 C  
BRANCH   6   7
HETATM    7  C   UNL     1      -9.024   7.149  73.811  1.00  0.00    -0.227 C  
BRANCH   7   8
HETATM    8  C   UNL     1     -10.242   6.457  74.435  1.00  0.00    -0.343 C  
BRANCH   8   9
HETATM    9  C   UNL     1     -10.164   4.937  74.266  1.00  0.00    -0.290 C  
BRANCH   9  10
HETATM   10  C   UNL     1     -11.023   4.453  73.093  1.00  0.00    -0.332 C  
BRANCH  10  11
HETATM   11  C   UNL     1     -10.294   4.507  71.746  1.00  0.00    -0.175 C  
BRANCH  11  12
HETATM   12  C   UNL     1      -9.081   3.581  71.682  1.00  0.00    -0.173 C  
BRANCH  12  13
HETATM   13  C   UNL     1      -8.832   3.081  70.262  1.00  0.00    -0.147 C  
BRANCH  13  14
HETATM   14  C   UNL     1      -9.486   4.014  69.254  1.00  0.00    -0.190 C  
BRANCH  14  15
HETATM   15  N   UNL     1      -8.892   3.883  67.932  1.00  0.00    -0.103 N  
HETATM   16  C   UNL     1      -9.539   4.429  66.838  1.00  0.00    -0.199 C  
HETATM   17  C   UNL     1      -7.603   3.218  67.799  1.00  0.00    -0.064 C  
HETATM   18  O   UNL     1     -10.640   4.967  66.882  1.00  0.00    -0.227 OA 
BRANCH  16  19
HETATM   19  O   UNL     1      -8.859   4.175  65.656  1.00  0.00    -0.117 OA 
BRANCH  19  20
HETATM   20  C   UNL     1      -8.459   5.337  64.987  1.00  0.00    -0.150 A  
HETATM   21  C   UNL     1      -8.384   5.279  63.600  1.00  0.00    -0.118 A  
HETATM   22  C   UNL     1      -8.106   6.449  62.903  1.00  0.00    -0.059 A  
HETATM   23  C   UNL     1      -7.905   7.654  63.585  1.00  0.00    -0.120 A  
HETATM   24  C   UNL     1      -7.969   7.715  64.987  1.00  0.00    -0.131 A  
HETATM   25  C   UNL     1      -8.286   6.545  65.677  1.00  0.00    -0.137 A  
BRANCH  24  26
HETATM   26  N   UNL     1      -7.814   9.025  65.743  1.00  0.00    -0.097 N  
HETATM   27  C   UNL     1      -7.111   8.809  67.079  1.00  0.00    -0.078 C  
HETATM   28  C   UNL     1      -9.186   9.638  66.051  1.00  0.00    -0.182 C  
HETATM   29  C   UNL     1      -7.000   9.969  64.869  1.00  0.00    -0.136 C  
ENDBRANCH  24  26
ENDBRANCH  19  20
ENDBRANCH  16  19
ENDBRANCH  14  15
ENDBRANCH  13  14
ENDBRANCH  12  13
ENDBRANCH  11  12
ENDBRANCH  10  11
ENDBRANCH   9  10
ENDBRANCH   8   9
ENDBRANCH   7   8
ENDBRANCH   6   7
ENDBRANCH   5   6
ENDBRANCH   2   5
BRANCH   4  30
HETATM   30  O   UNL     1     -12.610  10.255  69.986  1.00  0.00    -0.161 OA 
BRANCH  30  31
HETATM   31  C   UNL     1     -12.195  11.597  69.934  1.00  0.00    -0.239 A  
HETATM   32  C   UNL     1     -11.315  12.013  68.933  1.00  0.00    -0.333 A  
HETATM   33  C   UNL     1     -12.762  12.510  70.828  1.00  0.00    -0.209 A  
HETATM   34  C   UNL     1     -12.406  13.867  70.750  1.00  0.00    -0.378 A  
HETATM   35  C   UNL     1     -10.950  13.345  68.857  1.00  0.00    -0.284 A  
HETATM   36  C   UNL     1     -11.483  14.261  69.763  1.00  0.00    -0.317 A  
BRANCH  34  37
HETATM   37  N   UNL     1     -12.914  14.872  71.777  1.00  0.00    -0.316 N  
HETATM   38  C   UNL     1     -13.027  14.245  73.167  1.00  0.00    -0.319 C  
HETATM   39  C   UNL     1     -11.955  16.057  71.901  1.00  0.00    -0.525 C  
HETATM   40  C   UNL     1     -14.298  15.329  71.314  1.00  0.00    -0.381 C  
ENDBRANCH  34  37
ENDBRANCH  30  31
ENDBRANCH   4  30
TORSDOF 17
ENDMDL
MODEL      181
REMARK 921   NORMALIZED FREE ENERGY PREDICTED BY IDOCK:   -4.16 KCAL/MOL
REMARK 922        TOTAL FREE ENERGY PREDICTED BY IDOCK:  -10.52 KCAL/MOL
REMARK 923 INTER-LIGAND FREE ENERGY PREDICTED BY IDOCK:   -8.81 KCAL/MOL
REMARK 924 INTRA-LIGAND FREE ENERGY PREDICTED BY IDOCK:   -1.71 KCAL/MOL
REMARK 927      BINDING AFFINITY PREDICTED BY RF-SCORE:    0.00 PKD
ROOT
HETATM    1  C   UNL     1      -6.892   5.804  69.473  1.00  0.00    -0.061 C  
HETATM    2  N   UNL     1      -7.983   5.618  68.531  1.00  0.00    -0.099 N  
HETATM    3  O   UNL     1     -10.222   6.003  68.076  1.00  0.00    -0.149 OA 
HETATM    4  C   UNL     1      -9.217   6.215  68.749  1.00  0.00    -0.124 C  
ENDROOT
BRANCH   2   5
HETATM    5  C   UNL     1      -7.840   4.610  67.483  1.00  0.00    -0.090 C  
BRANCH   5   6
HETATM    6  C   UNL     1      -7.746   5.217  66.076  1.00  0.00    -0.091 C  
BRANCH   6   7
HETATM    7  C   UNL     1      -7.388   6.707  66.135  1.00  0.00    -0.076 C  
BRANCH   7   8
HETATM    8  C   UNL     1      -7.926   7.473  64.919  1.00  0.00    -0.132 C  
BRANCH   8   9
HETATM    9  C   UNL     1      -8.981   8.503  65.334  1.00  0.00    -0.150 C  
BRANCH   9  10
HETATM   10  C   UNL     1      -9.151   9.596  64.275  1.00  0.00    -0.267 C  
BRANCH  10  11
HETATM   11  C   UNL     1      -9.233  11.007  64.869  1.00  0.00    -0.210 C  
BRANCH  11  12
HETATM   12  C   UNL     1     -10.668  11.494  65.063  1.00  0.00    -0.350 C  
BRANCH  12  13
HETATM   13  C   UNL     1     -10.864  12.899  64.499  1.00  0.00    -0.385 C  
BRANCH  13  14
HETATM   14  C   UNL     1     -11.358  13.838  65.590  1.00  0.00    -0.305 C  
BRANCH  14  15
HETATM   15  N   UNL     1     -11.209  15.234  65.207  1.00  0.00    -0.352 N  
HETATM   16  C   UNL     1     -10.310  16.034  65.887  1.00  0.00    -0.368 C  
HETATM   17  C   UNL     1     -11.981  15.745  64.082  1.00  0.00     0.020 C  
HETATM   18  O   UNL     1      -9.661  15.672  66.863  1.00  0.00    -0.222 OA 
BRANCH  16  19
HETATM   19  O   UNL     1     -10.328  17.342  65.424  1.00  0.00    -0.626 OA 
BRANCH  19  20
HETATM   20  C   UNL     1      -9.862  18.268  66.363  1.00  0.00    -0.357 A  
HETATM   21  C   UNL     1     -10.789  18.787  67.259  1.00  0.00    -0.408 A  
HETATM   22  C   UNL     1     -10.333  19.616  68.278  1.00  0.00    -0.539 A  
HETATM   23  C   UNL     1      -8.972  19.921  68.393  1.00  0.00    -0.255 A  
HETATM   24  C   UNL     1      -8.033  19.408  67.481  1.00  0.00    -0.268 A  
HETATM   25  C   UNL     1      -8.493  18.546  66.486  1.00  0.00    -0.291 A  
BRANCH  24  26
HETATM   26  N   UNL     1      -6.544  19.678  67.625  1.00  0.00    -0.222 N  
HETATM   27  C   UNL     1      -5.743  18.904  66.583  1.00  0.00    -0.157 C  
HETATM   28  C   UNL     1      -6.042  19.226  69.003  1.00  0.00    -0.249 C  
HETATM   29  C   UNL     1      -6.325  21.174  67.450  1.00  0.00    -0.363 C  
ENDBRANCH  24  26
ENDBRANCH  19  20
ENDBRANCH  16  19
ENDBRANCH  14  15
ENDBRANCH  13  14
ENDBRANCH  12  13
ENDBRANCH  11  12
ENDBRANCH  10  11
ENDBRANCH   9  10
ENDBRANCH   8   9
ENDBRANCH   7   8
ENDBRANCH   6   7
ENDBRANCH   5   6
ENDBRANCH   2   5
BRANCH   4  30
HETATM   30  O   UNL     1      -9.220   7.042  69.876  1.00  0.00    -0.145 OA 
BRANCH  30  31
HETATM   31  C   UNL     1      -9.440   8.397  69.575  1.00  0.00    -0.166 A  
HETATM   32  C   UNL     1     -10.699   8.960  69.790  1.00  0.00    -0.230 A  
HETATM   33  C   UNL     1      -8.354   9.178  69.168  1.00  0.00    -0.123 A  
HETATM   34  C   UNL     1      -8.541  10.549  68.924  1.00  0.00    -0.153 A  
HETATM   35  C   UNL     1     -10.894  10.307  69.540  1.00  0.00    -0.292 A  
HETATM   36  C   UNL     1      -9.828  11.091  69.102  1.00  0.00    -0.117 A  
BRANCH  34  37
HETATM   37  N   UNL     1      -7.411  11.409  68.370  1.00  0.00    -0.089 N  
HETATM   38  C   UNL     1      -7.938  12.723  67.791  1.00  0.00    -0.157 C  
HETATM   39  C   UNL     1      -6.416  11.776  69.471  1.00  0.00    -0.120 C  
HETATM   40  C   UNL     1      -6.734  10.603  67.261  1.00  0.00    -0.078 C  
ENDBRANCH  34  37
ENDBRANCH  30  31
ENDBRANCH   4  30
TORSDOF 17
ENDMDL
MODEL      182
REMARK 921   NORMALIZED FREE ENERGY PREDICTED BY IDOCK:   -4.14 KCAL/MOL
REMARK 922        TOTAL FREE ENERGY PREDICTED BY IDOCK:  -10.48 KCAL/MOL
REMARK 923 INTER-LIGAND FREE ENERGY PREDICTED BY IDOCK:   -9.45 KCAL/MOL
REMARK 924 INTRA-LIGAND FREE ENERGY PREDICTED BY IDOCK:   -1.03 KCAL/MOL
REMARK 927      BINDING AFFINITY PREDICTED BY RF-SCORE:    0.00 PKD
ROOT
HETATM    1  C   UNL     1      -9.102   9.600  70.139  1.00  0.00    -0.240 C  
HETATM    2  N   UNL     1      -8.374   8.659  69.304  1.00  0.00    -0.117 N  
HETATM    3  O   UNL     1      -8.476   6.700  68.073  1.00  0.00    -0.116 OA 
HETATM    4  C   UNL     1      -9.033   7.607  68.682  1.00  0.00    -0.133 C  
ENDROOT
BRANCH   2   5
HETATM    5  C   UNL     1      -6.913   8.694  69.318  1.00  0.00    -0.058 C  
BRANCH   5   6
HETATM    6  C   UNL     1      -6.314   9.219  68.006  1.00  0.00    -0.054 C  
BRANCH   6   7
HETATM    7  C   UNL     1      -6.493  10.736  67.879  1.00  0.00    -0.062 C  
BRANCH   7   8
HETATM    8  C   UNL     1      -6.580  11.182  66.414  1.00  0.00    -0.108 C  
BRANCH   8   9
HETATM    9  C   UNL     1      -5.498  10.509  65.563  1.00  0.00    -0.122 C  
BRANCH   9  10
HETATM   10  C   UNL     1      -6.029  10.112  64.183  1.00  0.00    -0.140 C  
BRANCH  10  11
HETATM   11  C   UNL     1      -7.516   9.741  64.189  1.00  0.00    -0.135 C  
BRANCH  11  12
HETATM   12  C   UNL     1      -8.374  10.684  63.349  1.00  0.00    -0.069 C  
BRANCH  12  13
HETATM   13  C   UNL     1      -9.860  10.512  63.653  1.00  0.00    -0.354 C  
BRANCH  13  14
HETATM   14  C   UNL     1     -10.411  11.769  64.310  1.00  0.00    -0.325 C  
BRANCH  14  15
HETATM   15  N   UNL     1     -10.795  11.531  65.693  1.00  0.00    -0.272 N  
HETATM   16  C   UNL     1     -11.697  12.383  66.305  1.00  0.00    -0.395 C  
HETATM   17  C   UNL     1     -10.253  10.372  66.388  1.00  0.00    -0.230 C  
HETATM   18  O   UNL     1     -12.157  13.393  65.784  1.00  0.00    -0.386 OA 
BRANCH  16  19
HETATM   19  O   UNL     1     -11.915  12.038  67.631  1.00  0.00    -0.547 OA 
BRANCH  19  20
HETATM   20  C   UNL     1     -11.623  13.072  68.527  1.00  0.00    -0.328 A  
HETATM   21  C   UNL     1     -10.658  13.994  68.140  1.00  0.00    -0.252 A  
HETATM   22  C   UNL     1     -10.433  15.097  68.956  1.00  0.00    -0.248 A  
HETATM   23  C   UNL     1     -11.160  15.269  70.138  1.00  0.00    -0.312 A  
HETATM   24  C   UNL     1     -12.127  14.332  70.539  1.00  0.00    -0.343 A  
HETATM   25  C   UNL     1     -12.375  13.249  69.697  1.00  0.00    -0.154 A  
BRANCH  24  26
HETATM   26  N   UNL     1     -12.970  14.532  71.789  1.00  0.00    -0.324 N  
HETATM   27  C   UNL     1     -14.104  15.520  71.534  1.00  0.00    -0.393 C  
HETATM   28  C   UNL     1     -12.121  15.108  72.928  1.00  0.00    -0.372 C  
HETATM   29  C   UNL     1     -13.536  13.176  72.187  1.00  0.00    -0.560 C  
ENDBRANCH  24  26
ENDBRANCH  19  20
ENDBRANCH  16  19
ENDBRANCH  14  15
ENDBRANCH  13  14
ENDBRANCH  12  13
ENDBRANCH  11  12
ENDBRANCH  10  11
ENDBRANCH   9  10
ENDBRANCH   8   9
ENDBRANCH   7   8
ENDBRANCH   6   7
ENDBRANCH   5   6
ENDBRANCH   2   5
BRANCH   4  30
HETATM   30  O   UNL     1     -10.416   7.647  68.886  1.00  0.00    -0.211 OA 
BRANCH  30  31
HETATM   31  C   UNL     1     -10.816   7.110  70.121  1.00  0.00    -0.257 A  
HETATM   32  C   UNL     1     -11.981   7.573  70.735  1.00  0.00    -0.224 A  
HETATM   33  C   UNL     1     -10.089   6.041  70.654  1.00  0.00    -0.246 A  
HETATM   34  C   UNL     1     -10.511   5.449  71.857  1.00  0.00    -0.224 A  
HETATM   35  C   UNL     1     -12.395   7.005  71.926  1.00  0.00    -0.358 A  
HETATM   36  C   UNL     1     -11.662   5.959  72.486  1.00  0.00    -0.288 A  
BRANCH  34  37
HETATM   37  N   UNL     1      -9.683   4.359  72.528  1.00  0.00    -0.147 N  
HETATM   38  C   UNL     1      -8.644   3.775  71.570  1.00  0.00    -0.085 C  
HETATM   39  C   UNL     1      -8.918   4.917  73.728  1.00  0.00    -0.113 C  
HETATM   40  C   UNL     1     -10.653   3.256  72.956  1.00  0.00    -0.147 C  
ENDBRANCH  34  37
ENDBRANCH  30  31
ENDBRANCH   4  30
TORSDOF 17
ENDMDL
MODEL      183
REMARK 921   NORMALIZED FREE ENERGY PREDICTED BY IDOCK:   -4.13 KCAL/MOL
REMARK 922        TOTAL FREE ENERGY PREDICTED BY IDOCK:  -10.46 KCAL/MOL
REMARK 923 INTER-LIGAND FREE ENERGY PREDICTED BY IDOCK:   -7.71 KCAL/MOL
REMARK 924 INTRA-LIGAND FREE ENERGY PREDICTED BY IDOCK:   -2.76 KCAL/MOL
REMARK 927      BINDING AFFINITY PREDICTED BY RF-SCORE:    0.00 PKD
ROOT
HETATM    1  C   UNL     1      -6.668   7.707  67.605  1.00  0.00    -0.067 C  
HETATM    2  N   UNL     1      -8.022   7.359  67.210  1.00  0.00    -0.113 N  
HETATM    3  O   UNL     1      -9.956   8.058  66.144  1.00  0.00    -0.122 OA 
HETATM    4  C   UNL     1      -8.769   8.214  66.412  1.00  0.00    -0.149 C  
ENDROOT
BRANCH   2   5
HETATM    5  C   UNL     1      -8.669   6.218  67.854  1.00  0.00    -0.114 C  
BRANCH   5   6
HETATM    6  C   UNL     1      -7.876   5.676  69.051  1.00  0.00    -0.096 C  
BRANCH   6   7
HETATM    7  C   UNL     1      -8.787   5.435  70.261  1.00  0.00    -0.143 C  
BRANCH   7   8
HETATM    8  C   UNL     1      -7.985   5.270  71.558  1.00  0.00    -0.114 C  
BRANCH   8   9
HETATM    9  C   UNL     1      -8.610   6.071  72.704  1.00  0.00    -0.118 C  
BRANCH   9  10
HETATM   10  C   UNL     1     -10.115   5.814  72.820  1.00  0.00    -0.202 C  
BRANCH  10  11
HETATM   11  C   UNL     1     -10.956   7.092  72.736  1.00  0.00    -0.329 C  
BRANCH  11  12
HETATM   12  C   UNL     1     -11.728   7.218  71.423  1.00  0.00    -0.317 C  
BRANCH  12  13
HETATM   13  C   UNL     1     -12.445   8.562  71.321  1.00  0.00    -0.275 C  
BRANCH  13  14
HETATM   14  C   UNL     1     -11.461   9.700  71.543  1.00  0.00    -0.369 C  
BRANCH  14  15
HETATM   15  N   UNL     1     -10.691   9.991  70.343  1.00  0.00    -0.303 N  
HETATM   16  C   UNL     1      -9.324   9.781  70.343  1.00  0.00    -0.126 C  
HETATM   17  C   UNL     1     -11.389  10.454  69.151  1.00  0.00    -0.226 C  
HETATM   18  O   UNL     1      -8.678   9.429  71.324  1.00  0.00    -0.295 OA 
BRANCH  16  19
HETATM   19  O   UNL     1      -8.745  10.150  69.138  1.00  0.00    -0.148 OA 
BRANCH  19  20
HETATM   20  C   UNL     1      -7.791  11.165  69.270  1.00  0.00    -0.001 A  
HETATM   21  C   UNL     1      -6.496  10.781  69.600  1.00  0.00    -0.103 A  
HETATM   22  C   UNL     1      -5.503  11.755  69.621  1.00  0.00    -0.071 A  
HETATM   23  C   UNL     1      -5.805  13.087  69.320  1.00  0.00    -0.086 A  
HETATM   24  C   UNL     1      -7.115  13.480  68.999  1.00  0.00    -0.066 A  
HETATM   25  C   UNL     1      -8.098  12.493  68.942  1.00  0.00     0.200 A  
BRANCH  24  26
HETATM   26  N   UNL     1      -7.451  14.911  68.610  1.00  0.00    -0.117 N  
HETATM   27  C   UNL     1      -7.709  15.026  67.111  1.00  0.00    -0.167 C  
HETATM   28  C   UNL     1      -6.283  15.850  68.937  1.00  0.00    -0.120 C  
HETATM   29  C   UNL     1      -8.693  15.323  69.388  1.00  0.00    -0.216 C  
ENDBRANCH  24  26
ENDBRANCH  19  20
ENDBRANCH  16  19
ENDBRANCH  14  15
ENDBRANCH  13  14
ENDBRANCH  12  13
ENDBRANCH  11  12
ENDBRANCH  10  11
ENDBRANCH   9  10
ENDBRANCH   8   9
ENDBRANCH   7   8
ENDBRANCH   6   7
ENDBRANCH   5   6
ENDBRANCH   2   5
BRANCH   4  30
HETATM   30  O   UNL     1      -8.039   9.330  65.994  1.00  0.00    -0.108 OA 
BRANCH  30  31
HETATM   31  C   UNL     1      -8.761  10.187  65.146  1.00  0.00    -0.173 A  
HETATM   32  C   UNL     1      -8.770   9.957  63.769  1.00  0.00    -0.226 A  
HETATM   33  C   UNL     1      -9.547  11.191  65.720  1.00  0.00    -0.255 A  
HETATM   34  C   UNL     1     -10.327  12.017  64.892  1.00  0.00    -0.278 A  
HETATM   35  C   UNL     1      -9.524  10.774  62.947  1.00  0.00    -0.373 A  
HETATM   36  C   UNL     1     -10.288  11.800  63.502  1.00  0.00    -0.490 A  
BRANCH  34  37
HETATM   37  N   UNL     1     -11.107  13.193  65.469  1.00  0.00    -0.277 N  
HETATM   38  C   UNL     1     -12.588  13.123  65.091  1.00  0.00    -0.465 C  
HETATM   39  C   UNL     1     -11.038  13.197  66.996  1.00  0.00    -0.279 C  
HETATM   40  C   UNL     1     -10.496  14.468  64.885  1.00  0.00    -0.409 C  
ENDBRANCH  34  37
ENDBRANCH  30  31
ENDBRANCH   4  30
TORSDOF 17
ENDMDL
MODEL      184
REMARK 921   NORMALIZED FREE ENERGY PREDICTED BY IDOCK:   -4.11 KCAL/MOL
REMARK 922        TOTAL FREE ENERGY PREDICTED BY IDOCK:  -10.42 KCAL/MOL
REMARK 923 INTER-LIGAND FREE ENERGY PREDICTED BY IDOCK:   -9.52 KCAL/MOL
REMARK 924 INTRA-LIGAND FREE ENERGY PREDICTED BY IDOCK:   -0.90 KCAL/MOL
REMARK 927      BINDING AFFINITY PREDICTED BY RF-SCORE:    0.00 PKD
ROOT
HETATM    1  C   UNL     1     -11.010  16.709  68.155  1.00  0.00    -0.327 C  
HETATM    2  N   UNL     1     -10.744  15.490  68.900  1.00  0.00    -0.232 N  
HETATM    3  O   UNL     1      -9.937  13.320  68.818  1.00  0.00    -0.166 OA 
HETATM    4  C   UNL     1     -10.083  14.425  68.304  1.00  0.00    -0.239 C  
ENDROOT
BRANCH   2   5
HETATM    5  C   UNL     1     -11.386  15.309  70.200  1.00  0.00    -0.289 C  
BRANCH   5   6
HETATM    6  C   UNL     1     -12.728  14.570  70.109  1.00  0.00    -0.264 C  
BRANCH   6   7
HETATM    7  C   UNL     1     -13.267  14.218  71.501  1.00  0.00    -0.420 C  
BRANCH   7   8
HETATM    8  C   UNL     1     -13.052  12.738  71.840  1.00  0.00    -0.474 C  
BRANCH   8   9
HETATM    9  C   UNL     1     -12.428  11.983  70.662  1.00  0.00    -0.335 C  
BRANCH   9  10
HETATM   10  C   UNL     1     -12.691  10.477  70.752  1.00  0.00    -0.471 C  
BRANCH  10  11
HETATM   11  C   UNL     1     -12.992   9.998  72.177  1.00  0.00    -0.460 C  
BRANCH  11  12
HETATM   12  C   UNL     1     -12.524   8.569  72.441  1.00  0.00    -0.416 C  
BRANCH  12  13
HETATM   13  C   UNL     1     -11.262   8.236  71.649  1.00  0.00    -0.330 C  
BRANCH  13  14
HETATM   14  C   UNL     1     -10.807   6.817  71.957  1.00  0.00    -0.227 C  
BRANCH  14  15
HETATM   15  N   UNL     1     -10.768   5.991  70.759  1.00  0.00    -0.260 N  
HETATM   16  C   UNL     1      -9.941   4.884  70.723  1.00  0.00    -0.222 C  
HETATM   17  C   UNL     1     -11.640   6.325  69.642  1.00  0.00    -0.217 C  
HETATM   18  O   UNL     1      -9.160   4.574  71.617  1.00  0.00    -0.125 OA 
BRANCH  16  19
HETATM   19  O   UNL     1      -9.994   4.238  69.497  1.00  0.00    -0.200 OA 
BRANCH  19  20
HETATM   20  C   UNL     1      -8.995   4.653  68.609  1.00  0.00    -0.109 A  
HETATM   21  C   UNL     1      -7.780   5.045  69.158  1.00  0.00    -0.076 A  
HETATM   22  C   UNL     1      -6.732   5.347  68.296  1.00  0.00    -0.054 A  
HETATM   23  C   UNL     1      -6.901   5.261  66.911  1.00  0.00    -0.063 A  
HETATM   24  C   UNL     1      -8.132   4.877  66.352  1.00  0.00    -0.107 A  
HETATM   25  C   UNL     1      -9.167   4.538  67.222  1.00  0.00    -0.151 A  
BRANCH  24  26
HETATM   26  N   UNL     1      -8.319   4.718  64.851  1.00  0.00    -0.127 N  
HETATM   27  C   UNL     1      -7.285   3.760  64.268  1.00  0.00    -0.058 C  
HETATM   28  C   UNL     1      -8.135   6.064  64.137  1.00  0.00    -0.095 C  
HETATM   29  C   UNL     1      -9.723   4.183  64.613  1.00  0.00    -0.174 C  
ENDBRANCH  24  26
ENDBRANCH  19  20
ENDBRANCH  16  19
ENDBRANCH  14  15
ENDBRANCH  13  14
ENDBRANCH  12  13
ENDBRANCH  11  12
ENDBRANCH  10  11
ENDBRANCH   9  10
ENDBRANCH   8   9
ENDBRANCH   7   8
ENDBRANCH   6   7
ENDBRANCH   5   6
ENDBRANCH   2   5
BRANCH   4  30
HETATM   30  O   UNL     1      -9.655  14.719  67.006  1.00  0.00    -0.227 OA 
BRANCH  30  31
HETATM   31  C   UNL     1     -10.049  13.762  66.056  1.00  0.00    -0.311 A  
HETATM   32  C   UNL     1     -11.058  14.066  65.141  1.00  0.00    -0.341 A  
HETATM   33  C   UNL     1      -9.339  12.560  65.982  1.00  0.00    -0.091 A  
HETATM   34  C   UNL     1      -9.677  11.616  64.996  1.00  0.00    -0.211 A  
HETATM   35  C   UNL     1     -11.405  13.137  64.176  1.00  0.00    -0.440 A  
HETATM   36  C   UNL     1     -10.727  11.921  64.111  1.00  0.00    -0.402 A  
BRANCH  34  37
HETATM   37  N   UNL     1      -9.004  10.249  64.955  1.00  0.00    -0.181 N  
HETATM   38  C   UNL     1      -9.746   9.233  65.824  1.00  0.00    -0.269 C  
HETATM   39  C   UNL     1      -8.990   9.691  63.532  1.00  0.00    -0.217 C  
HETATM   40  C   UNL     1      -7.582  10.430  65.491  1.00  0.00    -0.144 C  
ENDBRANCH  34  37
ENDBRANCH  30  31
ENDBRANCH   4  30
TORSDOF 17
ENDMDL
MODEL      185
REMARK 921   NORMALIZED FREE ENERGY PREDICTED BY IDOCK:   -4.10 KCAL/MOL
REMARK 922        TOTAL FREE ENERGY PREDICTED BY IDOCK:  -10.41 KCAL/MOL
REMARK 923 INTER-LIGAND FREE ENERGY PREDICTED BY IDOCK:   -8.51 KCAL/MOL
REMARK 924 INTRA-LIGAND FREE ENERGY PREDICTED BY IDOCK:   -1.90 KCAL/MOL
REMARK 927      BINDING AFFINITY PREDICTED BY RF-SCORE:    0.00 PKD
ROOT
HETATM    1  C   UNL     1     -11.955  14.301  68.322  1.00  0.00    -0.311 C  
HETATM    2  N   UNL     1     -11.233  14.785  67.157  1.00  0.00    -0.334 N  
HETATM    3  O   UNL     1     -10.474  14.300  65.023  1.00  0.00    -0.388 OA 
HETATM    4  C   UNL     1     -11.167  14.025  65.998  1.00  0.00    -0.310 C  
ENDROOT
BRANCH   2   5
HETATM    5  C   UNL     1     -10.384  15.966  67.300  1.00  0.00    -0.293 C  
BRANCH   5   6
HETATM    6  C   UNL     1      -9.708  16.056  68.675  1.00  0.00    -0.217 C  
BRANCH   6   7
HETATM    7  C   UNL     1      -8.777  14.861  68.918  1.00  0.00    -0.180 C  
BRANCH   7   8
HETATM    8  C   UNL     1      -7.885  14.575  67.703  1.00  0.00    -0.194 C  
BRANCH   8   9
HETATM    9  C   UNL     1      -7.917  13.090  67.328  1.00  0.00    -0.143 C  
BRANCH   9  10
HETATM   10  C   UNL     1      -6.624  12.376  67.731  1.00  0.00    -0.113 C  
BRANCH  10  11
HETATM   11  C   UNL     1      -6.846  10.926  68.175  1.00  0.00    -0.067 C  
BRANCH  11  12
HETATM   12  C   UNL     1      -7.162  10.796  69.664  1.00  0.00    -0.127 C  
BRANCH  12  13
HETATM   13  C   UNL     1      -8.593  10.318  69.894  1.00  0.00     0.004 C  
BRANCH  13  14
HETATM   14  C   UNL     1      -8.599   9.094  70.797  1.00  0.00    -0.219 C  
BRANCH  14  15
HETATM   15  N   UNL     1      -9.085   7.912  70.100  1.00  0.00    -0.152 N  
HETATM   16  C   UNL     1     -10.364   7.451  70.352  1.00  0.00    -0.209 C  
HETATM   17  C   UNL     1      -8.225   7.268  69.117  1.00  0.00    -0.122 C  
HETATM   18  O   UNL     1     -11.119   7.928  71.192  1.00  0.00    -0.247 OA 
BRANCH  16  19
HETATM   19  O   UNL     1     -10.647   6.295  69.639  1.00  0.00    -0.211 OA 
BRANCH  19  20
HETATM   20  C   UNL     1     -10.263   5.126  70.305  1.00  0.00    -0.271 A  
HETATM   21  C   UNL     1      -9.731   4.100  69.534  1.00  0.00    -0.254 A  
HETATM   22  C   UNL     1      -9.232   2.976  70.182  1.00  0.00    -0.215 A  
HETATM   23  C   UNL     1      -9.268   2.883  71.577  1.00  0.00    -0.186 A  
HETATM   24  C   UNL     1      -9.816   3.914  72.360  1.00  0.00    -0.157 A  
HETATM   25  C   UNL     1     -10.280   5.054  71.706  1.00  0.00    -0.272 A  
BRANCH  24  26
HETATM   26  N   UNL     1      -9.810   3.859  73.880  1.00  0.00    -0.108 N  
HETATM   27  C   UNL     1      -8.384   3.813  74.421  1.00  0.00    -0.085 C  
HETATM   28  C   UNL     1     -10.520   2.594  74.379  1.00  0.00    -0.156 C  
HETATM   29  C   UNL     1     -10.525   5.101  74.391  1.00  0.00    -0.255 C  
ENDBRANCH  24  26
ENDBRANCH  19  20
ENDBRANCH  16  19
ENDBRANCH  14  15
ENDBRANCH  13  14
ENDBRANCH  12  13
ENDBRANCH  11  12
ENDBRANCH  10  11
ENDBRANCH   9  10
ENDBRANCH   8   9
ENDBRANCH   7   8
ENDBRANCH   6   7
ENDBRANCH   5   6
ENDBRANCH   2   5
BRANCH   4  30
HETATM   30  O   UNL     1     -11.929  12.856  66.080  1.00  0.00    -0.404 OA 
BRANCH  30  31
HETATM   31  C   UNL     1     -11.153  11.687  66.164  1.00  0.00    -0.280 A  
HETATM   32  C   UNL     1     -11.272  10.853  67.277  1.00  0.00    -0.307 A  
HETATM   33  C   UNL     1     -10.355  11.332  65.072  1.00  0.00    -0.359 A  
HETATM   34  C   UNL     1      -9.621  10.134  65.112  1.00  0.00    -0.292 A  
HETATM   35  C   UNL     1     -10.543   9.679  67.330  1.00  0.00    -0.333 A  
HETATM   36  C   UNL     1      -9.719   9.328  66.262  1.00  0.00    -0.340 A  
BRANCH  34  37
HETATM   37  N   UNL     1      -8.654   9.769  63.992  1.00  0.00    -0.180 N  
HETATM   38  C   UNL     1      -8.524   8.253  63.836  1.00  0.00     0.063 C  
HETATM   39  C   UNL     1      -9.144  10.314  62.650  1.00  0.00    -0.286 C  
HETATM   40  C   UNL     1      -7.292  10.359  64.363  1.00  0.00    -0.002 C  
ENDBRANCH  34  37
ENDBRANCH  30  31
ENDBRANCH   4  30
TORSDOF 17
ENDMDL
MODEL      186
REMARK 921   NORMALIZED FREE ENERGY PREDICTED BY IDOCK:   -4.10 KCAL/MOL
REMARK 922        TOTAL FREE ENERGY PREDICTED BY IDOCK:  -10.40 KCAL/MOL
REMARK 923 INTER-LIGAND FREE ENERGY PREDICTED BY IDOCK:   -7.98 KCAL/MOL
REMARK 924 INTRA-LIGAND FREE ENERGY PREDICTED BY IDOCK:   -2.42 KCAL/MOL
REMARK 927      BINDING AFFINITY PREDICTED BY RF-SCORE:    0.00 PKD
ROOT
HETATM    1  C   UNL     1      -9.909  12.210  65.624  1.00  0.00    -0.237 C  
HETATM    2  N   UNL     1      -9.569  11.645  66.919  1.00  0.00    -0.184 N  
HETATM    3  O   UNL     1      -7.991  11.518  68.610  1.00  0.00    -0.140 OA 
HETATM    4  C   UNL     1      -8.415  12.038  67.583  1.00  0.00    -0.160 C  
ENDROOT
BRANCH   2   5
HETATM    5  C   UNL     1     -10.326  10.492  67.401  1.00  0.00    -0.224 C  
BRANCH   5   6
HETATM    6  C   UNL     1     -11.398  10.869  68.433  1.00  0.00    -0.370 C  
BRANCH   6   7
HETATM    7  C   UNL     1     -10.944  10.528  69.858  1.00  0.00    -0.359 C  
BRANCH   7   8
HETATM    8  C   UNL     1     -11.532   9.198  70.344  1.00  0.00    -0.228 C  
BRANCH   8   9
HETATM    9  C   UNL     1     -10.790   8.006  69.733  1.00  0.00    -0.194 C  
BRANCH   9  10
HETATM   10  C   UNL     1     -11.454   6.676  70.100  1.00  0.00    -0.444 C  
BRANCH  10  11
HETATM   11  C   UNL     1     -12.219   6.727  71.427  1.00  0.00    -0.413 C  
BRANCH  11  12
HETATM   12  C   UNL     1     -11.457   6.086  72.584  1.00  0.00    -0.297 C  
BRANCH  12  13
HETATM   13  C   UNL     1     -10.606   7.110  73.331  1.00  0.00    -0.424 C  
BRANCH  13  14
HETATM   14  C   UNL     1      -9.232   6.530  73.634  1.00  0.00    -0.135 C  
BRANCH  14  15
HETATM   15  N   UNL     1      -8.271   6.843  72.588  1.00  0.00    -0.109 N  
HETATM   16  C   UNL     1      -7.961   5.886  71.639  1.00  0.00    -0.113 C  
HETATM   17  C   UNL     1      -7.690   8.178  72.538  1.00  0.00    -0.128 C  
HETATM   18  O   UNL     1      -8.388   4.737  71.650  1.00  0.00    -0.105 OA 
BRANCH  16  19
HETATM   19  O   UNL     1      -6.999   6.336  70.747  1.00  0.00    -0.064 OA 
BRANCH  19  20
HETATM   20  C   UNL     1      -7.513   6.621  69.477  1.00  0.00    -0.093 A  
HETATM   21  C   UNL     1      -7.241   7.877  68.948  1.00  0.00    -0.076 A  
HETATM   22  C   UNL     1      -7.636   8.145  67.642  1.00  0.00    -0.098 A  
HETATM   23  C   UNL     1      -8.293   7.172  66.883  1.00  0.00    -0.118 A  
HETATM   24  C   UNL     1      -8.581   5.904  67.418  1.00  0.00    -0.106 A  
HETATM   25  C   UNL     1      -8.147   5.630  68.715  1.00  0.00    -0.100 A  
BRANCH  24  26
HETATM   26  N   UNL     1      -9.240   4.813  66.589  1.00  0.00    -0.123 N  
HETATM   27  C   UNL     1      -9.173   3.466  67.303  1.00  0.00    -0.193 C  
HETATM   28  C   UNL     1      -8.520   4.645  65.245  1.00  0.00    -0.128 C  
HETATM   29  C   UNL     1     -10.690   5.215  66.363  1.00  0.00    -0.210 C  
ENDBRANCH  24  26
ENDBRANCH  19  20
ENDBRANCH  16  19
ENDBRANCH  14  15
ENDBRANCH  13  14
ENDBRANCH  12  13
ENDBRANCH  11  12
ENDBRANCH  10  11
ENDBRANCH   9  10
ENDBRANCH   8   9
ENDBRANCH   7   8
ENDBRANCH   6   7
ENDBRANCH   5   6
ENDBRANCH   2   5
BRANCH   4  30
HETATM   30  O   UNL     1      -7.733  13.058  66.912  1.00  0.00    -0.001 OA 
BRANCH  30  31
HETATM   31  C   UNL     1      -7.845  14.312  67.538  1.00  0.00    -0.194 A  
HETATM   32  C   UNL     1      -7.070  14.598  68.664  1.00  0.00    -0.115 A  
HETATM   33  C   UNL     1      -8.657  15.285  66.948  1.00  0.00    -0.289 A  
HETATM   34  C   UNL     1      -8.731  16.565  67.524  1.00  0.00    -0.182 A  
HETATM   35  C   UNL     1      -7.149  15.851  69.244  1.00  0.00    -0.206 A  
HETATM   36  C   UNL     1      -7.978  16.822  68.685  1.00  0.00    -0.246 A  
BRANCH  34  37
HETATM   37  N   UNL     1      -9.690  17.617  66.977  1.00  0.00    -0.281 N  
HETATM   38  C   UNL     1      -8.942  18.861  66.496  1.00  0.00    -0.323 C  
HETATM   39  C   UNL     1     -10.468  17.074  65.778  1.00  0.00    -0.251 C  
HETATM   40  C   UNL     1     -10.633  18.003  68.118  1.00  0.00    -0.319 C  
ENDBRANCH  34  37
ENDBRANCH  30  31
ENDBRANCH   4  30
TORSDOF 17
ENDMDL
MODEL      187
REMARK 921   NORMALIZED FREE ENERGY PREDICTED BY IDOCK:   -4.07 KCAL/MOL
REMARK 922        TOTAL FREE ENERGY PREDICTED BY IDOCK:  -10.36 KCAL/MOL
REMARK 923 INTER-LIGAND FREE ENERGY PREDICTED BY IDOCK:   -8.20 KCAL/MOL
REMARK 924 INTRA-LIGAND FREE ENERGY PREDICTED BY IDOCK:   -2.15 KCAL/MOL
REMARK 927      BINDING AFFINITY PREDICTED BY RF-SCORE:    0.00 PKD
ROOT
HETATM    1  C   UNL     1     -12.111  13.191  70.584  1.00  0.00    -0.264 C  
HETATM    2  N   UNL     1     -11.876  12.793  69.207  1.00  0.00    -0.310 N  
HETATM    3  O   UNL     1     -11.713  13.488  67.003  1.00  0.00    -0.341 OA 
HETATM    4  C   UNL     1     -11.778  13.745  68.201  1.00  0.00    -0.357 C  
ENDROOT
BRANCH   2   5
HETATM    5  C   UNL     1     -11.980  11.377  68.858  1.00  0.00    -0.304 C  
BRANCH   5   6
HETATM    6  C   UNL     1     -11.279  10.458  69.867  1.00  0.00    -0.371 C  
BRANCH   6   7
HETATM    7  C   UNL     1      -9.822  10.197  69.465  1.00  0.00    -0.255 C  
BRANCH   7   8
HETATM    8  C   UNL     1      -9.614  10.326  67.950  1.00  0.00    -0.161 C  
BRANCH   8   9
HETATM    9  C   UNL     1      -8.321   9.636  67.506  1.00  0.00    -0.118 C  
BRANCH   9  10
HETATM   10  C   UNL     1      -8.452   8.111  67.541  1.00  0.00    -0.126 C  
BRANCH  10  11
HETATM   11  C   UNL     1      -9.494   7.570  66.556  1.00  0.00    -0.237 C  
BRANCH  11  12
HETATM   12  C   UNL     1      -9.538   6.044  66.507  1.00  0.00    -0.182 C  
BRANCH  12  13
HETATM   13  C   UNL     1      -8.585   5.489  65.452  1.00  0.00    -0.151 C  
BRANCH  13  14
HETATM   14  C   UNL     1      -8.299   4.019  65.724  1.00  0.00    -0.109 C  
BRANCH  14  15
HETATM   15  N   UNL     1      -7.827   3.803  67.083  1.00  0.00    -0.083 N  
HETATM   16  C   UNL     1      -8.549   2.985  67.933  1.00  0.00    -0.095 C  
HETATM   17  C   UNL     1      -6.576   4.419  67.503  1.00  0.00    -0.046 C  
HETATM   18  O   UNL     1      -9.625   2.470  67.649  1.00  0.00    -0.146 OA 
BRANCH  16  19
HETATM   19  O   UNL     1      -7.983   2.925  69.198  1.00  0.00    -0.052 OA 
BRANCH  19  20
HETATM   20  C   UNL     1      -8.857   3.325  70.214  1.00  0.00    -0.082 A  
HETATM   21  C   UNL     1      -9.009   2.467  71.297  1.00  0.00    -0.145 A  
HETATM   22  C   UNL     1      -9.777   2.891  72.375  1.00  0.00    -0.217 A  
HETATM   23  C   UNL     1     -10.383   4.152  72.366  1.00  0.00    -0.217 A  
HETATM   24  C   UNL     1     -10.242   5.018  71.268  1.00  0.00    -0.203 A  
HETATM   25  C   UNL     1      -9.439   4.601  70.207  1.00  0.00    -0.240 A  
BRANCH  24  26
HETATM   26  N   UNL     1     -10.842   6.415  71.265  1.00  0.00    -0.247 N  
HETATM   27  C   UNL     1      -9.854   7.438  71.818  1.00  0.00    -0.167 C  
HETATM   28  C   UNL     1     -12.090   6.471  72.155  1.00  0.00    -0.264 C  
HETATM   29  C   UNL     1     -11.203   6.760  69.827  1.00  0.00    -0.315 C  
ENDBRANCH  24  26
ENDBRANCH  19  20
ENDBRANCH  16  19
ENDBRANCH  14  15
ENDBRANCH  13  14
ENDBRANCH  12  13
ENDBRANCH  11  12
ENDBRANCH  10  11
ENDBRANCH   9  10
ENDBRANCH   8   9
ENDBRANCH   7   8
ENDBRANCH   6   7
ENDBRANCH   5   6
ENDBRANCH   2   5
BRANCH   4  30
HETATM   30  O   UNL     1     -11.836  15.052  68.694  1.00  0.00    -0.327 OA 
BRANCH  30  31
HETATM   31  C   UNL     1     -10.687  15.808  68.408  1.00  0.00    -0.281 A  
HETATM   32  C   UNL     1     -10.811  17.154  68.059  1.00  0.00    -0.317 A  
HETATM   33  C   UNL     1      -9.433  15.217  68.589  1.00  0.00    -0.204 A  
HETATM   34  C   UNL     1      -8.271  15.978  68.369  1.00  0.00    -0.165 A  
HETATM   35  C   UNL     1      -9.673  17.906  67.828  1.00  0.00    -0.283 A  
HETATM   36  C   UNL     1      -8.416  17.321  67.973  1.00  0.00    -0.229 A  
BRANCH  34  37
HETATM   37  N   UNL     1      -6.889  15.340  68.445  1.00  0.00    -0.107 N  
HETATM   38  C   UNL     1      -5.851  16.158  67.676  1.00  0.00    -0.151 C  
HETATM   39  C   UNL     1      -6.406  15.256  69.893  1.00  0.00    -0.164 C  
HETATM   40  C   UNL     1      -7.001  13.949  67.819  1.00  0.00    -0.172 C  
ENDBRANCH  34  37
ENDBRANCH  30  31
ENDBRANCH   4  30
TORSDOF 17
ENDMDL
MODEL      188
REMARK 921   NORMALIZED FREE ENERGY PREDICTED BY IDOCK:   -4.07 KCAL/MOL
REMARK 922        TOTAL FREE ENERGY PREDICTED BY IDOCK:  -10.35 KCAL/MOL
REMARK 923 INTER-LIGAND FREE ENERGY PREDICTED BY IDOCK:   -8.25 KCAL/MOL
REMARK 924 INTRA-LIGAND FREE ENERGY PREDICTED BY IDOCK:   -2.10 KCAL/MOL
REMARK 927      BINDING AFFINITY PREDICTED BY RF-SCORE:    0.00 PKD
ROOT
HETATM    1  C   UNL     1      -9.094   6.141  68.860  1.00  0.00    -0.123 C  
HETATM    2  N   UNL     1      -7.919   5.340  68.562  1.00  0.00    -0.087 N  
HETATM    3  O   UNL     1      -6.924   3.856  67.087  1.00  0.00    -0.060 OA 
HETATM    4  C   UNL     1      -7.816   4.654  67.360  1.00  0.00    -0.090 C  
ENDROOT
BRANCH   2   5
HETATM    5  C   UNL     1      -6.960   5.075  69.633  1.00  0.00    -0.054 C  
BRANCH   5   6
HETATM    6  C   UNL     1      -7.435   5.583  71.002  1.00  0.00    -0.089 C  
BRANCH   6   7
HETATM    7  C   UNL     1      -7.744   4.419  71.952  1.00  0.00    -0.084 C  
BRANCH   7   8
HETATM    8  C   UNL     1      -9.125   3.810  71.682  1.00  0.00    -0.169 C  
BRANCH   8   9
HETATM    9  C   UNL     1     -10.151   4.280  72.718  1.00  0.00    -0.214 C  
BRANCH   9  10
HETATM   10  C   UNL     1      -9.798   5.660  73.279  1.00  0.00    -0.178 C  
BRANCH  10  11
HETATM   11  C   UNL     1     -10.949   6.667  73.181  1.00  0.00    -0.263 C  
BRANCH  11  12
HETATM   12  C   UNL     1     -11.989   6.288  72.128  1.00  0.00    -0.338 C  
BRANCH  12  13
HETATM   13  C   UNL     1     -12.000   7.280  70.968  1.00  0.00    -0.362 C  
BRANCH  13  14
HETATM   14  C   UNL     1     -11.837   8.700  71.489  1.00  0.00    -0.306 C  
BRANCH  14  15
HETATM   15  N   UNL     1     -10.960   9.490  70.638  1.00  0.00    -0.279 N  
HETATM   16  C   UNL     1     -11.507  10.428  69.781  1.00  0.00    -0.280 C  
HETATM   17  C   UNL     1      -9.519   9.306  70.742  1.00  0.00    -0.271 C  
HETATM   18  O   UNL     1     -12.711  10.602  69.624  1.00  0.00    -0.212 OA 
BRANCH  16  19
HETATM   19  O   UNL     1     -10.537  11.057  69.015  1.00  0.00    -0.207 OA 
BRANCH  19  20
HETATM   20  C   UNL     1     -11.017  12.173  68.322  1.00  0.00    -0.234 A  
HETATM   21  C   UNL     1     -11.177  13.350  69.045  1.00  0.00    -0.323 A  
HETATM   22  C   UNL     1     -11.538  14.504  68.358  1.00  0.00    -0.356 A  
HETATM   23  C   UNL     1     -11.737  14.476  66.974  1.00  0.00    -0.412 A  
HETATM   24  C   UNL     1     -11.589  13.286  66.242  1.00  0.00    -0.346 A  
HETATM   25  C   UNL     1     -11.189  12.141  66.931  1.00  0.00    -0.375 A  
BRANCH  24  26
HETATM   26  N   UNL     1     -11.742  13.249  64.730  1.00  0.00    -0.340 N  
HETATM   27  C   UNL     1     -10.415  12.920  64.052  1.00  0.00    -0.368 C  
HETATM   28  C   UNL     1     -12.192  14.615  64.197  1.00  0.00    -0.315 C  
HETATM   29  C   UNL     1     -12.779  12.186  64.396  1.00  0.00    -0.217 C  
ENDBRANCH  24  26
ENDBRANCH  19  20
ENDBRANCH  16  19
ENDBRANCH  14  15
ENDBRANCH  13  14
ENDBRANCH  12  13
ENDBRANCH  11  12
ENDBRANCH  10  11
ENDBRANCH   9  10
ENDBRANCH   8   9
ENDBRANCH   7   8
ENDBRANCH   6   7
ENDBRANCH   5   6
ENDBRANCH   2   5
BRANCH   4  30
HETATM   30  O   UNL     1      -8.889   4.913  66.502  1.00  0.00    -0.112 OA 
BRANCH  30  31
HETATM   31  C   UNL     1      -8.506   5.523  65.295  1.00  0.00    -0.147 A  
HETATM   32  C   UNL     1      -8.290   4.740  64.160  1.00  0.00    -0.124 A  
HETATM   33  C   UNL     1      -8.457   6.919  65.236  1.00  0.00    -0.062 A  
HETATM   34  C   UNL     1      -8.138   7.548  64.020  1.00  0.00    -0.041 A  
HETATM   35  C   UNL     1      -7.963   5.351  62.963  1.00  0.00    -0.097 A  
HETATM   36  C   UNL     1      -7.879   6.741  62.896  1.00  0.00    -0.108 A  
BRANCH  34  37
HETATM   37  N   UNL     1      -7.963   9.061  63.942  1.00  0.00    -0.138 N  
HETATM   38  C   UNL     1      -6.501   9.444  63.713  1.00  0.00    -0.095 C  
HETATM   39  C   UNL     1      -8.764   9.642  62.776  1.00  0.00    -0.225 C  
HETATM   40  C   UNL     1      -8.435   9.638  65.277  1.00  0.00    -0.146 C  
ENDBRANCH  34  37
ENDBRANCH  30  31
ENDBRANCH   4  30
TORSDOF 17
ENDMDL
MODEL      189
REMARK 921   NORMALIZED FREE ENERGY PREDICTED BY IDOCK:   -4.06 KCAL/MOL
REMARK 922        TOTAL FREE ENERGY PREDICTED BY IDOCK:  -10.33 KCAL/MOL
REMARK 923 INTER-LIGAND FREE ENERGY PREDICTED BY IDOCK:   -9.58 KCAL/MOL
REMARK 924 INTRA-LIGAND FREE ENERGY PREDICTED BY IDOCK:   -0.75 KCAL/MOL
REMARK 927      BINDING AFFINITY PREDICTED BY RF-SCORE:    0.00 PKD
ROOT
HETATM    1  C   UNL     1      -9.101   9.484  70.102  1.00  0.00    -0.240 C  
HETATM    2  N   UNL     1      -8.477   8.493  69.242  1.00  0.00    -0.126 N  
HETATM    3  O   UNL     1      -8.734   6.484  68.118  1.00  0.00    -0.118 OA 
HETATM    4  C   UNL     1      -9.212   7.428  68.739  1.00  0.00    -0.144 C  
ENDROOT
BRANCH   2   5
HETATM    5  C   UNL     1      -7.022   8.498  69.107  1.00  0.00    -0.063 C  
BRANCH   5   6
HETATM    6  C   UNL     1      -6.549   9.009  67.740  1.00  0.00    -0.061 C  
BRANCH   6   7
HETATM    7  C   UNL     1      -6.638  10.538  67.655  1.00  0.00    -0.065 C  
BRANCH   7   8
HETATM    8  C   UNL     1      -6.969  11.014  66.235  1.00  0.00    -0.095 C  
BRANCH   8   9
HETATM    9  C   UNL     1      -6.048  10.360  65.200  1.00  0.00    -0.124 C  
BRANCH   9  10
HETATM   10  C   UNL     1      -6.812   9.962  63.934  1.00  0.00    -0.125 C  
BRANCH  10  11
HETATM   11  C   UNL     1      -8.332   9.933  64.128  1.00  0.00    -0.168 C  
BRANCH  11  12
HETATM   12  C   UNL     1      -9.067  10.946  63.252  1.00  0.00    -0.252 C  
BRANCH  12  13
HETATM   13  C   UNL     1     -10.527  11.097  63.674  1.00  0.00    -0.438 C  
BRANCH  13  14
HETATM   14  C   UNL     1     -10.780  12.503  64.197  1.00  0.00    -0.391 C  
BRANCH  14  15
HETATM   15  N   UNL     1     -11.170  12.495  65.599  1.00  0.00    -0.305 N  
HETATM   16  C   UNL     1     -11.986  13.501  66.084  1.00  0.00    -0.412 C  
HETATM   17  C   UNL     1     -10.727  11.400  66.450  1.00  0.00    -0.275 C  
HETATM   18  O   UNL     1     -12.361  14.466  65.426  1.00  0.00    -0.396 OA 
BRANCH  16  19
HETATM   19  O   UNL     1     -12.223  13.364  67.444  1.00  0.00    -0.326 OA 
BRANCH  19  20
HETATM   20  C   UNL     1     -11.830  14.482  68.188  1.00  0.00    -0.313 A  
HETATM   21  C   UNL     1     -12.142  14.485  69.543  1.00  0.00    -0.348 A  
HETATM   22  C   UNL     1     -11.660  15.526  70.330  1.00  0.00    -0.355 A  
HETATM   23  C   UNL     1     -10.882  16.543  69.767  1.00  0.00    -0.302 A  
HETATM   24  C   UNL     1     -10.575  16.550  68.396  1.00  0.00    -0.323 A  
HETATM   25  C   UNL     1     -11.029  15.483  67.620  1.00  0.00    -0.315 A  
BRANCH  24  26
HETATM   26  N   UNL     1      -9.682  17.614  67.777  1.00  0.00    -0.272 N  
HETATM   27  C   UNL     1      -8.258  17.513  68.314  1.00  0.00    -0.263 C  
HETATM   28  C   UNL     1     -10.194  19.018  68.122  1.00  0.00    -0.396 C  
HETATM   29  C   UNL     1      -9.690  17.406  66.270  1.00  0.00    -0.261 C  
ENDBRANCH  24  26
ENDBRANCH  19  20
ENDBRANCH  16  19
ENDBRANCH  14  15
ENDBRANCH  13  14
ENDBRANCH  12  13
ENDBRANCH  11  12
ENDBRANCH  10  11
ENDBRANCH   9  10
ENDBRANCH   8   9
ENDBRANCH   7   8
ENDBRANCH   6   7
ENDBRANCH   5   6
ENDBRANCH   2   5
BRANCH   4  30
HETATM   30  O   UNL     1     -10.566   7.505  69.078  1.00  0.00    -0.213 OA 
BRANCH  30  31
HETATM   31  C   UNL     1     -10.876   6.870  70.293  1.00  0.00    -0.257 A  
HETATM   32  C   UNL     1     -12.057   7.194  70.964  1.00  0.00    -0.391 A  
HETATM   33  C   UNL     1     -10.040   5.845  70.746  1.00  0.00    -0.253 A  
HETATM   34  C   UNL     1     -10.368   5.156  71.926  1.00  0.00    -0.212 A  
HETATM   35  C   UNL     1     -12.380   6.529  72.133  1.00  0.00    -0.244 A  
HETATM   36  C   UNL     1     -11.539   5.526  72.614  1.00  0.00    -0.293 A  
BRANCH  34  37
HETATM   37  N   UNL     1      -9.425   4.112  72.513  1.00  0.00    -0.126 N  
HETATM   38  C   UNL     1      -8.487   4.725  73.553  1.00  0.00    -0.106 C  
HETATM   39  C   UNL     1     -10.209   3.005  73.218  1.00  0.00    -0.136 C  
HETATM   40  C   UNL     1      -8.598   3.551  71.355  1.00  0.00    -0.076 C  
ENDBRANCH  34  37
ENDBRANCH  30  31
ENDBRANCH   4  30
TORSDOF 17
ENDMDL
MODEL      190
REMARK 921   NORMALIZED FREE ENERGY PREDICTED BY IDOCK:   -4.06 KCAL/MOL
REMARK 922        TOTAL FREE ENERGY PREDICTED BY IDOCK:  -10.33 KCAL/MOL
REMARK 923 INTER-LIGAND FREE ENERGY PREDICTED BY IDOCK:   -8.84 KCAL/MOL
REMARK 924 INTRA-LIGAND FREE ENERGY PREDICTED BY IDOCK:   -1.48 KCAL/MOL
REMARK 927      BINDING AFFINITY PREDICTED BY RF-SCORE:    0.00 PKD
ROOT
HETATM    1  C   UNL     1      -9.029   5.985  70.546  1.00  0.00    -0.146 C  
HETATM    2  N   UNL     1     -10.125   6.581  69.801  1.00  0.00    -0.175 N  
HETATM    3  O   UNL     1     -10.736   8.064  68.129  1.00  0.00    -0.149 OA 
HETATM    4  C   UNL     1      -9.877   7.421  68.724  1.00  0.00    -0.164 C  
ENDROOT
BRANCH   2   5
HETATM    5  C   UNL     1     -11.479   6.478  70.343  1.00  0.00    -0.404 C  
BRANCH   5   6
HETATM    6  C   UNL     1     -11.522   6.586  71.873  1.00  0.00    -0.345 C  
BRANCH   6   7
HETATM    7  C   UNL     1     -11.805   8.025  72.323  1.00  0.00    -0.424 C  
BRANCH   7   8
HETATM    8  C   UNL     1     -12.454   8.856  71.209  1.00  0.00    -0.321 C  
BRANCH   8   9
HETATM    9  C   UNL     1     -11.635  10.114  70.904  1.00  0.00    -0.459 C  
BRANCH   9  10
HETATM   10  C   UNL     1     -12.232  10.910  69.740  1.00  0.00    -0.381 C  
BRANCH  10  11
HETATM   11  C   UNL     1     -11.408  12.147  69.367  1.00  0.00    -0.311 C  
BRANCH  11  12
HETATM   12  C   UNL     1     -11.979  12.911  68.175  1.00  0.00    -0.306 C  
BRANCH  12  13
HETATM   13  C   UNL     1     -12.117  14.402  68.477  1.00  0.00    -0.278 C  
BRANCH  13  14
HETATM   14  C   UNL     1     -11.334  15.218  67.460  1.00  0.00    -0.297 C  
BRANCH  14  15
HETATM   15  N   UNL     1      -9.898  15.119  67.679  1.00  0.00    -0.219 N  
HETATM   16  C   UNL     1      -9.340  15.691  68.807  1.00  0.00    -0.213 C  
HETATM   17  C   UNL     1      -9.088  14.376  66.724  1.00  0.00    -0.257 C  
HETATM   18  O   UNL     1      -9.965  16.358  69.626  1.00  0.00    -0.201 OA 
BRANCH  16  19
HETATM   19  O   UNL     1      -7.962  15.541  68.835  1.00  0.00    -0.155 OA 
BRANCH  19  20
HETATM   20  C   UNL     1      -7.275  16.756  68.928  1.00  0.00    -0.225 A  
HETATM   21  C   UNL     1      -6.154  16.792  69.749  1.00  0.00    -0.224 A  
HETATM   22  C   UNL     1      -5.384  17.950  69.768  1.00  0.00    -0.214 A  
HETATM   23  C   UNL     1      -5.734  19.051  68.979  1.00  0.00    -0.231 A  
HETATM   24  C   UNL     1      -6.874  19.023  68.157  1.00  0.00    -0.244 A  
HETATM   25  C   UNL     1      -7.619  17.845  68.115  1.00  0.00    -0.260 A  
BRANCH  24  26
HETATM   26  N   UNL     1      -7.237  20.186  67.248  1.00  0.00    -0.255 N  
HETATM   27  C   UNL     1      -7.268  19.751  65.787  1.00  0.00    -0.318 C  
HETATM   28  C   UNL     1      -6.196  21.307  67.361  1.00  0.00    -0.358 C  
HETATM   29  C   UNL     1      -8.608  20.695  67.673  1.00  0.00    -0.104 C  
ENDBRANCH  24  26
ENDBRANCH  19  20
ENDBRANCH  16  19
ENDBRANCH  14  15
ENDBRANCH  13  14
ENDBRANCH  12  13
ENDBRANCH  11  12
ENDBRANCH  10  11
ENDBRANCH   9  10
ENDBRANCH   8   9
ENDBRANCH   7   8
ENDBRANCH   6   7
ENDBRANCH   5   6
ENDBRANCH   2   5
BRANCH   4  30
HETATM   30  O   UNL     1      -8.515   7.517  68.424  1.00  0.00    -0.124 OA 
BRANCH  30  31
HETATM   31  C   UNL     1      -8.229   7.355  67.058  1.00  0.00    -0.121 A  
HETATM   32  C   UNL     1      -8.314   6.089  66.476  1.00  0.00    -0.113 A  
HETATM   33  C   UNL     1      -7.971   8.494  66.288  1.00  0.00    -0.102 A  
HETATM   34  C   UNL     1      -7.746   8.358  64.907  1.00  0.00    -0.106 A  
HETATM   35  C   UNL     1      -8.081   5.946  65.120  1.00  0.00    -0.131 A  
HETATM   36  C   UNL     1      -7.791   7.068  64.345  1.00  0.00    -0.111 A  
BRANCH  34  37
HETATM   37  N   UNL     1      -7.349   9.558  64.055  1.00  0.00    -0.110 N  
HETATM   38  C   UNL     1      -6.358   9.165  62.959  1.00  0.00    -0.090 C  
HETATM   39  C   UNL     1      -8.570  10.158  63.357  1.00  0.00    -0.199 C  
HETATM   40  C   UNL     1      -6.693  10.576  64.990  1.00  0.00     0.000 C  
ENDBRANCH  34  37
ENDBRANCH  30  31
ENDBRANCH   4  30
TORSDOF 17
ENDMDL
MODEL      191
REMARK 921   NORMALIZED FREE ENERGY PREDICTED BY IDOCK:   -4.05 KCAL/MOL
REMARK 922        TOTAL FREE ENERGY PREDICTED BY IDOCK:  -10.32 KCAL/MOL
REMARK 923 INTER-LIGAND FREE ENERGY PREDICTED BY IDOCK:   -8.46 KCAL/MOL
REMARK 924 INTRA-LIGAND FREE ENERGY PREDICTED BY IDOCK:   -1.85 KCAL/MOL
REMARK 927      BINDING AFFINITY PREDICTED BY RF-SCORE:    0.00 PKD
ROOT
HETATM    1  C   UNL     1      -8.617  12.259  67.885  1.00  0.00    -0.169 C  
HETATM    2  N   UNL     1     -10.055  12.084  68.003  1.00  0.00    -0.192 N  
HETATM    3  O   UNL     1     -12.128  12.486  67.050  1.00  0.00    -0.521 OA 
HETATM    4  C   UNL     1     -10.903  12.478  66.977  1.00  0.00    -0.254 C  
ENDROOT
BRANCH   2   5
HETATM    5  C   UNL     1     -10.612  11.711  69.301  1.00  0.00    -0.044 C  
BRANCH   5   6
HETATM    6  C   UNL     1     -11.335  10.357  69.276  1.00  0.00    -0.296 C  
BRANCH   6   7
HETATM    7  C   UNL     1     -11.991  10.050  70.628  1.00  0.00    -0.401 C  
BRANCH   7   8
HETATM    8  C   UNL     1     -11.094   9.179  71.516  1.00  0.00    -0.436 C  
BRANCH   8   9
HETATM    9  C   UNL     1     -11.058   7.731  71.019  1.00  0.00    -0.273 C  
BRANCH   9  10
HETATM   10  C   UNL     1     -10.382   6.801  72.031  1.00  0.00    -0.217 C  
BRANCH  10  11
HETATM   11  C   UNL     1      -9.295   5.918  71.410  1.00  0.00    -0.165 C  
BRANCH  11  12
HETATM   12  C   UNL     1      -9.855   4.689  70.696  1.00  0.00    -0.296 C  
BRANCH  12  13
HETATM   13  C   UNL     1      -9.941   4.908  69.187  1.00  0.00    -0.252 C  
BRANCH  13  14
HETATM   14  C   UNL     1      -9.508   3.650  68.449  1.00  0.00    -0.150 C  
BRANCH  14  15
HETATM   15  N   UNL     1      -8.469   3.930  67.469  1.00  0.00    -0.097 N  
HETATM   16  C   UNL     1      -8.816   4.110  66.142  1.00  0.00    -0.118 C  
HETATM   17  C   UNL     1      -7.090   4.061  67.918  1.00  0.00    -0.059 C  
HETATM   18  O   UNL     1      -9.952   3.976  65.699  1.00  0.00    -0.194 OA 
BRANCH  16  19
HETATM   19  O   UNL     1      -7.704   4.324  65.341  1.00  0.00    -0.084 OA 
BRANCH  19  20
HETATM   20  C   UNL     1      -7.803   5.474  64.552  1.00  0.00    -0.109 A  
HETATM   21  C   UNL     1      -7.893   5.296  63.177  1.00  0.00    -0.084 A  
HETATM   22  C   UNL     1      -8.113   6.413  62.378  1.00  0.00    -0.097 A  
HETATM   23  C   UNL     1      -8.238   7.684  62.949  1.00  0.00    -0.019 A  
HETATM   24  C   UNL     1      -8.136   7.870  64.338  1.00  0.00    -0.103 A  
HETATM   25  C   UNL     1      -7.954   6.740  65.136  1.00  0.00    -0.128 A  
BRANCH  24  26
HETATM   26  N   UNL     1      -8.329   9.233  64.983  1.00  0.00    -0.144 N  
HETATM   27  C   UNL     1      -8.535  10.315  63.928  1.00  0.00    -0.179 C  
HETATM   28  C   UNL     1      -7.089   9.629  65.796  1.00  0.00    -0.099 C  
HETATM   29  C   UNL     1      -9.548   9.147  65.891  1.00  0.00    -0.273 C  
ENDBRANCH  24  26
ENDBRANCH  19  20
ENDBRANCH  16  19
ENDBRANCH  14  15
ENDBRANCH  13  14
ENDBRANCH  12  13
ENDBRANCH  11  12
ENDBRANCH  10  11
ENDBRANCH   9  10
ENDBRANCH   8   9
ENDBRANCH   7   8
ENDBRANCH   6   7
ENDBRANCH   5   6
ENDBRANCH   2   5
BRANCH   4  30
HETATM   30  O   UNL     1     -10.208  12.941  65.856  1.00  0.00    -0.280 OA 
BRANCH  30  31
HETATM   31  C   UNL     1     -10.448  14.295  65.568  1.00  0.00    -0.346 A  
HETATM   32  C   UNL     1     -11.226  14.643  64.463  1.00  0.00    -0.290 A  
HETATM   33  C   UNL     1      -9.987  15.263  66.466  1.00  0.00    -0.278 A  
HETATM   34  C   UNL     1     -10.272  16.619  66.228  1.00  0.00    -0.334 A  
HETATM   35  C   UNL     1     -11.501  15.976  64.214  1.00  0.00    -0.162 A  
HETATM   36  C   UNL     1     -11.020  16.954  65.084  1.00  0.00    -0.060 A  
BRANCH  34  37
HETATM   37  N   UNL     1      -9.692  17.711  67.119  1.00  0.00    -0.282 N  
HETATM   38  C   UNL     1     -10.663  18.881  67.275  1.00  0.00    -0.449 C  
HETATM   39  C   UNL     1      -9.411  17.175  68.523  1.00  0.00    -0.282 C  
HETATM   40  C   UNL     1      -8.408  18.204  66.449  1.00  0.00    -0.245 C  
ENDBRANCH  34  37
ENDBRANCH  30  31
ENDBRANCH   4  30
TORSDOF 17
ENDMDL
MODEL      192
REMARK 921   NORMALIZED FREE ENERGY PREDICTED BY IDOCK:   -4.05 KCAL/MOL
REMARK 922        TOTAL FREE ENERGY PREDICTED BY IDOCK:  -10.31 KCAL/MOL
REMARK 923 INTER-LIGAND FREE ENERGY PREDICTED BY IDOCK:   -8.55 KCAL/MOL
REMARK 924 INTRA-LIGAND FREE ENERGY PREDICTED BY IDOCK:   -1.76 KCAL/MOL
REMARK 927      BINDING AFFINITY PREDICTED BY RF-SCORE:    0.00 PKD
ROOT
HETATM    1  C   UNL     1     -10.148   9.654  67.648  1.00  0.00    -0.194 C  
HETATM    2  N   UNL     1      -8.896   9.576  66.914  1.00  0.00    -0.127 N  
HETATM    3  O   UNL     1      -7.524   8.270  65.581  1.00  0.00    -0.077 OA 
HETATM    4  C   UNL     1      -8.606   8.472  66.124  1.00  0.00    -0.138 C  
ENDROOT
BRANCH   2   5
HETATM    5  C   UNL     1      -7.851  10.556  67.204  1.00  0.00    -0.112 C  
BRANCH   5   6
HETATM    6  C   UNL     1      -8.356  12.005  67.147  1.00  0.00    -0.181 C  
BRANCH   6   7
HETATM    7  C   UNL     1      -8.480  12.608  68.551  1.00  0.00    -0.051 C  
BRANCH   7   8
HETATM    8  C   UNL     1      -8.664  14.130  68.507  1.00  0.00    -0.166 C  
BRANCH   8   9
HETATM    9  C   UNL     1     -10.113  14.523  68.812  1.00  0.00    -0.239 C  
BRANCH   9  10
HETATM   10  C   UNL     1     -10.943  13.319  69.265  1.00  0.00    -0.140 C  
BRANCH  10  11
HETATM   11  C   UNL     1     -11.908  12.810  68.189  1.00  0.00    -0.372 C  
BRANCH  11  12
HETATM   12  C   UNL     1     -12.007  13.741  66.983  1.00  0.00    -0.452 C  
BRANCH  12  13
HETATM   13  C   UNL     1     -11.899  12.971  65.669  1.00  0.00    -0.445 C  
BRANCH  13  14
HETATM   14  C   UNL     1     -10.983  13.707  64.703  1.00  0.00    -0.396 C  
BRANCH  14  15
HETATM   15  N   UNL     1     -11.183  15.148  64.760  1.00  0.00    -0.399 N  
HETATM   16  C   UNL     1     -10.173  15.956  65.249  1.00  0.00    -0.251 C  
HETATM   17  C   UNL     1     -12.429  15.709  64.257  1.00  0.00     0.225 C  
HETATM   18  O   UNL     1      -9.119  15.540  65.719  1.00  0.00    -0.286 OA 
BRANCH  16  19
HETATM   19  O   UNL     1     -10.546  17.292  65.273  1.00  0.00    -0.667 OA 
BRANCH  19  20
HETATM   20  C   UNL     1     -10.015  17.994  66.360  1.00  0.00    -0.362 A  
HETATM   21  C   UNL     1     -10.759  18.005  67.535  1.00  0.00    -0.352 A  
HETATM   22  C   UNL     1     -10.202  18.593  68.665  1.00  0.00    -0.359 A  
HETATM   23  C   UNL     1      -8.924  19.161  68.617  1.00  0.00    -0.411 A  
HETATM   24  C   UNL     1      -8.174  19.163  67.428  1.00  0.00    -0.276 A  
HETATM   25  C   UNL     1      -8.724  18.538  66.309  1.00  0.00    -0.219 A  
BRANCH  24  26
HETATM   26  N   UNL     1      -6.761  19.721  67.370  1.00  0.00    -0.207 N  
HETATM   27  C   UNL     1      -6.695  20.957  66.479  1.00  0.00    -0.243 C  
HETATM   28  C   UNL     1      -5.795  18.687  66.777  1.00  0.00    -0.150 C  
HETATM   29  C   UNL     1      -6.345  20.075  68.791  1.00  0.00    -0.300 C  
ENDBRANCH  24  26
ENDBRANCH  19  20
ENDBRANCH  16  19
ENDBRANCH  14  15
ENDBRANCH  13  14
ENDBRANCH  12  13
ENDBRANCH  11  12
ENDBRANCH  10  11
ENDBRANCH   9  10
ENDBRANCH   8   9
ENDBRANCH   7   8
ENDBRANCH   6   7
ENDBRANCH   5   6
ENDBRANCH   2   5
BRANCH   4  30
HETATM   30  O   UNL     1      -9.665   7.562  66.066  1.00  0.00    -0.005 OA 
BRANCH  30  31
HETATM   31  C   UNL     1      -9.343   6.295  66.582  1.00  0.00    -0.148 A  
HETATM   32  C   UNL     1      -9.154   5.219  65.712  1.00  0.00    -0.161 A  
HETATM   33  C   UNL     1      -9.112   6.169  67.955  1.00  0.00    -0.117 A  
HETATM   34  C   UNL     1      -8.726   4.923  68.479  1.00  0.00    -0.097 A  
HETATM   35  C   UNL     1      -8.788   3.987  66.222  1.00  0.00    -0.121 A  
HETATM   36  C   UNL     1      -8.585   3.838  67.594  1.00  0.00    -0.111 A  
BRANCH  34  37
HETATM   37  N   UNL     1      -8.576   4.717  69.982  1.00  0.00    -0.081 N  
HETATM   38  C   UNL     1      -7.778   5.852  70.626  1.00  0.00    -0.097 C  
HETATM   39  C   UNL     1      -9.942   4.690  70.668  1.00  0.00    -0.223 C  
HETATM   40  C   UNL     1      -7.831   3.397  70.184  1.00  0.00    -0.046 C  
ENDBRANCH  34  37
ENDBRANCH  30  31
ENDBRANCH   4  30
TORSDOF 17
ENDMDL
MODEL      193
REMARK 921   NORMALIZED FREE ENERGY PREDICTED BY IDOCK:   -4.04 KCAL/MOL
REMARK 922        TOTAL FREE ENERGY PREDICTED BY IDOCK:  -10.30 KCAL/MOL
REMARK 923 INTER-LIGAND FREE ENERGY PREDICTED BY IDOCK:   -8.49 KCAL/MOL
REMARK 924 INTRA-LIGAND FREE ENERGY PREDICTED BY IDOCK:   -1.81 KCAL/MOL
REMARK 927      BINDING AFFINITY PREDICTED BY RF-SCORE:    0.00 PKD
ROOT
HETATM    1  C   UNL     1      -9.783  11.025  68.701  1.00  0.00    -0.195 C  
HETATM    2  N   UNL     1      -8.618  11.353  67.897  1.00  0.00    -0.135 N  
HETATM    3  O   UNL     1      -7.310  10.771  66.075  1.00  0.00    -0.142 OA 
HETATM    4  C   UNL     1      -8.337  10.646  66.736  1.00  0.00    -0.132 C  
ENDROOT
BRANCH   2   5
HETATM    5  C   UNL     1      -7.622  12.270  68.447  1.00  0.00    -0.128 C  
BRANCH   5   6
HETATM    6  C   UNL     1      -7.932  13.743  68.145  1.00  0.00    -0.150 C  
BRANCH   6   7
HETATM    7  C   UNL     1      -8.448  14.471  69.393  1.00  0.00     0.182 C  
BRANCH   7   8
HETATM    8  C   UNL     1      -9.128  15.799  69.039  1.00  0.00    -0.245 C  
BRANCH   8   9
HETATM    9  C   UNL     1     -10.591  15.812  69.492  1.00  0.00    -0.272 C  
BRANCH   9  10
HETATM   10  C   UNL     1     -11.056  14.425  69.945  1.00  0.00    -0.166 C  
BRANCH  10  11
HETATM   11  C   UNL     1     -11.969  13.730  68.929  1.00  0.00    -0.394 C  
BRANCH  11  12
HETATM   12  C   UNL     1     -11.889  14.344  67.533  1.00  0.00    -0.418 C  
BRANCH  12  13
HETATM   13  C   UNL     1     -11.803  13.269  66.452  1.00  0.00    -0.446 C  
BRANCH  13  14
HETATM   14  C   UNL     1     -10.919  13.743  65.308  1.00  0.00    -0.322 C  
BRANCH  14  15
HETATM   15  N   UNL     1     -11.033  15.179  65.098  1.00  0.00    -0.392 N  
HETATM   16  C   UNL     1      -9.973  16.002  65.432  1.00  0.00    -0.152 C  
HETATM   17  C   UNL     1     -12.246  15.711  64.494  1.00  0.00     0.015 C  
HETATM   18  O   UNL     1      -8.943  15.617  65.976  1.00  0.00    -0.334 OA 
BRANCH  16  19
HETATM   19  O   UNL     1     -10.266  17.339  65.208  1.00  0.00    -0.563 OA 
BRANCH  19  20
HETATM   20  C   UNL     1      -9.845  18.179  66.245  1.00  0.00    -0.310 A  
HETATM   21  C   UNL     1     -10.801  18.567  67.176  1.00  0.00    -0.304 A  
HETATM   22  C   UNL     1     -10.387  19.302  68.282  1.00  0.00    -0.478 A  
HETATM   23  C   UNL     1      -9.040  19.643  68.447  1.00  0.00    -0.386 A  
HETATM   24  C   UNL     1      -8.073  19.262  67.501  1.00  0.00    -0.276 A  
HETATM   25  C   UNL     1      -8.489  18.493  66.416  1.00  0.00    -0.275 A  
BRANCH  24  26
HETATM   26  N   UNL     1      -6.596  19.570  67.694  1.00  0.00    -0.215 N  
HETATM   27  C   UNL     1      -5.725  18.447  67.141  1.00  0.00    -0.138 C  
HETATM   28  C   UNL     1      -6.262  19.706  69.185  1.00  0.00    -0.287 C  
HETATM   29  C   UNL     1      -6.297  20.873  66.966  1.00  0.00    -0.297 C  
ENDBRANCH  24  26
ENDBRANCH  19  20
ENDBRANCH  16  19
ENDBRANCH  14  15
ENDBRANCH  13  14
ENDBRANCH  12  13
ENDBRANCH  11  12
ENDBRANCH  10  11
ENDBRANCH   9  10
ENDBRANCH   8   9
ENDBRANCH   7   8
ENDBRANCH   6   7
ENDBRANCH   5   6
ENDBRANCH   2   5
BRANCH   4  30
HETATM   30  O   UNL     1      -9.327   9.709  66.427  1.00  0.00    -0.156 OA 
BRANCH  30  31
HETATM   31  C   UNL     1      -8.857   8.385  66.404  1.00  0.00    -0.153 A  
HETATM   32  C   UNL     1      -8.806   7.646  67.588  1.00  0.00    -0.125 A  
HETATM   33  C   UNL     1      -8.553   7.802  65.170  1.00  0.00    -0.023 A  
HETATM   34  C   UNL     1      -8.142   6.459  65.122  1.00  0.00    -0.136 A  
HETATM   35  C   UNL     1      -8.390   6.327  67.550  1.00  0.00    -0.113 A  
HETATM   36  C   UNL     1      -8.053   5.743  66.330  1.00  0.00    -0.106 A  
BRANCH  34  37
HETATM   37  N   UNL     1      -7.694   5.823  63.812  1.00  0.00    -0.090 N  
HETATM   38  C   UNL     1      -6.191   5.538  63.812  1.00  0.00    -0.022 C  
HETATM   39  C   UNL     1      -8.399   4.485  63.586  1.00  0.00    -0.109 C  
HETATM   40  C   UNL     1      -8.020   6.815  62.694  1.00  0.00    -0.100 C  
ENDBRANCH  34  37
ENDBRANCH  30  31
ENDBRANCH   4  30
TORSDOF 17
ENDMDL
MODEL      194
REMARK 921   NORMALIZED FREE ENERGY PREDICTED BY IDOCK:   -4.04 KCAL/MOL
REMARK 922        TOTAL FREE ENERGY PREDICTED BY IDOCK:  -10.30 KCAL/MOL
REMARK 923 INTER-LIGAND FREE ENERGY PREDICTED BY IDOCK:   -9.33 KCAL/MOL
REMARK 924 INTRA-LIGAND FREE ENERGY PREDICTED BY IDOCK:   -0.97 KCAL/MOL
REMARK 927      BINDING AFFINITY PREDICTED BY RF-SCORE:    0.00 PKD
ROOT
HETATM    1  C   UNL     1      -7.856  17.399  69.278  1.00  0.00     0.096 C  
HETATM    2  N   UNL     1      -8.687  17.755  68.140  1.00  0.00    -0.259 N  
HETATM    3  O   UNL     1     -10.845  17.974  67.325  1.00  0.00    -0.334 OA 
HETATM    4  C   UNL     1     -10.069  17.812  68.262  1.00  0.00    -0.371 C  
ENDROOT
BRANCH   2   5
HETATM    5  C   UNL     1      -8.072  17.820  66.816  1.00  0.00    -0.239 C  
BRANCH   5   6
HETATM    6  C   UNL     1      -8.054  16.465  66.095  1.00  0.00    -0.193 C  
BRANCH   6   7
HETATM    7  C   UNL     1      -7.318  15.404  66.922  1.00  0.00     0.016 C  
BRANCH   7   8
HETATM    8  C   UNL     1      -8.195  14.175  67.189  1.00  0.00    -0.166 C  
BRANCH   8   9
HETATM    9  C   UNL     1      -9.299  14.040  66.135  1.00  0.00    -0.143 C  
BRANCH   9  10
HETATM   10  C   UNL     1      -9.957  12.658  66.178  1.00  0.00    -0.269 C  
BRANCH  10  11
HETATM   11  C   UNL     1     -10.337  12.125  64.793  1.00  0.00    -0.320 C  
BRANCH  11  12
HETATM   12  C   UNL     1     -10.190  10.610  64.672  1.00  0.00    -0.404 C  
BRANCH  12  13
HETATM   13  C   UNL     1      -9.409  10.220  63.420  1.00  0.00    -0.340 C  
BRANCH  13  14
HETATM   14  C   UNL     1      -7.917  10.193  63.719  1.00  0.00    -0.153 C  
BRANCH  14  15
HETATM   15  N   UNL     1      -7.623   9.446  64.933  1.00  0.00    -0.107 N  
HETATM   16  C   UNL     1      -7.809   8.076  64.950  1.00  0.00    -0.129 C  
HETATM   17  C   UNL     1      -7.095  10.155  66.089  1.00  0.00    -0.114 C  
HETATM   18  O   UNL     1      -8.284   7.430  64.022  1.00  0.00    -0.073 OA 
BRANCH  16  19
HETATM   19  O   UNL     1      -7.524   7.531  66.193  1.00  0.00    -0.079 OA 
BRANCH  19  20
HETATM   20  C   UNL     1      -8.664   7.300  66.970  1.00  0.00    -0.123 A  
HETATM   21  C   UNL     1      -9.250   6.043  66.882  1.00  0.00    -0.131 A  
HETATM   22  C   UNL     1     -10.311   5.746  67.730  1.00  0.00    -0.266 A  
HETATM   23  C   UNL     1     -10.776   6.694  68.648  1.00  0.00    -0.303 A  
HETATM   24  C   UNL     1     -10.193   7.971  68.732  1.00  0.00    -0.206 A  
HETATM   25  C   UNL     1      -9.105   8.248  67.905  1.00  0.00    -0.137 A  
BRANCH  24  26
HETATM   26  N   UNL     1     -10.644   8.993  69.764  1.00  0.00    -0.225 N  
HETATM   27  C   UNL     1     -11.009  10.317  69.101  1.00  0.00    -0.238 C  
HETATM   28  C   UNL     1      -9.517   9.287  70.762  1.00  0.00    -0.271 C  
HETATM   29  C   UNL     1     -11.853   8.418  70.488  1.00  0.00    -0.001 C  
ENDBRANCH  24  26
ENDBRANCH  19  20
ENDBRANCH  16  19
ENDBRANCH  14  15
ENDBRANCH  13  14
ENDBRANCH  12  13
ENDBRANCH  11  12
ENDBRANCH  10  11
ENDBRANCH   9  10
ENDBRANCH   8   9
ENDBRANCH   7   8
ENDBRANCH   6   7
ENDBRANCH   5   6
ENDBRANCH   2   5
BRANCH   4  30
HETATM   30  O   UNL     1     -10.500  17.589  69.573  1.00  0.00    -0.217 OA 
BRANCH  30  31
HETATM   31  C   UNL     1     -11.133  16.347  69.750  1.00  0.00    -0.305 A  
HETATM   32  C   UNL     1     -11.040  15.371  68.756  1.00  0.00    -0.284 A  
HETATM   33  C   UNL     1     -11.754  16.080  70.974  1.00  0.00    -0.458 A  
HETATM   34  C   UNL     1     -12.338  14.821  71.194  1.00  0.00    -0.331 A  
HETATM   35  C   UNL     1     -11.623  14.134  68.959  1.00  0.00    -0.342 A  
HETATM   36  C   UNL     1     -12.274  13.864  70.163  1.00  0.00    -0.425 A  
BRANCH  34  37
HETATM   37  N   UNL     1     -13.122  14.530  72.469  1.00  0.00    -0.398 N  
HETATM   38  C   UNL     1     -12.279  14.795  73.717  1.00  0.00    -0.303 C  
HETATM   39  C   UNL     1     -14.355  15.428  72.566  1.00  0.00    -0.268 C  
HETATM   40  C   UNL     1     -13.516  13.053  72.428  1.00  0.00    -0.515 C  
ENDBRANCH  34  37
ENDBRANCH  30  31
ENDBRANCH   4  30
TORSDOF 17
ENDMDL
MODEL      195
REMARK 921   NORMALIZED FREE ENERGY PREDICTED BY IDOCK:   -4.02 KCAL/MOL
REMARK 922        TOTAL FREE ENERGY PREDICTED BY IDOCK:  -10.25 KCAL/MOL
REMARK 923 INTER-LIGAND FREE ENERGY PREDICTED BY IDOCK:   -8.24 KCAL/MOL
REMARK 924 INTRA-LIGAND FREE ENERGY PREDICTED BY IDOCK:   -2.01 KCAL/MOL
REMARK 927      BINDING AFFINITY PREDICTED BY RF-SCORE:    0.00 PKD
ROOT
HETATM    1  C   UNL     1      -7.656  12.981  68.893  1.00  0.00     0.047 C  
HETATM    2  N   UNL     1      -8.483  12.965  67.699  1.00  0.00    -0.169 N  
HETATM    3  O   UNL     1      -9.462  14.223  66.018  1.00  0.00    -0.268 OA 
HETATM    4  C   UNL     1      -8.679  14.122  66.957  1.00  0.00    -0.204 C  
ENDROOT
BRANCH   2   5
HETATM    5  C   UNL     1      -9.293  11.781  67.422  1.00  0.00    -0.174 C  
BRANCH   5   6
HETATM    6  C   UNL     1     -10.625  11.774  68.185  1.00  0.00    -0.230 C  
BRANCH   6   7
HETATM    7  C   UNL     1     -11.741  12.432  67.364  1.00  0.00    -0.417 C  
BRANCH   7   8
HETATM    8  C   UNL     1     -11.975  11.708  66.032  1.00  0.00     0.413 C  
BRANCH   8   9
HETATM    9  C   UNL     1     -12.264  12.701  64.903  1.00  0.00    -0.531 C  
BRANCH   9  10
HETATM   10  C   UNL     1     -11.438  12.392  63.651  1.00  0.00    -0.568 C  
BRANCH  10  11
HETATM   11  C   UNL     1     -10.606  11.111  63.776  1.00  0.00    -0.422 C  
BRANCH  11  12
HETATM   12  C   UNL     1      -9.305  11.161  62.978  1.00  0.00    -0.365 C  
BRANCH  12  13
HETATM   13  C   UNL     1      -8.978   9.807  62.353  1.00  0.00    -0.288 C  
BRANCH  13  14
HETATM   14  C   UNL     1      -7.530   9.434  62.634  1.00  0.00    -0.102 C  
BRANCH  14  15
HETATM   15  N   UNL     1      -7.265   9.337  64.062  1.00  0.00    -0.096 N  
HETATM   16  C   UNL     1      -7.585   8.173  64.735  1.00  0.00    -0.101 C  
HETATM   17  C   UNL     1      -6.625  10.456  64.740  1.00  0.00    -0.045 C  
HETATM   18  O   UNL     1      -8.156   7.214  64.227  1.00  0.00    -0.122 OA 
BRANCH  16  19
HETATM   19  O   UNL     1      -7.308   8.267  66.091  1.00  0.00    -0.075 OA 
BRANCH  19  20
HETATM   20  C   UNL     1      -8.406   7.964  66.903  1.00  0.00    -0.116 A  
HETATM   21  C   UNL     1      -9.668   8.268  66.404  1.00  0.00    -0.300 A  
HETATM   22  C   UNL     1     -10.782   7.870  67.135  1.00  0.00    -0.306 A  
HETATM   23  C   UNL     1     -10.632   7.183  68.344  1.00  0.00    -0.223 A  
HETATM   24  C   UNL     1      -9.358   6.885  68.858  1.00  0.00    -0.134 A  
HETATM   25  C   UNL     1      -8.246   7.253  68.100  1.00  0.00    -0.124 A  
BRANCH  24  26
HETATM   26  N   UNL     1      -9.174   6.086  70.139  1.00  0.00    -0.153 N  
HETATM   27  C   UNL     1     -10.243   5.006  70.270  1.00  0.00    -0.258 C  
HETATM   28  C   UNL     1      -9.303   6.996  71.367  1.00  0.00    -0.155 C  
HETATM   29  C   UNL     1      -7.791   5.453  70.095  1.00  0.00    -0.081 C  
ENDBRANCH  24  26
ENDBRANCH  19  20
ENDBRANCH  16  19
ENDBRANCH  14  15
ENDBRANCH  13  14
ENDBRANCH  12  13
ENDBRANCH  11  12
ENDBRANCH  10  11
ENDBRANCH   9  10
ENDBRANCH   8   9
ENDBRANCH   7   8
ENDBRANCH   6   7
ENDBRANCH   5   6
ENDBRANCH   2   5
BRANCH   4  30
HETATM   30  O   UNL     1      -7.933  15.201  67.442  1.00  0.00    -0.159 OA 
BRANCH  30  31
HETATM   31  C   UNL     1      -8.722  16.300  67.823  1.00  0.00    -0.179 A  
HETATM   32  C   UNL     1      -9.482  16.236  68.992  1.00  0.00    -0.258 A  
HETATM   33  C   UNL     1      -8.638  17.477  67.074  1.00  0.00    -0.251 A  
HETATM   34  C   UNL     1      -9.371  18.607  67.477  1.00  0.00    -0.283 A  
HETATM   35  C   UNL     1     -10.217  17.339  69.388  1.00  0.00    -0.139 A  
HETATM   36  C   UNL     1     -10.168  18.510  68.633  1.00  0.00    -0.363 A  
BRANCH  34  37
HETATM   37  N   UNL     1      -9.396  19.871  66.626  1.00  0.00    -0.371 N  
HETATM   38  C   UNL     1      -8.082  20.060  65.865  1.00  0.00    -0.203 C  
HETATM   39  C   UNL     1     -10.509  19.801  65.580  1.00  0.00    -0.361 C  
HETATM   40  C   UNL     1      -9.604  21.051  67.576  1.00  0.00    -0.103 C  
ENDBRANCH  34  37
ENDBRANCH  30  31
ENDBRANCH   4  30
TORSDOF 17
ENDMDL
MODEL      196
REMARK 921   NORMALIZED FREE ENERGY PREDICTED BY IDOCK:   -4.02 KCAL/MOL
REMARK 922        TOTAL FREE ENERGY PREDICTED BY IDOCK:  -10.24 KCAL/MOL
REMARK 923 INTER-LIGAND FREE ENERGY PREDICTED BY IDOCK:   -9.13 KCAL/MOL
REMARK 924 INTRA-LIGAND FREE ENERGY PREDICTED BY IDOCK:   -1.11 KCAL/MOL
REMARK 927      BINDING AFFINITY PREDICTED BY RF-SCORE:    0.00 PKD
ROOT
HETATM    1  C   UNL     1      -9.262  11.529  68.303  1.00  0.00    -0.186 C  
HETATM    2  N   UNL     1      -7.990  12.098  67.892  1.00  0.00    -0.139 N  
HETATM    3  O   UNL     1      -6.140  11.884  66.515  1.00  0.00    -0.155 OA 
HETATM    4  C   UNL     1      -7.275  11.548  66.838  1.00  0.00    -0.137 C  
ENDROOT
BRANCH   2   5
HETATM    5  C   UNL     1      -7.363  13.104  68.748  1.00  0.00    -0.068 C  
BRANCH   5   6
HETATM    6  C   UNL     1      -7.908  14.519  68.507  1.00  0.00    -0.136 C  
BRANCH   6   7
HETATM    7  C   UNL     1      -8.873  14.941  69.622  1.00  0.00     0.106 C  
BRANCH   7   8
HETATM    8  C   UNL     1      -9.742  16.135  69.205  1.00  0.00    -0.248 C  
BRANCH   8   9
HETATM    9  C   UNL     1     -11.232  15.788  69.273  1.00  0.00    -0.324 C  
BRANCH   9  10
HETATM   10  C   UNL     1     -11.455  14.322  69.655  1.00  0.00    -0.334 C  
BRANCH  10  11
HETATM   11  C   UNL     1     -12.156  13.511  68.560  1.00  0.00    -0.303 C  
BRANCH  11  12
HETATM   12  C   UNL     1     -12.041  14.146  67.175  1.00  0.00    -0.432 C  
BRANCH  12  13
HETATM   13  C   UNL     1     -11.744  13.101  66.102  1.00  0.00    -0.428 C  
BRANCH  13  14
HETATM   14  C   UNL     1     -10.863  13.700  65.016  1.00  0.00    -0.352 C  
BRANCH  14  15
HETATM   15  N   UNL     1     -11.071  15.134  64.882  1.00  0.00    -0.410 N  
HETATM   16  C   UNL     1     -10.106  16.009  65.347  1.00  0.00    -0.225 C  
HETATM   17  C   UNL     1     -12.274  15.615  64.217  1.00  0.00    -0.002 C  
HETATM   18  O   UNL     1      -9.092  15.666  65.946  1.00  0.00    -0.335 OA 
BRANCH  16  19
HETATM   19  O   UNL     1     -10.484  17.333  65.179  1.00  0.00    -0.656 OA 
BRANCH  19  20
HETATM   20  C   UNL     1     -10.019  18.173  66.196  1.00  0.00    -0.299 A  
HETATM   21  C   UNL     1     -10.972  18.752  67.027  1.00  0.00    -0.198 A  
HETATM   22  C   UNL     1     -10.534  19.495  68.118  1.00  0.00    -0.497 A  
HETATM   23  C   UNL     1      -9.167  19.656  68.368  1.00  0.00    -0.404 A  
HETATM   24  C   UNL     1      -8.201  19.083  67.523  1.00  0.00    -0.276 A  
HETATM   25  C   UNL     1      -8.648  18.307  66.453  1.00  0.00    -0.262 A  
BRANCH  24  26
HETATM   26  N   UNL     1      -6.712  19.195  67.811  1.00  0.00    -0.208 N  
HETATM   27  C   UNL     1      -6.327  18.370  69.035  1.00  0.00    -0.241 C  
HETATM   28  C   UNL     1      -6.328  20.650  68.112  1.00  0.00    -0.315 C  
HETATM   29  C   UNL     1      -5.964  18.695  66.584  1.00  0.00    -0.155 C  
ENDBRANCH  24  26
ENDBRANCH  19  20
ENDBRANCH  16  19
ENDBRANCH  14  15
ENDBRANCH  13  14
ENDBRANCH  12  13
ENDBRANCH  11  12
ENDBRANCH  10  11
ENDBRANCH   9  10
ENDBRANCH   8   9
ENDBRANCH   7   8
ENDBRANCH   6   7
ENDBRANCH   5   6
ENDBRANCH   2   5
BRANCH   4  30
HETATM   30  O   UNL     1      -7.961  10.502  66.214  1.00  0.00    -0.131 OA 
BRANCH  30  31
HETATM   31  C   UNL     1      -7.761   9.254  66.830  1.00  0.00    -0.094 A  
HETATM   32  C   UNL     1      -6.544   8.976  67.454  1.00  0.00    -0.065 A  
HETATM   33  C   UNL     1      -8.833   8.359  66.895  1.00  0.00    -0.157 A  
HETATM   34  C   UNL     1      -8.670   7.133  67.562  1.00  0.00    -0.121 A  
HETATM   35  C   UNL     1      -6.371   7.766  68.102  1.00  0.00    -0.050 A  
HETATM   36  C   UNL     1      -7.421   6.850  68.147  1.00  0.00    -0.099 A  
BRANCH  34  37
HETATM   37  N   UNL     1      -9.776   6.084  67.557  1.00  0.00    -0.112 N  
HETATM   38  C   UNL     1     -11.106   6.674  67.088  1.00  0.00    -0.357 C  
HETATM   39  C   UNL     1      -9.436   4.939  66.602  1.00  0.00    -0.150 C  
HETATM   40  C   UNL     1      -9.924   5.579  68.993  1.00  0.00    -0.181 C  
ENDBRANCH  34  37
ENDBRANCH  30  31
ENDBRANCH   4  30
TORSDOF 17
ENDMDL
MODEL      197
REMARK 921   NORMALIZED FREE ENERGY PREDICTED BY IDOCK:   -4.01 KCAL/MOL
REMARK 922        TOTAL FREE ENERGY PREDICTED BY IDOCK:  -10.23 KCAL/MOL
REMARK 923 INTER-LIGAND FREE ENERGY PREDICTED BY IDOCK:   -7.70 KCAL/MOL
REMARK 924 INTRA-LIGAND FREE ENERGY PREDICTED BY IDOCK:   -2.53 KCAL/MOL
REMARK 927      BINDING AFFINITY PREDICTED BY RF-SCORE:    0.00 PKD
ROOT
HETATM    1  C   UNL     1     -13.003  11.004  71.132  1.00  0.00    -0.324 C  
HETATM    2  N   UNL     1     -11.695  10.638  70.615  1.00  0.00    -0.342 N  
HETATM    3  O   UNL     1     -10.212  10.797  68.842  1.00  0.00    -0.186 OA 
HETATM    4  C   UNL     1     -11.240  11.154  69.409  1.00  0.00    -0.270 C  
ENDROOT
BRANCH   2   5
HETATM    5  C   UNL     1     -10.969   9.544  71.256  1.00  0.00    -0.370 C  
BRANCH   5   6
HETATM    6  C   UNL     1     -11.308   8.170  70.661  1.00  0.00    -0.256 C  
BRANCH   6   7
HETATM    7  C   UNL     1     -11.972   7.260  71.701  1.00  0.00    -0.341 C  
BRANCH   7   8
HETATM    8  C   UNL     1     -10.979   6.802  72.778  1.00  0.00    -0.303 C  
BRANCH   8   9
HETATM    9  C   UNL     1     -11.171   5.320  73.116  1.00  0.00    -0.382 C  
BRANCH   9  10
HETATM   10  C   UNL     1     -10.021   4.464  72.578  1.00  0.00    -0.225 C  
BRANCH  10  11
HETATM   11  C   UNL     1     -10.097   4.230  71.066  1.00  0.00    -0.165 C  
BRANCH  11  12
HETATM   12  C   UNL     1      -8.772   3.767  70.463  1.00  0.00    -0.122 C  
BRANCH  12  13
HETATM   13  C   UNL     1      -8.099   4.881  69.664  1.00  0.00    -0.073 C  
BRANCH  13  14
HETATM   14  C   UNL     1      -7.354   5.822  70.599  1.00  0.00    -0.084 C  
BRANCH  14  15
HETATM   15  N   UNL     1      -6.422   6.675  69.876  1.00  0.00    -0.042 N  
HETATM   16  C   UNL     1      -6.649   8.038  69.822  1.00  0.00    -0.037 C  
HETATM   17  C   UNL     1      -5.244   6.075  69.265  1.00  0.00    -0.004 C  
HETATM   18  O   UNL     1      -7.640   8.593  70.284  1.00  0.00    -0.066 OA 
BRANCH  16  19
HETATM   19  O   UNL     1      -5.692   8.691  69.059  1.00  0.00    -0.038 OA 
BRANCH  19  20
HETATM   20  C   UNL     1      -6.239   9.594  68.141  1.00  0.00    -0.055 A  
HETATM   21  C   UNL     1      -6.132  10.947  68.439  1.00  0.00    -0.046 A  
HETATM   22  C   UNL     1      -6.559  11.869  67.490  1.00  0.00    -0.110 A  
HETATM   23  C   UNL     1      -7.085  11.441  66.266  1.00  0.00     0.075 A  
HETATM   24  C   UNL     1      -7.205  10.073  65.966  1.00  0.00    -0.112 A  
HETATM   25  C   UNL     1      -6.740   9.155  66.907  1.00  0.00    -0.076 A  
BRANCH  24  26
HETATM   26  N   UNL     1      -7.718   9.588  64.619  1.00  0.00    -0.115 N  
HETATM   27  C   UNL     1      -9.082  10.192  64.301  1.00  0.00    -0.250 C  
HETATM   28  C   UNL     1      -7.890   8.064  64.622  1.00  0.00    -0.140 C  
HETATM   29  C   UNL     1      -6.703  10.001  63.562  1.00  0.00    -0.135 C  
ENDBRANCH  24  26
ENDBRANCH  19  20
ENDBRANCH  16  19
ENDBRANCH  14  15
ENDBRANCH  13  14
ENDBRANCH  12  13
ENDBRANCH  11  12
ENDBRANCH  10  11
ENDBRANCH   9  10
ENDBRANCH   8   9
ENDBRANCH   7   8
ENDBRANCH   6   7
ENDBRANCH   5   6
ENDBRANCH   2   5
BRANCH   4  30
HETATM   30  O   UNL     1     -12.123  12.088  68.860  1.00  0.00    -0.274 OA 
BRANCH  30  31
HETATM   31  C   UNL     1     -11.592  12.780  67.758  1.00  0.00    -0.353 A  
HETATM   32  C   UNL     1     -11.882  12.349  66.462  1.00  0.00    -0.407 A  
HETATM   33  C   UNL     1     -10.870  13.955  67.988  1.00  0.00    -0.259 A  
HETATM   34  C   UNL     1     -10.385  14.694  66.895  1.00  0.00    -0.264 A  
HETATM   35  C   UNL     1     -11.397  13.064  65.381  1.00  0.00    -0.327 A  
HETATM   36  C   UNL     1     -10.648  14.220  65.596  1.00  0.00    -0.328 A  
BRANCH  34  37
HETATM   37  N   UNL     1      -9.498  15.916  67.106  1.00  0.00    -0.211 N  
HETATM   38  C   UNL     1      -9.779  16.999  66.063  1.00  0.00    -0.218 C  
HETATM   39  C   UNL     1      -9.752  16.543  68.477  1.00  0.00    -0.239 C  
HETATM   40  C   UNL     1      -8.048  15.448  66.973  1.00  0.00    -0.230 C  
ENDBRANCH  34  37
ENDBRANCH  30  31
ENDBRANCH   4  30
TORSDOF 17
ENDMDL
MODEL      198
REMARK 921   NORMALIZED FREE ENERGY PREDICTED BY IDOCK:   -4.00 KCAL/MOL
REMARK 922        TOTAL FREE ENERGY PREDICTED BY IDOCK:  -10.22 KCAL/MOL
REMARK 923 INTER-LIGAND FREE ENERGY PREDICTED BY IDOCK:   -9.70 KCAL/MOL
REMARK 924 INTRA-LIGAND FREE ENERGY PREDICTED BY IDOCK:   -0.52 KCAL/MOL
REMARK 927      BINDING AFFINITY PREDICTED BY RF-SCORE:    0.00 PKD
ROOT
HETATM    1  C   UNL     1     -10.563  12.434  66.618  1.00  0.00    -0.231 C  
HETATM    2  N   UNL     1     -10.607  10.981  66.604  1.00  0.00    -0.257 N  
HETATM    3  O   UNL     1     -10.743   9.047  67.871  1.00  0.00    -0.217 OA 
HETATM    4  C   UNL     1     -10.821  10.268  67.775  1.00  0.00    -0.292 C  
ENDROOT
BRANCH   2   5
HETATM    5  C   UNL     1     -10.191  10.279  65.392  1.00  0.00    -0.242 C  
BRANCH   5   6
HETATM    6  C   UNL     1      -8.807  10.715  64.892  1.00  0.00    -0.204 C  
BRANCH   6   7
HETATM    7  C   UNL     1      -7.687  10.089  65.733  1.00  0.00    -0.122 C  
BRANCH   7   8
HETATM    8  C   UNL     1      -6.356  10.047  64.973  1.00  0.00    -0.116 C  
BRANCH   8   9
HETATM    9  C   UNL     1      -5.182  10.412  65.887  1.00  0.00    -0.065 C  
BRANCH   9  10
HETATM   10  C   UNL     1      -5.660  11.066  67.187  1.00  0.00    -0.054 C  
BRANCH  10  11
HETATM   11  C   UNL     1      -5.258  12.540  67.306  1.00  0.00    -0.025 C  
BRANCH  11  12
HETATM   12  C   UNL     1      -6.436  13.459  67.621  1.00  0.00    -0.169 C  
BRANCH  12  13
HETATM   13  C   UNL     1      -6.044  14.554  68.611  1.00  0.00    -0.084 C  
BRANCH  13  14
HETATM   14  C   UNL     1      -5.130  15.567  67.939  1.00  0.00    -0.117 C  
BRANCH  14  15
HETATM   15  N   UNL     1      -5.793  16.848  67.747  1.00  0.00    -0.126 N  
HETATM   16  C   UNL     1      -6.008  17.673  68.837  1.00  0.00    -0.191 C  
HETATM   17  C   UNL     1      -6.174  17.253  66.401  1.00  0.00    -0.211 C  
HETATM   18  O   UNL     1      -5.743  17.372  69.996  1.00  0.00    -0.231 OA 
BRANCH  16  19
HETATM   19  O   UNL     1      -6.688  18.829  68.483  1.00  0.00    -0.242 OA 
BRANCH  19  20
HETATM   20  C   UNL     1      -8.069  18.643  68.359  1.00  0.00    -0.333 A  
HETATM   21  C   UNL     1      -8.776  19.595  67.635  1.00  0.00    -0.372 A  
HETATM   22  C   UNL     1     -10.128  19.374  67.395  1.00  0.00    -0.506 A  
HETATM   23  C   UNL     1     -10.757  18.220  67.874  1.00  0.00    -0.335 A  
HETATM   24  C   UNL     1     -10.048  17.261  68.618  1.00  0.00    -0.341 A  
HETATM   25  C   UNL     1      -8.685  17.471  68.822  1.00  0.00    -0.214 A  
BRANCH  24  26
HETATM   26  N   UNL     1     -10.699  15.972  69.095  1.00  0.00    -0.251 N  
HETATM   27  C   UNL     1     -11.812  15.536  68.148  1.00  0.00    -0.117 C  
HETATM   28  C   UNL     1     -11.336  16.168  70.477  1.00  0.00    -0.373 C  
HETATM   29  C   UNL     1      -9.617  14.904  69.160  1.00  0.00    -0.172 C  
ENDBRANCH  24  26
ENDBRANCH  19  20
ENDBRANCH  16  19
ENDBRANCH  14  15
ENDBRANCH  13  14
ENDBRANCH  12  13
ENDBRANCH  11  12
ENDBRANCH  10  11
ENDBRANCH   9  10
ENDBRANCH   8   9
ENDBRANCH   7   8
ENDBRANCH   6   7
ENDBRANCH   5   6
ENDBRANCH   2   5
BRANCH   4  30
HETATM   30  O   UNL     1     -11.069  11.099  68.871  1.00  0.00    -0.199 OA 
BRANCH  30  31
HETATM   31  C   UNL     1     -11.450  10.401  70.029  1.00  0.00    -0.308 A  
HETATM   32  C   UNL     1     -12.686  10.663  70.623  1.00  0.00    -0.445 A  
HETATM   33  C   UNL     1     -10.621   9.377  70.498  1.00  0.00    -0.331 A  
HETATM   34  C   UNL     1     -11.017   8.625  71.618  1.00  0.00    -0.308 A  
HETATM   35  C   UNL     1     -13.077   9.936  71.733  1.00  0.00    -0.553 A  
HETATM   36  C   UNL     1     -12.246   8.933  72.231  1.00  0.00    -0.413 A  
BRANCH  34  37
HETATM   37  N   UNL     1     -10.091   7.578  72.227  1.00  0.00    -0.191 N  
HETATM   38  C   UNL     1     -10.525   7.203  73.645  1.00  0.00    -0.370 C  
HETATM   39  C   UNL     1     -10.107   6.291  71.402  1.00  0.00    -0.191 C  
HETATM   40  C   UNL     1      -8.689   8.189  72.271  1.00  0.00    -0.182 C  
ENDBRANCH  34  37
ENDBRANCH  30  31
ENDBRANCH   4  30
TORSDOF 17
ENDMDL
MODEL      199
REMARK 921   NORMALIZED FREE ENERGY PREDICTED BY IDOCK:   -4.00 KCAL/MOL
REMARK 922        TOTAL FREE ENERGY PREDICTED BY IDOCK:  -10.20 KCAL/MOL
REMARK 923 INTER-LIGAND FREE ENERGY PREDICTED BY IDOCK:   -8.66 KCAL/MOL
REMARK 924 INTRA-LIGAND FREE ENERGY PREDICTED BY IDOCK:   -1.54 KCAL/MOL
REMARK 927      BINDING AFFINITY PREDICTED BY RF-SCORE:    0.00 PKD
ROOT
HETATM    1  C   UNL     1      -9.027   5.990  70.544  1.00  0.00    -0.146 C  
HETATM    2  N   UNL     1     -10.125   6.611  69.823  1.00  0.00    -0.179 N  
HETATM    3  O   UNL     1     -10.737   8.108  68.165  1.00  0.00    -0.147 OA 
HETATM    4  C   UNL     1      -9.880   7.445  68.741  1.00  0.00    -0.164 C  
ENDROOT
BRANCH   2   5
HETATM    5  C   UNL     1     -11.469   6.537  70.393  1.00  0.00    -0.404 C  
BRANCH   5   6
HETATM    6  C   UNL     1     -11.478   6.655  71.923  1.00  0.00    -0.332 C  
BRANCH   6   7
HETATM    7  C   UNL     1     -11.725   8.102  72.369  1.00  0.00    -0.461 C  
BRANCH   7   8
HETATM    8  C   UNL     1     -12.386   8.936  71.265  1.00  0.00    -0.342 C  
BRANCH   8   9
HETATM    9  C   UNL     1     -11.553  10.177  70.931  1.00  0.00    -0.459 C  
BRANCH   9  10
HETATM   10  C   UNL     1     -12.165  10.978  69.779  1.00  0.00    -0.388 C  
BRANCH  10  11
HETATM   11  C   UNL     1     -11.330  12.199  69.378  1.00  0.00    -0.311 C  
BRANCH  11  12
HETATM   12  C   UNL     1     -11.918  12.967  68.197  1.00  0.00    -0.322 C  
BRANCH  12  13
HETATM   13  C   UNL     1     -12.022  14.461  68.494  1.00  0.00    -0.333 C  
BRANCH  13  14
HETATM   14  C   UNL     1     -11.263  15.259  67.445  1.00  0.00    -0.311 C  
BRANCH  14  15
HETATM   15  N   UNL     1      -9.822  15.143  67.616  1.00  0.00    -0.219 N  
HETATM   16  C   UNL     1      -9.219  15.723  68.717  1.00  0.00    -0.216 C  
HETATM   17  C   UNL     1      -9.054  14.378  66.644  1.00  0.00    -0.240 C  
HETATM   18  O   UNL     1      -9.806  16.408  69.547  1.00  0.00    -0.216 OA 
BRANCH  16  19
HETATM   19  O   UNL     1      -7.842  15.554  68.700  1.00  0.00    -0.129 OA 
BRANCH  19  20
HETATM   20  C   UNL     1      -7.137  16.762  68.746  1.00  0.00    -0.202 A  
HETATM   21  C   UNL     1      -6.176  16.899  69.741  1.00  0.00    -0.205 A  
HETATM   22  C   UNL     1      -5.378  18.038  69.737  1.00  0.00    -0.212 A  
HETATM   23  C   UNL     1      -5.544  19.021  68.755  1.00  0.00    -0.207 A  
HETATM   24  C   UNL     1      -6.523  18.891  67.755  1.00  0.00    -0.211 A  
HETATM   25  C   UNL     1      -7.293  17.728  67.742  1.00  0.00    -0.205 A  
BRANCH  24  26
HETATM   26  N   UNL     1      -6.678  19.918  66.644  1.00  0.00    -0.200 N  
HETATM   27  C   UNL     1      -6.665  21.337  67.203  1.00  0.00    -0.292 C  
HETATM   28  C   UNL     1      -8.017  19.733  65.919  1.00  0.00    -0.280 C  
HETATM   29  C   UNL     1      -5.522  19.726  65.673  1.00  0.00    -0.159 C  
ENDBRANCH  24  26
ENDBRANCH  19  20
ENDBRANCH  16  19
ENDBRANCH  14  15
ENDBRANCH  13  14
ENDBRANCH  12  13
ENDBRANCH  11  12
ENDBRANCH  10  11
ENDBRANCH   9  10
ENDBRANCH   8   9
ENDBRANCH   7   8
ENDBRANCH   6   7
ENDBRANCH   5   6
ENDBRANCH   2   5
BRANCH   4  30
HETATM   30  O   UNL     1      -8.523   7.512  68.413  1.00  0.00    -0.124 OA 
BRANCH  30  31
HETATM   31  C   UNL     1      -8.271   7.363  67.039  1.00  0.00    -0.121 A  
HETATM   32  C   UNL     1      -7.720   8.423  66.315  1.00  0.00    -0.094 A  
HETATM   33  C   UNL     1      -8.480   6.112  66.451  1.00  0.00    -0.123 A  
HETATM   34  C   UNL     1      -8.173   5.927  65.092  1.00  0.00    -0.141 A  
HETATM   35  C   UNL     1      -7.428   8.252  64.974  1.00  0.00    -0.090 A  
HETATM   36  C   UNL     1      -7.661   7.019  64.366  1.00  0.00    -0.113 A  
BRANCH  34  37
HETATM   37  N   UNL     1      -8.493   4.614  64.387  1.00  0.00    -0.124 N  
HETATM   38  C   UNL     1      -9.998   4.341  64.365  1.00  0.00    -0.083 C  
HETATM   39  C   UNL     1      -8.026   4.649  62.932  1.00  0.00    -0.073 C  
HETATM   40  C   UNL     1      -7.788   3.502  65.166  1.00  0.00    -0.086 C  
ENDBRANCH  34  37
ENDBRANCH  30  31
ENDBRANCH   4  30
TORSDOF 17
ENDMDL
MODEL      200
REMARK 921   NORMALIZED FREE ENERGY PREDICTED BY IDOCK:   -3.98 KCAL/MOL
REMARK 922        TOTAL FREE ENERGY PREDICTED BY IDOCK:  -10.18 KCAL/MOL
REMARK 923 INTER-LIGAND FREE ENERGY PREDICTED BY IDOCK:   -8.47 KCAL/MOL
REMARK 924 INTRA-LIGAND FREE ENERGY PREDICTED BY IDOCK:   -1.71 KCAL/MOL
REMARK 927      BINDING AFFINITY PREDICTED BY RF-SCORE:    0.00 PKD
ROOT
HETATM    1  C   UNL     1      -6.339   8.843  71.788  1.00  0.00    -0.070 C  
HETATM    2  N   UNL     1      -6.715   7.685  70.995  1.00  0.00    -0.042 N  
HETATM    3  O   UNL     1      -8.093   5.830  70.828  1.00  0.00    -0.113 OA 
HETATM    4  C   UNL     1      -7.793   6.893  71.365  1.00  0.00    -0.100 C  
ENDROOT
BRANCH   2   5
HETATM    5  C   UNL     1      -5.807   7.231  69.944  1.00  0.00    -0.024 C  
BRANCH   5   6
HETATM    6  C   UNL     1      -6.436   7.282  68.545  1.00  0.00    -0.040 C  
BRANCH   6   7
HETATM    7  C   UNL     1      -5.989   8.533  67.778  1.00  0.00    -0.047 C  
BRANCH   7   8
HETATM    8  C   UNL     1      -7.178   9.287  67.170  1.00  0.00    -0.087 C  
BRANCH   8   9
HETATM    9  C   UNL     1      -8.164   8.324  66.503  1.00  0.00    -0.106 C  
BRANCH   9  10
HETATM   10  C   UNL     1      -8.961   9.010  65.390  1.00  0.00    -0.249 C  
BRANCH  10  11
HETATM   11  C   UNL     1      -8.688  10.514  65.289  1.00  0.00    -0.200 C  
BRANCH  11  12
HETATM   12  C   UNL     1      -9.506  11.201  64.196  1.00  0.00    -0.237 C  
BRANCH  12  13
HETATM   13  C   UNL     1     -10.716  11.928  64.775  1.00  0.00    -0.356 C  
BRANCH  13  14
HETATM   14  C   UNL     1     -10.619  13.419  64.490  1.00  0.00    -0.425 C  
BRANCH  14  15
HETATM   15  N   UNL     1     -10.887  14.215  65.679  1.00  0.00    -0.296 N  
HETATM   16  C   UNL     1     -10.785  15.593  65.613  1.00  0.00    -0.364 C  
HETATM   17  C   UNL     1     -11.303  13.542  66.901  1.00  0.00    -0.326 C  
HETATM   18  O   UNL     1     -10.406  16.212  64.625  1.00  0.00    -0.425 OA 
BRANCH  16  19
HETATM   19  O   UNL     1     -11.031  16.188  66.841  1.00  0.00    -0.237 OA 
BRANCH  19  20
HETATM   20  C   UNL     1      -9.919  16.860  67.362  1.00  0.00    -0.269 A  
HETATM   21  C   UNL     1     -10.126  18.141  67.860  1.00  0.00    -0.366 A  
HETATM   22  C   UNL     1      -9.067  18.785  68.490  1.00  0.00    -0.377 A  
HETATM   23  C   UNL     1      -7.824  18.155  68.616  1.00  0.00    -0.307 A  
HETATM   24  C   UNL     1      -7.607  16.865  68.103  1.00  0.00    -0.188 A  
HETATM   25  C   UNL     1      -8.685  16.211  67.507  1.00  0.00    -0.195 A  
BRANCH  24  26
HETATM   26  N   UNL     1      -6.283  16.140  68.284  1.00  0.00    -0.113 N  
HETATM   27  C   UNL     1      -5.160  16.855  67.538  1.00  0.00    -0.121 C  
HETATM   28  C   UNL     1      -6.363  14.717  67.717  1.00  0.00    -0.152 C  
HETATM   29  C   UNL     1      -5.978  16.097  69.774  1.00  0.00    -0.177 C  
ENDBRANCH  24  26
ENDBRANCH  19  20
ENDBRANCH  16  19
ENDBRANCH  14  15
ENDBRANCH  13  14
ENDBRANCH  12  13
ENDBRANCH  11  12
ENDBRANCH  10  11
ENDBRANCH   9  10
ENDBRANCH   8   9
ENDBRANCH   7   8
ENDBRANCH   6   7
ENDBRANCH   5   6
ENDBRANCH   2   5
BRANCH   4  30
HETATM   30  O   UNL     1      -8.472   7.398  72.477  1.00  0.00    -0.105 OA 
BRANCH  30  31
HETATM   31  C   UNL     1      -9.682   8.034  72.152  1.00  0.00    -0.221 A  
HETATM   32  C   UNL     1     -10.806   7.842  72.958  1.00  0.00    -0.451 A  
HETATM   33  C   UNL     1      -9.700   8.936  71.084  1.00  0.00    -0.344 A  
HETATM   34  C   UNL     1     -10.885   9.629  70.784  1.00  0.00    -0.330 A  
HETATM   35  C   UNL     1     -11.980   8.511  72.662  1.00  0.00    -0.309 A  
HETATM   36  C   UNL     1     -12.021   9.389  71.580  1.00  0.00    -0.456 A  
BRANCH  34  37
HETATM   37  N   UNL     1     -10.977  10.533  69.560  1.00  0.00    -0.246 N  
HETATM   38  C   UNL     1     -11.233   9.727  68.286  1.00  0.00    -0.012 C  
HETATM   39  C   UNL     1     -12.133  11.524  69.700  1.00  0.00    -0.296 C  
HETATM   40  C   UNL     1      -9.638  11.262  69.437  1.00  0.00     0.313 C  
ENDBRANCH  34  37
ENDBRANCH  30  31
ENDBRANCH   4  30
TORSDOF 17
ENDMDL
MODEL      201
REMARK 921   NORMALIZED FREE ENERGY PREDICTED BY IDOCK:   -3.97 KCAL/MOL
REMARK 922        TOTAL FREE ENERGY PREDICTED BY IDOCK:  -10.16 KCAL/MOL
REMARK 923 INTER-LIGAND FREE ENERGY PREDICTED BY IDOCK:   -8.05 KCAL/MOL
REMARK 924 INTRA-LIGAND FREE ENERGY PREDICTED BY IDOCK:   -2.10 KCAL/MOL
REMARK 927      BINDING AFFINITY PREDICTED BY RF-SCORE:    0.00 PKD
ROOT
HETATM    1  C   UNL     1      -6.873   8.586  72.471  1.00  0.00    -0.055 C  
HETATM    2  N   UNL     1      -7.771   8.730  71.338  1.00  0.00    -0.125 N  
HETATM    3  O   UNL     1      -9.872   8.270  70.475  1.00  0.00    -0.180 OA 
HETATM    4  C   UNL     1      -9.090   8.305  71.421  1.00  0.00    -0.170 C  
ENDROOT
BRANCH   2   5
HETATM    5  C   UNL     1      -7.211   9.106  70.042  1.00  0.00    -0.066 C  
BRANCH   5   6
HETATM    6  C   UNL     1      -7.544  10.550  69.640  1.00  0.00    -0.134 C  
BRANCH   6   7
HETATM    7  C   UNL     1      -6.274  11.398  69.506  1.00  0.00    -0.104 C  
BRANCH   7   8
HETATM    8  C   UNL     1      -6.510  12.650  68.650  1.00  0.00    -0.079 C  
BRANCH   8   9
HETATM    9  C   UNL     1      -6.983  12.279  67.242  1.00  0.00    -0.142 C  
BRANCH   9  10
HETATM   10  C   UNL     1      -8.318  12.947  66.899  1.00  0.00    -0.047 C  
BRANCH  10  11
HETATM   11  C   UNL     1      -8.417  14.392  67.398  1.00  0.00    -0.216 C  
BRANCH  11  12
HETATM   12  C   UNL     1      -9.714  14.679  68.152  1.00  0.00    -0.220 C  
BRANCH  12  13
HETATM   13  C   UNL     1     -10.745  15.360  67.255  1.00  0.00    -0.307 C  
BRANCH  13  14
HETATM   14  C   UNL     1     -11.963  14.464  67.082  1.00  0.00    -0.389 C  
BRANCH  14  15
HETATM   15  N   UNL     1     -11.939  13.761  65.808  1.00  0.00    -0.376 N  
HETATM   16  C   UNL     1     -11.812  12.385  65.792  1.00  0.00    -0.406 C  
HETATM   17  C   UNL     1     -12.097  14.524  64.577  1.00  0.00    -0.484 C  
HETATM   18  O   UNL     1     -11.640  11.694  66.791  1.00  0.00    -0.503 OA 
BRANCH  16  19
HETATM   19  O   UNL     1     -11.764  11.884  64.499  1.00  0.00    -0.314 OA 
BRANCH  19  20
HETATM   20  C   UNL     1     -10.569  11.217  64.209  1.00  0.00    -0.358 A  
HETATM   21  C   UNL     1      -9.814  11.698  63.145  1.00  0.00    -0.407 A  
HETATM   22  C   UNL     1      -8.567  11.131  62.910  1.00  0.00    -0.107 A  
HETATM   23  C   UNL     1      -8.087  10.099  63.724  1.00  0.00    -0.160 A  
HETATM   24  C   UNL     1      -8.853   9.602  64.793  1.00  0.00    -0.207 A  
HETATM   25  C   UNL     1     -10.086  10.202  65.047  1.00  0.00    -0.305 A  
BRANCH  24  26
HETATM   26  N   UNL     1      -8.324   8.524  65.727  1.00  0.00    -0.131 N  
HETATM   27  C   UNL     1      -9.239   8.349  66.935  1.00  0.00    -0.157 C  
HETATM   28  C   UNL     1      -6.939   8.905  66.264  1.00  0.00    -0.079 C  
HETATM   29  C   UNL     1      -8.245   7.226  64.936  1.00  0.00    -0.073 C  
ENDBRANCH  24  26
ENDBRANCH  19  20
ENDBRANCH  16  19
ENDBRANCH  14  15
ENDBRANCH  13  14
ENDBRANCH  12  13
ENDBRANCH  11  12
ENDBRANCH  10  11
ENDBRANCH   9  10
ENDBRANCH   8   9
ENDBRANCH   7   8
ENDBRANCH   6   7
ENDBRANCH   5   6
ENDBRANCH   2   5
BRANCH   4  30
HETATM   30  O   UNL     1      -9.425   7.845  72.698  1.00  0.00    -0.177 OA 
BRANCH  30  31
HETATM   31  C   UNL     1      -9.760   6.480  72.731  1.00  0.00    -0.157 A  
HETATM   32  C   UNL     1     -10.893   6.061  73.430  1.00  0.00    -0.256 A  
HETATM   33  C   UNL     1      -9.005   5.586  71.966  1.00  0.00    -0.140 A  
HETATM   34  C   UNL     1      -9.364   4.227  71.937  1.00  0.00    -0.131 A  
HETATM   35  C   UNL     1     -11.245   4.723  73.417  1.00  0.00    -0.425 A  
HETATM   36  C   UNL     1     -10.483   3.814  72.685  1.00  0.00    -0.194 A  
BRANCH  34  37
HETATM   37  N   UNL     1      -8.501   3.203  71.209  1.00  0.00    -0.063 N  
HETATM   38  C   UNL     1      -7.213   3.833  70.677  1.00  0.00    -0.037 C  
HETATM   39  C   UNL     1      -8.087   2.072  72.150  1.00  0.00    -0.053 C  
HETATM   40  C   UNL     1      -9.326   2.671  70.036  1.00  0.00    -0.122 C  
ENDBRANCH  34  37
ENDBRANCH  30  31
ENDBRANCH   4  30
TORSDOF 17
ENDMDL
MODEL      202
REMARK 921   NORMALIZED FREE ENERGY PREDICTED BY IDOCK:   -3.97 KCAL/MOL
REMARK 922        TOTAL FREE ENERGY PREDICTED BY IDOCK:  -10.15 KCAL/MOL
REMARK 923 INTER-LIGAND FREE ENERGY PREDICTED BY IDOCK:   -8.77 KCAL/MOL
REMARK 924 INTRA-LIGAND FREE ENERGY PREDICTED BY IDOCK:   -1.38 KCAL/MOL
REMARK 927      BINDING AFFINITY PREDICTED BY RF-SCORE:    0.00 PKD
ROOT
HETATM    1  C   UNL     1     -11.383  14.998  65.661  1.00  0.00    -0.297 C  
HETATM    2  N   UNL     1     -11.378  14.185  66.866  1.00  0.00    -0.317 N  
HETATM    3  O   UNL     1     -12.072  12.211  67.860  1.00  0.00    -0.502 OA 
HETATM    4  C   UNL     1     -11.919  12.907  66.860  1.00  0.00    -0.335 C  
ENDROOT
BRANCH   2   5
HETATM    5  C   UNL     1     -11.016  14.814  68.135  1.00  0.00    -0.268 C  
BRANCH   5   6
HETATM    6  C   UNL     1     -10.657  16.299  67.987  1.00  0.00    -0.308 C  
BRANCH   6   7
HETATM    7  C   UNL     1      -9.183  16.553  68.326  1.00  0.00    -0.214 C  
BRANCH   7   8
HETATM    8  C   UNL     1      -8.572  15.396  69.126  1.00  0.00    -0.242 C  
BRANCH   8   9
HETATM    9  C   UNL     1      -7.339  14.823  68.421  1.00  0.00    -0.116 C  
BRANCH   9  10
HETATM   10  C   UNL     1      -6.407  14.106  69.402  1.00  0.00    -0.114 C  
BRANCH  10  11
HETATM   11  C   UNL     1      -6.482  12.579  69.303  1.00  0.00    -0.104 C  
BRANCH  11  12
HETATM   12  C   UNL     1      -5.689  11.867  70.397  1.00  0.00    -0.163 C  
BRANCH  12  13
HETATM   13  C   UNL     1      -5.224  10.485  69.943  1.00  0.00    -0.039 C  
BRANCH  13  14
HETATM   14  C   UNL     1      -6.421   9.566  69.748  1.00  0.00    -0.046 C  
BRANCH  14  15
HETATM   15  N   UNL     1      -7.050   9.222  71.014  1.00  0.00    -0.101 N  
HETATM   16  C   UNL     1      -8.430   9.211  71.108  1.00  0.00    -0.113 C  
HETATM   17  C   UNL     1      -6.209   8.851  72.144  1.00  0.00    -0.048 C  
HETATM   18  O   UNL     1      -9.188   9.548  70.205  1.00  0.00    -0.211 OA 
BRANCH  16  19
HETATM   19  O   UNL     1      -8.858   8.905  72.392  1.00  0.00    -0.396 OA 
BRANCH  19  20
HETATM   20  C   UNL     1      -9.755   7.833  72.435  1.00  0.00    -0.192 A  
HETATM   21  C   UNL     1     -11.070   8.088  72.063  1.00  0.00    -0.353 A  
HETATM   22  C   UNL     1     -11.954   7.018  71.981  1.00  0.00    -0.334 A  
HETATM   23  C   UNL     1     -11.528   5.718  72.270  1.00  0.00    -0.320 A  
HETATM   24  C   UNL     1     -10.202   5.457  72.658  1.00  0.00    -0.185 A  
HETATM   25  C   UNL     1      -9.312   6.529  72.701  1.00  0.00    -0.145 A  
BRANCH  24  26
HETATM   26  N   UNL     1      -9.704   4.044  72.917  1.00  0.00    -0.129 N  
HETATM   27  C   UNL     1     -10.020   3.127  71.741  1.00  0.00    -0.122 C  
HETATM   28  C   UNL     1     -10.392   3.445  74.151  1.00  0.00    -0.182 C  
HETATM   29  C   UNL     1      -8.200   4.117  73.136  1.00  0.00    -0.090 C  
ENDBRANCH  24  26
ENDBRANCH  19  20
ENDBRANCH  16  19
ENDBRANCH  14  15
ENDBRANCH  13  14
ENDBRANCH  12  13
ENDBRANCH  11  12
ENDBRANCH  10  11
ENDBRANCH   9  10
ENDBRANCH   8   9
ENDBRANCH   7   8
ENDBRANCH   6   7
ENDBRANCH   5   6
ENDBRANCH   2   5
BRANCH   4  30
HETATM   30  O   UNL     1     -12.345  12.511  65.589  1.00  0.00    -0.615 OA 
BRANCH  30  31
HETATM   31  C   UNL     1     -11.381  11.777  64.878  1.00  0.00    -0.236 A  
HETATM   32  C   UNL     1     -11.296  11.902  63.491  1.00  0.00    -0.516 A  
HETATM   33  C   UNL     1     -10.453  11.017  65.597  1.00  0.00    -0.293 A  
HETATM   34  C   UNL     1      -9.442  10.326  64.908  1.00  0.00    -0.279 A  
HETATM   35  C   UNL     1     -10.312  11.215  62.803  1.00  0.00     0.030 A  
HETATM   36  C   UNL     1      -9.400  10.428  63.504  1.00  0.00    -0.333 A  
BRANCH  34  37
HETATM   37  N   UNL     1      -8.484   9.397  65.644  1.00  0.00    -0.130 N  
HETATM   38  C   UNL     1      -7.423  10.183  66.415  1.00  0.00    -0.108 C  
HETATM   39  C   UNL     1      -9.232   8.541  66.666  1.00  0.00    -0.177 C  
HETATM   40  C   UNL     1      -7.801   8.526  64.588  1.00  0.00    -0.131 C  
ENDBRANCH  34  37
ENDBRANCH  30  31
ENDBRANCH   4  30
TORSDOF 17
ENDMDL
MODEL      203
REMARK 921   NORMALIZED FREE ENERGY PREDICTED BY IDOCK:   -3.96 KCAL/MOL
REMARK 922        TOTAL FREE ENERGY PREDICTED BY IDOCK:  -10.12 KCAL/MOL
REMARK 923 INTER-LIGAND FREE ENERGY PREDICTED BY IDOCK:   -8.14 KCAL/MOL
REMARK 924 INTRA-LIGAND FREE ENERGY PREDICTED BY IDOCK:   -1.98 KCAL/MOL
REMARK 927      BINDING AFFINITY PREDICTED BY RF-SCORE:    0.00 PKD
ROOT
HETATM    1  C   UNL     1      -9.270  10.651  66.765  1.00  0.00    -0.156 C  
HETATM    2  N   UNL     1      -8.244  11.603  67.158  1.00  0.00    -0.158 N  
HETATM    3  O   UNL     1      -7.643  13.835  67.302  1.00  0.00    -0.155 OA 
HETATM    4  C   UNL     1      -8.491  12.968  67.115  1.00  0.00    -0.174 C  
ENDROOT
BRANCH   2   5
HETATM    5  C   UNL     1      -6.882  11.118  67.371  1.00  0.00    -0.089 C  
BRANCH   5   6
HETATM    6  C   UNL     1      -6.394  11.315  68.812  1.00  0.00    -0.051 C  
BRANCH   6   7
HETATM    7  C   UNL     1      -5.945   9.988  69.436  1.00  0.00    -0.037 C  
BRANCH   7   8
HETATM    8  C   UNL     1      -6.211   8.799  68.504  1.00  0.00    -0.053 C  
BRANCH   8   9
HETATM    9  C   UNL     1      -5.943   7.467  69.212  1.00  0.00    -0.030 C  
BRANCH   9  10
HETATM   10  C   UNL     1      -6.398   7.502  70.674  1.00  0.00    -0.038 C  
BRANCH  10  11
HETATM   11  C   UNL     1      -7.886   7.183  70.853  1.00  0.00    -0.095 C  
BRANCH  11  12
HETATM   12  C   UNL     1      -8.677   8.335  71.470  1.00  0.00    -0.208 C  
BRANCH  12  13
HETATM   13  C   UNL     1      -9.177   7.986  72.870  1.00  0.00    -0.332 C  
BRANCH  13  14
HETATM   14  C   UNL     1     -10.697   7.941  72.889  1.00  0.00    -0.375 C  
BRANCH  14  15
HETATM   15  N   UNL     1     -11.248   7.742  71.556  1.00  0.00    -0.240 N  
HETATM   16  C   UNL     1     -11.331   6.462  71.039  1.00  0.00    -0.328 C  
HETATM   17  C   UNL     1     -11.743   8.894  70.816  1.00  0.00    -0.230 C  
HETATM   18  O   UNL     1     -10.899   5.460  71.598  1.00  0.00    -0.229 OA 
BRANCH  16  19
HETATM   19  O   UNL     1     -11.837   6.458  69.747  1.00  0.00    -0.357 OA 
BRANCH  19  20
HETATM   20  C   UNL     1     -10.864   6.210  68.773  1.00  0.00    -0.336 A  
HETATM   21  C   UNL     1     -10.512   7.266  67.942  1.00  0.00    -0.267 A  
HETATM   22  C   UNL     1      -9.465   7.082  67.045  1.00  0.00    -0.184 A  
HETATM   23  C   UNL     1      -8.788   5.860  66.982  1.00  0.00    -0.112 A  
HETATM   24  C   UNL     1      -9.149   4.785  67.812  1.00  0.00    -0.116 A  
HETATM   25  C   UNL     1     -10.174   4.990  68.736  1.00  0.00    -0.164 A  
BRANCH  24  26
HETATM   26  N   UNL     1      -8.386   3.470  67.802  1.00  0.00    -0.087 N  
HETATM   27  C   UNL     1      -7.992   3.076  66.382  1.00  0.00    -0.081 C  
HETATM   28  C   UNL     1      -9.256   2.335  68.358  1.00  0.00    -0.188 C  
HETATM   29  C   UNL     1      -7.143   3.650  68.661  1.00  0.00    -0.050 C  
ENDBRANCH  24  26
ENDBRANCH  19  20
ENDBRANCH  16  19
ENDBRANCH  14  15
ENDBRANCH  13  14
ENDBRANCH  12  13
ENDBRANCH  11  12
ENDBRANCH  10  11
ENDBRANCH   9  10
ENDBRANCH   8   9
ENDBRANCH   7   8
ENDBRANCH   6   7
ENDBRANCH   5   6
ENDBRANCH   2   5
BRANCH   4  30
HETATM   30  O   UNL     1      -9.810  13.262  66.759  1.00  0.00    -0.249 OA 
BRANCH  30  31
HETATM   31  C   UNL     1     -10.390  14.272  67.545  1.00  0.00    -0.248 A  
HETATM   32  C   UNL     1     -10.376  15.595  67.098  1.00  0.00    -0.285 A  
HETATM   33  C   UNL     1     -11.067  13.907  68.713  1.00  0.00    -0.291 A  
HETATM   34  C   UNL     1     -11.707  14.896  69.479  1.00  0.00    -0.320 A  
HETATM   35  C   UNL     1     -10.993  16.576  67.853  1.00  0.00    -0.288 A  
HETATM   36  C   UNL     1     -11.644  16.231  69.037  1.00  0.00    -0.231 A  
BRANCH  34  37
HETATM   37  N   UNL     1     -12.357  14.555  70.815  1.00  0.00    -0.316 N  
HETATM   38  C   UNL     1     -11.567  15.138  71.988  1.00  0.00    -0.412 C  
HETATM   39  C   UNL     1     -13.769  15.136  70.898  1.00  0.00    -0.288 C  
HETATM   40  C   UNL     1     -12.380  13.030  70.929  1.00  0.00    -0.288 C  
ENDBRANCH  34  37
ENDBRANCH  30  31
ENDBRANCH   4  30
TORSDOF 17
ENDMDL
MODEL      204
REMARK 921   NORMALIZED FREE ENERGY PREDICTED BY IDOCK:   -3.96 KCAL/MOL
REMARK 922        TOTAL FREE ENERGY PREDICTED BY IDOCK:  -10.12 KCAL/MOL
REMARK 923 INTER-LIGAND FREE ENERGY PREDICTED BY IDOCK:   -8.99 KCAL/MOL
REMARK 924 INTRA-LIGAND FREE ENERGY PREDICTED BY IDOCK:   -1.13 KCAL/MOL
REMARK 927      BINDING AFFINITY PREDICTED BY RF-SCORE:    0.00 PKD
ROOT
HETATM    1  C   UNL     1     -12.472  12.588  64.543  1.00  0.00    -0.459 C  
HETATM    2  N   UNL     1     -11.234  12.365  65.271  1.00  0.00    -0.308 N  
HETATM    3  O   UNL     1      -9.392  13.341  66.282  1.00  0.00    -0.220 OA 
HETATM    4  C   UNL     1     -10.505  13.434  65.774  1.00  0.00    -0.290 C  
ENDROOT
BRANCH   2   5
HETATM    5  C   UNL     1     -10.647  11.027  65.264  1.00  0.00    -0.214 C  
BRANCH   5   6
HETATM    6  C   UNL     1     -10.088  10.625  63.892  1.00  0.00    -0.356 C  
BRANCH   6   7
HETATM    7  C   UNL     1      -8.899   9.667  64.033  1.00  0.00    -0.256 C  
BRANCH   7   8
HETATM    8  C   UNL     1      -8.324   9.674  65.456  1.00  0.00    -0.143 C  
BRANCH   8   9
HETATM    9  C   UNL     1      -7.092   8.770  65.562  1.00  0.00    -0.083 C  
BRANCH   9  10
HETATM   10  C   UNL     1      -7.309   7.431  64.850  1.00  0.00    -0.080 C  
BRANCH  10  11
HETATM   11  C   UNL     1      -6.003   6.745  64.439  1.00  0.00    -0.035 C  
BRANCH  11  12
HETATM   12  C   UNL     1      -5.814   5.375  65.088  1.00  0.00    -0.021 C  
BRANCH  12  13
HETATM   13  C   UNL     1      -6.595   5.261  66.395  1.00  0.00    -0.052 C  
BRANCH  13  14
HETATM   14  C   UNL     1      -7.520   4.054  66.350  1.00  0.00    -0.084 C  
BRANCH  14  15
HETATM   15  N   UNL     1      -8.128   3.791  67.646  1.00  0.00    -0.089 N  
HETATM   16  C   UNL     1      -9.373   4.318  67.933  1.00  0.00    -0.156 C  
HETATM   17  C   UNL     1      -7.427   2.937  68.596  1.00  0.00    -0.048 C  
HETATM   18  O   UNL     1      -9.994   5.072  67.190  1.00  0.00    -0.166 OA 
BRANCH  16  19
HETATM   19  O   UNL     1      -9.782   4.008  69.222  1.00  0.00    -0.188 OA 
BRANCH  19  20
HETATM   20  C   UNL     1      -9.968   5.135  70.030  1.00  0.00    -0.256 A  
HETATM   21  C   UNL     1     -10.022   4.930  71.404  1.00  0.00    -0.266 A  
HETATM   22  C   UNL     1     -10.086   6.042  72.236  1.00  0.00    -0.205 A  
HETATM   23  C   UNL     1     -10.098   7.334  71.699  1.00  0.00    -0.196 A  
HETATM   24  C   UNL     1     -10.055   7.544  70.310  1.00  0.00    -0.194 A  
HETATM   25  C   UNL     1      -9.952   6.426  69.484  1.00  0.00    -0.190 A  
BRANCH  24  26
HETATM   26  N   UNL     1     -10.005   8.941  69.710  1.00  0.00    -0.186 N  
HETATM   27  C   UNL     1     -10.551   8.946  68.286  1.00  0.00    -0.152 C  
HETATM   28  C   UNL     1      -8.559   9.448  69.639  1.00  0.00    -0.168 C  
HETATM   29  C   UNL     1     -10.841   9.854  70.595  1.00  0.00    -0.330 C  
ENDBRANCH  24  26
ENDBRANCH  19  20
ENDBRANCH  16  19
ENDBRANCH  14  15
ENDBRANCH  13  14
ENDBRANCH  12  13
ENDBRANCH  11  12
ENDBRANCH  10  11
ENDBRANCH   9  10
ENDBRANCH   8   9
ENDBRANCH   7   8
ENDBRANCH   6   7
ENDBRANCH   5   6
ENDBRANCH   2   5
BRANCH   4  30
HETATM   30  O   UNL     1     -11.147  14.660  65.574  1.00  0.00    -0.320 OA 
BRANCH  30  31
HETATM   31  C   UNL     1     -10.999  15.552  66.650  1.00  0.00    -0.248 A  
HETATM   32  C   UNL     1     -11.474  15.198  67.914  1.00  0.00    -0.344 A  
HETATM   33  C   UNL     1     -10.277  16.732  66.448  1.00  0.00    -0.329 A  
HETATM   34  C   UNL     1     -10.064  17.606  67.528  1.00  0.00    -0.337 A  
HETATM   35  C   UNL     1     -11.279  16.059  68.980  1.00  0.00    -0.347 A  
HETATM   36  C   UNL     1     -10.589  17.255  68.786  1.00  0.00    -0.305 A  
BRANCH  34  37
HETATM   37  N   UNL     1      -9.383  18.954  67.324  1.00  0.00    -0.290 N  
HETATM   38  C   UNL     1      -8.745  19.461  68.618  1.00  0.00    -0.363 C  
HETATM   39  C   UNL     1      -8.263  18.847  66.289  1.00  0.00    -0.268 C  
HETATM   40  C   UNL     1     -10.461  19.939  66.871  1.00  0.00    -0.450 C  
ENDBRANCH  34  37
ENDBRANCH  30  31
ENDBRANCH   4  30
TORSDOF 17
ENDMDL
MODEL      205
REMARK 921   NORMALIZED FREE ENERGY PREDICTED BY IDOCK:   -3.95 KCAL/MOL
REMARK 922        TOTAL FREE ENERGY PREDICTED BY IDOCK:  -10.10 KCAL/MOL
REMARK 923 INTER-LIGAND FREE ENERGY PREDICTED BY IDOCK:   -8.58 KCAL/MOL
REMARK 924 INTRA-LIGAND FREE ENERGY PREDICTED BY IDOCK:   -1.53 KCAL/MOL
REMARK 927      BINDING AFFINITY PREDICTED BY RF-SCORE:    0.00 PKD
ROOT
HETATM    1  C   UNL     1      -6.667   6.615  66.747  1.00  0.00    -0.056 C  
HETATM    2  N   UNL     1      -8.039   6.732  66.285  1.00  0.00    -0.108 N  
HETATM    3  O   UNL     1     -10.271   6.868  66.894  1.00  0.00    -0.212 OA 
HETATM    4  C   UNL     1      -9.080   6.894  67.190  1.00  0.00    -0.131 C  
ENDROOT
BRANCH   2   5
HETATM    5  C   UNL     1      -8.335   6.440  64.884  1.00  0.00    -0.061 C  
BRANCH   5   6
HETATM    6  C   UNL     1      -7.618   7.386  63.910  1.00  0.00    -0.110 C  
BRANCH   6   7
HETATM    7  C   UNL     1      -8.441   8.656  63.659  1.00  0.00    -0.070 C  
BRANCH   7   8
HETATM    8  C   UNL     1      -7.645   9.927  63.980  1.00  0.00    -0.138 C  
BRANCH   8   9
HETATM    9  C   UNL     1      -6.355   9.598  64.738  1.00  0.00    -0.089 C  
BRANCH   9  10
HETATM   10  C   UNL     1      -5.782  10.832  65.442  1.00  0.00    -0.103 C  
BRANCH  10  11
HETATM   11  C   UNL     1      -6.484  11.153  66.766  1.00  0.00    -0.127 C  
BRANCH  11  12
HETATM   12  C   UNL     1      -7.459  10.064  67.208  1.00  0.00    -0.091 C  
BRANCH  12  13
HETATM   13  C   UNL     1      -8.678  10.656  67.912  1.00  0.00    -0.127 C  
BRANCH  13  14
HETATM   14  C   UNL     1      -9.916  10.494  67.043  1.00  0.00    -0.201 C  
BRANCH  14  15
HETATM   15  N   UNL     1     -10.477  11.781  66.658  1.00  0.00    -0.218 N  
HETATM   16  C   UNL     1     -11.538  12.303  67.375  1.00  0.00    -0.355 C  
HETATM   17  C   UNL     1      -9.875  12.512  65.551  1.00  0.00    -0.183 C  
HETATM   18  O   UNL     1     -12.108  11.720  68.290  1.00  0.00    -0.525 OA 
BRANCH  16  19
HETATM   19  O   UNL     1     -11.974  13.510  66.847  1.00  0.00    -0.385 OA 
BRANCH  19  20
HETATM   20  C   UNL     1     -11.617  14.615  67.627  1.00  0.00    -0.361 A  
HETATM   21  C   UNL     1     -11.939  14.571  68.979  1.00  0.00    -0.334 A  
HETATM   22  C   UNL     1     -11.491  15.600  69.800  1.00  0.00    -0.346 A  
HETATM   23  C   UNL     1     -10.738  16.655  69.274  1.00  0.00    -0.337 A  
HETATM   24  C   UNL     1     -10.421  16.710  67.905  1.00  0.00    -0.322 A  
HETATM   25  C   UNL     1     -10.840  15.655  67.095  1.00  0.00    -0.297 A  
BRANCH  24  26
HETATM   26  N   UNL     1      -9.553  17.815  67.326  1.00  0.00    -0.267 N  
HETATM   27  C   UNL     1      -9.174  18.833  68.396  1.00  0.00    -0.339 C  
HETATM   28  C   UNL     1     -10.307  18.577  66.228  1.00  0.00    -0.427 C  
HETATM   29  C   UNL     1      -8.301  17.167  66.751  1.00  0.00    -0.234 C  
ENDBRANCH  24  26
ENDBRANCH  19  20
ENDBRANCH  16  19
ENDBRANCH  14  15
ENDBRANCH  13  14
ENDBRANCH  12  13
ENDBRANCH  11  12
ENDBRANCH  10  11
ENDBRANCH   9  10
ENDBRANCH   8   9
ENDBRANCH   7   8
ENDBRANCH   6   7
ENDBRANCH   5   6
ENDBRANCH   2   5
BRANCH   4  30
HETATM   30  O   UNL     1      -8.629   7.019  68.507  1.00  0.00    -0.123 OA 
BRANCH  30  31
HETATM   31  C   UNL     1      -9.050   5.972  69.345  1.00  0.00    -0.133 A  
HETATM   32  C   UNL     1      -9.126   4.671  68.845  1.00  0.00    -0.163 A  
HETATM   33  C   UNL     1      -9.278   6.247  70.696  1.00  0.00    -0.164 A  
HETATM   34  C   UNL     1      -9.638   5.200  71.563  1.00  0.00    -0.156 A  
HETATM   35  C   UNL     1      -9.492   3.638  69.689  1.00  0.00    -0.245 A  
HETATM   36  C   UNL     1      -9.755   3.902  71.032  1.00  0.00    -0.252 A  
BRANCH  34  37
HETATM   37  N   UNL     1     -10.007   5.476  73.016  1.00  0.00    -0.172 N  
HETATM   38  C   UNL     1      -9.040   4.787  73.980  1.00  0.00    -0.111 C  
HETATM   39  C   UNL     1      -9.944   6.973  73.319  1.00  0.00    -0.229 C  
HETATM   40  C   UNL     1     -11.417   4.927  73.235  1.00  0.00    -0.274 C  
ENDBRANCH  34  37
ENDBRANCH  30  31
ENDBRANCH   4  30
TORSDOF 17
ENDMDL
MODEL      206
REMARK 921   NORMALIZED FREE ENERGY PREDICTED BY IDOCK:   -3.93 KCAL/MOL
REMARK 922        TOTAL FREE ENERGY PREDICTED BY IDOCK:  -10.07 KCAL/MOL
REMARK 923 INTER-LIGAND FREE ENERGY PREDICTED BY IDOCK:   -8.91 KCAL/MOL
REMARK 924 INTRA-LIGAND FREE ENERGY PREDICTED BY IDOCK:   -1.16 KCAL/MOL
REMARK 927      BINDING AFFINITY PREDICTED BY RF-SCORE:    0.00 PKD
ROOT
HETATM    1  C   UNL     1     -13.206  14.079  71.928  1.00  0.00    -0.395 C  
HETATM    2  N   UNL     1     -12.304  13.875  70.807  1.00  0.00    -0.359 N  
HETATM    3  O   UNL     1     -11.366  12.344  69.343  1.00  0.00    -0.256 OA 
HETATM    4  C   UNL     1     -12.194  12.631  70.203  1.00  0.00    -0.238 C  
ENDROOT
BRANCH   2   5
HETATM    5  C   UNL     1     -11.345  14.928  70.479  1.00  0.00    -0.235 C  
BRANCH   5   6
HETATM    6  C   UNL     1     -11.768  15.768  69.266  1.00  0.00    -0.384 C  
BRANCH   6   7
HETATM    7  C   UNL     1     -10.776  16.907  69.002  1.00  0.00    -0.308 C  
BRANCH   7   8
HETATM    8  C   UNL     1     -10.556  17.139  67.502  1.00  0.00    -0.323 C  
BRANCH   8   9
HETATM    9  C   UNL     1      -9.107  16.846  67.101  1.00  0.00    -0.228 C  
BRANCH   9  10
HETATM   10  C   UNL     1      -9.003  15.588  66.234  1.00  0.00    -0.362 C  
BRANCH  10  11
HETATM   11  C   UNL     1      -9.149  14.288  67.031  1.00  0.00    -0.246 C  
BRANCH  11  12
HETATM   12  C   UNL     1      -9.786  13.158  66.226  1.00  0.00    -0.284 C  
BRANCH  12  13
HETATM   13  C   UNL     1      -9.064  11.832  66.452  1.00  0.00    -0.215 C  
BRANCH  13  14
HETATM   14  C   UNL     1      -9.883  10.684  65.881  1.00  0.00    -0.243 C  
BRANCH  14  15
HETATM   15  N   UNL     1      -9.197  10.028  64.778  1.00  0.00    -0.228 N  
HETATM   16  C   UNL     1      -8.221   9.086  65.047  1.00  0.00    -0.153 C  
HETATM   17  C   UNL     1      -9.590  10.346  63.412  1.00  0.00    -0.312 C  
HETATM   18  O   UNL     1      -7.823   8.804  66.172  1.00  0.00    -0.099 OA 
BRANCH  16  19
HETATM   19  O   UNL     1      -7.642   8.595  63.886  1.00  0.00    -0.114 OA 
BRANCH  19  20
HETATM   20  C   UNL     1      -7.439   7.211  63.912  1.00  0.00    -0.103 A  
HETATM   21  C   UNL     1      -6.138   6.755  63.736  1.00  0.00    -0.035 A  
HETATM   22  C   UNL     1      -5.889   5.395  63.876  1.00  0.00    -0.021 A  
HETATM   23  C   UNL     1      -6.926   4.508  64.184  1.00  0.00    -0.046 A  
HETATM   24  C   UNL     1      -8.246   4.964  64.351  1.00  0.00    -0.124 A  
HETATM   25  C   UNL     1      -8.481   6.334  64.247  1.00  0.00     0.139 A  
BRANCH  24  26
HETATM   26  N   UNL     1      -9.375   4.026  64.746  1.00  0.00    -0.152 N  
HETATM   27  C   UNL     1     -10.330   4.699  65.726  1.00  0.00    -0.264 C  
HETATM   28  C   UNL     1      -8.823   2.776  65.444  1.00  0.00    -0.131 C  
HETATM   29  C   UNL     1     -10.117   3.635  63.476  1.00  0.00    -0.194 C  
ENDBRANCH  24  26
ENDBRANCH  19  20
ENDBRANCH  16  19
ENDBRANCH  14  15
ENDBRANCH  13  14
ENDBRANCH  12  13
ENDBRANCH  11  12
ENDBRANCH  10  11
ENDBRANCH   9  10
ENDBRANCH   8   9
ENDBRANCH   7   8
ENDBRANCH   6   7
ENDBRANCH   5   6
ENDBRANCH   2   5
BRANCH   4  30
HETATM   30  O   UNL     1     -13.091  11.698  70.732  1.00  0.00    -0.070 OA 
BRANCH  30  31
HETATM   31  C   UNL     1     -12.476  10.506  71.152  1.00  0.00    -0.412 A  
HETATM   32  C   UNL     1     -13.057   9.747  72.170  1.00  0.00    -0.513 A  
HETATM   33  C   UNL     1     -11.349  10.053  70.460  1.00  0.00    -0.409 A  
HETATM   34  C   UNL     1     -10.758   8.831  70.826  1.00  0.00    -0.228 A  
HETATM   35  C   UNL     1     -12.474   8.550  72.544  1.00  0.00    -0.358 A  
HETATM   36  C   UNL     1     -11.331   8.101  71.884  1.00  0.00    -0.356 A  
BRANCH  34  37
HETATM   37  N   UNL     1      -9.464   8.359  70.173  1.00  0.00    -0.163 N  
HETATM   38  C   UNL     1      -9.722   7.753  68.792  1.00  0.00    -0.157 C  
HETATM   39  C   UNL     1      -8.498   9.527  69.972  1.00  0.00    -0.195 C  
HETATM   40  C   UNL     1      -8.860   7.294  71.089  1.00  0.00    -0.140 C  
ENDBRANCH  34  37
ENDBRANCH  30  31
ENDBRANCH   4  30
TORSDOF 17
ENDMDL
MODEL      207
REMARK 921   NORMALIZED FREE ENERGY PREDICTED BY IDOCK:   -3.93 KCAL/MOL
REMARK 922        TOTAL FREE ENERGY PREDICTED BY IDOCK:  -10.07 KCAL/MOL
REMARK 923 INTER-LIGAND FREE ENERGY PREDICTED BY IDOCK:   -8.67 KCAL/MOL
REMARK 924 INTRA-LIGAND FREE ENERGY PREDICTED BY IDOCK:   -1.40 KCAL/MOL
REMARK 927      BINDING AFFINITY PREDICTED BY RF-SCORE:    0.00 PKD
ROOT
HETATM    1  C   UNL     1     -10.552  15.797  66.000  1.00  0.00    -0.326 C  
HETATM    2  N   UNL     1     -10.009  14.907  67.012  1.00  0.00    -0.237 N  
HETATM    3  O   UNL     1     -10.334  12.981  68.257  1.00  0.00    -0.239 OA 
HETATM    4  C   UNL     1     -10.652  13.719  67.330  1.00  0.00    -0.275 C  
ENDROOT
BRANCH   2   5
HETATM    5  C   UNL     1      -8.916  15.388  67.855  1.00  0.00    -0.173 C  
BRANCH   5   6
HETATM    6  C   UNL     1      -8.090  16.498  67.190  1.00  0.00    -0.213 C  
BRANCH   6   7
HETATM    7  C   UNL     1      -6.635  16.476  67.673  1.00  0.00    -0.171 C  
BRANCH   7   8
HETATM    8  C   UNL     1      -6.488  15.750  69.016  1.00  0.00    -0.130 C  
BRANCH   8   9
HETATM    9  C   UNL     1      -5.222  14.890  69.049  1.00  0.00    -0.094 C  
BRANCH   9  10
HETATM   10  C   UNL     1      -5.153  14.030  70.314  1.00  0.00    -0.092 C  
BRANCH  10  11
HETATM   11  C   UNL     1      -6.034  12.778  70.243  1.00  0.00    -0.127 C  
BRANCH  11  12
HETATM   12  C   UNL     1      -5.232  11.488  70.080  1.00  0.00    -0.077 C  
BRANCH  12  13
HETATM   13  C   UNL     1      -6.080  10.373  69.475  1.00  0.00    -0.047 C  
BRANCH  13  14
HETATM   14  C   UNL     1      -7.179   9.964  70.444  1.00  0.00    -0.134 C  
BRANCH  14  15
HETATM   15  N   UNL     1      -8.499  10.066  69.838  1.00  0.00    -0.182 N  
HETATM   16  C   UNL     1      -9.614   9.701  70.571  1.00  0.00    -0.199 C  
HETATM   17  C   UNL     1      -8.617  10.596  68.487  1.00  0.00    -0.137 C  
HETATM   18  O   UNL     1      -9.574   9.216  71.696  1.00  0.00    -0.277 OA 
BRANCH  16  19
HETATM   19  O   UNL     1     -10.780   9.819  69.829  1.00  0.00    -0.225 OA 
BRANCH  19  20
HETATM   20  C   UNL     1     -11.819  10.444  70.528  1.00  0.00    -0.337 A  
HETATM   21  C   UNL     1     -12.676   9.628  71.256  1.00  0.00    -0.443 A  
HETATM   22  C   UNL     1     -13.643  10.230  72.055  1.00  0.00    -0.287 A  
HETATM   23  C   UNL     1     -13.748  11.624  72.118  1.00  0.00     0.045 A  
HETATM   24  C   UNL     1     -12.890  12.452  71.373  1.00  0.00    -0.260 A  
HETATM   25  C   UNL     1     -11.899  11.842  70.605  1.00  0.00    -0.185 A  
BRANCH  24  26
HETATM   26  N   UNL     1     -12.949  13.968  71.475  1.00  0.00    -0.335 N  
HETATM   27  C   UNL     1     -12.132  14.470  72.661  1.00  0.00    -0.031 C  
HETATM   28  C   UNL     1     -14.392  14.441  71.691  1.00  0.00    -0.432 C  
HETATM   29  C   UNL     1     -12.395  14.540  70.178  1.00  0.00    -0.342 C  
ENDBRANCH  24  26
ENDBRANCH  19  20
ENDBRANCH  16  19
ENDBRANCH  14  15
ENDBRANCH  13  14
ENDBRANCH  12  13
ENDBRANCH  11  12
ENDBRANCH  10  11
ENDBRANCH   9  10
ENDBRANCH   8   9
ENDBRANCH   7   8
ENDBRANCH   6   7
ENDBRANCH   5   6
ENDBRANCH   2   5
BRANCH   4  30
HETATM   30  O   UNL     1     -11.764  13.478  66.517  1.00  0.00    -0.335 OA 
BRANCH  30  31
HETATM   31  C   UNL     1     -11.482  12.657  65.412  1.00  0.00    -0.338 A  
HETATM   32  C   UNL     1     -12.149  12.867  64.203  1.00  0.00    -0.503 A  
HETATM   33  C   UNL     1     -10.456  11.714  65.522  1.00  0.00    -0.321 A  
HETATM   34  C   UNL     1     -10.117  10.927  64.407  1.00  0.00    -0.339 A  
HETATM   35  C   UNL     1     -11.830  12.088  63.105  1.00  0.00    -0.301 A  
HETATM   36  C   UNL     1     -10.831  11.122  63.209  1.00  0.00    -0.115 A  
BRANCH  34  37
HETATM   37  N   UNL     1      -9.084   9.812  64.519  1.00  0.00    -0.239 N  
HETATM   38  C   UNL     1      -9.530   8.732  65.505  1.00  0.00    -0.026 C  
HETATM   39  C   UNL     1      -8.877   9.124  63.170  1.00  0.00    -0.082 C  
HETATM   40  C   UNL     1      -7.786  10.449  65.019  1.00  0.00    -0.109 C  
ENDBRANCH  34  37
ENDBRANCH  30  31
ENDBRANCH   4  30
TORSDOF 17
ENDMDL
MODEL      208
REMARK 921   NORMALIZED FREE ENERGY PREDICTED BY IDOCK:   -3.91 KCAL/MOL
REMARK 922        TOTAL FREE ENERGY PREDICTED BY IDOCK:  -10.03 KCAL/MOL
REMARK 923 INTER-LIGAND FREE ENERGY PREDICTED BY IDOCK:   -7.99 KCAL/MOL
REMARK 924 INTRA-LIGAND FREE ENERGY PREDICTED BY IDOCK:   -2.05 KCAL/MOL
REMARK 927      BINDING AFFINITY PREDICTED BY RF-SCORE:    0.00 PKD
ROOT
HETATM    1  C   UNL     1      -6.642  13.091  69.234  1.00  0.00    -0.089 C  
HETATM    2  N   UNL     1      -7.458  12.918  68.044  1.00  0.00    -0.111 N  
HETATM    3  O   UNL     1      -8.748  13.959  66.425  1.00  0.00    -0.009 OA 
HETATM    4  C   UNL     1      -7.950  14.018  67.356  1.00  0.00    -0.175 C  
ENDROOT
BRANCH   2   5
HETATM    5  C   UNL     1      -7.949  11.580  67.718  1.00  0.00    -0.128 C  
BRANCH   5   6
HETATM    6  C   UNL     1      -8.934  11.033  68.760  1.00  0.00    -0.153 C  
BRANCH   6   7
HETATM    7  C   UNL     1     -10.330  11.642  68.582  1.00  0.00    -0.229 C  
BRANCH   7   8
HETATM    8  C   UNL     1     -11.136  10.919  67.496  1.00  0.00    -0.375 C  
BRANCH   8   9
HETATM    9  C   UNL     1     -11.362  11.821  66.278  1.00  0.00    -0.350 C  
BRANCH   9  10
HETATM   10  C   UNL     1     -10.660  11.275  65.031  1.00  0.00    -0.353 C  
BRANCH  10  11
HETATM   11  C   UNL     1     -10.015   9.903  65.252  1.00  0.00    -0.320 C  
BRANCH  11  12
HETATM   12  C   UNL     1      -8.626   9.786  64.628  1.00  0.00    -0.199 C  
BRANCH  12  13
HETATM   13  C   UNL     1      -8.218   8.327  64.436  1.00  0.00    -0.130 C  
BRANCH  13  14
HETATM   14  C   UNL     1      -6.780   8.120  64.887  1.00  0.00    -0.055 C  
BRANCH  14  15
HETATM   15  N   UNL     1      -6.703   7.763  66.296  1.00  0.00    -0.053 N  
HETATM   16  C   UNL     1      -7.133   6.514  66.706  1.00  0.00    -0.069 C  
HETATM   17  C   UNL     1      -6.129   8.715  67.236  1.00  0.00    -0.055 C  
HETATM   18  O   UNL     1      -7.657   5.686  65.969  1.00  0.00    -0.084 OA 
BRANCH  16  19
HETATM   19  O   UNL     1      -7.030   6.358  68.081  1.00  0.00    -0.074 OA 
BRANCH  19  20
HETATM   20  C   UNL     1      -8.268   6.216  68.715  1.00  0.00    -0.108 A  
HETATM   21  C   UNL     1      -8.951   5.022  68.517  1.00  0.00    -0.125 A  
HETATM   22  C   UNL     1     -10.126   4.806  69.230  1.00  0.00    -0.217 A  
HETATM   23  C   UNL     1     -10.606   5.770  70.121  1.00  0.00    -0.377 A  
HETATM   24  C   UNL     1      -9.924   6.984  70.315  1.00  0.00    -0.179 A  
HETATM   25  C   UNL     1      -8.727   7.178  69.627  1.00  0.00    -0.141 A  
BRANCH  24  26
HETATM   26  N   UNL     1     -10.397   8.019  71.325  1.00  0.00    -0.191 N  
HETATM   27  C   UNL     1     -11.463   8.927  70.721  1.00  0.00    -0.275 C  
HETATM   28  C   UNL     1      -9.235   8.919  71.762  1.00  0.00    -0.208 C  
HETATM   29  C   UNL     1     -10.964   7.271  72.523  1.00  0.00    -0.282 C  
ENDBRANCH  24  26
ENDBRANCH  19  20
ENDBRANCH  16  19
ENDBRANCH  14  15
ENDBRANCH  13  14
ENDBRANCH  12  13
ENDBRANCH  11  12
ENDBRANCH  10  11
ENDBRANCH   9  10
ENDBRANCH   8   9
ENDBRANCH   7   8
ENDBRANCH   6   7
ENDBRANCH   5   6
ENDBRANCH   2   5
BRANCH   4  30
HETATM   30  O   UNL     1      -7.491  15.229  67.884  1.00  0.00    -0.122 OA 
BRANCH  30  31
HETATM   31  C   UNL     1      -8.508  16.182  68.063  1.00  0.00    -0.168 A  
HETATM   32  C   UNL     1      -9.500  15.968  69.022  1.00  0.00    -0.243 A  
HETATM   33  C   UNL     1      -8.437  17.380  67.345  1.00  0.00    -0.215 A  
HETATM   34  C   UNL     1      -9.410  18.372  67.557  1.00  0.00    -0.265 A  
HETATM   35  C   UNL     1     -10.468  16.935  69.227  1.00  0.00    -0.319 A  
HETATM   36  C   UNL     1     -10.429  18.121  68.495  1.00  0.00    -0.267 A  
BRANCH  34  37
HETATM   37  N   UNL     1      -9.432  19.642  66.713  1.00  0.00    -0.344 N  
HETATM   38  C   UNL     1      -8.144  19.801  65.905  1.00  0.00    -0.252 C  
HETATM   39  C   UNL     1     -10.585  19.608  65.710  1.00  0.00    -0.438 C  
HETATM   40  C   UNL     1      -9.574  20.820  67.678  1.00  0.00    -0.238 C  
ENDBRANCH  34  37
ENDBRANCH  30  31
ENDBRANCH   4  30
TORSDOF 17
ENDMDL
MODEL      209
REMARK 921   NORMALIZED FREE ENERGY PREDICTED BY IDOCK:   -3.88 KCAL/MOL
REMARK 922        TOTAL FREE ENERGY PREDICTED BY IDOCK:   -9.98 KCAL/MOL
REMARK 923 INTER-LIGAND FREE ENERGY PREDICTED BY IDOCK:   -7.76 KCAL/MOL
REMARK 924 INTRA-LIGAND FREE ENERGY PREDICTED BY IDOCK:   -2.22 KCAL/MOL
REMARK 927      BINDING AFFINITY PREDICTED BY RF-SCORE:    0.00 PKD
ROOT
HETATM    1  C   UNL     1     -10.923   8.192  68.890  1.00  0.00     0.154 C  
HETATM    2  N   UNL     1     -10.394   8.983  69.989  1.00  0.00    -0.198 N  
HETATM    3  O   UNL     1      -9.128   8.979  71.929  1.00  0.00    -0.365 OA 
HETATM    4  C   UNL     1      -9.515   8.423  70.906  1.00  0.00    -0.169 C  
ENDROOT
BRANCH   2   5
HETATM    5  C   UNL     1     -10.978  10.296  70.253  1.00  0.00    -0.309 C  
BRANCH   5   6
HETATM    6  C   UNL     1     -10.626  11.336  69.180  1.00  0.00    -0.222 C  
BRANCH   6   7
HETATM    7  C   UNL     1     -11.887  11.991  68.604  1.00  0.00    -0.366 C  
BRANCH   7   8
HETATM    8  C   UNL     1     -11.554  13.221  67.750  1.00  0.00    -0.380 C  
BRANCH   8   9
HETATM    9  C   UNL     1     -12.132  13.090  66.338  1.00  0.00    -0.428 C  
BRANCH   9  10
HETATM   10  C   UNL     1     -11.049  13.241  65.267  1.00  0.00    -0.306 C  
BRANCH  10  11
HETATM   11  C   UNL     1     -11.569  13.017  63.843  1.00  0.00    -0.508 C  
BRANCH  11  12
HETATM   12  C   UNL     1     -11.060  11.721  63.215  1.00  0.00    -0.370 C  
BRANCH  12  13
HETATM   13  C   UNL     1      -9.570  11.519  63.476  1.00  0.00    -0.297 C  
BRANCH  13  14
HETATM   14  C   UNL     1      -9.267  10.041  63.671  1.00  0.00    -0.274 C  
BRANCH  14  15
HETATM   15  N   UNL     1      -9.130   9.700  65.080  1.00  0.00    -0.218 N  
HETATM   16  C   UNL     1      -7.906   9.272  65.560  1.00  0.00    -0.099 C  
HETATM   17  C   UNL     1     -10.277   9.862  65.961  1.00  0.00    -0.198 C  
HETATM   18  O   UNL     1      -6.916   9.082  64.861  1.00  0.00    -0.076 OA 
BRANCH  16  19
HETATM   19  O   UNL     1      -7.964   8.949  66.908  1.00  0.00    -0.100 OA 
BRANCH  19  20
HETATM   20  C   UNL     1      -7.691   7.601  67.165  1.00  0.00    -0.112 A  
HETATM   21  C   UNL     1      -6.665   7.319  68.060  1.00  0.00    -0.058 A  
HETATM   22  C   UNL     1      -6.452   5.995  68.426  1.00  0.00    -0.049 A  
HETATM   23  C   UNL     1      -7.250   4.973  67.901  1.00  0.00    -0.067 A  
HETATM   24  C   UNL     1      -8.280   5.253  66.987  1.00  0.00    -0.108 A  
HETATM   25  C   UNL     1      -8.514   6.587  66.655  1.00  0.00    -0.116 A  
BRANCH  24  26
HETATM   26  N   UNL     1      -9.197   4.164  66.452  1.00  0.00    -0.146 N  
HETATM   27  C   UNL     1      -8.597   3.498  65.218  1.00  0.00    -0.112 C  
HETATM   28  C   UNL     1     -10.549   4.754  66.031  1.00  0.00    -0.254 C  
HETATM   29  C   UNL     1      -9.392   3.138  67.560  1.00  0.00    -0.198 C  
ENDBRANCH  24  26
ENDBRANCH  19  20
ENDBRANCH  16  19
ENDBRANCH  14  15
ENDBRANCH  13  14
ENDBRANCH  12  13
ENDBRANCH  11  12
ENDBRANCH  10  11
ENDBRANCH   9  10
ENDBRANCH   8   9
ENDBRANCH   7   8
ENDBRANCH   6   7
ENDBRANCH   5   6
ENDBRANCH   2   5
BRANCH   4  30
HETATM   30  O   UNL     1      -9.164   7.110  70.578  1.00  0.00    -0.158 OA 
BRANCH  30  31
HETATM   31  C   UNL     1      -9.706   6.151  71.450  1.00  0.00    -0.167 A  
HETATM   32  C   UNL     1     -10.896   6.423  72.127  1.00  0.00    -0.272 A  
HETATM   33  C   UNL     1      -9.093   4.897  71.533  1.00  0.00    -0.172 A  
HETATM   34  C   UNL     1      -9.657   3.904  72.351  1.00  0.00    -0.138 A  
HETATM   35  C   UNL     1     -11.451   5.455  72.945  1.00  0.00    -0.340 A  
HETATM   36  C   UNL     1     -10.832   4.211  73.063  1.00  0.00    -0.252 A  
BRANCH  34  37
HETATM   37  N   UNL     1      -8.957   2.565  72.557  1.00  0.00    -0.076 N  
HETATM   38  C   UNL     1      -7.517   2.602  72.045  1.00  0.00    -0.044 C  
HETATM   39  C   UNL     1      -8.893   2.207  74.041  1.00  0.00    -0.065 C  
HETATM   40  C   UNL     1      -9.748   1.518  71.770  1.00  0.00    -0.126 C  
ENDBRANCH  34  37
ENDBRANCH  30  31
ENDBRANCH   4  30
TORSDOF 17
ENDMDL
MODEL      210
REMARK 921   NORMALIZED FREE ENERGY PREDICTED BY IDOCK:   -3.87 KCAL/MOL
REMARK 922        TOTAL FREE ENERGY PREDICTED BY IDOCK:   -9.95 KCAL/MOL
REMARK 923 INTER-LIGAND FREE ENERGY PREDICTED BY IDOCK:   -9.02 KCAL/MOL
REMARK 924 INTRA-LIGAND FREE ENERGY PREDICTED BY IDOCK:   -0.93 KCAL/MOL
REMARK 927      BINDING AFFINITY PREDICTED BY RF-SCORE:    0.00 PKD
ROOT
HETATM    1  C   UNL     1     -11.680  15.790  68.690  1.00  0.00    -0.344 C  
HETATM    2  N   UNL     1     -10.569  15.163  67.995  1.00  0.00    -0.253 N  
HETATM    3  O   UNL     1      -9.226  15.172  66.107  1.00  0.00    -0.295 OA 
HETATM    4  C   UNL     1     -10.069  15.708  66.820  1.00  0.00    -0.272 C  
ENDROOT
BRANCH   2   5
HETATM    5  C   UNL     1     -10.141  13.830  68.416  1.00  0.00    -0.241 C  
BRANCH   5   6
HETATM    6  C   UNL     1     -11.317  12.889  68.711  1.00  0.00    -0.333 C  
BRANCH   6   7
HETATM    7  C   UNL     1     -11.478  11.835  67.609  1.00  0.00    -0.370 C  
BRANCH   7   8
HETATM    8  C   UNL     1     -11.809  12.471  66.253  1.00  0.00    -0.453 C  
BRANCH   8   9
HETATM    9  C   UNL     1     -10.668  12.271  65.251  1.00  0.00    -0.329 C  
BRANCH   9  10
HETATM   10  C   UNL     1     -10.644  10.843  64.699  1.00  0.00    -0.332 C  
BRANCH  10  11
HETATM   11  C   UNL     1      -9.470  10.010  65.224  1.00  0.00    -0.323 C  
BRANCH  11  12
HETATM   12  C   UNL     1      -9.797   9.255  66.511  1.00  0.00    -0.331 C  
BRANCH  12  13
HETATM   13  C   UNL     1      -9.915   7.753  66.265  1.00  0.00    -0.047 C  
BRANCH  13  14
HETATM   14  C   UNL     1      -8.567   7.181  65.849  1.00  0.00    -0.148 C  
BRANCH  14  15
HETATM   15  N   UNL     1      -7.608   7.211  66.944  1.00  0.00    -0.099 N  
HETATM   16  C   UNL     1      -7.748   6.324  67.995  1.00  0.00    -0.103 C  
HETATM   17  C   UNL     1      -6.494   8.146  66.881  1.00  0.00    -0.057 C  
HETATM   18  O   UNL     1      -8.683   5.541  68.121  1.00  0.00    -0.104 OA 
BRANCH  16  19
HETATM   19  O   UNL     1      -6.778   6.519  68.968  1.00  0.00    -0.049 OA 
BRANCH  19  20
HETATM   20  C   UNL     1      -7.307   6.671  70.254  1.00  0.00    -0.085 A  
HETATM   21  C   UNL     1      -7.882   7.898  70.564  1.00  0.00    -0.095 A  
HETATM   22  C   UNL     1      -8.521   8.039  71.790  1.00  0.00    -0.164 A  
HETATM   23  C   UNL     1      -8.579   6.969  72.690  1.00  0.00    -0.133 A  
HETATM   24  C   UNL     1      -7.988   5.731  72.386  1.00  0.00    -0.103 A  
HETATM   25  C   UNL     1      -7.383   5.585  71.138  1.00  0.00    -0.084 A  
BRANCH  24  26
HETATM   26  N   UNL     1      -8.093   4.538  73.323  1.00  0.00    -0.095 N  
HETATM   27  C   UNL     1      -8.907   4.887  74.565  1.00  0.00    -0.111 C  
HETATM   28  C   UNL     1      -6.703   4.104  73.805  1.00  0.00    -0.057 C  
HETATM   29  C   UNL     1      -8.763   3.406  72.558  1.00  0.00    -0.085 C  
ENDBRANCH  24  26
ENDBRANCH  19  20
ENDBRANCH  16  19
ENDBRANCH  14  15
ENDBRANCH  13  14
ENDBRANCH  12  13
ENDBRANCH  11  12
ENDBRANCH  10  11
ENDBRANCH   9  10
ENDBRANCH   8   9
ENDBRANCH   7   8
ENDBRANCH   6   7
ENDBRANCH   5   6
ENDBRANCH   2   5
BRANCH   4  30
HETATM   30  O   UNL     1     -10.686  16.917  66.486  1.00  0.00    -0.222 OA 
BRANCH  30  31
HETATM   31  C   UNL     1      -9.886  18.043  66.745  1.00  0.00    -0.335 A  
HETATM   32  C   UNL     1     -10.307  19.305  66.321  1.00  0.00    -0.566 A  
HETATM   33  C   UNL     1      -8.734  17.884  67.520  1.00  0.00    -0.243 A  
HETATM   34  C   UNL     1      -7.956  19.009  67.842  1.00  0.00    -0.277 A  
HETATM   35  C   UNL     1      -9.540  20.416  66.623  1.00  0.00    -0.480 A  
HETATM   36  C   UNL     1      -8.371  20.268  67.368  1.00  0.00    -0.396 A  
BRANCH  34  37
HETATM   37  N   UNL     1      -6.635  18.862  68.588  1.00  0.00    -0.255 N  
HETATM   38  C   UNL     1      -6.525  17.498  69.271  1.00  0.00    -0.243 C  
HETATM   39  C   UNL     1      -5.451  18.974  67.626  1.00  0.00    -0.171 C  
HETATM   40  C   UNL     1      -6.590  19.963  69.648  1.00  0.00    -0.338 C  
ENDBRANCH  34  37
ENDBRANCH  30  31
ENDBRANCH   4  30
TORSDOF 17
ENDMDL
MODEL      211
REMARK 921   NORMALIZED FREE ENERGY PREDICTED BY IDOCK:   -3.87 KCAL/MOL
REMARK 922        TOTAL FREE ENERGY PREDICTED BY IDOCK:   -9.94 KCAL/MOL
REMARK 923 INTER-LIGAND FREE ENERGY PREDICTED BY IDOCK:   -9.48 KCAL/MOL
REMARK 924 INTRA-LIGAND FREE ENERGY PREDICTED BY IDOCK:   -0.46 KCAL/MOL
REMARK 927      BINDING AFFINITY PREDICTED BY RF-SCORE:    0.00 PKD
ROOT
HETATM    1  C   UNL     1     -10.789  14.805  64.742  1.00  0.00    -0.376 C  
HETATM    2  N   UNL     1     -11.273  13.440  64.862  1.00  0.00    -0.319 N  
HETATM    3  O   UNL     1     -11.990  11.770  66.299  1.00  0.00    -0.490 OA 
HETATM    4  C   UNL     1     -11.693  12.942  66.088  1.00  0.00    -0.396 C  
ENDROOT
BRANCH   2   5
HETATM    5  C   UNL     1     -11.091  12.530  63.733  1.00  0.00    -0.448 C  
BRANCH   5   6
HETATM    6  C   UNL     1     -10.239  11.302  64.085  1.00  0.00    -0.391 C  
BRANCH   6   7
HETATM    7  C   UNL     1      -9.567  10.714  62.838  1.00  0.00    -0.358 C  
BRANCH   7   8
HETATM    8  C   UNL     1      -8.402   9.784  63.200  1.00  0.00    -0.166 C  
BRANCH   8   9
HETATM    9  C   UNL     1      -7.155  10.106  62.370  1.00  0.00    -0.142 C  
BRANCH   9  10
HETATM   10  C   UNL     1      -5.946  10.411  63.260  1.00  0.00    -0.136 C  
BRANCH  10  11
HETATM   11  C   UNL     1      -5.367   9.167  63.942  1.00  0.00    -0.061 C  
BRANCH  11  12
HETATM   12  C   UNL     1      -6.100   8.793  65.229  1.00  0.00    -0.055 C  
BRANCH  12  13
HETATM   13  C   UNL     1      -5.639   9.649  66.406  1.00  0.00    -0.052 C  
BRANCH  13  14
HETATM   14  C   UNL     1      -6.727  10.640  66.793  1.00  0.00    -0.103 C  
BRANCH  14  15
HETATM   15  N   UNL     1      -7.361  10.280  68.053  1.00  0.00    -0.085 N  
HETATM   16  C   UNL     1      -8.675   9.849  68.055  1.00  0.00    -0.125 C  
HETATM   17  C   UNL     1      -6.579  10.338  69.280  1.00  0.00    -0.055 C  
HETATM   18  O   UNL     1      -9.393   9.814  67.062  1.00  0.00    -0.143 OA 
BRANCH  16  19
HETATM   19  O   UNL     1      -9.132   9.591  69.339  1.00  0.00    -0.148 OA 
BRANCH  19  20
HETATM   20  C   UNL     1      -9.560   8.272  69.519  1.00  0.00    -0.171 A  
HETATM   21  C   UNL     1     -10.501   8.038  70.514  1.00  0.00    -0.217 A  
HETATM   22  C   UNL     1     -11.033   6.759  70.636  1.00  0.00    -0.313 A  
HETATM   23  C   UNL     1     -10.624   5.734  69.777  1.00  0.00    -0.388 A  
HETATM   24  C   UNL     1      -9.663   5.962  68.777  1.00  0.00    -0.131 A  
HETATM   25  C   UNL     1      -9.164   7.257  68.636  1.00  0.00    -0.136 A  
BRANCH  24  26
HETATM   26  N   UNL     1      -9.251   4.877  67.795  1.00  0.00    -0.117 N  
HETATM   27  C   UNL     1      -9.962   5.050  66.457  1.00  0.00    -0.224 C  
HETATM   28  C   UNL     1      -9.632   3.491  68.330  1.00  0.00    -0.095 C  
HETATM   29  C   UNL     1      -7.744   4.973  67.605  1.00  0.00    -0.087 C  
ENDBRANCH  24  26
ENDBRANCH  19  20
ENDBRANCH  16  19
ENDBRANCH  14  15
ENDBRANCH  13  14
ENDBRANCH  12  13
ENDBRANCH  11  12
ENDBRANCH  10  11
ENDBRANCH   9  10
ENDBRANCH   8   9
ENDBRANCH   7   8
ENDBRANCH   6   7
ENDBRANCH   5   6
ENDBRANCH   2   5
BRANCH   4  30
HETATM   30  O   UNL     1     -11.675  13.912  67.094  1.00  0.00    -0.345 OA 
BRANCH  30  31
HETATM   31  C   UNL     1     -11.934  13.395  68.375  1.00  0.00    -0.324 A  
HETATM   32  C   UNL     1     -11.683  12.048  68.644  1.00  0.00    -0.380 A  
HETATM   33  C   UNL     1     -12.338  14.275  69.384  1.00  0.00    -0.238 A  
HETATM   34  C   UNL     1     -12.540  13.787  70.686  1.00  0.00    -0.315 A  
HETATM   35  C   UNL     1     -11.892  11.558  69.920  1.00  0.00    -0.430 A  
HETATM   36  C   UNL     1     -12.325  12.417  70.929  1.00  0.00    -0.358 A  
BRANCH  34  37
HETATM   37  N   UNL     1     -13.088  14.689  71.786  1.00  0.00    -0.322 N  
HETATM   38  C   UNL     1     -12.040  15.697  72.259  1.00  0.00    -0.454 C  
HETATM   39  C   UNL     1     -14.285  15.497  71.281  1.00  0.00    -0.187 C  
HETATM   40  C   UNL     1     -13.486  13.786  72.954  1.00  0.00    -0.199 C  
ENDBRANCH  34  37
ENDBRANCH  30  31
ENDBRANCH   4  30
TORSDOF 17
ENDMDL
MODEL      212
REMARK 921   NORMALIZED FREE ENERGY PREDICTED BY IDOCK:   -3.84 KCAL/MOL
REMARK 922        TOTAL FREE ENERGY PREDICTED BY IDOCK:   -9.88 KCAL/MOL
REMARK 923 INTER-LIGAND FREE ENERGY PREDICTED BY IDOCK:   -7.35 KCAL/MOL
REMARK 924 INTRA-LIGAND FREE ENERGY PREDICTED BY IDOCK:   -2.53 KCAL/MOL
REMARK 927      BINDING AFFINITY PREDICTED BY RF-SCORE:    0.00 PKD
ROOT
HETATM    1  C   UNL     1     -13.247  11.183  71.119  1.00  0.00    -0.041 C  
HETATM    2  N   UNL     1     -11.885  10.920  70.686  1.00  0.00    -0.347 N  
HETATM    3  O   UNL     1     -10.264  11.321  69.080  1.00  0.00    -0.190 OA 
HETATM    4  C   UNL     1     -11.351  11.579  69.587  1.00  0.00    -0.256 C  
ENDROOT
BRANCH   2   5
HETATM    5  C   UNL     1     -11.169   9.789  71.272  1.00  0.00    -0.347 C  
BRANCH   5   6
HETATM    6  C   UNL     1     -11.370   8.483  70.490  1.00  0.00    -0.235 C  
BRANCH   6   7
HETATM    7  C   UNL     1     -12.125   7.443  71.328  1.00  0.00    -0.359 C  
BRANCH   7   8
HETATM    8  C   UNL     1     -11.282   6.934  72.504  1.00  0.00    -0.304 C  
BRANCH   8   9
HETATM    9  C   UNL     1     -11.304   5.405  72.583  1.00  0.00    -0.327 C  
BRANCH   9  10
HETATM   10  C   UNL     1     -10.054   4.787  71.950  1.00  0.00    -0.264 C  
BRANCH  10  11
HETATM   11  C   UNL     1     -10.070   4.821  70.419  1.00  0.00    -0.301 C  
BRANCH  11  12
HETATM   12  C   UNL     1      -8.719   4.475  69.796  1.00  0.00    -0.111 C  
BRANCH  12  13
HETATM   13  C   UNL     1      -8.036   5.710  69.214  1.00  0.00    -0.096 C  
BRANCH  13  14
HETATM   14  C   UNL     1      -7.347   6.498  70.317  1.00  0.00    -0.089 C  
BRANCH  14  15
HETATM   15  N   UNL     1      -6.439   7.500  69.779  1.00  0.00    -0.034 N  
HETATM   16  C   UNL     1      -6.803   8.833  69.805  1.00  0.00    -0.046 C  
HETATM   17  C   UNL     1      -5.143   7.076  69.266  1.00  0.00    -0.014 C  
HETATM   18  O   UNL     1      -7.892   9.246  70.189  1.00  0.00    -0.092 OA 
BRANCH  16  19
HETATM   19  O   UNL     1      -5.844   9.643  69.214  1.00  0.00    -0.035 OA 
BRANCH  19  20
HETATM   20  C   UNL     1      -6.388  10.735  68.529  1.00  0.00    -0.050 A  
HETATM   21  C   UNL     1      -7.107  10.465  67.371  1.00  0.00    -0.087 A  
HETATM   22  C   UNL     1      -7.759  11.518  66.737  1.00  0.00    -0.136 A  
HETATM   23  C   UNL     1      -7.686  12.815  67.254  1.00  0.00    -0.129 A  
HETATM   24  C   UNL     1      -6.949  13.094  68.418  1.00  0.00    -0.104 A  
HETATM   25  C   UNL     1      -6.331  12.028  69.070  1.00  0.00    -0.085 A  
BRANCH  24  26
HETATM   26  N   UNL     1      -6.909  14.486  69.029  1.00  0.00    -0.103 N  
HETATM   27  C   UNL     1      -8.297  14.927  69.480  1.00  0.00    -0.021 C  
HETATM   28  C   UNL     1      -6.423  15.515  68.000  1.00  0.00    -0.135 C  
HETATM   29  C   UNL     1      -5.960  14.441  70.218  1.00  0.00    -0.160 C  
ENDBRANCH  24  26
ENDBRANCH  19  20
ENDBRANCH  16  19
ENDBRANCH  14  15
ENDBRANCH  13  14
ENDBRANCH  12  13
ENDBRANCH  11  12
ENDBRANCH  10  11
ENDBRANCH   9  10
ENDBRANCH   8   9
ENDBRANCH   7   8
ENDBRANCH   6   7
ENDBRANCH   5   6
ENDBRANCH   2   5
BRANCH   4  30
HETATM   30  O   UNL     1     -12.224  12.536  69.061  1.00  0.00    -0.185 OA 
BRANCH  30  31
HETATM   31  C   UNL     1     -11.789  13.079  67.840  1.00  0.00    -0.343 A  
HETATM   32  C   UNL     1     -11.456  14.433  67.762  1.00  0.00    -0.360 A  
HETATM   33  C   UNL     1     -11.597  12.220  66.754  1.00  0.00    -0.434 A  
HETATM   34  C   UNL     1     -11.102  12.735  65.544  1.00  0.00    -0.285 A  
HETATM   35  C   UNL     1     -10.980  14.950  66.570  1.00  0.00    -0.327 A  
HETATM   36  C   UNL     1     -10.814  14.110  65.470  1.00  0.00    -0.312 A  
BRANCH  34  37
HETATM   37  N   UNL     1     -10.986  11.854  64.305  1.00  0.00    -0.329 N  
HETATM   38  C   UNL     1      -9.921  12.378  63.342  1.00  0.00    -0.001 C  
HETATM   39  C   UNL     1     -10.580  10.430  64.685  1.00  0.00     0.201 C  
HETATM   40  C   UNL     1     -12.349  11.872  63.611  1.00  0.00    -0.481 C  
ENDBRANCH  34  37
ENDBRANCH  30  31
ENDBRANCH   4  30
TORSDOF 17
ENDMDL
MODEL      213
REMARK 921   NORMALIZED FREE ENERGY PREDICTED BY IDOCK:   -3.83 KCAL/MOL
REMARK 922        TOTAL FREE ENERGY PREDICTED BY IDOCK:   -9.87 KCAL/MOL
REMARK 923 INTER-LIGAND FREE ENERGY PREDICTED BY IDOCK:   -7.88 KCAL/MOL
REMARK 924 INTRA-LIGAND FREE ENERGY PREDICTED BY IDOCK:   -1.99 KCAL/MOL
REMARK 927      BINDING AFFINITY PREDICTED BY RF-SCORE:    0.00 PKD
ROOT
HETATM    1  C   UNL     1     -12.386  15.401  70.237  1.00  0.00    -0.388 C  
HETATM    2  N   UNL     1     -11.198  14.974  69.517  1.00  0.00    -0.261 N  
HETATM    3  O   UNL     1     -10.105  13.218  68.474  1.00  0.00    -0.239 OA 
HETATM    4  C   UNL     1     -11.116  13.698  68.979  1.00  0.00    -0.255 C  
ENDROOT
BRANCH   2   5
HETATM    5  C   UNL     1     -10.005  15.817  69.570  1.00  0.00    -0.283 C  
BRANCH   5   6
HETATM    6  C   UNL     1      -9.823  16.678  68.313  1.00  0.00    -0.253 C  
BRANCH   6   7
HETATM    7  C   UNL     1      -8.837  17.826  68.561  1.00  0.00    -0.284 C  
BRANCH   7   8
HETATM    8  C   UNL     1      -7.438  17.507  68.017  1.00  0.00    -0.214 C  
BRANCH   8   9
HETATM    9  C   UNL     1      -6.513  16.999  69.126  1.00  0.00    -0.221 C  
BRANCH   9  10
HETATM   10  C   UNL     1      -5.566  15.907  68.617  1.00  0.00    -0.102 C  
BRANCH  10  11
HETATM   11  C   UNL     1      -6.052  14.489  68.933  1.00  0.00    -0.086 C  
BRANCH  11  12
HETATM   12  C   UNL     1      -6.862  13.865  67.798  1.00  0.00    -0.184 C  
BRANCH  12  13
HETATM   13  C   UNL     1      -6.271  12.528  67.357  1.00  0.00    -0.158 C  
BRANCH  13  14
HETATM   14  C   UNL     1      -7.225  11.394  67.702  1.00  0.00    -0.097 C  
BRANCH  14  15
HETATM   15  N   UNL     1      -7.693  10.701  66.511  1.00  0.00    -0.130 N  
HETATM   16  C   UNL     1      -7.037   9.561  66.084  1.00  0.00    -0.092 C  
HETATM   17  C   UNL     1      -8.874  11.201  65.821  1.00  0.00    -0.174 C  
HETATM   18  O   UNL     1      -6.019   9.114  66.601  1.00  0.00    -0.057 OA 
BRANCH  16  19
HETATM   19  O   UNL     1      -7.585   9.056  64.914  1.00  0.00    -0.102 OA 
BRANCH  19  20
HETATM   20  C   UNL     1      -7.538   7.659  64.840  1.00  0.00    -0.099 A  
HETATM   21  C   UNL     1      -6.518   7.098  64.081  1.00  0.00    -0.043 A  
HETATM   22  C   UNL     1      -6.375   5.714  64.086  1.00  0.00    -0.025 A  
HETATM   23  C   UNL     1      -7.241   4.911  64.835  1.00  0.00    -0.063 A  
HETATM   24  C   UNL     1      -8.281   5.475  65.594  1.00  0.00    -0.127 A  
HETATM   25  C   UNL     1      -8.394   6.865  65.615  1.00  0.00    -0.147 A  
BRANCH  24  26
HETATM   26  N   UNL     1      -9.194   4.624  66.463  1.00  0.00    -0.125 N  
HETATM   27  C   UNL     1     -10.651   5.047  66.306  1.00  0.00    -0.276 C  
HETATM   28  C   UNL     1      -8.836   4.787  67.945  1.00  0.00    -0.105 C  
HETATM   29  C   UNL     1      -9.019   3.174  66.035  1.00  0.00    -0.146 C  
ENDBRANCH  24  26
ENDBRANCH  19  20
ENDBRANCH  16  19
ENDBRANCH  14  15
ENDBRANCH  13  14
ENDBRANCH  12  13
ENDBRANCH  11  12
ENDBRANCH  10  11
ENDBRANCH   9  10
ENDBRANCH   8   9
ENDBRANCH   7   8
ENDBRANCH   6   7
ENDBRANCH   5   6
ENDBRANCH   2   5
BRANCH   4  30
HETATM   30  O   UNL     1     -12.301  12.973  69.136  1.00  0.00    -0.140 OA 
BRANCH  30  31
HETATM   31  C   UNL     1     -12.155  11.828  69.937  1.00  0.00    -0.287 A  
HETATM   32  C   UNL     1     -12.928  11.683  71.090  1.00  0.00    -0.308 A  
HETATM   33  C   UNL     1     -11.310  10.805  69.496  1.00  0.00    -0.355 A  
HETATM   34  C   UNL     1     -11.199   9.625  70.252  1.00  0.00    -0.271 A  
HETATM   35  C   UNL     1     -12.816  10.530  71.846  1.00  0.00    -0.509 A  
HETATM   36  C   UNL     1     -11.953   9.515  71.436  1.00  0.00    -0.464 A  
BRANCH  34  37
HETATM   37  N   UNL     1     -10.205   8.536  69.865  1.00  0.00    -0.199 N  
HETATM   38  C   UNL     1     -10.716   7.147  70.251  1.00  0.00    -0.238 C  
HETATM   39  C   UNL     1      -9.973   8.521  68.354  1.00  0.00    -0.187 C  
HETATM   40  C   UNL     1      -8.906   8.824  70.620  1.00  0.00    -0.182 C  
ENDBRANCH  34  37
ENDBRANCH  30  31
ENDBRANCH   4  30
TORSDOF 17
ENDMDL
MODEL      214
REMARK 921   NORMALIZED FREE ENERGY PREDICTED BY IDOCK:   -3.81 KCAL/MOL
REMARK 922        TOTAL FREE ENERGY PREDICTED BY IDOCK:   -9.84 KCAL/MOL
REMARK 923 INTER-LIGAND FREE ENERGY PREDICTED BY IDOCK:   -7.18 KCAL/MOL
REMARK 924 INTRA-LIGAND FREE ENERGY PREDICTED BY IDOCK:   -2.66 KCAL/MOL
REMARK 927      BINDING AFFINITY PREDICTED BY RF-SCORE:    0.00 PKD
ROOT
HETATM    1  C   UNL     1      -8.989   9.517  69.728  1.00  0.00    -0.200 C  
HETATM    2  N   UNL     1      -9.013   9.411  68.279  1.00  0.00    -0.128 N  
HETATM    3  O   UNL     1     -10.113   9.990  66.324  1.00  0.00    -0.234 OA 
HETATM    4  C   UNL     1      -9.941  10.124  67.532  1.00  0.00    -0.191 C  
ENDROOT
BRANCH   2   5
HETATM    5  C   UNL     1      -8.211   8.371  67.638  1.00  0.00    -0.126 C  
BRANCH   5   6
HETATM    6  C   UNL     1      -6.719   8.725  67.564  1.00  0.00    -0.066 C  
BRANCH   6   7
HETATM    7  C   UNL     1      -6.395   9.509  66.286  1.00  0.00    -0.069 C  
BRANCH   7   8
HETATM    8  C   UNL     1      -6.867   8.772  65.027  1.00  0.00    -0.072 C  
BRANCH   8   9
HETATM    9  C   UNL     1      -5.695   8.107  64.299  1.00  0.00    -0.052 C  
BRANCH   9  10
HETATM   10  C   UNL     1      -6.009   6.656  63.926  1.00  0.00    -0.031 C  
BRANCH  10  11
HETATM   11  C   UNL     1      -7.391   6.194  64.400  1.00  0.00    -0.069 C  
BRANCH  11  12
HETATM   12  C   UNL     1      -8.078   5.248  63.417  1.00  0.00    -0.112 C  
BRANCH  12  13
HETATM   13  C   UNL     1      -8.556   3.973  64.107  1.00  0.00    -0.105 C  
BRANCH  13  14
HETATM   14  C   UNL     1      -9.681   4.292  65.081  1.00  0.00    -0.194 C  
BRANCH  14  15
HETATM   15  N   UNL     1      -9.448   3.696  66.388  1.00  0.00    -0.185 N  
HETATM   16  C   UNL     1      -9.995   4.288  67.512  1.00  0.00    -0.044 C  
HETATM   17  C   UNL     1      -8.682   2.462  66.476  1.00  0.00    -0.123 C  
HETATM   18  O   UNL     1     -10.617   5.345  67.505  1.00  0.00    -0.200 OA 
BRANCH  16  19
HETATM   19  O   UNL     1      -9.639   3.617  68.673  1.00  0.00    -0.161 OA 
BRANCH  19  20
HETATM   20  C   UNL     1      -9.203   4.470  69.693  1.00  0.00    -0.130 A  
HETATM   21  C   UNL     1      -7.963   5.078  69.526  1.00  0.00    -0.075 A  
HETATM   22  C   UNL     1      -7.558   6.021  70.464  1.00  0.00    -0.092 A  
HETATM   23  C   UNL     1      -8.378   6.346  71.549  1.00  0.00    -0.125 A  
HETATM   24  C   UNL     1      -9.627   5.725  71.727  1.00  0.00    -0.155 A  
HETATM   25  C   UNL     1     -10.044   4.809  70.762  1.00  0.00    -0.286 A  
BRANCH  24  26
HETATM   26  N   UNL     1     -10.559   6.108  72.866  1.00  0.00    -0.220 N  
HETATM   27  C   UNL     1      -9.772   6.563  74.090  1.00  0.00    -0.270 C  
HETATM   28  C   UNL     1     -11.408   4.906  73.298  1.00  0.00    -0.327 C  
HETATM   29  C   UNL     1     -11.455   7.234  72.370  1.00  0.00    -0.287 C  
ENDBRANCH  24  26
ENDBRANCH  19  20
ENDBRANCH  16  19
ENDBRANCH  14  15
ENDBRANCH  13  14
ENDBRANCH  12  13
ENDBRANCH  11  12
ENDBRANCH  10  11
ENDBRANCH   9  10
ENDBRANCH   8   9
ENDBRANCH   7   8
ENDBRANCH   6   7
ENDBRANCH   5   6
ENDBRANCH   2   5
BRANCH   4  30
HETATM   30  O   UNL     1     -10.724  10.972  68.320  1.00  0.00    -0.173 OA 
BRANCH  30  31
HETATM   31  C   UNL     1     -10.725  12.306  67.876  1.00  0.00    -0.215 A  
HETATM   32  C   UNL     1     -11.891  12.860  67.346  1.00  0.00    -0.418 A  
HETATM   33  C   UNL     1      -9.579  13.080  68.080  1.00  0.00    -0.227 A  
HETATM   34  C   UNL     1      -9.582  14.434  67.701  1.00  0.00    -0.214 A  
HETATM   35  C   UNL     1     -11.898  14.188  66.958  1.00  0.00    -0.458 A  
HETATM   36  C   UNL     1     -10.752  14.964  67.125  1.00  0.00    -0.296 A  
BRANCH  34  37
HETATM   37  N   UNL     1      -8.318  15.280  67.801  1.00  0.00    -0.147 N  
HETATM   38  C   UNL     1      -8.267  16.343  66.702  1.00  0.00    -0.278 C  
HETATM   39  C   UNL     1      -8.263  16.020  69.138  1.00  0.00    -0.241 C  
HETATM   40  C   UNL     1      -7.128  14.332  67.645  1.00  0.00    -0.183 C  
ENDBRANCH  34  37
ENDBRANCH  30  31
ENDBRANCH   4  30
TORSDOF 17
ENDMDL
MODEL      215
REMARK 921   NORMALIZED FREE ENERGY PREDICTED BY IDOCK:   -3.81 KCAL/MOL
REMARK 922        TOTAL FREE ENERGY PREDICTED BY IDOCK:   -9.83 KCAL/MOL
REMARK 923 INTER-LIGAND FREE ENERGY PREDICTED BY IDOCK:   -9.29 KCAL/MOL
REMARK 924 INTRA-LIGAND FREE ENERGY PREDICTED BY IDOCK:   -0.54 KCAL/MOL
REMARK 927      BINDING AFFINITY PREDICTED BY RF-SCORE:    0.00 PKD
ROOT
HETATM    1  C   UNL     1     -10.850   5.041  72.539  1.00  0.00    -0.196 C  
HETATM    2  N   UNL     1      -9.550   5.680  72.422  1.00  0.00    -0.150 N  
HETATM    3  O   UNL     1      -7.281   5.380  72.064  1.00  0.00    -0.082 OA 
HETATM    4  C   UNL     1      -8.430   4.947  72.057  1.00  0.00    -0.124 C  
ENDROOT
BRANCH   2   5
HETATM    5  C   UNL     1      -9.393   7.045  72.921  1.00  0.00    -0.140 C  
BRANCH   5   6
HETATM    6  C   UNL     1     -10.734   7.757  73.152  1.00  0.00    -0.414 C  
BRANCH   6   7
HETATM    7  C   UNL     1     -10.924   8.920  72.170  1.00  0.00    -0.349 C  
BRANCH   7   8
HETATM    8  C   UNL     1     -11.450   8.441  70.811  1.00  0.00    -0.277 C  
BRANCH   8   9
HETATM    9  C   UNL     1     -10.527   8.884  69.671  1.00  0.00    -0.218 C  
BRANCH   9  10
HETATM   10  C   UNL     1     -10.947  10.240  69.097  1.00  0.00    -0.280 C  
BRANCH  10  11
HETATM   11  C   UNL     1     -10.371  10.513  67.704  1.00  0.00    -0.257 C  
BRANCH  11  12
HETATM   12  C   UNL     1     -11.080  11.653  66.974  1.00  0.00    -0.359 C  
BRANCH  12  13
HETATM   13  C   UNL     1     -11.003  12.957  67.763  1.00  0.00    -0.269 C  
BRANCH  13  14
HETATM   14  C   UNL     1     -11.871  14.020  67.105  1.00  0.00    -0.411 C  
BRANCH  14  15
HETATM   15  N   UNL     1     -11.086  14.917  66.270  1.00  0.00    -0.339 N  
HETATM   16  C   UNL     1     -10.416  15.978  66.852  1.00  0.00    -0.306 C  
HETATM   17  C   UNL     1     -10.986  14.647  64.842  1.00  0.00    -0.407 C  
HETATM   18  O   UNL     1     -10.491  16.276  68.039  1.00  0.00    -0.272 OA 
BRANCH  16  19
HETATM   19  O   UNL     1      -9.756  16.752  65.909  1.00  0.00    -0.457 OA 
BRANCH  19  20
HETATM   20  C   UNL     1      -9.380  18.010  66.392  1.00  0.00    -0.255 A  
HETATM   21  C   UNL     1     -10.395  18.929  66.633  1.00  0.00    -0.479 A  
HETATM   22  C   UNL     1     -10.062  20.142  67.226  1.00  0.00    -0.572 A  
HETATM   23  C   UNL     1      -8.736  20.428  67.566  1.00  0.00    -0.370 A  
HETATM   24  C   UNL     1      -7.705  19.507  67.313  1.00  0.00    -0.255 A  
HETATM   25  C   UNL     1      -8.052  18.277  66.755  1.00  0.00    -0.268 A  
BRANCH  24  26
HETATM   26  N   UNL     1      -6.268  19.775  67.731  1.00  0.00    -0.203 N  
HETATM   27  C   UNL     1      -5.286  19.241  66.693  1.00  0.00    -0.162 C  
HETATM   28  C   UNL     1      -5.949  19.068  69.055  1.00  0.00    -0.223 C  
HETATM   29  C   UNL     1      -6.103  21.280  67.884  1.00  0.00    -0.307 C  
ENDBRANCH  24  26
ENDBRANCH  19  20
ENDBRANCH  16  19
ENDBRANCH  14  15
ENDBRANCH  13  14
ENDBRANCH  12  13
ENDBRANCH  11  12
ENDBRANCH  10  11
ENDBRANCH   9  10
ENDBRANCH   8   9
ENDBRANCH   7   8
ENDBRANCH   6   7
ENDBRANCH   5   6
ENDBRANCH   2   5
BRANCH   4  30
HETATM   30  O   UNL     1      -8.737   3.620  71.744  1.00  0.00    -0.090 OA 
BRANCH  30  31
HETATM   31  C   UNL     1      -8.549   3.306  70.387  1.00  0.00    -0.063 A  
HETATM   32  C   UNL     1      -9.363   2.351  69.776  1.00  0.00    -0.168 A  
HETATM   33  C   UNL     1      -7.615   4.043  69.653  1.00  0.00    -0.053 A  
HETATM   34  C   UNL     1      -7.458   3.787  68.280  1.00  0.00    -0.061 A  
HETATM   35  C   UNL     1      -9.205   2.084  68.428  1.00  0.00    -0.234 A  
HETATM   36  C   UNL     1      -8.255   2.789  67.689  1.00  0.00    -0.087 A  
BRANCH  34  37
HETATM   37  N   UNL     1      -6.373   4.488  67.470  1.00  0.00    -0.039 N  
HETATM   38  C   UNL     1      -5.249   3.525  67.087  1.00  0.00    -0.012 C  
HETATM   39  C   UNL     1      -6.942   5.047  66.166  1.00  0.00    -0.070 C  
HETATM   40  C   UNL     1      -5.806   5.604  68.348  1.00  0.00    -0.016 C  
ENDBRANCH  34  37
ENDBRANCH  30  31
ENDBRANCH   4  30
TORSDOF 17
ENDMDL
MODEL      216
REMARK 921   NORMALIZED FREE ENERGY PREDICTED BY IDOCK:   -3.81 KCAL/MOL
REMARK 922        TOTAL FREE ENERGY PREDICTED BY IDOCK:   -9.83 KCAL/MOL
REMARK 923 INTER-LIGAND FREE ENERGY PREDICTED BY IDOCK:   -8.58 KCAL/MOL
REMARK 924 INTRA-LIGAND FREE ENERGY PREDICTED BY IDOCK:   -1.25 KCAL/MOL
REMARK 927      BINDING AFFINITY PREDICTED BY RF-SCORE:    0.00 PKD
ROOT
HETATM    1  C   UNL     1     -10.675   8.306  70.470  1.00  0.00    -0.225 C  
HETATM    2  N   UNL     1     -11.533   8.316  71.642  1.00  0.00    -0.264 N  
HETATM    3  O   UNL     1     -13.382   9.263  72.668  1.00  0.00    -0.430 OA 
HETATM    4  C   UNL     1     -12.679   9.098  71.675  1.00  0.00    -0.358 C  
ENDROOT
BRANCH   2   5
HETATM    5  C   UNL     1     -11.052   7.682  72.868  1.00  0.00    -0.393 C  
BRANCH   5   6
HETATM    6  C   UNL     1      -9.585   8.012  73.179  1.00  0.00    -0.344 C  
BRANCH   6   7
HETATM    7  C   UNL     1      -8.894   6.851  73.904  1.00  0.00    -0.192 C  
BRANCH   7   8
HETATM    8  C   UNL     1      -9.904   5.905  74.564  1.00  0.00    -0.273 C  
BRANCH   8   9
HETATM    9  C   UNL     1      -9.585   4.441  74.247  1.00  0.00    -0.134 C  
BRANCH   9  10
HETATM   10  C   UNL     1     -10.178   4.011  72.902  1.00  0.00    -0.228 C  
BRANCH  10  11
HETATM   11  C   UNL     1      -9.184   4.114  71.741  1.00  0.00    -0.181 C  
BRANCH  11  12
HETATM   12  C   UNL     1      -8.781   2.755  71.173  1.00  0.00    -0.117 C  
BRANCH  12  13
HETATM   13  C   UNL     1      -9.177   2.621  69.704  1.00  0.00    -0.199 C  
BRANCH  13  14
HETATM   14  C   UNL     1      -9.600   3.973  69.149  1.00  0.00    -0.163 C  
BRANCH  14  15
HETATM   15  N   UNL     1      -9.273   4.102  67.736  1.00  0.00    -0.140 N  
HETATM   16  C   UNL     1      -9.340   5.345  67.134  1.00  0.00    -0.117 C  
HETATM   17  C   UNL     1      -8.838   2.923  67.000  1.00  0.00    -0.144 C  
HETATM   18  O   UNL     1      -9.732   6.364  67.691  1.00  0.00    -0.117 OA 
BRANCH  16  19
HETATM   19  O   UNL     1      -9.040   5.280  65.781  1.00  0.00    -0.153 OA 
BRANCH  19  20
HETATM   20  C   UNL     1      -8.006   6.142  65.401  1.00  0.00    -0.116 A  
HETATM   21  C   UNL     1      -6.716   5.625  65.400  1.00  0.00    -0.041 A  
HETATM   22  C   UNL     1      -5.684   6.421  64.914  1.00  0.00    -0.022 A  
HETATM   23  C   UNL     1      -5.943   7.712  64.441  1.00  0.00    -0.041 A  
HETATM   24  C   UNL     1      -7.245   8.242  64.451  1.00  0.00    -0.088 A  
HETATM   25  C   UNL     1      -8.279   7.424  64.904  1.00  0.00    -0.080 A  
BRANCH  24  26
HETATM   26  N   UNL     1      -7.556   9.619  63.885  1.00  0.00    -0.121 N  
HETATM   27  C   UNL     1      -8.057  10.560  64.976  1.00  0.00    -0.096 C  
HETATM   28  C   UNL     1      -8.662   9.531  62.826  1.00  0.00    -0.231 C  
HETATM   29  C   UNL     1      -6.277  10.165  63.268  1.00  0.00    -0.141 C  
ENDBRANCH  24  26
ENDBRANCH  19  20
ENDBRANCH  16  19
ENDBRANCH  14  15
ENDBRANCH  13  14
ENDBRANCH  12  13
ENDBRANCH  11  12
ENDBRANCH  10  11
ENDBRANCH   9  10
ENDBRANCH   8   9
ENDBRANCH   7   8
ENDBRANCH   6   7
ENDBRANCH   5   6
ENDBRANCH   2   5
BRANCH   4  30
HETATM   30  O   UNL     1     -12.919   9.747  70.461  1.00  0.00    -0.112 OA 
BRANCH  30  31
HETATM   31  C   UNL     1     -12.721  11.137  70.521  1.00  0.00    -0.218 A  
HETATM   32  C   UNL     1     -13.157  11.853  71.638  1.00  0.00    -0.433 A  
HETATM   33  C   UNL     1     -11.991  11.755  69.501  1.00  0.00    -0.364 A  
HETATM   34  C   UNL     1     -11.728  13.134  69.576  1.00  0.00    -0.319 A  
HETATM   35  C   UNL     1     -12.914  13.212  71.713  1.00  0.00    -0.435 A  
HETATM   36  C   UNL     1     -12.215  13.848  70.688  1.00  0.00    -0.443 A  
BRANCH  34  37
HETATM   37  N   UNL     1     -11.036  13.864  68.432  1.00  0.00    -0.244 N  
HETATM   38  C   UNL     1     -11.347  15.362  68.452  1.00  0.00    -0.339 C  
HETATM   39  C   UNL     1      -9.517  13.724  68.536  1.00  0.00    -0.162 C  
HETATM   40  C   UNL     1     -11.557  13.257  67.129  1.00  0.00    -0.357 C  
ENDBRANCH  34  37
ENDBRANCH  30  31
ENDBRANCH   4  30
TORSDOF 17
ENDMDL
MODEL      217
REMARK 921   NORMALIZED FREE ENERGY PREDICTED BY IDOCK:   -3.81 KCAL/MOL
REMARK 922        TOTAL FREE ENERGY PREDICTED BY IDOCK:   -9.82 KCAL/MOL
REMARK 923 INTER-LIGAND FREE ENERGY PREDICTED BY IDOCK:   -7.66 KCAL/MOL
REMARK 924 INTRA-LIGAND FREE ENERGY PREDICTED BY IDOCK:   -2.16 KCAL/MOL
REMARK 927      BINDING AFFINITY PREDICTED BY RF-SCORE:    0.00 PKD
ROOT
HETATM    1  C   UNL     1      -9.680  14.157  66.032  1.00  0.00    -0.274 C  
HETATM    2  N   UNL     1     -11.107  13.902  66.121  1.00  0.00    -0.297 N  
HETATM    3  O   UNL     1     -12.960  12.950  65.108  1.00  0.00    -0.758 OA 
HETATM    4  C   UNL     1     -11.745  13.106  65.179  1.00  0.00    -0.336 C  
ENDROOT
BRANCH   2   5
HETATM    5  C   UNL     1     -11.900  14.679  67.071  1.00  0.00    -0.337 C  
BRANCH   5   6
HETATM    6  C   UNL     1     -11.082  15.174  68.272  1.00  0.00    -0.295 C  
BRANCH   6   7
HETATM    7  C   UNL     1     -11.248  16.686  68.474  1.00  0.00    -0.239 C  
BRANCH   7   8
HETATM    8  C   UNL     1     -10.148  17.483  67.762  1.00  0.00    -0.330 C  
BRANCH   8   9
HETATM    9  C   UNL     1      -9.129  18.038  68.761  1.00  0.00    -0.224 C  
BRANCH   9  10
HETATM   10  C   UNL     1      -7.708  17.560  68.445  1.00  0.00    -0.260 C  
BRANCH  10  11
HETATM   11  C   UNL     1      -7.025  16.870  69.630  1.00  0.00     0.062 C  
BRANCH  11  12
HETATM   12  C   UNL     1      -6.164  15.678  69.215  1.00  0.00    -0.127 C  
BRANCH  12  13
HETATM   13  C   UNL     1      -6.607  14.395  69.914  1.00  0.00    -0.133 C  
BRANCH  13  14
HETATM   14  C   UNL     1      -6.966  13.333  68.886  1.00  0.00    -0.096 C  
BRANCH  14  15
HETATM   15  N   UNL     1      -6.644  11.994  69.358  1.00  0.00    -0.113 N  
HETATM   16  C   UNL     1      -7.347  10.911  68.863  1.00  0.00    -0.111 C  
HETATM   17  C   UNL     1      -5.554  11.823  70.308  1.00  0.00    -0.143 C  
HETATM   18  O   UNL     1      -8.297  10.996  68.092  1.00  0.00    -0.119 OA 
BRANCH  16  19
HETATM   19  O   UNL     1      -6.942   9.721  69.450  1.00  0.00    -0.052 OA 
BRANCH  19  20
HETATM   20  C   UNL     1      -8.001   8.843  69.706  1.00  0.00    -0.100 A  
HETATM   21  C   UNL     1      -8.841   9.153  70.770  1.00  0.00    -0.291 A  
HETATM   22  C   UNL     1      -9.969   8.366  70.974  1.00  0.00    -0.235 A  
HETATM   23  C   UNL     1     -10.246   7.286  70.128  1.00  0.00    -0.209 A  
HETATM   24  C   UNL     1      -9.393   6.962  69.059  1.00  0.00    -0.135 A  
HETATM   25  C   UNL     1      -8.285   7.780  68.838  1.00  0.00    -0.127 A  
BRANCH  24  26
HETATM   26  N   UNL     1      -9.709   5.832  68.093  1.00  0.00    -0.120 N  
HETATM   27  C   UNL     1      -9.801   4.496  68.823  1.00  0.00    -0.110 C  
HETATM   28  C   UNL     1      -8.602   5.693  67.041  1.00  0.00    -0.109 C  
HETATM   29  C   UNL     1     -11.036   6.154  67.422  1.00  0.00    -0.225 C  
ENDBRANCH  24  26
ENDBRANCH  19  20
ENDBRANCH  16  19
ENDBRANCH  14  15
ENDBRANCH  13  14
ENDBRANCH  12  13
ENDBRANCH  11  12
ENDBRANCH  10  11
ENDBRANCH   9  10
ENDBRANCH   8   9
ENDBRANCH   7   8
ENDBRANCH   6   7
ENDBRANCH   5   6
ENDBRANCH   2   5
BRANCH   4  30
HETATM   30  O   UNL     1     -10.854  12.549  64.258  1.00  0.00    -0.315 OA 
BRANCH  30  31
HETATM   31  C   UNL     1     -10.318  11.317  64.673  1.00  0.00    -0.315 A  
HETATM   32  C   UNL     1     -10.890  10.639  65.750  1.00  0.00    -0.010 A  
HETATM   33  C   UNL     1      -9.286  10.748  63.920  1.00  0.00    -0.258 A  
HETATM   34  C   UNL     1      -8.781   9.488  64.282  1.00  0.00    -0.207 A  
HETATM   35  C   UNL     1     -10.390   9.403  66.120  1.00  0.00    -0.162 A  
HETATM   36  C   UNL     1      -9.339   8.838  65.399  1.00  0.00    -0.095 A  
BRANCH  34  37
HETATM   37  N   UNL     1      -7.582   8.886  63.558  1.00  0.00    -0.113 N  
HETATM   38  C   UNL     1      -8.019   7.988  62.400  1.00  0.00    -0.156 C  
HETATM   39  C   UNL     1      -6.698   9.982  62.962  1.00  0.00    -0.129 C  
HETATM   40  C   UNL     1      -6.810   8.051  64.582  1.00  0.00    -0.063 C  
ENDBRANCH  34  37
ENDBRANCH  30  31
ENDBRANCH   4  30
TORSDOF 17
ENDMDL
MODEL      218
REMARK 921   NORMALIZED FREE ENERGY PREDICTED BY IDOCK:   -3.81 KCAL/MOL
REMARK 922        TOTAL FREE ENERGY PREDICTED BY IDOCK:   -9.82 KCAL/MOL
REMARK 923 INTER-LIGAND FREE ENERGY PREDICTED BY IDOCK:   -8.10 KCAL/MOL
REMARK 924 INTRA-LIGAND FREE ENERGY PREDICTED BY IDOCK:   -1.72 KCAL/MOL
REMARK 927      BINDING AFFINITY PREDICTED BY RF-SCORE:    0.00 PKD
ROOT
HETATM    1  C   UNL     1      -9.265   8.102  72.726  1.00  0.00    -0.271 C  
HETATM    2  N   UNL     1     -10.569   7.920  72.113  1.00  0.00    -0.235 N  
HETATM    3  O   UNL     1     -12.368   6.494  71.800  1.00  0.00    -0.347 OA 
HETATM    4  C   UNL     1     -11.323   6.785  72.374  1.00  0.00    -0.268 C  
ENDROOT
BRANCH   2   5
HETATM    5  C   UNL     1     -10.973   8.827  71.040  1.00  0.00    -0.268 C  
BRANCH   5   6
HETATM    6  C   UNL     1     -10.717   8.251  69.640  1.00  0.00    -0.196 C  
BRANCH   6   7
HETATM    7  C   UNL     1     -10.265   9.343  68.662  1.00  0.00    -0.222 C  
BRANCH   7   8
HETATM    8  C   UNL     1      -8.756   9.281  68.393  1.00  0.00    -0.129 C  
BRANCH   8   9
HETATM    9  C   UNL     1      -8.003  10.335  69.211  1.00  0.00    -0.149 C  
BRANCH   9  10
HETATM   10  C   UNL     1      -8.027  11.706  68.527  1.00  0.00    -0.144 C  
BRANCH  10  11
HETATM   11  C   UNL     1      -6.873  11.911  67.540  1.00  0.00    -0.124 C  
BRANCH  11  12
HETATM   12  C   UNL     1      -5.522  12.097  68.227  1.00  0.00    -0.053 C  
BRANCH  12  13
HETATM   13  C   UNL     1      -5.588  13.166  69.314  1.00  0.00    -0.079 C  
BRANCH  13  14
HETATM   14  C   UNL     1      -5.473  14.552  68.696  1.00  0.00    -0.094 C  
BRANCH  14  15
HETATM   15  N   UNL     1      -6.727  15.287  68.782  1.00  0.00    -0.100 N  
HETATM   16  C   UNL     1      -7.102  16.115  67.740  1.00  0.00    -0.138 C  
HETATM   17  C   UNL     1      -7.580  15.095  69.946  1.00  0.00     0.003 C  
HETATM   18  O   UNL     1      -6.411  16.344  66.754  1.00  0.00    -0.280 OA 
BRANCH  16  19
HETATM   19  O   UNL     1      -8.297  16.769  68.005  1.00  0.00    -0.191 OA 
BRANCH  19  20
HETATM   20  C   UNL     1      -9.297  16.496  67.065  1.00  0.00    -0.230 A  
HETATM   21  C   UNL     1      -9.722  17.551  66.265  1.00  0.00    -0.271 A  
HETATM   22  C   UNL     1     -10.626  17.283  65.243  1.00  0.00    -0.002 A  
HETATM   23  C   UNL     1     -11.097  15.983  65.031  1.00  0.00    -0.345 A  
HETATM   24  C   UNL     1     -10.679  14.917  65.846  1.00  0.00    -0.323 A  
HETATM   25  C   UNL     1      -9.742  15.185  66.843  1.00  0.00    -0.248 A  
BRANCH  24  26
HETATM   26  N   UNL     1     -11.132  13.487  65.593  1.00  0.00    -0.289 N  
HETATM   27  C   UNL     1     -10.486  12.922  64.332  1.00  0.00    -0.396 C  
HETATM   28  C   UNL     1     -12.650  13.429  65.384  1.00  0.00    -0.475 C  
HETATM   29  C   UNL     1     -10.735  12.655  66.804  1.00  0.00    -0.239 C  
ENDBRANCH  24  26
ENDBRANCH  19  20
ENDBRANCH  16  19
ENDBRANCH  14  15
ENDBRANCH  13  14
ENDBRANCH  12  13
ENDBRANCH  11  12
ENDBRANCH  10  11
ENDBRANCH   9  10
ENDBRANCH   8   9
ENDBRANCH   7   8
ENDBRANCH   6   7
ENDBRANCH   5   6
ENDBRANCH   2   5
BRANCH   4  30
HETATM   30  O   UNL     1     -10.725   5.952  73.325  1.00  0.00    -0.238 OA 
BRANCH  30  31
HETATM   31  C   UNL     1     -10.397   4.679  72.828  1.00  0.00    -0.189 A  
HETATM   32  C   UNL     1     -10.670   3.544  73.592  1.00  0.00    -0.306 A  
HETATM   33  C   UNL     1      -9.902   4.576  71.524  1.00  0.00    -0.260 A  
HETATM   34  C   UNL     1      -9.628   3.307  70.987  1.00  0.00    -0.164 A  
HETATM   35  C   UNL     1     -10.391   2.291  73.075  1.00  0.00    -0.229 A  
HETATM   36  C   UNL     1      -9.867   2.175  71.789  1.00  0.00    -0.218 A  
BRANCH  34  37
HETATM   37  N   UNL     1      -8.982   3.159  69.614  1.00  0.00    -0.092 N  
HETATM   38  C   UNL     1      -9.434   4.264  68.659  1.00  0.00    -0.157 C  
HETATM   39  C   UNL     1      -7.460   3.254  69.716  1.00  0.00    -0.044 C  
HETATM   40  C   UNL     1      -9.414   1.801  69.057  1.00  0.00    -0.103 C  
ENDBRANCH  34  37
ENDBRANCH  30  31
ENDBRANCH   4  30
TORSDOF 17
ENDMDL
MODEL      219
REMARK 921   NORMALIZED FREE ENERGY PREDICTED BY IDOCK:   -3.80 KCAL/MOL
REMARK 922        TOTAL FREE ENERGY PREDICTED BY IDOCK:   -9.80 KCAL/MOL
REMARK 923 INTER-LIGAND FREE ENERGY PREDICTED BY IDOCK:   -7.37 KCAL/MOL
REMARK 924 INTRA-LIGAND FREE ENERGY PREDICTED BY IDOCK:   -2.43 KCAL/MOL
REMARK 927      BINDING AFFINITY PREDICTED BY RF-SCORE:    0.00 PKD
ROOT
HETATM    1  C   UNL     1      -8.523   1.820  68.602  1.00  0.00    -0.058 C  
HETATM    2  N   UNL     1      -8.661   2.723  69.732  1.00  0.00    -0.067 N  
HETATM    3  O   UNL     1      -9.395   4.796  70.462  1.00  0.00    -0.134 OA 
HETATM    4  C   UNL     1      -9.345   3.923  69.600  1.00  0.00    -0.176 C  
ENDROOT
BRANCH   2   5
HETATM    5  C   UNL     1      -7.875   2.465  70.936  1.00  0.00    -0.042 C  
BRANCH   5   6
HETATM    6  C   UNL     1      -6.372   2.703  70.733  1.00  0.00    -0.023 C  
BRANCH   6   7
HETATM    7  C   UNL     1      -5.837   3.754  71.714  1.00  0.00    -0.012 C  
BRANCH   7   8
HETATM    8  C   UNL     1      -6.916   4.220  72.699  1.00  0.00    -0.057 C  
BRANCH   8   9
HETATM    9  C   UNL     1      -6.426   5.402  73.541  1.00  0.00    -0.067 C  
BRANCH   9  10
HETATM   10  C   UNL     1      -7.591   6.158  74.187  1.00  0.00    -0.086 C  
BRANCH  10  11
HETATM   11  C   UNL     1      -8.778   6.365  73.241  1.00  0.00    -0.128 C  
BRANCH  11  12
HETATM   12  C   UNL     1      -9.995   6.979  73.930  1.00  0.00    -0.370 C  
BRANCH  12  13
HETATM   13  C   UNL     1     -11.046   7.427  72.917  1.00  0.00    -0.397 C  
BRANCH  13  14
HETATM   14  C   UNL     1     -10.374   8.055  71.705  1.00  0.00    -0.217 C  
BRANCH  14  15
HETATM   15  N   UNL     1     -11.322   8.796  70.886  1.00  0.00    -0.268 N  
HETATM   16  C   UNL     1     -10.852   9.637  69.894  1.00  0.00    -0.256 C  
HETATM   17  C   UNL     1     -12.749   8.599  71.102  1.00  0.00    -0.123 C  
HETATM   18  O   UNL     1      -9.666   9.871  69.690  1.00  0.00    -0.204 OA 
BRANCH  16  19
HETATM   19  O   UNL     1     -11.885  10.295  69.242  1.00  0.00    -0.146 OA 
BRANCH  19  20
HETATM   20  C   UNL     1     -11.461  11.426  68.537  1.00  0.00    -0.297 A  
HETATM   21  C   UNL     1     -11.210  11.271  67.179  1.00  0.00    -0.344 A  
HETATM   22  C   UNL     1     -10.904  12.402  66.429  1.00  0.00    -0.291 A  
HETATM   23  C   UNL     1     -10.848  13.663  67.032  1.00  0.00    -0.291 A  
HETATM   24  C   UNL     1     -11.089  13.822  68.408  1.00  0.00    -0.263 A  
HETATM   25  C   UNL     1     -11.433  12.689  69.145  1.00  0.00    -0.359 A  
BRANCH  24  26
HETATM   26  N   UNL     1     -11.093  15.191  69.070  1.00  0.00    -0.241 N  
HETATM   27  C   UNL     1     -11.275  16.299  68.038  1.00  0.00    -0.260 C  
HETATM   28  C   UNL     1      -9.758  15.453  69.779  1.00  0.00    -0.211 C  
HETATM   29  C   UNL     1     -12.237  15.216  70.074  1.00  0.00    -0.338 C  
ENDBRANCH  24  26
ENDBRANCH  19  20
ENDBRANCH  16  19
ENDBRANCH  14  15
ENDBRANCH  13  14
ENDBRANCH  12  13
ENDBRANCH  11  12
ENDBRANCH  10  11
ENDBRANCH   9  10
ENDBRANCH   8   9
ENDBRANCH   7   8
ENDBRANCH   6   7
ENDBRANCH   5   6
ENDBRANCH   2   5
BRANCH   4  30
HETATM   30  O   UNL     1      -9.923   4.074  68.336  1.00  0.00    -0.047 OA 
BRANCH  30  31
HETATM   31  C   UNL     1      -9.719   5.346  67.774  1.00  0.00    -0.135 A  
HETATM   32  C   UNL     1     -10.806   6.199  67.573  1.00  0.00    -0.422 A  
HETATM   33  C   UNL     1      -8.408   5.768  67.532  1.00  0.00    -0.104 A  
HETATM   34  C   UNL     1      -8.180   7.061  67.030  1.00  0.00    -0.117 A  
HETATM   35  C   UNL     1     -10.591   7.468  67.067  1.00  0.00    -0.409 A  
HETATM   36  C   UNL     1      -9.291   7.891  66.789  1.00  0.00    -0.232 A  
BRANCH  34  37
HETATM   37  N   UNL     1      -6.778   7.518  66.645  1.00  0.00    -0.057 N  
HETATM   38  C   UNL     1      -6.470   7.208  65.179  1.00  0.00    -0.040 C  
HETATM   39  C   UNL     1      -6.629   9.029  66.821  1.00  0.00    -0.064 C  
HETATM   40  C   UNL     1      -5.796   6.759  67.540  1.00  0.00    -0.020 C  
ENDBRANCH  34  37
ENDBRANCH  30  31
ENDBRANCH   4  30
TORSDOF 17
ENDMDL
MODEL      220
REMARK 921   NORMALIZED FREE ENERGY PREDICTED BY IDOCK:   -3.79 KCAL/MOL
REMARK 922        TOTAL FREE ENERGY PREDICTED BY IDOCK:   -9.80 KCAL/MOL
REMARK 923 INTER-LIGAND FREE ENERGY PREDICTED BY IDOCK:   -7.79 KCAL/MOL
REMARK 924 INTRA-LIGAND FREE ENERGY PREDICTED BY IDOCK:   -2.00 KCAL/MOL
REMARK 927      BINDING AFFINITY PREDICTED BY RF-SCORE:    0.00 PKD
ROOT
HETATM    1  C   UNL     1     -10.961   9.467  67.926  1.00  0.00    -0.110 C  
HETATM    2  N   UNL     1     -10.147  10.231  68.856  1.00  0.00    -0.193 N  
HETATM    3  O   UNL     1      -8.263  10.244  70.203  1.00  0.00    -0.067 OA 
HETATM    4  C   UNL     1      -8.941   9.726  69.322  1.00  0.00    -0.173 C  
ENDROOT
BRANCH   2   5
HETATM    5  C   UNL     1     -10.722  11.424  69.475  1.00  0.00    -0.045 C  
BRANCH   5   6
HETATM    6  C   UNL     1     -10.673  12.656  68.562  1.00  0.00    -0.271 C  
BRANCH   6   7
HETATM    7  C   UNL     1     -11.998  12.848  67.814  1.00  0.00    -0.336 C  
BRANCH   7   8
HETATM    8  C   UNL     1     -11.970  14.085  66.907  1.00  0.00    -0.479 C  
BRANCH   8   9
HETATM    9  C   UNL     1     -12.757  13.846  65.615  1.00  0.00    -0.534 C  
BRANCH   9  10
HETATM   10  C   UNL     1     -11.952  14.253  64.378  1.00  0.00    -0.476 C  
BRANCH  10  11
HETATM   11  C   UNL     1     -12.108  13.278  63.206  1.00  0.00    -0.407 C  
BRANCH  11  12
HETATM   12  C   UNL     1     -11.680  11.853  63.550  1.00  0.00    -0.550 C  
BRANCH  12  13
HETATM   13  C   UNL     1     -10.189  11.777  63.870  1.00  0.00    -0.411 C  
BRANCH  13  14
HETATM   14  C   UNL     1      -9.983  11.302  65.301  1.00  0.00    -0.253 C  
BRANCH  14  15
HETATM   15  N   UNL     1      -8.684  10.672  65.479  1.00  0.00    -0.185 N  
HETATM   16  C   UNL     1      -8.394   9.505  64.794  1.00  0.00    -0.150 C  
HETATM   17  C   UNL     1      -7.699  11.311  66.340  1.00  0.00    -0.089 C  
HETATM   18  O   UNL     1      -9.192   8.902  64.085  1.00  0.00     0.172 OA 
BRANCH  16  19
HETATM   19  O   UNL     1      -7.134   9.019  65.112  1.00  0.00    -0.085 OA 
BRANCH  19  20
HETATM   20  C   UNL     1      -7.126   7.649  65.395  1.00  0.00    -0.063 A  
HETATM   21  C   UNL     1      -5.887   7.033  65.521  1.00  0.00    -0.036 A  
HETATM   22  C   UNL     1      -5.847   5.701  65.919  1.00  0.00    -0.021 A  
HETATM   23  C   UNL     1      -7.029   5.001  66.183  1.00  0.00    -0.070 A  
HETATM   24  C   UNL     1      -8.285   5.617  66.044  1.00  0.00    -0.113 A  
HETATM   25  C   UNL     1      -8.315   6.963  65.682  1.00  0.00    -0.147 A  
BRANCH  24  26
HETATM   26  N   UNL     1      -9.577   4.891  66.384  1.00  0.00    -0.155 N  
HETATM   27  C   UNL     1     -10.254   4.357  65.126  1.00  0.00    -0.179 C  
HETATM   28  C   UNL     1     -10.572   5.844  67.059  1.00  0.00    -0.305 C  
HETATM   29  C   UNL     1      -9.230   3.743  67.321  1.00  0.00    -0.183 C  
ENDBRANCH  24  26
ENDBRANCH  19  20
ENDBRANCH  16  19
ENDBRANCH  14  15
ENDBRANCH  13  14
ENDBRANCH  12  13
ENDBRANCH  11  12
ENDBRANCH  10  11
ENDBRANCH   9  10
ENDBRANCH   8   9
ENDBRANCH   7   8
ENDBRANCH   6   7
ENDBRANCH   5   6
ENDBRANCH   2   5
BRANCH   4  30
HETATM   30  O   UNL     1      -8.606   8.506  68.726  1.00  0.00    -0.129 OA 
BRANCH  30  31
HETATM   31  C   UNL     1      -8.607   7.425  69.625  1.00  0.00    -0.137 A  
HETATM   32  C   UNL     1      -7.596   6.466  69.557  1.00  0.00    -0.095 A  
HETATM   33  C   UNL     1      -9.568   7.399  70.640  1.00  0.00    -0.171 A  
HETATM   34  C   UNL     1      -9.545   6.360  71.587  1.00  0.00    -0.160 A  
HETATM   35  C   UNL     1      -7.574   5.432  70.476  1.00  0.00    -0.080 A  
HETATM   36  C   UNL     1      -8.545   5.375  71.476  1.00  0.00    -0.131 A  
BRANCH  34  37
HETATM   37  N   UNL     1     -10.641   6.232  72.639  1.00  0.00    -0.208 N  
HETATM   38  C   UNL     1     -10.511   4.929  73.428  1.00  0.00    -0.216 C  
HETATM   39  C   UNL     1     -10.559   7.375  73.651  1.00  0.00    -0.265 C  
HETATM   40  C   UNL     1     -11.979   6.245  71.899  1.00  0.00    -0.286 C  
ENDBRANCH  34  37
ENDBRANCH  30  31
ENDBRANCH   4  30
TORSDOF 17
ENDMDL
MODEL      221
REMARK 921   NORMALIZED FREE ENERGY PREDICTED BY IDOCK:   -3.78 KCAL/MOL
REMARK 922        TOTAL FREE ENERGY PREDICTED BY IDOCK:   -9.77 KCAL/MOL
REMARK 923 INTER-LIGAND FREE ENERGY PREDICTED BY IDOCK:   -8.65 KCAL/MOL
REMARK 924 INTRA-LIGAND FREE ENERGY PREDICTED BY IDOCK:   -1.12 KCAL/MOL
REMARK 927      BINDING AFFINITY PREDICTED BY RF-SCORE:    0.00 PKD
ROOT
HETATM    1  C   UNL     1      -5.647   6.419  71.646  1.00  0.00    -0.028 C  
HETATM    2  N   UNL     1      -6.372   6.680  70.414  1.00  0.00    -0.041 N  
HETATM    3  O   UNL     1      -7.929   5.889  68.892  1.00  0.00    -0.100 OA 
HETATM    4  C   UNL     1      -7.364   5.812  69.979  1.00  0.00    -0.074 C  
ENDROOT
BRANCH   2   5
HETATM    5  C   UNL     1      -5.886   7.732  69.523  1.00  0.00    -0.023 C  
BRANCH   5   6
HETATM    6  C   UNL     1      -6.680   9.040  69.652  1.00  0.00    -0.046 C  
BRANCH   6   7
HETATM    7  C   UNL     1      -5.747  10.241  69.848  1.00  0.00    -0.047 C  
BRANCH   7   8
HETATM    8  C   UNL     1      -6.501  11.573  69.754  1.00  0.00    -0.125 C  
BRANCH   8   9
HETATM    9  C   UNL     1      -6.011  12.407  68.567  1.00  0.00    -0.055 C  
BRANCH   9  10
HETATM   10  C   UNL     1      -6.747  13.747  68.474  1.00  0.00    -0.094 C  
BRANCH  10  11
HETATM   11  C   UNL     1      -8.239  13.597  68.158  1.00  0.00    -0.158 C  
BRANCH  11  12
HETATM   12  C   UNL     1      -8.678  14.399  66.935  1.00  0.00    -0.218 C  
BRANCH  12  13
HETATM   13  C   UNL     1      -8.944  15.860  67.288  1.00  0.00    -0.209 C  
BRANCH  13  14
HETATM   14  C   UNL     1     -10.441  16.128  67.322  1.00  0.00    -0.309 C  
BRANCH  14  15
HETATM   15  N   UNL     1     -11.150  15.360  66.309  1.00  0.00    -0.278 N  
HETATM   16  C   UNL     1     -11.982  14.326  66.698  1.00  0.00    -0.430 C  
HETATM   17  C   UNL     1     -11.001  15.730  64.908  1.00  0.00    -0.427 C  
HETATM   18  O   UNL     1     -12.118  13.946  67.856  1.00  0.00    -0.366 OA 
BRANCH  16  19
HETATM   19  O   UNL     1     -12.541  13.675  65.609  1.00  0.00    -0.479 OA 
BRANCH  19  20
HETATM   20  C   UNL     1     -11.773  12.596  65.155  1.00  0.00    -0.367 A  
HETATM   21  C   UNL     1     -11.613  12.464  63.781  1.00  0.00    -0.553 A  
HETATM   22  C   UNL     1     -10.759  11.474  63.308  1.00  0.00    -0.374 A  
HETATM   23  C   UNL     1     -10.082  10.632  64.196  1.00  0.00    -0.402 A  
HETATM   24  C   UNL     1     -10.252  10.755  65.586  1.00  0.00    -0.257 A  
HETATM   25  C   UNL     1     -11.079  11.774  66.055  1.00  0.00    -0.363 A  
BRANCH  24  26
HETATM   26  N   UNL     1      -9.479   9.890  66.570  1.00  0.00    -0.172 N  
HETATM   27  C   UNL     1      -7.978  10.136  66.455  1.00  0.00    -0.118 C  
HETATM   28  C   UNL     1      -9.713   8.401  66.281  1.00  0.00    -0.207 C  
HETATM   29  C   UNL     1      -9.962  10.238  67.970  1.00  0.00    -0.153 C  
ENDBRANCH  24  26
ENDBRANCH  19  20
ENDBRANCH  16  19
ENDBRANCH  14  15
ENDBRANCH  13  14
ENDBRANCH  12  13
ENDBRANCH  11  12
ENDBRANCH  10  11
ENDBRANCH   9  10
ENDBRANCH   8   9
ENDBRANCH   7   8
ENDBRANCH   6   7
ENDBRANCH   5   6
ENDBRANCH   2   5
BRANCH   4  30
HETATM   30  O   UNL     1      -7.609   4.780  70.889  1.00  0.00    -0.065 OA 
BRANCH  30  31
HETATM   31  C   UNL     1      -8.851   4.889  71.539  1.00  0.00    -0.134 A  
HETATM   32  C   UNL     1      -9.219   3.942  72.496  1.00  0.00    -0.149 A  
HETATM   33  C   UNL     1      -9.643   6.013  71.285  1.00  0.00    -0.189 A  
HETATM   34  C   UNL     1     -10.858   6.171  71.973  1.00  0.00    -0.247 A  
HETATM   35  C   UNL     1     -10.420   4.084  73.167  1.00  0.00    -0.251 A  
HETATM   36  C   UNL     1     -11.236   5.183  72.902  1.00  0.00    -0.362 A  
BRANCH  34  37
HETATM   37  N   UNL     1     -11.802   7.322  71.643  1.00  0.00    -0.283 N  
HETATM   38  C   UNL     1     -11.844   8.354  72.771  1.00  0.00    -0.164 C  
HETATM   39  C   UNL     1     -11.345   8.057  70.383  1.00  0.00    -0.187 C  
HETATM   40  C   UNL     1     -13.196   6.720  71.455  1.00  0.00    -0.146 C  
ENDBRANCH  34  37
ENDBRANCH  30  31
ENDBRANCH   4  30
TORSDOF 17
ENDMDL
MODEL      222
REMARK 921   NORMALIZED FREE ENERGY PREDICTED BY IDOCK:   -3.66 KCAL/MOL
REMARK 922        TOTAL FREE ENERGY PREDICTED BY IDOCK:   -9.53 KCAL/MOL
REMARK 923 INTER-LIGAND FREE ENERGY PREDICTED BY IDOCK:   -7.90 KCAL/MOL
REMARK 924 INTRA-LIGAND FREE ENERGY PREDICTED BY IDOCK:   -1.63 KCAL/MOL
REMARK 927      BINDING AFFINITY PREDICTED BY RF-SCORE:    0.00 PKD
ROOT
HETATM    1  C   UNL     1      -7.360  15.600  69.696  1.00  0.00    -0.144 C  
HETATM    2  N   UNL     1      -7.448  15.456  68.253  1.00  0.00    -0.109 N  
HETATM    3  O   UNL     1      -8.814  15.577  66.385  1.00  0.00    -0.289 OA 
HETATM    4  C   UNL     1      -8.614  15.791  67.577  1.00  0.00    -0.166 C  
ENDROOT
BRANCH   2   5
HETATM    5  C   UNL     1      -6.386  14.736  67.553  1.00  0.00    -0.028 C  
BRANCH   5   6
HETATM    6  C   UNL     1      -6.750  13.275  67.253  1.00  0.00     0.062 C  
BRANCH   6   7
HETATM    7  C   UNL     1      -7.244  12.553  68.512  1.00  0.00    -0.110 C  
BRANCH   7   8
HETATM    8  C   UNL     1      -8.594  11.862  68.283  1.00  0.00    -0.162 C  
BRANCH   8   9
HETATM    9  C   UNL     1      -8.797  11.513  66.805  1.00  0.00    -0.183 C  
BRANCH   9  10
HETATM   10  C   UNL     1     -10.086  10.717  66.583  1.00  0.00    -0.265 C  
BRANCH  10  11
HETATM   11  C   UNL     1      -9.855   9.376  65.879  1.00  0.00    -0.362 C  
BRANCH  11  12
HETATM   12  C   UNL     1     -10.137   8.171  66.775  1.00  0.00    -0.365 C  
BRANCH  12  13
HETATM   13  C   UNL     1      -9.326   6.951  66.346  1.00  0.00    -0.183 C  
BRANCH  13  14
HETATM   14  C   UNL     1      -7.850   7.308  66.254  1.00  0.00    -0.106 C  
BRANCH  14  15
HETATM   15  N   UNL     1      -7.211   7.307  67.562  1.00  0.00    -0.088 N  
HETATM   16  C   UNL     1      -6.922   6.103  68.177  1.00  0.00    -0.080 C  
HETATM   17  C   UNL     1      -6.849   8.579  68.172  1.00  0.00    -0.069 C  
HETATM   18  O   UNL     1      -7.235   5.005  67.730  1.00  0.00    -0.068 OA 
BRANCH  16  19
HETATM   19  O   UNL     1      -6.358   6.286  69.431  1.00  0.00    -0.032 OA 
BRANCH  19  20
HETATM   20  C   UNL     1      -7.131   5.753  70.469  1.00  0.00    -0.067 A  
HETATM   21  C   UNL     1      -6.490   4.915  71.373  1.00  0.00    -0.027 A  
HETATM   22  C   UNL     1      -7.202   4.468  72.480  1.00  0.00    -0.080 A  
HETATM   23  C   UNL     1      -8.534   4.852  72.673  1.00  0.00    -0.119 A  
HETATM   24  C   UNL     1      -9.189   5.689  71.754  1.00  0.00    -0.145 A  
HETATM   25  C   UNL     1      -8.456   6.165  70.667  1.00  0.00    -0.134 A  
BRANCH  24  26
HETATM   26  N   UNL     1     -10.615   6.167  71.977  1.00  0.00    -0.211 N  
HETATM   27  C   UNL     1     -11.434   5.119  72.724  1.00  0.00    -0.210 C  
HETATM   28  C   UNL     1     -11.319   6.414  70.637  1.00  0.00    -0.357 C  
HETATM   29  C   UNL     1     -10.551   7.456  72.784  1.00  0.00    -0.297 C  
ENDBRANCH  24  26
ENDBRANCH  19  20
ENDBRANCH  16  19
ENDBRANCH  14  15
ENDBRANCH  13  14
ENDBRANCH  12  13
ENDBRANCH  11  12
ENDBRANCH  10  11
ENDBRANCH   9  10
ENDBRANCH   8   9
ENDBRANCH   7   8
ENDBRANCH   6   7
ENDBRANCH   5   6
ENDBRANCH   2   5
BRANCH   4  30
HETATM   30  O   UNL     1      -9.582  16.341  68.422  1.00  0.00    -0.207 OA 
BRANCH  30  31
HETATM   31  C   UNL     1     -10.600  15.437  68.771  1.00  0.00    -0.235 A  
HETATM   32  C   UNL     1     -10.993  14.451  67.864  1.00  0.00    -0.272 A  
HETATM   33  C   UNL     1     -11.121  15.482  70.068  1.00  0.00    -0.326 A  
HETATM   34  C   UNL     1     -12.094  14.545  70.455  1.00  0.00    -0.322 A  
HETATM   35  C   UNL     1     -11.960  13.533  68.234  1.00  0.00    -0.377 A  
HETATM   36  C   UNL     1     -12.511  13.586  69.513  1.00  0.00    -0.054 A  
BRANCH  34  37
HETATM   37  N   UNL     1     -12.767  14.631  71.820  1.00  0.00    -0.322 N  
HETATM   38  C   UNL     1     -14.048  15.464  71.761  1.00  0.00    -0.527 C  
HETATM   39  C   UNL     1     -13.162  13.242  72.321  1.00  0.00    -0.467 C  
HETATM   40  C   UNL     1     -11.773  15.298  72.771  1.00  0.00    -0.397 C  
ENDBRANCH  34  37
ENDBRANCH  30  31
ENDBRANCH   4  30
TORSDOF 17
ENDMDL
MODEL      223
REMARK 921   NORMALIZED FREE ENERGY PREDICTED BY IDOCK:   -3.65 KCAL/MOL
REMARK 922        TOTAL FREE ENERGY PREDICTED BY IDOCK:   -9.51 KCAL/MOL
REMARK 923 INTER-LIGAND FREE ENERGY PREDICTED BY IDOCK:   -8.92 KCAL/MOL
REMARK 924 INTRA-LIGAND FREE ENERGY PREDICTED BY IDOCK:   -0.58 KCAL/MOL
REMARK 927      BINDING AFFINITY PREDICTED BY RF-SCORE:    0.00 PKD
ROOT
HETATM    1  C   UNL     1     -12.885  13.113  71.300  1.00  0.00    -0.296 C  
HETATM    2  N   UNL     1     -12.359  13.946  70.232  1.00  0.00    -0.343 N  
HETATM    3  O   UNL     1     -11.313  13.996  68.165  1.00  0.00    -0.264 OA 
HETATM    4  C   UNL     1     -11.890  13.378  69.056  1.00  0.00    -0.335 C  
ENDROOT
BRANCH   2   5
HETATM    5  C   UNL     1     -12.112  15.361  70.503  1.00  0.00    -0.371 C  
BRANCH   5   6
HETATM    6  C   UNL     1     -11.700  16.149  69.252  1.00  0.00    -0.224 C  
BRANCH   6   7
HETATM    7  C   UNL     1     -10.410  16.942  69.492  1.00  0.00    -0.189 C  
BRANCH   7   8
HETATM    8  C   UNL     1     -10.109  17.909  68.340  1.00  0.00    -0.385 C  
BRANCH   8   9
HETATM    9  C   UNL     1      -8.789  17.556  67.648  1.00  0.00    -0.228 C  
BRANCH   9  10
HETATM   10  C   UNL     1      -8.317  16.146  68.014  1.00  0.00    -0.163 C  
BRANCH  10  11
HETATM   11  C   UNL     1      -6.992  16.131  68.783  1.00  0.00    -0.148 C  
BRANCH  11  12
HETATM   12  C   UNL     1      -5.840  15.526  67.983  1.00  0.00    -0.147 C  
BRANCH  12  13
HETATM   13  C   UNL     1      -5.982  14.012  67.853  1.00  0.00    -0.144 C  
BRANCH  13  14
HETATM   14  C   UNL     1      -6.539  13.424  69.141  1.00  0.00    -0.106 C  
BRANCH  14  15
HETATM   15  N   UNL     1      -6.245  12.003  69.257  1.00  0.00    -0.087 N  
HETATM   16  C   UNL     1      -6.963  11.096  68.499  1.00  0.00    -0.072 C  
HETATM   17  C   UNL     1      -5.168  11.573  70.137  1.00  0.00    -0.084 C  
HETATM   18  O   UNL     1      -7.903  11.394  67.770  1.00  0.00    -0.109 OA 
BRANCH  16  19
HETATM   19  O   UNL     1      -6.586   9.788  68.764  1.00  0.00    -0.046 OA 
BRANCH  19  20
HETATM   20  C   UNL     1      -7.583   9.043  69.403  1.00  0.00    -0.078 A  
HETATM   21  C   UNL     1      -8.144   9.587  70.553  1.00  0.00    -0.199 A  
HETATM   22  C   UNL     1      -9.218   8.928  71.141  1.00  0.00    -0.324 A  
HETATM   23  C   UNL     1      -9.717   7.744  70.587  1.00  0.00    -0.177 A  
HETATM   24  C   UNL     1      -9.144   7.185  69.431  1.00  0.00    -0.145 A  
HETATM   25  C   UNL     1      -8.093   7.872  68.826  1.00  0.00    -0.126 A  
BRANCH  24  26
HETATM   26  N   UNL     1      -9.711   5.933  68.780  1.00  0.00    -0.127 N  
HETATM   27  C   UNL     1      -9.714   4.761  69.755  1.00  0.00    -0.202 C  
HETATM   28  C   UNL     1      -8.855   5.515  67.577  1.00  0.00    -0.105 C  
HETATM   29  C   UNL     1     -11.131   6.247  68.332  1.00  0.00    -0.279 C  
ENDBRANCH  24  26
ENDBRANCH  19  20
ENDBRANCH  16  19
ENDBRANCH  14  15
ENDBRANCH  13  14
ENDBRANCH  12  13
ENDBRANCH  11  12
ENDBRANCH  10  11
ENDBRANCH   9  10
ENDBRANCH   8   9
ENDBRANCH   7   8
ENDBRANCH   6   7
ENDBRANCH   5   6
ENDBRANCH   2   5
BRANCH   4  30
HETATM   30  O   UNL     1     -12.078  11.994  69.018  1.00  0.00    -0.271 OA 
BRANCH  30  31
HETATM   31  C   UNL     1     -11.514  11.383  67.885  1.00  0.00    -0.291 A  
HETATM   32  C   UNL     1     -11.019  10.080  67.973  1.00  0.00    -0.296 A  
HETATM   33  C   UNL     1     -11.561  12.061  66.664  1.00  0.00    -0.389 A  
HETATM   34  C   UNL     1     -11.058  11.440  65.507  1.00  0.00    -0.136 A  
HETATM   35  C   UNL     1     -10.511   9.467  66.842  1.00  0.00    -0.281 A  
HETATM   36  C   UNL     1     -10.522  10.144  65.623  1.00  0.00    -0.103 A  
BRANCH  34  37
HETATM   37  N   UNL     1     -10.988  12.189  64.182  1.00  0.00    -0.330 N  
HETATM   38  C   UNL     1     -10.621  13.660  64.388  1.00  0.00    -0.341 C  
HETATM   39  C   UNL     1      -9.916  11.587  63.273  1.00  0.00    -0.409 C  
HETATM   40  C   UNL     1     -12.372  12.098  63.539  1.00  0.00    -0.574 C  
ENDBRANCH  34  37
ENDBRANCH  30  31
ENDBRANCH   4  30
TORSDOF 17
ENDMDL
MODEL      224
REMARK 921   NORMALIZED FREE ENERGY PREDICTED BY IDOCK:   -3.65 KCAL/MOL
REMARK 922        TOTAL FREE ENERGY PREDICTED BY IDOCK:   -9.50 KCAL/MOL
REMARK 923 INTER-LIGAND FREE ENERGY PREDICTED BY IDOCK:   -8.18 KCAL/MOL
REMARK 924 INTRA-LIGAND FREE ENERGY PREDICTED BY IDOCK:   -1.32 KCAL/MOL
REMARK 927      BINDING AFFINITY PREDICTED BY RF-SCORE:    0.00 PKD
ROOT
HETATM    1  C   UNL     1      -9.871   7.627  68.961  1.00  0.00    -0.168 C  
HETATM    2  N   UNL     1      -9.491   6.288  68.547  1.00  0.00    -0.124 N  
HETATM    3  O   UNL     1      -9.595   4.023  69.022  1.00  0.00    -0.173 OA 
HETATM    4  C   UNL     1      -9.969   5.174  69.224  1.00  0.00    -0.210 C  
ENDROOT
BRANCH   2   5
HETATM    5  C   UNL     1      -8.419   6.134  67.565  1.00  0.00    -0.108 C  
BRANCH   5   6
HETATM    6  C   UNL     1      -8.281   7.347  66.634  1.00  0.00    -0.125 C  
BRANCH   6   7
HETATM    7  C   UNL     1      -6.982   8.116  66.909  1.00  0.00    -0.074 C  
BRANCH   7   8
HETATM    8  C   UNL     1      -7.222   9.628  67.004  1.00  0.00    -0.087 C  
BRANCH   8   9
HETATM    9  C   UNL     1      -5.974  10.357  67.512  1.00  0.00    -0.052 C  
BRANCH   9  10
HETATM   10  C   UNL     1      -6.337  11.532  68.424  1.00  0.00    -0.050 C  
BRANCH  10  11
HETATM   11  C   UNL     1      -6.612  12.831  67.659  1.00  0.00    -0.150 C  
BRANCH  11  12
HETATM   12  C   UNL     1      -7.950  13.470  68.023  1.00  0.00    -0.151 C  
BRANCH  12  13
HETATM   13  C   UNL     1      -8.812  13.712  66.786  1.00  0.00    -0.150 C  
BRANCH  13  14
HETATM   14  C   UNL     1      -9.321  12.389  66.234  1.00  0.00    -0.189 C  
BRANCH  14  15
HETATM   15  N   UNL     1     -10.657  12.080  66.720  1.00  0.00    -0.221 N  
HETATM   16  C   UNL     1     -10.807  11.434  67.934  1.00  0.00    -0.225 C  
HETATM   17  C   UNL     1     -11.810  12.501  65.937  1.00  0.00    -0.430 C  
HETATM   18  O   UNL     1      -9.876  11.024  68.619  1.00  0.00    -0.181 OA 
BRANCH  16  19
HETATM   19  O   UNL     1     -12.139  11.179  68.223  1.00  0.00    -0.620 OA 
BRANCH  19  20
HETATM   20  C   UNL     1     -12.514  11.584  69.509  1.00  0.00     0.004 A  
HETATM   21  C   UNL     1     -12.721  10.586  70.454  1.00  0.00    -0.325 A  
HETATM   22  C   UNL     1     -12.976  10.963  71.768  1.00  0.00    -0.557 A  
HETATM   23  C   UNL     1     -13.025  12.315  72.125  1.00  0.00    -0.291 A  
HETATM   24  C   UNL     1     -12.829  13.326  71.169  1.00  0.00    -0.280 A  
HETATM   25  C   UNL     1     -12.535  12.940  69.862  1.00  0.00    -0.034 A  
BRANCH  24  26
HETATM   26  N   UNL     1     -12.818  14.799  71.548  1.00  0.00    -0.311 N  
HETATM   27  C   UNL     1     -11.699  15.102  72.539  1.00  0.00    -0.375 C  
HETATM   28  C   UNL     1     -14.137  15.193  72.226  1.00  0.00    -0.534 C  
HETATM   29  C   UNL     1     -12.622  15.604  70.272  1.00  0.00    -0.280 C  
ENDBRANCH  24  26
ENDBRANCH  19  20
ENDBRANCH  16  19
ENDBRANCH  14  15
ENDBRANCH  13  14
ENDBRANCH  12  13
ENDBRANCH  11  12
ENDBRANCH  10  11
ENDBRANCH   9  10
ENDBRANCH   8   9
ENDBRANCH   7   8
ENDBRANCH   6   7
ENDBRANCH   5   6
ENDBRANCH   2   5
BRANCH   4  30
HETATM   30  O   UNL     1     -10.883   5.510  70.227  1.00  0.00    -0.289 OA 
BRANCH  30  31
HETATM   31  C   UNL     1     -10.349   5.421  71.524  1.00  0.00    -0.225 A  
HETATM   32  C   UNL     1     -10.786   6.300  72.516  1.00  0.00    -0.256 A  
HETATM   33  C   UNL     1      -9.468   4.375  71.815  1.00  0.00    -0.206 A  
HETATM   34  C   UNL     1      -8.973   4.232  73.123  1.00  0.00    -0.111 A  
HETATM   35  C   UNL     1     -10.293   6.174  73.803  1.00  0.00    -0.288 A  
HETATM   36  C   UNL     1      -9.389   5.155  74.101  1.00  0.00    -0.122 A  
BRANCH  34  37
HETATM   37  N   UNL     1      -7.924   3.176  73.454  1.00  0.00    -0.068 N  
HETATM   38  C   UNL     1      -7.081   2.820  72.228  1.00  0.00    -0.038 C  
HETATM   39  C   UNL     1      -6.959   3.684  74.525  1.00  0.00    -0.051 C  
HETATM   40  C   UNL     1      -8.673   1.931  73.932  1.00  0.00    -0.061 C  
ENDBRANCH  34  37
ENDBRANCH  30  31
ENDBRANCH   4  30
TORSDOF 17
ENDMDL
MODEL      225
REMARK 921   NORMALIZED FREE ENERGY PREDICTED BY IDOCK:   -3.63 KCAL/MOL
REMARK 922        TOTAL FREE ENERGY PREDICTED BY IDOCK:   -9.48 KCAL/MOL
REMARK 923 INTER-LIGAND FREE ENERGY PREDICTED BY IDOCK:   -8.61 KCAL/MOL
REMARK 924 INTRA-LIGAND FREE ENERGY PREDICTED BY IDOCK:   -0.86 KCAL/MOL
REMARK 927      BINDING AFFINITY PREDICTED BY RF-SCORE:    0.00 PKD
ROOT
HETATM    1  C   UNL     1     -12.410  13.289  64.587  1.00  0.00    -0.391 C  
HETATM    2  N   UNL     1     -11.246  12.855  65.339  1.00  0.00    -0.279 N  
HETATM    3  O   UNL     1      -9.381  13.507  66.549  1.00  0.00    -0.257 OA 
HETATM    4  C   UNL     1     -10.448  13.775  66.005  1.00  0.00    -0.297 C  
ENDROOT
BRANCH   2   5
HETATM    5  C   UNL     1     -10.791  11.473  65.192  1.00  0.00    -0.265 C  
BRANCH   5   6
HETATM    6  C   UNL     1     -10.476  11.097  63.738  1.00  0.00    -0.444 C  
BRANCH   6   7
HETATM    7  C   UNL     1      -9.232  10.205  63.650  1.00  0.00    -0.320 C  
BRANCH   7   8
HETATM    8  C   UNL     1      -8.306  10.393  64.858  1.00  0.00    -0.165 C  
BRANCH   8   9
HETATM    9  C   UNL     1      -6.994   9.623  64.677  1.00  0.00    -0.112 C  
BRANCH   9  10
HETATM   10  C   UNL     1      -7.202   8.327  63.889  1.00  0.00    -0.094 C  
BRANCH  10  11
HETATM   11  C   UNL     1      -5.907   7.537  63.669  1.00  0.00    -0.049 C  
BRANCH  11  12
HETATM   12  C   UNL     1      -5.849   6.242  64.476  1.00  0.00    -0.022 C  
BRANCH  12  13
HETATM   13  C   UNL     1      -6.984   6.164  65.494  1.00  0.00    -0.060 C  
BRANCH  13  14
HETATM   14  C   UNL     1      -7.793   4.893  65.283  1.00  0.00    -0.091 C  
BRANCH  14  15
HETATM   15  N   UNL     1      -8.404   4.430  66.520  1.00  0.00    -0.106 N  
HETATM   16  C   UNL     1      -9.772   4.538  66.686  1.00  0.00    -0.207 C  
HETATM   17  C   UNL     1      -7.561   3.819  67.539  1.00  0.00    -0.067 C  
HETATM   18  O   UNL     1     -10.526   5.075  65.881  1.00  0.00    -0.232 OA 
BRANCH  16  19
HETATM   19  O   UNL     1     -10.179   4.091  67.935  1.00  0.00     0.115 OA 
BRANCH  19  20
HETATM   20  C   UNL     1     -10.386   5.127  68.852  1.00  0.00    -0.116 A  
HETATM   21  C   UNL     1     -10.913   6.316  68.360  1.00  0.00    -0.409 A  
HETATM   22  C   UNL     1     -11.241   7.319  69.266  1.00  0.00     0.026 A  
HETATM   23  C   UNL     1     -11.041   7.133  70.637  1.00  0.00    -0.294 A  
HETATM   24  C   UNL     1     -10.497   5.938  71.137  1.00  0.00    -0.233 A  
HETATM   25  C   UNL     1     -10.207   4.922  70.227  1.00  0.00    -0.299 A  
BRANCH  24  26
HETATM   26  N   UNL     1     -10.330   5.693  72.629  1.00  0.00    -0.192 N  
HETATM   27  C   UNL     1      -8.917   5.216  72.951  1.00  0.00    -0.120 C  
HETATM   28  C   UNL     1     -11.293   4.601  73.110  1.00  0.00    -0.265 C  
HETATM   29  C   UNL     1     -10.617   7.003  73.348  1.00  0.00    -0.364 C  
ENDBRANCH  24  26
ENDBRANCH  19  20
ENDBRANCH  16  19
ENDBRANCH  14  15
ENDBRANCH  13  14
ENDBRANCH  12  13
ENDBRANCH  11  12
ENDBRANCH  10  11
ENDBRANCH   9  10
ENDBRANCH   8   9
ENDBRANCH   7   8
ENDBRANCH   6   7
ENDBRANCH   5   6
ENDBRANCH   2   5
BRANCH   4  30
HETATM   30  O   UNL     1     -10.955  15.076  65.930  1.00  0.00    -0.331 OA 
BRANCH  30  31
HETATM   31  C   UNL     1     -10.500  15.915  66.961  1.00  0.00    -0.306 A  
HETATM   32  C   UNL     1     -10.966  15.729  68.264  1.00  0.00    -0.325 A  
HETATM   33  C   UNL     1      -9.502  16.851  66.672  1.00  0.00    -0.282 A  
HETATM   34  C   UNL     1      -8.989  17.655  67.705  1.00  0.00    -0.240 A  
HETATM   35  C   UNL     1     -10.475  16.525  69.283  1.00  0.00    -0.326 A  
HETATM   36  C   UNL     1      -9.503  17.485  69.004  1.00  0.00    -0.109 A  
BRANCH  34  37
HETATM   37  N   UNL     1      -7.985  18.764  67.410  1.00  0.00    -0.239 N  
HETATM   38  C   UNL     1      -8.658  20.136  67.378  1.00  0.00    -0.343 C  
HETATM   39  C   UNL     1      -6.906  18.823  68.492  1.00  0.00    -0.264 C  
HETATM   40  C   UNL     1      -7.376  18.467  66.039  1.00  0.00    -0.238 C  
ENDBRANCH  34  37
ENDBRANCH  30  31
ENDBRANCH   4  30
TORSDOF 17
ENDMDL
MODEL      226
REMARK 921   NORMALIZED FREE ENERGY PREDICTED BY IDOCK:   -3.61 KCAL/MOL
REMARK 922        TOTAL FREE ENERGY PREDICTED BY IDOCK:   -9.43 KCAL/MOL
REMARK 923 INTER-LIGAND FREE ENERGY PREDICTED BY IDOCK:   -7.29 KCAL/MOL
REMARK 924 INTRA-LIGAND FREE ENERGY PREDICTED BY IDOCK:   -2.14 KCAL/MOL
REMARK 927      BINDING AFFINITY PREDICTED BY RF-SCORE:    0.00 PKD
ROOT
HETATM    1  C   UNL     1      -5.532  11.759  69.394  1.00  0.00    -0.059 C  
HETATM    2  N   UNL     1      -6.314  11.225  68.293  1.00  0.00    -0.049 N  
HETATM    3  O   UNL     1      -7.447  11.698  66.328  1.00  0.00     0.023 OA 
HETATM    4  C   UNL     1      -6.681  12.034  67.226  1.00  0.00    -0.144 C  
ENDROOT
BRANCH   2   5
HETATM    5  C   UNL     1      -6.908   9.896  68.433  1.00  0.00    -0.063 C  
BRANCH   5   6
HETATM    6  C   UNL     1      -7.815   9.772  69.665  1.00  0.00    -0.142 C  
BRANCH   6   7
HETATM    7  C   UNL     1      -9.231  10.282  69.369  1.00  0.00    -0.206 C  
BRANCH   7   8
HETATM    8  C   UNL     1      -9.990   9.345  68.421  1.00  0.00    -0.191 C  
BRANCH   8   9
HETATM    9  C   UNL     1     -10.372  10.060  67.122  1.00  0.00    -0.300 C  
BRANCH   9  10
HETATM   10  C   UNL     1      -9.876   9.298  65.889  1.00  0.00    -0.335 C  
BRANCH  10  11
HETATM   11  C   UNL     1      -9.219   7.957  66.230  1.00  0.00    -0.231 C  
BRANCH  11  12
HETATM   12  C   UNL     1      -7.878   7.749  65.529  1.00  0.00    -0.111 C  
BRANCH  12  13
HETATM   13  C   UNL     1      -7.654   6.282  65.170  1.00  0.00    -0.092 C  
BRANCH  13  14
HETATM   14  C   UNL     1      -6.486   5.720  65.966  1.00  0.00    -0.040 C  
BRANCH  14  15
HETATM   15  N   UNL     1      -6.806   5.596  67.380  1.00  0.00    -0.059 N  
HETATM   16  C   UNL     1      -7.663   4.595  67.799  1.00  0.00    -0.082 C  
HETATM   17  C   UNL     1      -6.178   6.505  68.329  1.00  0.00    -0.032 C  
HETATM   18  O   UNL     1      -8.249   3.825  67.046  1.00  0.00    -0.094 OA 
BRANCH  16  19
HETATM   19  O   UNL     1      -7.892   4.649  69.166  1.00  0.00    -0.069 OA 
BRANCH  19  20
HETATM   20  C   UNL     1      -9.027   5.392  69.508  1.00  0.00    -0.105 A  
HETATM   21  C   UNL     1     -10.085   5.388  68.606  1.00  0.00    -0.246 A  
HETATM   22  C   UNL     1     -11.269   6.019  68.972  1.00  0.00    -0.298 A  
HETATM   23  C   UNL     1     -11.387   6.644  70.218  1.00  0.00    -0.431 A  
HETATM   24  C   UNL     1     -10.315   6.661  71.127  1.00  0.00    -0.206 A  
HETATM   25  C   UNL     1      -9.145   5.994  70.769  1.00  0.00    -0.161 A  
BRANCH  24  26
HETATM   26  N   UNL     1     -10.444   7.282  72.509  1.00  0.00    -0.222 N  
HETATM   27  C   UNL     1      -9.274   8.215  72.803  1.00  0.00    -0.271 C  
HETATM   28  C   UNL     1     -10.436   6.197  73.593  1.00  0.00    -0.276 C  
HETATM   29  C   UNL     1     -11.755   8.056  72.548  1.00  0.00    -0.387 C  
ENDBRANCH  24  26
ENDBRANCH  19  20
ENDBRANCH  16  19
ENDBRANCH  14  15
ENDBRANCH  13  14
ENDBRANCH  12  13
ENDBRANCH  11  12
ENDBRANCH  10  11
ENDBRANCH   9  10
ENDBRANCH   8   9
ENDBRANCH   7   8
ENDBRANCH   6   7
ENDBRANCH   5   6
ENDBRANCH   2   5
BRANCH   4  30
HETATM   30  O   UNL     1      -6.139  13.319  67.319  1.00  0.00    -0.328 OA 
BRANCH  30  31
HETATM   31  C   UNL     1      -7.091  14.308  67.619  1.00  0.00    -0.183 A  
HETATM   32  C   UNL     1      -8.309  13.947  68.198  1.00  0.00    -0.163 A  
HETATM   33  C   UNL     1      -6.747  15.650  67.429  1.00  0.00    -0.218 A  
HETATM   34  C   UNL     1      -7.662  16.656  67.784  1.00  0.00    -0.163 A  
HETATM   35  C   UNL     1      -9.221  14.930  68.537  1.00  0.00    -0.192 A  
HETATM   36  C   UNL     1      -8.904  16.271  68.324  1.00  0.00    -0.188 A  
BRANCH  34  37
HETATM   37  N   UNL     1      -7.370  18.122  67.487  1.00  0.00    -0.206 N  
HETATM   38  C   UNL     1      -6.098  18.594  68.192  1.00  0.00    -0.201 C  
HETATM   39  C   UNL     1      -7.157  18.343  65.989  1.00  0.00    -0.272 C  
HETATM   40  C   UNL     1      -8.563  18.931  67.999  1.00  0.00    -0.299 C  
ENDBRANCH  34  37
ENDBRANCH  30  31
ENDBRANCH   4  30
TORSDOF 17
ENDMDL
MODEL      227
REMARK 921   NORMALIZED FREE ENERGY PREDICTED BY IDOCK:   -3.60 KCAL/MOL
REMARK 922        TOTAL FREE ENERGY PREDICTED BY IDOCK:   -9.41 KCAL/MOL
REMARK 923 INTER-LIGAND FREE ENERGY PREDICTED BY IDOCK:   -8.13 KCAL/MOL
REMARK 924 INTRA-LIGAND FREE ENERGY PREDICTED BY IDOCK:   -1.28 KCAL/MOL
REMARK 927      BINDING AFFINITY PREDICTED BY RF-SCORE:    0.00 PKD
ROOT
HETATM    1  C   UNL     1      -7.433   7.083  67.064  1.00  0.00    -0.094 C  
HETATM    2  N   UNL     1      -8.550   6.243  66.669  1.00  0.00    -0.116 N  
HETATM    3  O   UNL     1     -10.670   5.478  67.207  1.00  0.00    -0.241 OA 
HETATM    4  C   UNL     1      -9.733   6.248  67.395  1.00  0.00    -0.120 C  
ENDROOT
BRANCH   2   5
HETATM    5  C   UNL     1      -8.333   5.222  65.645  1.00  0.00    -0.126 C  
BRANCH   5   6
HETATM    6  C   UNL     1      -7.260   5.620  64.621  1.00  0.00    -0.062 C  
BRANCH   6   7
HETATM    7  C   UNL     1      -7.892   6.158  63.332  1.00  0.00    -0.107 C  
BRANCH   7   8
HETATM    8  C   UNL     1      -6.929   7.069  62.559  1.00  0.00    -0.056 C  
BRANCH   8   9
HETATM    9  C   UNL     1      -5.874   7.677  63.488  1.00  0.00    -0.053 C  
BRANCH   9  10
HETATM   10  C   UNL     1      -5.501   9.101  63.066  1.00  0.00    -0.072 C  
BRANCH  10  11
HETATM   11  C   UNL     1      -6.376  10.175  63.722  1.00  0.00    -0.131 C  
BRANCH  11  12
HETATM   12  C   UNL     1      -6.711   9.869  65.180  1.00  0.00    -0.109 C  
BRANCH  12  13
HETATM   13  C   UNL     1      -7.834  10.764  65.697  1.00  0.00    -0.076 C  
BRANCH  13  14
HETATM   14  C   UNL     1      -9.098   9.947  65.920  1.00  0.00    -0.162 C  
BRANCH  14  15
HETATM   15  N   UNL     1     -10.284  10.789  65.972  1.00  0.00    -0.247 N  
HETATM   16  C   UNL     1     -10.825  11.127  67.199  1.00  0.00    -0.273 C  
HETATM   17  C   UNL     1     -10.846  11.296  64.728  1.00  0.00    -0.244 C  
HETATM   18  O   UNL     1     -10.419  10.702  68.275  1.00  0.00    -0.169 OA 
BRANCH  16  19
HETATM   19  O   UNL     1     -11.972  11.895  67.064  1.00  0.00    -0.615 OA 
BRANCH  19  20
HETATM   20  C   UNL     1     -11.796  13.226  67.455  1.00  0.00    -0.358 A  
HETATM   21  C   UNL     1     -12.092  13.545  68.775  1.00  0.00    -0.305 A  
HETATM   22  C   UNL     1     -11.813  14.832  69.224  1.00  0.00    -0.352 A  
HETATM   23  C   UNL     1     -11.251  15.780  68.363  1.00  0.00    -0.362 A  
HETATM   24  C   UNL     1     -10.962  15.464  67.024  1.00  0.00    -0.306 A  
HETATM   25  C   UNL     1     -11.208  14.162  66.592  1.00  0.00    -0.330 A  
BRANCH  24  26
HETATM   26  N   UNL     1     -10.294  16.462  66.090  1.00  0.00    -0.335 N  
HETATM   27  C   UNL     1      -8.788  16.231  66.025  1.00  0.00    -0.273 C  
HETATM   28  C   UNL     1     -10.507  17.897  66.589  1.00  0.00    -0.316 C  
HETATM   29  C   UNL     1     -10.912  16.287  64.710  1.00  0.00    -0.272 C  
ENDBRANCH  24  26
ENDBRANCH  19  20
ENDBRANCH  16  19
ENDBRANCH  14  15
ENDBRANCH  13  14
ENDBRANCH  12  13
ENDBRANCH  11  12
ENDBRANCH  10  11
ENDBRANCH   9  10
ENDBRANCH   8   9
ENDBRANCH   7   8
ENDBRANCH   6   7
ENDBRANCH   5   6
ENDBRANCH   2   5
BRANCH   4  30
HETATM   30  O   UNL     1      -9.722   7.190  68.428  1.00  0.00    -0.140 OA 
BRANCH  30  31
HETATM   31  C   UNL     1      -9.579   6.619  69.704  1.00  0.00    -0.151 A  
HETATM   32  C   UNL     1     -10.209   5.407  69.997  1.00  0.00    -0.349 A  
HETATM   33  C   UNL     1      -8.715   7.229  70.619  1.00  0.00    -0.147 A  
HETATM   34  C   UNL     1      -8.511   6.637  71.877  1.00  0.00    -0.114 A  
HETATM   35  C   UNL     1     -10.023   4.826  71.239  1.00  0.00    -0.270 A  
HETATM   36  C   UNL     1      -9.189   5.440  72.172  1.00  0.00    -0.157 A  
BRANCH  34  37
HETATM   37  N   UNL     1      -7.668   7.330  72.942  1.00  0.00    -0.088 N  
HETATM   38  C   UNL     1      -6.718   6.349  73.631  1.00  0.00    -0.074 C  
HETATM   39  C   UNL     1      -6.801   8.426  72.322  1.00  0.00    -0.089 C  
HETATM   40  C   UNL     1      -8.635   7.909  73.976  1.00  0.00    -0.264 C  
ENDBRANCH  34  37
ENDBRANCH  30  31
ENDBRANCH   4  30
TORSDOF 17
ENDMDL
MODEL      228
REMARK 921   NORMALIZED FREE ENERGY PREDICTED BY IDOCK:   -3.59 KCAL/MOL
REMARK 922        TOTAL FREE ENERGY PREDICTED BY IDOCK:   -9.39 KCAL/MOL
REMARK 923 INTER-LIGAND FREE ENERGY PREDICTED BY IDOCK:   -8.16 KCAL/MOL
REMARK 924 INTRA-LIGAND FREE ENERGY PREDICTED BY IDOCK:   -1.23 KCAL/MOL
REMARK 927      BINDING AFFINITY PREDICTED BY RF-SCORE:    0.00 PKD
ROOT
HETATM    1  C   UNL     1     -11.578  12.451  69.536  1.00  0.00    -0.286 C  
HETATM    2  N   UNL     1     -11.205  12.786  68.172  1.00  0.00    -0.253 N  
HETATM    3  O   UNL     1     -10.281  14.377  66.765  1.00  0.00    -0.263 OA 
HETATM    4  C   UNL     1     -10.516  13.959  67.894  1.00  0.00    -0.242 C  
ENDROOT
BRANCH   2   5
HETATM    5  C   UNL     1     -11.767  11.998  67.077  1.00  0.00    -0.267 C  
BRANCH   5   6
HETATM    6  C   UNL     1     -10.698  11.263  66.258  1.00  0.00    -0.312 C  
BRANCH   6   7
HETATM    7  C   UNL     1     -10.338   9.914  66.893  1.00  0.00    -0.300 C  
BRANCH   7   8
HETATM    8  C   UNL     1      -9.148  10.033  67.853  1.00  0.00    -0.135 C  
BRANCH   8   9
HETATM    9  C   UNL     1      -8.097   8.955  67.571  1.00  0.00    -0.109 C  
BRANCH   9  10
HETATM   10  C   UNL     1      -7.318   9.247  66.285  1.00  0.00    -0.092 C  
BRANCH  10  11
HETATM   11  C   UNL     1      -7.513   8.178  65.204  1.00  0.00    -0.081 C  
BRANCH  11  12
HETATM   12  C   UNL     1      -8.178   6.908  65.729  1.00  0.00    -0.132 C  
BRANCH  12  13
HETATM   13  C   UNL     1      -7.165   5.976  66.390  1.00  0.00    -0.076 C  
BRANCH  13  14
HETATM   14  C   UNL     1      -7.869   5.035  67.356  1.00  0.00    -0.095 C  
BRANCH  14  15
HETATM   15  N   UNL     1      -7.987   5.615  68.685  1.00  0.00    -0.099 N  
HETATM   16  C   UNL     1      -9.238   5.940  69.177  1.00  0.00    -0.121 C  
HETATM   17  C   UNL     1      -6.785   5.798  69.487  1.00  0.00    -0.059 C  
HETATM   18  O   UNL     1     -10.280   5.844  68.537  1.00  0.00    -0.160 OA 
BRANCH  16  19
HETATM   19  O   UNL     1      -9.164   6.521  70.435  1.00  0.00    -0.154 OA 
BRANCH  19  20
HETATM   20  C   UNL     1      -9.803   5.771  71.428  1.00  0.00    -0.170 A  
HETATM   21  C   UNL     1     -10.800   6.405  72.161  1.00  0.00    -0.272 A  
HETATM   22  C   UNL     1     -11.533   5.651  73.071  1.00  0.00    -0.247 A  
HETATM   23  C   UNL     1     -11.267   4.288  73.244  1.00  0.00    -0.338 A  
HETATM   24  C   UNL     1     -10.252   3.647  72.514  1.00  0.00    -0.159 A  
HETATM   25  C   UNL     1      -9.548   4.400  71.576  1.00  0.00    -0.228 A  
BRANCH  24  26
HETATM   26  N   UNL     1      -9.989   2.155  72.644  1.00  0.00    -0.118 N  
HETATM   27  C   UNL     1      -9.921   1.489  71.274  1.00  0.00    -0.069 C  
HETATM   28  C   UNL     1     -11.122   1.471  73.419  1.00  0.00    -0.153 C  
HETATM   29  C   UNL     1      -8.668   1.980  73.379  1.00  0.00    -0.066 C  
ENDBRANCH  24  26
ENDBRANCH  19  20
ENDBRANCH  16  19
ENDBRANCH  14  15
ENDBRANCH  13  14
ENDBRANCH  12  13
ENDBRANCH  11  12
ENDBRANCH  10  11
ENDBRANCH   9  10
ENDBRANCH   8   9
ENDBRANCH   7   8
ENDBRANCH   6   7
ENDBRANCH   5   6
ENDBRANCH   2   5
BRANCH   4  30
HETATM   30  O   UNL     1     -10.173  14.665  69.051  1.00  0.00    -0.229 OA 
BRANCH  30  31
HETATM   31  C   UNL     1      -9.305  15.744  68.811  1.00  0.00    -0.218 A  
HETATM   32  C   UNL     1      -7.959  15.644  69.167  1.00  0.00    -0.227 A  
HETATM   33  C   UNL     1      -9.794  16.856  68.119  1.00  0.00    -0.264 A  
HETATM   34  C   UNL     1      -8.924  17.918  67.814  1.00  0.00    -0.254 A  
HETATM   35  C   UNL     1      -7.100  16.690  68.882  1.00  0.00    -0.205 A  
HETATM   36  C   UNL     1      -7.580  17.820  68.221  1.00  0.00    -0.256 A  
BRANCH  34  37
HETATM   37  N   UNL     1      -9.443  19.195  67.163  1.00  0.00    -0.308 N  
HETATM   38  C   UNL     1     -10.366  18.887  65.983  1.00  0.00    -0.429 C  
HETATM   39  C   UNL     1     -10.256  20.023  68.159  1.00  0.00    -0.396 C  
HETATM   40  C   UNL     1      -8.225  19.972  66.663  1.00  0.00    -0.314 C  
ENDBRANCH  34  37
ENDBRANCH  30  31
ENDBRANCH   4  30
TORSDOF 17
ENDMDL
MODEL      229
REMARK 921   NORMALIZED FREE ENERGY PREDICTED BY IDOCK:   -3.57 KCAL/MOL
REMARK 922        TOTAL FREE ENERGY PREDICTED BY IDOCK:   -9.35 KCAL/MOL
REMARK 923 INTER-LIGAND FREE ENERGY PREDICTED BY IDOCK:   -7.66 KCAL/MOL
REMARK 924 INTRA-LIGAND FREE ENERGY PREDICTED BY IDOCK:   -1.69 KCAL/MOL
REMARK 927      BINDING AFFINITY PREDICTED BY RF-SCORE:    0.00 PKD
ROOT
HETATM    1  C   UNL     1      -7.038   3.364  71.984  1.00  0.00    -0.041 C  
HETATM    2  N   UNL     1      -8.362   2.795  71.803  1.00  0.00    -0.057 N  
HETATM    3  O   UNL     1      -9.797   1.674  70.370  1.00  0.00    -0.034 OA 
HETATM    4  C   UNL     1      -8.672   2.072  70.659  1.00  0.00    -0.057 C  
ENDROOT
BRANCH   2   5
HETATM    5  C   UNL     1      -9.428   3.192  72.722  1.00  0.00    -0.103 C  
BRANCH   5   6
HETATM    6  C   UNL     1      -9.432   4.697  73.021  1.00  0.00    -0.148 C  
BRANCH   6   7
HETATM    7  C   UNL     1     -10.780   5.334  72.661  1.00  0.00    -0.290 C  
BRANCH   7   8
HETATM    8  C   UNL     1     -10.828   5.782  71.195  1.00  0.00    -0.316 C  
BRANCH   8   9
HETATM    9  C   UNL     1     -11.786   6.962  71.006  1.00  0.00    -0.392 C  
BRANCH   9  10
HETATM   10  C   UNL     1     -11.478   8.104  71.979  1.00  0.00    -0.380 C  
BRANCH  10  11
HETATM   11  C   UNL     1     -10.175   8.842  71.654  1.00  0.00    -0.415 C  
BRANCH  11  12
HETATM   12  C   UNL     1      -9.928   8.991  70.154  1.00  0.00    -0.216 C  
BRANCH  12  13
HETATM   13  C   UNL     1     -10.676  10.190  69.578  1.00  0.00    -0.277 C  
BRANCH  13  14
HETATM   14  C   UNL     1      -9.690  11.256  69.124  1.00  0.00     0.031 C  
BRANCH  14  15
HETATM   15  N   UNL     1      -9.911  11.639  67.737  1.00  0.00    -0.175 N  
HETATM   16  C   UNL     1     -10.878  12.581  67.437  1.00  0.00    -0.240 C  
HETATM   17  C   UNL     1      -9.073  11.054  66.700  1.00  0.00    -0.166 C  
HETATM   18  O   UNL     1     -11.637  13.080  68.261  1.00  0.00    -0.295 OA 
BRANCH  16  19
HETATM   19  O   UNL     1     -10.985  12.795  66.071  1.00  0.00    -0.271 OA 
BRANCH  19  20
HETATM   20  C   UNL     1     -10.818  14.135  65.706  1.00  0.00    -0.297 A  
HETATM   21  C   UNL     1     -11.658  14.635  64.719  1.00  0.00    -0.418 A  
HETATM   22  C   UNL     1     -11.596  15.992  64.421  1.00  0.00    -0.212 A  
HETATM   23  C   UNL     1     -10.705  16.830  65.100  1.00  0.00    -0.159 A  
HETATM   24  C   UNL     1      -9.844  16.326  66.091  1.00  0.00    -0.334 A  
HETATM   25  C   UNL     1      -9.940  14.972  66.411  1.00  0.00    -0.295 A  
BRANCH  24  26
HETATM   26  N   UNL     1      -8.912  17.230  66.882  1.00  0.00    -0.232 N  
HETATM   27  C   UNL     1      -7.539  17.314  66.224  1.00  0.00    -0.325 C  
HETATM   28  C   UNL     1      -8.699  16.681  68.298  1.00  0.00    -0.216 C  
HETATM   29  C   UNL     1      -9.550  18.611  66.943  1.00  0.00    -0.310 C  
ENDBRANCH  24  26
ENDBRANCH  19  20
ENDBRANCH  16  19
ENDBRANCH  14  15
ENDBRANCH  13  14
ENDBRANCH  12  13
ENDBRANCH  11  12
ENDBRANCH  10  11
ENDBRANCH   9  10
ENDBRANCH   8   9
ENDBRANCH   7   8
ENDBRANCH   6   7
ENDBRANCH   5   6
ENDBRANCH   2   5
BRANCH   4  30
HETATM   30  O   UNL     1      -7.569   1.902  69.818  1.00  0.00    -0.042 OA 
BRANCH  30  31
HETATM   31  C   UNL     1      -7.783   2.374  68.512  1.00  0.00    -0.054 A  
HETATM   32  C   UNL     1      -7.833   1.472  67.448  1.00  0.00    -0.060 A  
HETATM   33  C   UNL     1      -8.049   3.734  68.325  1.00  0.00    -0.078 A  
HETATM   34  C   UNL     1      -8.328   4.213  67.034  1.00  0.00    -0.100 A  
HETATM   35  C   UNL     1      -8.094   1.937  66.172  1.00  0.00    -0.081 A  
HETATM   36  C   UNL     1      -8.330   3.296  65.966  1.00  0.00    -0.100 A  
BRANCH  34  37
HETATM   37  N   UNL     1      -8.510   5.704  66.773  1.00  0.00    -0.112 N  
HETATM   38  C   UNL     1      -9.988   6.098  66.784  1.00  0.00    -0.172 C  
HETATM   39  C   UNL     1      -7.820   6.535  67.854  1.00  0.00    -0.108 C  
HETATM   40  C   UNL     1      -7.919   5.994  65.392  1.00  0.00    -0.118 C  
ENDBRANCH  34  37
ENDBRANCH  30  31
ENDBRANCH   4  30
TORSDOF 17
ENDMDL
MODEL      230
REMARK 921   NORMALIZED FREE ENERGY PREDICTED BY IDOCK:   -3.55 KCAL/MOL
REMARK 922        TOTAL FREE ENERGY PREDICTED BY IDOCK:   -9.32 KCAL/MOL
REMARK 923 INTER-LIGAND FREE ENERGY PREDICTED BY IDOCK:   -7.95 KCAL/MOL
REMARK 924 INTRA-LIGAND FREE ENERGY PREDICTED BY IDOCK:   -1.37 KCAL/MOL
REMARK 927      BINDING AFFINITY PREDICTED BY RF-SCORE:    0.00 PKD
ROOT
HETATM    1  C   UNL     1      -7.442  16.273  69.412  1.00  0.00    -0.152 C  
HETATM    2  N   UNL     1      -7.362  15.960  67.996  1.00  0.00    -0.126 N  
HETATM    3  O   UNL     1      -8.522  15.750  66.001  1.00  0.00    -0.227 OA 
HETATM    4  C   UNL     1      -8.469  16.114  67.172  1.00  0.00    -0.191 C  
ENDROOT
BRANCH   2   5
HETATM    5  C   UNL     1      -6.179  15.260  67.498  1.00  0.00    -0.072 C  
BRANCH   5   6
HETATM    6  C   UNL     1      -6.352  13.735  67.470  1.00  0.00    -0.062 C  
BRANCH   6   7
HETATM    7  C   UNL     1      -7.063  13.231  68.732  1.00  0.00    -0.100 C  
BRANCH   7   8
HETATM    8  C   UNL     1      -8.423  12.601  68.411  1.00  0.00    -0.121 C  
BRANCH   8   9
HETATM    9  C   UNL     1      -8.427  11.966  67.016  1.00  0.00    -0.177 C  
BRANCH   9  10
HETATM   10  C   UNL     1      -9.784  11.342  66.682  1.00  0.00    -0.222 C  
BRANCH  10  11
HETATM   11  C   UNL     1      -9.670  10.011  65.932  1.00  0.00    -0.309 C  
BRANCH  11  12
HETATM   12  C   UNL     1     -10.370   8.857  66.646  1.00  0.00    -0.294 C  
BRANCH  12  13
HETATM   13  C   UNL     1      -9.570   7.561  66.537  1.00  0.00    -0.239 C  
BRANCH  13  14
HETATM   14  C   UNL     1      -8.141   7.785  67.009  1.00  0.00    -0.117 C  
BRANCH  14  15
HETATM   15  N   UNL     1      -8.054   7.838  68.461  1.00  0.00    -0.122 N  
HETATM   16  C   UNL     1      -8.213   6.676  69.195  1.00  0.00    -0.120 C  
HETATM   17  C   UNL     1      -7.756   9.109  69.106  1.00  0.00    -0.081 C  
HETATM   18  O   UNL     1      -8.501   5.586  68.712  1.00  0.00    -0.101 OA 
BRANCH  16  19
HETATM   19  O   UNL     1      -8.144   6.914  70.560  1.00  0.00    -0.112 OA 
BRANCH  19  20
HETATM   20  C   UNL     1      -9.198   6.337  71.275  1.00  0.00    -0.152 A  
HETATM   21  C   UNL     1     -10.426   6.987  71.234  1.00  0.00    -0.224 A  
HETATM   22  C   UNL     1     -11.520   6.374  71.835  1.00  0.00    -0.352 A  
HETATM   23  C   UNL     1     -11.383   5.135  72.469  1.00  0.00    -0.193 A  
HETATM   24  C   UNL     1     -10.140   4.480  72.524  1.00  0.00    -0.176 A  
HETATM   25  C   UNL     1      -9.057   5.082  71.885  1.00  0.00    -0.157 A  
BRANCH  24  26
HETATM   26  N   UNL     1      -9.984   3.105  73.155  1.00  0.00    -0.120 N  
HETATM   27  C   UNL     1     -11.189   2.759  74.023  1.00  0.00    -0.013 C  
HETATM   28  C   UNL     1      -8.749   3.064  74.064  1.00  0.00    -0.076 C  
HETATM   29  C   UNL     1      -9.842   2.093  72.027  1.00  0.00    -0.151 C  
ENDBRANCH  24  26
ENDBRANCH  19  20
ENDBRANCH  16  19
ENDBRANCH  14  15
ENDBRANCH  13  14
ENDBRANCH  12  13
ENDBRANCH  11  12
ENDBRANCH  10  11
ENDBRANCH   9  10
ENDBRANCH   8   9
ENDBRANCH   7   8
ENDBRANCH   6   7
ENDBRANCH   5   6
ENDBRANCH   2   5
BRANCH   4  30
HETATM   30  O   UNL     1      -9.562  16.670  67.843  1.00  0.00    -0.229 OA 
BRANCH  30  31
HETATM   31  C   UNL     1     -10.546  15.728  68.187  1.00  0.00    -0.275 A  
HETATM   32  C   UNL     1     -10.974  14.794  67.241  1.00  0.00    -0.318 A  
HETATM   33  C   UNL     1     -10.996  15.682  69.510  1.00  0.00    -0.281 A  
HETATM   34  C   UNL     1     -11.934  14.705  69.887  1.00  0.00    -0.329 A  
HETATM   35  C   UNL     1     -11.906  13.838  67.602  1.00  0.00    -0.413 A  
HETATM   36  C   UNL     1     -12.388  13.800  68.909  1.00  0.00    -0.067 A  
BRANCH  34  37
HETATM   37  N   UNL     1     -12.533  14.693  71.289  1.00  0.00    -0.317 N  
HETATM   38  C   UNL     1     -12.788  13.266  71.777  1.00  0.00    -0.269 C  
HETATM   39  C   UNL     1     -11.582  15.343  72.293  1.00  0.00    -0.459 C  
HETATM   40  C   UNL     1     -13.861  15.448  71.217  1.00  0.00    -0.434 C  
ENDBRANCH  34  37
ENDBRANCH  30  31
ENDBRANCH   4  30
TORSDOF 17
ENDMDL
MODEL      231
REMARK 921   NORMALIZED FREE ENERGY PREDICTED BY IDOCK:   -3.54 KCAL/MOL
REMARK 922        TOTAL FREE ENERGY PREDICTED BY IDOCK:   -9.29 KCAL/MOL
REMARK 923 INTER-LIGAND FREE ENERGY PREDICTED BY IDOCK:   -7.88 KCAL/MOL
REMARK 924 INTRA-LIGAND FREE ENERGY PREDICTED BY IDOCK:   -1.41 KCAL/MOL
REMARK 927      BINDING AFFINITY PREDICTED BY RF-SCORE:    0.00 PKD
ROOT
HETATM    1  C   UNL     1     -12.193  12.903  66.524  1.00  0.00    -0.188 C  
HETATM    2  N   UNL     1     -11.198  12.162  67.281  1.00  0.00    -0.286 N  
HETATM    3  O   UNL     1      -8.947  11.687  67.554  1.00  0.00    -0.158 OA 
HETATM    4  C   UNL     1      -9.843  12.361  67.055  1.00  0.00    -0.211 C  
ENDROOT
BRANCH   2   5
HETATM    5  C   UNL     1     -11.638  11.042  68.111  1.00  0.00    -0.272 C  
BRANCH   5   6
HETATM    6  C   UNL     1     -11.796  11.418  69.591  1.00  0.00    -0.431 C  
BRANCH   6   7
HETATM    7  C   UNL     1     -11.097  10.402  70.502  1.00  0.00    -0.343 C  
BRANCH   7   8
HETATM    8  C   UNL     1     -11.890   9.094  70.615  1.00  0.00    -0.222 C  
BRANCH   8   9
HETATM    9  C   UNL     1     -11.118   7.921  70.001  1.00  0.00    -0.165 C  
BRANCH   9  10
HETATM   10  C   UNL     1     -11.725   6.573  70.401  1.00  0.00    -0.439 C  
BRANCH  10  11
HETATM   11  C   UNL     1     -12.258   6.551  71.838  1.00  0.00    -0.373 C  
BRANCH  11  12
HETATM   12  C   UNL     1     -11.853   5.297  72.609  1.00  0.00    -0.107 C  
BRANCH  12  13
HETATM   13  C   UNL     1     -10.410   5.381  73.100  1.00  0.00    -0.231 C  
BRANCH  13  14
HETATM   14  C   UNL     1      -9.694   4.061  72.855  1.00  0.00    -0.133 C  
BRANCH  14  15
HETATM   15  N   UNL     1      -8.590   4.211  71.920  1.00  0.00    -0.104 N  
HETATM   16  C   UNL     1      -8.338   3.211  70.998  1.00  0.00    -0.062 C  
HETATM   17  C   UNL     1      -7.802   5.435  71.947  1.00  0.00    -0.112 C  
HETATM   18  O   UNL     1      -8.942   2.145  70.951  1.00  0.00    -0.064 OA 
BRANCH  16  19
HETATM   19  O   UNL     1      -7.228   3.496  70.217  1.00  0.00    -0.040 OA 
BRANCH  19  20
HETATM   20  C   UNL     1      -7.435   3.261  68.854  1.00  0.00    -0.049 A  
HETATM   21  C   UNL     1      -6.965   2.059  68.337  1.00  0.00    -0.039 A  
HETATM   22  C   UNL     1      -7.263   1.746  67.015  1.00  0.00    -0.051 A  
HETATM   23  C   UNL     1      -8.014   2.624  66.227  1.00  0.00    -0.082 A  
HETATM   24  C   UNL     1      -8.481   3.846  66.742  1.00  0.00    -0.105 A  
HETATM   25  C   UNL     1      -8.212   4.135  68.079  1.00  0.00    -0.094 A  
BRANCH  24  26
HETATM   26  N   UNL     1      -9.350   4.785  65.921  1.00  0.00    -0.150 N  
HETATM   27  C   UNL     1     -10.424   5.436  66.786  1.00  0.00    -0.289 C  
HETATM   28  C   UNL     1     -10.075   4.017  64.808  1.00  0.00    -0.213 C  
HETATM   29  C   UNL     1      -8.443   5.849  65.321  1.00  0.00    -0.144 C  
ENDBRANCH  24  26
ENDBRANCH  19  20
ENDBRANCH  16  19
ENDBRANCH  14  15
ENDBRANCH  13  14
ENDBRANCH  12  13
ENDBRANCH  11  12
ENDBRANCH  10  11
ENDBRANCH   9  10
ENDBRANCH   8   9
ENDBRANCH   7   8
ENDBRANCH   6   7
ENDBRANCH   5   6
ENDBRANCH   2   5
BRANCH   4  30
HETATM   30  O   UNL     1      -9.599  13.378  66.128  1.00  0.00    -0.268 OA 
BRANCH  30  31
HETATM   31  C   UNL     1      -8.928  14.485  66.675  1.00  0.00    -0.219 A  
HETATM   32  C   UNL     1      -7.688  14.310  67.292  1.00  0.00    -0.145 A  
HETATM   33  C   UNL     1      -9.474  15.759  66.489  1.00  0.00    -0.298 A  
HETATM   34  C   UNL     1      -8.784  16.884  66.974  1.00  0.00    -0.209 A  
HETATM   35  C   UNL     1      -7.009  15.410  67.783  1.00  0.00    -0.183 A  
HETATM   36  C   UNL     1      -7.557  16.684  67.634  1.00  0.00    -0.170 A  
BRANCH  34  37
HETATM   37  N   UNL     1      -9.400  18.276  66.893  1.00  0.00    -0.277 N  
HETATM   38  C   UNL     1     -10.562  18.318  65.900  1.00  0.00    -0.254 C  
HETATM   39  C   UNL     1      -9.959  18.704  68.250  1.00  0.00    -0.384 C  
HETATM   40  C   UNL     1      -8.299  19.228  66.425  1.00  0.00    -0.321 C  
ENDBRANCH  34  37
ENDBRANCH  30  31
ENDBRANCH   4  30
TORSDOF 17
ENDMDL
MODEL      232
REMARK 921   NORMALIZED FREE ENERGY PREDICTED BY IDOCK:   -3.50 KCAL/MOL
REMARK 922        TOTAL FREE ENERGY PREDICTED BY IDOCK:   -9.21 KCAL/MOL
REMARK 923 INTER-LIGAND FREE ENERGY PREDICTED BY IDOCK:   -8.48 KCAL/MOL
REMARK 924 INTRA-LIGAND FREE ENERGY PREDICTED BY IDOCK:   -0.73 KCAL/MOL
REMARK 927      BINDING AFFINITY PREDICTED BY RF-SCORE:    0.00 PKD
ROOT
HETATM    1  C   UNL     1      -5.947   6.657  65.468  1.00  0.00    -0.034 C  
HETATM    2  N   UNL     1      -6.311   7.986  65.929  1.00  0.00    -0.045 N  
HETATM    3  O   UNL     1      -6.673   9.357  67.761  1.00  0.00    -0.066 OA 
HETATM    4  C   UNL     1      -6.260   8.307  67.278  1.00  0.00    -0.056 C  
ENDROOT
BRANCH   2   5
HETATM    5  C   UNL     1      -6.954   8.903  64.989  1.00  0.00    -0.073 C  
BRANCH   5   6
HETATM    6  C   UNL     1      -8.375   8.467  64.604  1.00  0.00    -0.156 C  
BRANCH   6   7
HETATM    7  C   UNL     1      -9.417   9.057  65.563  1.00  0.00    -0.220 C  
BRANCH   7   8
HETATM    8  C   UNL     1      -9.506  10.583  65.443  1.00  0.00    -0.273 C  
BRANCH   8   9
HETATM    9  C   UNL     1     -10.262  10.999  64.178  1.00  0.00    -0.419 C  
BRANCH   9  10
HETATM   10  C   UNL     1     -10.391  12.521  64.070  1.00  0.00    -0.429 C  
BRANCH  10  11
HETATM   11  C   UNL     1     -11.841  12.998  63.929  1.00  0.00    -0.542 C  
BRANCH  11  12
HETATM   12  C   UNL     1     -12.538  13.202  65.272  1.00  0.00    -0.531 C  
BRANCH  12  13
HETATM   13  C   UNL     1     -11.882  14.318  66.081  1.00  0.00    -0.413 C  
BRANCH  13  14
HETATM   14  C   UNL     1     -12.271  14.202  67.548  1.00  0.00    -0.223 C  
BRANCH  14  15
HETATM   15  N   UNL     1     -11.225  14.706  68.425  1.00  0.00    -0.262 N  
HETATM   16  C   UNL     1      -9.916  14.310  68.220  1.00  0.00    -0.239 C  
HETATM   17  C   UNL     1     -11.577  15.655  69.472  1.00  0.00    -0.357 C  
HETATM   18  O   UNL     1      -9.565  13.487  67.381  1.00  0.00    -0.215 OA 
BRANCH  16  19
HETATM   19  O   UNL     1      -9.059  14.848  69.170  1.00  0.00    -0.192 OA 
BRANCH  19  20
HETATM   20  C   UNL     1      -8.155  15.773  68.637  1.00  0.00    -0.161 A  
HETATM   21  C   UNL     1      -6.933  15.283  68.190  1.00  0.00    -0.133 A  
HETATM   22  C   UNL     1      -6.065  16.159  67.547  1.00  0.00    -0.190 A  
HETATM   23  C   UNL     1      -6.414  17.500  67.361  1.00  0.00    -0.169 A  
HETATM   24  C   UNL     1      -7.643  18.002  67.822  1.00  0.00    -0.220 A  
HETATM   25  C   UNL     1      -8.525  17.109  68.431  1.00  0.00    -0.241 A  
BRANCH  24  26
HETATM   26  N   UNL     1      -8.068  19.441  67.575  1.00  0.00    -0.275 N  
HETATM   27  C   UNL     1      -8.238  19.714  66.085  1.00  0.00    -0.341 C  
HETATM   28  C   UNL     1      -7.001  20.416  68.091  1.00  0.00    -0.251 C  
HETATM   29  C   UNL     1      -9.384  19.667  68.304  1.00  0.00    -0.349 C  
ENDBRANCH  24  26
ENDBRANCH  19  20
ENDBRANCH  16  19
ENDBRANCH  14  15
ENDBRANCH  13  14
ENDBRANCH  12  13
ENDBRANCH  11  12
ENDBRANCH  10  11
ENDBRANCH   9  10
ENDBRANCH   8   9
ENDBRANCH   7   8
ENDBRANCH   6   7
ENDBRANCH   5   6
ENDBRANCH   2   5
BRANCH   4  30
HETATM   30  O   UNL     1      -5.747   7.265  68.057  1.00  0.00    -0.024 OA 
BRANCH  30  31
HETATM   31  C   UNL     1      -6.583   6.902  69.127  1.00  0.00    -0.048 A  
HETATM   32  C   UNL     1      -6.122   6.009  70.096  1.00  0.00    -0.026 A  
HETATM   33  C   UNL     1      -7.824   7.534  69.252  1.00  0.00    -0.118 A  
HETATM   34  C   UNL     1      -8.647   7.230  70.350  1.00  0.00    -0.144 A  
HETATM   35  C   UNL     1      -6.931   5.696  71.173  1.00  0.00    -0.066 A  
HETATM   36  C   UNL     1      -8.185   6.294  71.294  1.00  0.00    -0.122 A  
BRANCH  34  37
HETATM   37  N   UNL     1     -10.052   7.811  70.462  1.00  0.00    -0.192 N  
HETATM   38  C   UNL     1     -10.830   7.178  71.617  1.00  0.00    -0.224 C  
HETATM   39  C   UNL     1     -10.000   9.315  70.733  1.00  0.00    -0.290 C  
HETATM   40  C   UNL     1     -10.769   7.512  69.144  1.00  0.00    -0.151 C  
ENDBRANCH  34  37
ENDBRANCH  30  31
ENDBRANCH   4  30
TORSDOF 17
ENDMDL
MODEL      233
REMARK 921   NORMALIZED FREE ENERGY PREDICTED BY IDOCK:   -3.49 KCAL/MOL
REMARK 922        TOTAL FREE ENERGY PREDICTED BY IDOCK:   -9.19 KCAL/MOL
REMARK 923 INTER-LIGAND FREE ENERGY PREDICTED BY IDOCK:   -7.25 KCAL/MOL
REMARK 924 INTRA-LIGAND FREE ENERGY PREDICTED BY IDOCK:   -1.94 KCAL/MOL
REMARK 927      BINDING AFFINITY PREDICTED BY RF-SCORE:    0.00 PKD
ROOT
HETATM    1  C   UNL     1      -7.978  13.341  66.499  1.00  0.00     0.775 C  
HETATM    2  N   UNL     1      -9.109  12.744  67.189  1.00  0.00    -0.211 N  
HETATM    3  O   UNL     1     -11.103  11.585  66.972  1.00  0.00    -0.278 OA 
HETATM    4  C   UNL     1     -10.057  12.008  66.491  1.00  0.00    -0.201 C  
ENDROOT
BRANCH   2   5
HETATM    5  C   UNL     1      -9.364  13.124  68.577  1.00  0.00    -0.085 C  
BRANCH   5   6
HETATM    6  C   UNL     1      -8.672  14.435  68.976  1.00  0.00     0.014 C  
BRANCH   6   7
HETATM    7  C   UNL     1      -9.559  15.273  69.905  1.00  0.00    -0.061 C  
BRANCH   7   8
HETATM    8  C   UNL     1     -10.466  16.230  69.122  1.00  0.00    -0.280 C  
BRANCH   8   9
HETATM    9  C   UNL     1     -11.923  15.757  69.143  1.00  0.00    -0.312 C  
BRANCH   9  10
HETATM   10  C   UNL     1     -12.381  15.396  70.559  1.00  0.00    -0.452 C  
BRANCH  10  11
HETATM   11  C   UNL     1     -13.151  14.073  70.628  1.00  0.00    -0.178 C  
BRANCH  11  12
HETATM   12  C   UNL     1     -12.298  12.906  71.120  1.00  0.00    -0.262 C  
BRANCH  12  13
HETATM   13  C   UNL     1     -12.910  11.562  70.734  1.00  0.00    -0.222 C  
BRANCH  13  14
HETATM   14  C   UNL     1     -12.742  10.563  71.870  1.00  0.00    -0.332 C  
BRANCH  14  15
HETATM   15  N   UNL     1     -12.872   9.190  71.404  1.00  0.00    -0.324 N  
HETATM   16  C   UNL     1     -11.733   8.448  71.149  1.00  0.00    -0.280 C  
HETATM   17  C   UNL     1     -14.202   8.614  71.262  1.00  0.00    -0.176 C  
HETATM   18  O   UNL     1     -10.591   8.888  71.216  1.00  0.00    -0.232 OA 
BRANCH  16  19
HETATM   19  O   UNL     1     -12.038   7.181  70.674  1.00  0.00    -0.308 OA 
BRANCH  19  20
HETATM   20  C   UNL     1     -11.302   6.165  71.293  1.00  0.00    -0.272 A  
HETATM   21  C   UNL     1     -11.642   5.841  72.601  1.00  0.00    -0.304 A  
HETATM   22  C   UNL     1     -11.009   4.757  73.200  1.00  0.00    -0.374 A  
HETATM   23  C   UNL     1     -10.051   4.016  72.501  1.00  0.00    -0.232 A  
HETATM   24  C   UNL     1      -9.695   4.349  71.183  1.00  0.00    -0.186 A  
HETATM   25  C   UNL     1     -10.362   5.412  70.575  1.00  0.00    -0.344 A  
BRANCH  24  26
HETATM   26  N   UNL     1      -8.701   3.519  70.385  1.00  0.00    -0.069 N  
HETATM   27  C   UNL     1      -9.062   3.506  68.903  1.00  0.00    -0.145 C  
HETATM   28  C   UNL     1      -8.707   2.061  70.862  1.00  0.00    -0.055 C  
HETATM   29  C   UNL     1      -7.322   4.133  70.584  1.00  0.00    -0.041 C  
ENDBRANCH  24  26
ENDBRANCH  19  20
ENDBRANCH  16  19
ENDBRANCH  14  15
ENDBRANCH  13  14
ENDBRANCH  12  13
ENDBRANCH  11  12
ENDBRANCH  10  11
ENDBRANCH   9  10
ENDBRANCH   8   9
ENDBRANCH   7   8
ENDBRANCH   6   7
ENDBRANCH   5   6
ENDBRANCH   2   5
BRANCH   4  30
HETATM   30  O   UNL     1      -9.727  11.855  65.141  1.00  0.00    -0.239 OA 
BRANCH  30  31
HETATM   31  C   UNL     1      -9.234  10.578  64.826  1.00  0.00    -0.227 A  
HETATM   32  C   UNL     1      -8.945  10.253  63.499  1.00  0.00    -0.259 A  
HETATM   33  C   UNL     1      -8.941   9.696  65.871  1.00  0.00    -0.203 A  
HETATM   34  C   UNL     1      -8.387   8.437  65.579  1.00  0.00    -0.154 A  
HETATM   35  C   UNL     1      -8.412   9.011  63.203  1.00  0.00    -0.185 A  
HETATM   36  C   UNL     1      -8.144   8.109  64.232  1.00  0.00    -0.127 A  
BRANCH  34  37
HETATM   37  N   UNL     1      -8.160   7.406  66.678  1.00  0.00    -0.120 N  
HETATM   38  C   UNL     1      -9.299   7.415  67.699  1.00  0.00    -0.133 C  
HETATM   39  C   UNL     1      -8.097   5.994  66.096  1.00  0.00    -0.110 C  
HETATM   40  C   UNL     1      -6.851   7.774  67.378  1.00  0.00    -0.069 C  
ENDBRANCH  34  37
ENDBRANCH  30  31
ENDBRANCH   4  30
TORSDOF 17
ENDMDL
MODEL      234
REMARK 921   NORMALIZED FREE ENERGY PREDICTED BY IDOCK:   -3.48 KCAL/MOL
REMARK 922        TOTAL FREE ENERGY PREDICTED BY IDOCK:   -9.18 KCAL/MOL
REMARK 923 INTER-LIGAND FREE ENERGY PREDICTED BY IDOCK:   -8.59 KCAL/MOL
REMARK 924 INTRA-LIGAND FREE ENERGY PREDICTED BY IDOCK:   -0.58 KCAL/MOL
REMARK 927      BINDING AFFINITY PREDICTED BY RF-SCORE:    0.00 PKD
ROOT
HETATM    1  C   UNL     1      -8.149   6.157  72.178  1.00  0.00    -0.110 C  
HETATM    2  N   UNL     1      -7.717   7.127  71.186  1.00  0.00    -0.089 N  
HETATM    3  O   UNL     1      -6.301   7.560  69.405  1.00  0.00    -0.031 OA 
HETATM    4  C   UNL     1      -6.813   6.772  70.194  1.00  0.00    -0.061 C  
ENDROOT
BRANCH   2   5
HETATM    5  C   UNL     1      -8.059   8.534  71.386  1.00  0.00    -0.140 C  
BRANCH   5   6
HETATM    6  C   UNL     1      -9.478   8.733  71.938  1.00  0.00    -0.362 C  
BRANCH   6   7
HETATM    7  C   UNL     1     -10.401   9.362  70.887  1.00  0.00    -0.380 C  
BRANCH   7   8
HETATM    8  C   UNL     1     -10.797   8.358  69.798  1.00  0.00    -0.184 C  
BRANCH   8   9
HETATM    9  C   UNL     1     -10.315   8.817  68.418  1.00  0.00    -0.242 C  
BRANCH   9  10
HETATM   10  C   UNL     1     -11.020  10.101  67.970  1.00  0.00    -0.326 C  
BRANCH  10  11
HETATM   11  C   UNL     1     -10.590  10.574  66.578  1.00  0.00    -0.240 C  
BRANCH  11  12
HETATM   12  C   UNL     1     -10.504  12.094  66.461  1.00  0.00    -0.254 C  
BRANCH  12  13
HETATM   13  C   UNL     1      -9.215  12.632  67.077  1.00  0.00    -0.212 C  
BRANCH  13  14
HETATM   14  C   UNL     1      -9.533  13.706  68.107  1.00  0.00    -0.217 C  
BRANCH  14  15
HETATM   15  N   UNL     1     -10.220  14.841  67.509  1.00  0.00    -0.232 N  
HETATM   16  C   UNL     1      -9.548  15.644  66.605  1.00  0.00    -0.248 C  
HETATM   17  C   UNL     1     -11.617  15.078  67.843  1.00  0.00    -0.333 C  
HETATM   18  O   UNL     1      -8.364  15.516  66.313  1.00  0.00    -0.213 OA 
BRANCH  16  19
HETATM   19  O   UNL     1     -10.334  16.700  66.169  1.00  0.00    -0.322 OA 
BRANCH  19  20
HETATM   20  C   UNL     1      -9.828  17.953  66.533  1.00  0.00    -0.343 A  
HETATM   21  C   UNL     1     -10.609  18.732  67.379  1.00  0.00    -0.505 A  
HETATM   22  C   UNL     1     -10.080  19.928  67.853  1.00  0.00    -0.571 A  
HETATM   23  C   UNL     1      -8.794  20.334  67.483  1.00  0.00    -0.415 A  
HETATM   24  C   UNL     1      -8.006  19.555  66.619  1.00  0.00    -0.293 A  
HETATM   25  C   UNL     1      -8.528  18.339  66.178  1.00  0.00    -0.143 A  
BRANCH  24  26
HETATM   26  N   UNL     1      -6.583  19.949  66.254  1.00  0.00    -0.204 N  
HETATM   27  C   UNL     1      -6.403  20.015  64.741  1.00  0.00    -0.274 C  
HETATM   28  C   UNL     1      -5.583  18.912  66.779  1.00  0.00    -0.150 C  
HETATM   29  C   UNL     1      -6.307  21.310  66.875  1.00  0.00    -0.321 C  
ENDBRANCH  24  26
ENDBRANCH  19  20
ENDBRANCH  16  19
ENDBRANCH  14  15
ENDBRANCH  13  14
ENDBRANCH  12  13
ENDBRANCH  11  12
ENDBRANCH  10  11
ENDBRANCH   9  10
ENDBRANCH   8   9
ENDBRANCH   7   8
ENDBRANCH   6   7
ENDBRANCH   5   6
ENDBRANCH   2   5
BRANCH   4  30
HETATM   30  O   UNL     1      -6.484   5.414  70.231  1.00  0.00    -0.031 OA 
BRANCH  30  31
HETATM   31  C   UNL     1      -7.240   4.631  69.342  1.00  0.00    -0.052 A  
HETATM   32  C   UNL     1      -7.603   3.331  69.700  1.00  0.00    -0.044 A  
HETATM   33  C   UNL     1      -7.704   5.216  68.161  1.00  0.00    -0.084 A  
HETATM   34  C   UNL     1      -8.515   4.468  67.290  1.00  0.00    -0.104 A  
HETATM   35  C   UNL     1      -8.390   2.583  68.842  1.00  0.00    -0.083 A  
HETATM   36  C   UNL     1      -8.834   3.143  67.645  1.00  0.00    -0.161 A  
BRANCH  34  37
HETATM   37  N   UNL     1      -8.946   5.031  65.941  1.00  0.00    -0.136 N  
HETATM   38  C   UNL     1      -8.562   6.504  65.800  1.00  0.00    -0.144 C  
HETATM   39  C   UNL     1      -8.264   4.282  64.795  1.00  0.00    -0.103 C  
HETATM   40  C   UNL     1     -10.467   4.894  65.861  1.00  0.00    -0.239 C  
ENDBRANCH  34  37
ENDBRANCH  30  31
ENDBRANCH   4  30
TORSDOF 17
ENDMDL
MODEL      235
REMARK 921   NORMALIZED FREE ENERGY PREDICTED BY IDOCK:   -3.42 KCAL/MOL
REMARK 922        TOTAL FREE ENERGY PREDICTED BY IDOCK:   -9.04 KCAL/MOL
REMARK 923 INTER-LIGAND FREE ENERGY PREDICTED BY IDOCK:   -7.48 KCAL/MOL
REMARK 924 INTRA-LIGAND FREE ENERGY PREDICTED BY IDOCK:   -1.56 KCAL/MOL
REMARK 927      BINDING AFFINITY PREDICTED BY RF-SCORE:    0.00 PKD
ROOT
HETATM    1  C   UNL     1     -10.517  10.141  68.630  1.00  0.00    -0.202 C  
HETATM    2  N   UNL     1     -10.672   9.475  69.912  1.00  0.00    -0.228 N  
HETATM    3  O   UNL     1     -11.921   9.307  71.856  1.00  0.00    -0.362 OA 
HETATM    4  C   UNL     1     -11.780   9.724  70.711  1.00  0.00    -0.328 C  
ENDROOT
BRANCH   2   5
HETATM    5  C   UNL     1      -9.540   8.726  70.455  1.00  0.00    -0.182 C  
BRANCH   5   6
HETATM    6  C   UNL     1      -8.261   9.567  70.562  1.00  0.00    -0.203 C  
BRANCH   6   7
HETATM    7  C   UNL     1      -7.009   8.707  70.349  1.00  0.00    -0.043 C  
BRANCH   7   8
HETATM    8  C   UNL     1      -7.175   7.734  69.175  1.00  0.00    -0.082 C  
BRANCH   8   9
HETATM    9  C   UNL     1      -6.146   8.010  68.075  1.00  0.00    -0.046 C  
BRANCH   9  10
HETATM   10  C   UNL     1      -5.951   9.512  67.846  1.00  0.00    -0.051 C  
BRANCH  10  11
HETATM   11  C   UNL     1      -6.932  10.102  66.828  1.00  0.00    -0.091 C  
BRANCH  11  12
HETATM   12  C   UNL     1      -7.355  11.531  67.162  1.00  0.00    -0.139 C  
BRANCH  12  13
HETATM   13  C   UNL     1      -6.699  12.025  68.448  1.00  0.00    -0.065 C  
BRANCH  13  14
HETATM   14  C   UNL     1      -7.263  13.383  68.839  1.00  0.00    -0.062 C  
BRANCH  14  15
HETATM   15  N   UNL     1      -7.094  14.364  67.777  1.00  0.00    -0.161 N  
HETATM   16  C   UNL     1      -5.978  15.180  67.776  1.00  0.00    -0.130 C  
HETATM   17  C   UNL     1      -8.085  14.430  66.712  1.00  0.00     0.205 C  
HETATM   18  O   UNL     1      -5.130  15.195  68.663  1.00  0.00    -0.086 OA 
BRANCH  16  19
HETATM   19  O   UNL     1      -5.997  16.081  66.722  1.00  0.00    -0.268 OA 
BRANCH  19  20
HETATM   20  C   UNL     1      -6.383  17.371  67.105  1.00  0.00    -0.158 A  
HETATM   21  C   UNL     1      -5.400  18.354  67.105  1.00  0.00    -0.136 A  
HETATM   22  C   UNL     1      -5.778  19.667  67.365  1.00  0.00    -0.182 A  
HETATM   23  C   UNL     1      -7.115  19.986  67.622  1.00  0.00    -0.301 A  
HETATM   24  C   UNL     1      -8.110  18.992  67.634  1.00  0.00    -0.269 A  
HETATM   25  C   UNL     1      -7.730  17.685  67.335  1.00  0.00    -0.214 A  
BRANCH  24  26
HETATM   26  N   UNL     1      -9.577  19.327  67.851  1.00  0.00    -0.319 N  
HETATM   27  C   UNL     1      -9.943  19.259  69.330  1.00  0.00    -0.211 C  
HETATM   28  C   UNL     1     -10.476  18.322  67.119  1.00  0.00    -0.395 C  
HETATM   29  C   UNL     1      -9.815  20.732  67.316  1.00  0.00    -0.293 C  
ENDBRANCH  24  26
ENDBRANCH  19  20
ENDBRANCH  16  19
ENDBRANCH  14  15
ENDBRANCH  13  14
ENDBRANCH  12  13
ENDBRANCH  11  12
ENDBRANCH  10  11
ENDBRANCH   9  10
ENDBRANCH   8   9
ENDBRANCH   7   8
ENDBRANCH   6   7
ENDBRANCH   5   6
ENDBRANCH   2   5
BRANCH   4  30
HETATM   30  O   UNL     1     -12.704  10.573  70.094  1.00  0.00    -0.287 OA 
BRANCH  30  31
HETATM   31  C   UNL     1     -12.821  11.824  70.724  1.00  0.00    -0.077 A  
HETATM   32  C   UNL     1     -13.481  11.925  71.950  1.00  0.00    -0.289 A  
HETATM   33  C   UNL     1     -12.175  12.925  70.153  1.00  0.00    -0.336 A  
HETATM   34  C   UNL     1     -12.228  14.170  70.802  1.00  0.00    -0.365 A  
HETATM   35  C   UNL     1     -13.548  13.150  72.588  1.00  0.00    -0.430 A  
HETATM   36  C   UNL     1     -12.936  14.264  72.015  1.00  0.00    -0.437 A  
BRANCH  34  37
HETATM   37  N   UNL     1     -11.634  15.417  70.156  1.00  0.00    -0.298 N  
HETATM   38  C   UNL     1     -10.158  15.218  69.807  1.00  0.00    -0.218 C  
HETATM   39  C   UNL     1     -12.358  15.753  68.853  1.00  0.00     0.222 C  
HETATM   40  C   UNL     1     -11.765  16.555  71.170  1.00  0.00     0.037 C  
ENDBRANCH  34  37
ENDBRANCH  30  31
ENDBRANCH   4  30
TORSDOF 17
ENDMDL
MODEL      236
REMARK 921   NORMALIZED FREE ENERGY PREDICTED BY IDOCK:   -3.40 KCAL/MOL
REMARK 922        TOTAL FREE ENERGY PREDICTED BY IDOCK:   -9.02 KCAL/MOL
REMARK 923 INTER-LIGAND FREE ENERGY PREDICTED BY IDOCK:   -8.08 KCAL/MOL
REMARK 924 INTRA-LIGAND FREE ENERGY PREDICTED BY IDOCK:   -0.93 KCAL/MOL
REMARK 927      BINDING AFFINITY PREDICTED BY RF-SCORE:    0.00 PKD
ROOT
HETATM    1  C   UNL     1      -5.878   7.085  71.930  1.00  0.00    -0.037 C  
HETATM    2  N   UNL     1      -6.768   7.776  71.012  1.00  0.00    -0.038 N  
HETATM    3  O   UNL     1      -8.849   7.794  69.994  1.00  0.00    -0.140 OA 
HETATM    4  C   UNL     1      -8.078   7.351  70.840  1.00  0.00    -0.105 C  
ENDROOT
BRANCH   2   5
HETATM    5  C   UNL     1      -6.202   8.769  70.101  1.00  0.00    -0.034 C  
BRANCH   5   6
HETATM    6  C   UNL     1      -6.684  10.196  70.395  1.00  0.00    -0.134 C  
BRANCH   6   7
HETATM    7  C   UNL     1      -5.531  11.203  70.307  1.00  0.00    -0.102 C  
BRANCH   7   8
HETATM    8  C   UNL     1      -6.035  12.652  70.304  1.00  0.00    -0.122 C  
BRANCH   8   9
HETATM    9  C   UNL     1      -5.678  13.362  68.994  1.00  0.00    -0.076 C  
BRANCH   9  10
HETATM   10  C   UNL     1      -6.670  14.483  68.670  1.00  0.00    -0.088 C  
BRANCH  10  11
HETATM   11  C   UNL     1      -8.071  13.970  68.321  1.00  0.00    -0.148 C  
BRANCH  11  12
HETATM   12  C   UNL     1      -8.613  14.547  67.015  1.00  0.00    -0.241 C  
BRANCH  12  13
HETATM   13  C   UNL     1      -9.335  15.873  67.244  1.00  0.00    -0.218 C  
BRANCH  13  14
HETATM   14  C   UNL     1     -10.830  15.637  67.399  1.00  0.00    -0.315 C  
BRANCH  14  15
HETATM   15  N   UNL     1     -11.377  14.889  66.276  1.00  0.00    -0.334 N  
HETATM   16  C   UNL     1     -11.990  13.670  66.505  1.00  0.00    -0.424 C  
HETATM   17  C   UNL     1     -11.308  15.466  64.941  1.00  0.00    -0.363 C  
HETATM   18  O   UNL     1     -12.047  13.118  67.598  1.00  0.00    -0.331 OA 
BRANCH  16  19
HETATM   19  O   UNL     1     -12.414  13.076  65.325  1.00  0.00    -0.468 OA 
BRANCH  19  20
HETATM   20  C   UNL     1     -11.534  12.097  64.852  1.00  0.00    -0.325 A  
HETATM   21  C   UNL     1     -11.226  12.120  63.497  1.00  0.00    -0.536 A  
HETATM   22  C   UNL     1     -10.264  11.235  63.022  1.00  0.00    -0.293 A  
HETATM   23  C   UNL     1      -9.626  10.343  63.890  1.00  0.00    -0.370 A  
HETATM   24  C   UNL     1      -9.944  10.308  65.259  1.00  0.00    -0.317 A  
HETATM   25  C   UNL     1     -10.881  11.225  65.735  1.00  0.00    -0.257 A  
BRANCH  24  26
HETATM   26  N   UNL     1      -9.218   9.389  66.229  1.00  0.00    -0.167 N  
HETATM   27  C   UNL     1      -8.216   8.501  65.498  1.00  0.00    -0.137 C  
HETATM   28  C   UNL     1     -10.211   8.458  66.937  1.00  0.00    -0.313 C  
HETATM   29  C   UNL     1      -8.500  10.264  67.246  1.00  0.00    -0.125 C  
ENDBRANCH  24  26
ENDBRANCH  19  20
ENDBRANCH  16  19
ENDBRANCH  14  15
ENDBRANCH  13  14
ENDBRANCH  12  13
ENDBRANCH  11  12
ENDBRANCH  10  11
ENDBRANCH   9  10
ENDBRANCH   8   9
ENDBRANCH   7   8
ENDBRANCH   6   7
ENDBRANCH   5   6
ENDBRANCH   2   5
BRANCH   4  30
HETATM   30  O   UNL     1      -8.416   6.299  71.696  1.00  0.00    -0.128 OA 
BRANCH  30  31
HETATM   31  C   UNL     1      -8.727   5.106  71.022  1.00  0.00    -0.128 A  
HETATM   32  C   UNL     1      -9.287   4.037  71.724  1.00  0.00    -0.194 A  
HETATM   33  C   UNL     1      -8.568   5.060  69.633  1.00  0.00    -0.099 A  
HETATM   34  C   UNL     1      -8.935   3.898  68.933  1.00  0.00    -0.120 A  
HETATM   35  C   UNL     1      -9.638   2.885  71.044  1.00  0.00    -0.219 A  
HETATM   36  C   UNL     1      -9.455   2.813  69.664  1.00  0.00    -0.148 A  
BRANCH  34  37
HETATM   37  N   UNL     1      -8.671   3.767  67.438  1.00  0.00    -0.106 N  
HETATM   38  C   UNL     1      -8.904   2.336  66.951  1.00  0.00    -0.131 C  
HETATM   39  C   UNL     1      -9.613   4.667  66.638  1.00  0.00    -0.182 C  
HETATM   40  C   UNL     1      -7.209   4.150  67.203  1.00  0.00    -0.068 C  
ENDBRANCH  34  37
ENDBRANCH  30  31
ENDBRANCH   4  30
TORSDOF 17
ENDMDL
MODEL      237
REMARK 921   NORMALIZED FREE ENERGY PREDICTED BY IDOCK:   -3.39 KCAL/MOL
REMARK 922        TOTAL FREE ENERGY PREDICTED BY IDOCK:   -8.99 KCAL/MOL
REMARK 923 INTER-LIGAND FREE ENERGY PREDICTED BY IDOCK:   -8.35 KCAL/MOL
REMARK 924 INTRA-LIGAND FREE ENERGY PREDICTED BY IDOCK:   -0.64 KCAL/MOL
REMARK 927      BINDING AFFINITY PREDICTED BY RF-SCORE:    0.00 PKD
ROOT
HETATM    1  C   UNL     1     -11.992  13.663  68.512  1.00  0.00    -0.361 C  
HETATM    2  N   UNL     1     -11.549  14.266  67.267  1.00  0.00    -0.358 N  
HETATM    3  O   UNL     1     -10.983  13.908  65.049  1.00  0.00    -0.330 OA 
HETATM    4  C   UNL     1     -11.468  13.512  66.104  1.00  0.00    -0.325 C  
ENDROOT
BRANCH   2   5
HETATM    5  C   UNL     1     -10.966  15.606  67.304  1.00  0.00    -0.275 C  
BRANCH   5   6
HETATM    6  C   UNL     1     -10.781  16.140  68.731  1.00  0.00    -0.294 C  
BRANCH   6   7
HETATM    7  C   UNL     1      -9.702  15.353  69.485  1.00  0.00    -0.259 C  
BRANCH   7   8
HETATM    8  C   UNL     1      -8.314  15.541  68.859  1.00  0.00    -0.205 C  
BRANCH   8   9
HETATM    9  C   UNL     1      -7.755  14.213  68.340  1.00  0.00    -0.140 C  
BRANCH   9  10
HETATM   10  C   UNL     1      -6.403  13.880  68.979  1.00  0.00    -0.099 C  
BRANCH  10  11
HETATM   11  C   UNL     1      -5.899  12.475  68.632  1.00  0.00    -0.059 C  
BRANCH  11  12
HETATM   12  C   UNL     1      -6.244  11.434  69.696  1.00  0.00    -0.118 C  
BRANCH  12  13
HETATM   13  C   UNL     1      -7.652  10.877  69.499  1.00  0.00    -0.057 C  
BRANCH  13  14
HETATM   14  C   UNL     1      -7.672   9.385  69.796  1.00  0.00    -0.110 C  
BRANCH  14  15
HETATM   15  N   UNL     1      -8.517   9.074  70.939  1.00  0.00    -0.194 N  
HETATM   16  C   UNL     1      -7.948   8.537  72.080  1.00  0.00    -0.105 C  
HETATM   17  C   UNL     1      -9.940   9.378  70.871  1.00  0.00    -0.283 C  
HETATM   18  O   UNL     1      -6.767   8.226  72.184  1.00  0.00    -0.069 OA 
BRANCH  16  19
HETATM   19  O   UNL     1      -8.900   8.262  73.051  1.00  0.00    -0.226 OA 
BRANCH  19  20
HETATM   20  C   UNL     1      -9.370   6.945  73.007  1.00  0.00    -0.140 A  
HETATM   21  C   UNL     1     -10.608   6.692  73.587  1.00  0.00    -0.323 A  
HETATM   22  C   UNL     1     -11.153   5.420  73.453  1.00  0.00    -0.326 A  
HETATM   23  C   UNL     1     -10.468   4.421  72.753  1.00  0.00    -0.253 A  
HETATM   24  C   UNL     1      -9.211   4.670  72.176  1.00  0.00    -0.127 A  
HETATM   25  C   UNL     1      -8.688   5.958  72.281  1.00  0.00    -0.128 A  
BRANCH  24  26
HETATM   26  N   UNL     1      -8.479   3.616  71.360  1.00  0.00    -0.071 N  
HETATM   27  C   UNL     1      -7.358   4.241  70.536  1.00  0.00    -0.048 C  
HETATM   28  C   UNL     1      -9.436   2.935  70.372  1.00  0.00    -0.131 C  
HETATM   29  C   UNL     1      -7.909   2.593  72.331  1.00  0.00    -0.054 C  
ENDBRANCH  24  26
ENDBRANCH  19  20
ENDBRANCH  16  19
ENDBRANCH  14  15
ENDBRANCH  13  14
ENDBRANCH  12  13
ENDBRANCH  11  12
ENDBRANCH  10  11
ENDBRANCH   9  10
ENDBRANCH   8   9
ENDBRANCH   7   8
ENDBRANCH   6   7
ENDBRANCH   5   6
ENDBRANCH   2   5
BRANCH   4  30
HETATM   30  O   UNL     1     -11.939  12.207  66.279  1.00  0.00    -0.605 OA 
BRANCH  30  31
HETATM   31  C   UNL     1     -10.949  11.226  66.101  1.00  0.00    -0.191 A  
HETATM   32  C   UNL     1     -10.757  10.248  67.079  1.00  0.00    -0.281 A  
HETATM   33  C   UNL     1     -10.250  11.191  64.891  1.00  0.00    -0.361 A  
HETATM   34  C   UNL     1      -9.300  10.178  64.670  1.00  0.00    -0.277 A  
HETATM   35  C   UNL     1      -9.815   9.256  66.874  1.00  0.00    -0.276 A  
HETATM   36  C   UNL     1      -9.088   9.227  65.685  1.00  0.00    -0.268 A  
BRANCH  34  37
HETATM   37  N   UNL     1      -8.438  10.172  63.413  1.00  0.00    -0.172 N  
HETATM   38  C   UNL     1      -8.592   8.865  62.634  1.00  0.00    -0.180 C  
HETATM   39  C   UNL     1      -8.844  11.303  62.468  1.00  0.00    -0.216 C  
HETATM   40  C   UNL     1      -6.984  10.324  63.863  1.00  0.00    -0.055 C  
ENDBRANCH  34  37
ENDBRANCH  30  31
ENDBRANCH   4  30
TORSDOF 17
ENDMDL
MODEL      238
REMARK 921   NORMALIZED FREE ENERGY PREDICTED BY IDOCK:   -3.38 KCAL/MOL
REMARK 922        TOTAL FREE ENERGY PREDICTED BY IDOCK:   -8.97 KCAL/MOL
REMARK 923 INTER-LIGAND FREE ENERGY PREDICTED BY IDOCK:   -6.58 KCAL/MOL
REMARK 924 INTRA-LIGAND FREE ENERGY PREDICTED BY IDOCK:   -2.39 KCAL/MOL
REMARK 927      BINDING AFFINITY PREDICTED BY RF-SCORE:    0.00 PKD
ROOT
HETATM    1  C   UNL     1      -6.581   8.653  69.032  1.00  0.00    -0.048 C  
HETATM    2  N   UNL     1      -7.933   8.190  69.295  1.00  0.00    -0.113 N  
HETATM    3  O   UNL     1     -10.022   7.738  68.401  1.00  0.00    -0.167 OA 
HETATM    4  C   UNL     1      -8.831   7.999  68.254  1.00  0.00    -0.133 C  
ENDROOT
BRANCH   2   5
HETATM    5  C   UNL     1      -8.406   8.155  70.678  1.00  0.00    -0.123 C  
BRANCH   5   6
HETATM    6  C   UNL     1      -9.415   9.268  70.994  1.00  0.00    -0.313 C  
BRANCH   6   7
HETATM    7  C   UNL     1     -10.434   8.814  72.046  1.00  0.00    -0.414 C  
BRANCH   7   8
HETATM    8  C   UNL     1     -11.817   8.562  71.432  1.00  0.00    -0.345 C  
BRANCH   8   9
HETATM    9  C   UNL     1     -12.047   7.070  71.173  1.00  0.00    -0.412 C  
BRANCH   9  10
HETATM   10  C   UNL     1     -11.598   6.214  72.361  1.00  0.00    -0.338 C  
BRANCH  10  11
HETATM   11  C   UNL     1     -10.955   4.887  71.943  1.00  0.00     0.026 C  
BRANCH  11  12
HETATM   12  C   UNL     1      -9.547   4.700  72.503  1.00  0.00    -0.178 C  
BRANCH  12  13
HETATM   13  C   UNL     1      -8.499   4.683  71.393  1.00  0.00    -0.113 C  
BRANCH  13  14
HETATM   14  C   UNL     1      -9.176   4.629  70.032  1.00  0.00    -0.123 C  
BRANCH  14  15
HETATM   15  N   UNL     1      -8.698   3.509  69.235  1.00  0.00    -0.077 N  
HETATM   16  C   UNL     1      -7.719   3.721  68.282  1.00  0.00    -0.065 C  
HETATM   17  C   UNL     1      -9.231   2.179  69.493  1.00  0.00    -0.112 C  
HETATM   18  O   UNL     1      -7.259   4.821  67.995  1.00  0.00    -0.064 OA 
BRANCH  16  19
HETATM   19  O   UNL     1      -7.413   2.560  67.588  1.00  0.00    -0.056 OA 
BRANCH  19  20
HETATM   20  C   UNL     1      -7.338   2.747  66.203  1.00  0.00    -0.067 A  
HETATM   21  C   UNL     1      -6.126   2.460  65.587  1.00  0.00    -0.023 A  
HETATM   22  C   UNL     1      -6.057   2.522  64.200  1.00  0.00    -0.014 A  
HETATM   23  C   UNL     1      -7.183   2.869  63.446  1.00  0.00    -0.049 A  
HETATM   24  C   UNL     1      -8.408   3.172  64.066  1.00  0.00    -0.090 A  
HETATM   25  C   UNL     1      -8.479   3.070  65.454  1.00  0.00    -0.100 A  
BRANCH  24  26
HETATM   26  N   UNL     1      -9.658   3.491  63.261  1.00  0.00    -0.109 N  
HETATM   27  C   UNL     1     -10.043   2.323  62.359  1.00  0.00    -0.088 C  
HETATM   28  C   UNL     1      -9.421   4.702  62.350  1.00  0.00    -0.072 C  
HETATM   29  C   UNL     1     -10.780   3.785  64.247  1.00  0.00    -0.201 C  
ENDBRANCH  24  26
ENDBRANCH  19  20
ENDBRANCH  16  19
ENDBRANCH  14  15
ENDBRANCH  13  14
ENDBRANCH  12  13
ENDBRANCH  11  12
ENDBRANCH  10  11
ENDBRANCH   9  10
ENDBRANCH   8   9
ENDBRANCH   7   8
ENDBRANCH   6   7
ENDBRANCH   5   6
ENDBRANCH   2   5
BRANCH   4  30
HETATM   30  O   UNL     1      -8.250   8.208  67.000  1.00  0.00    -0.113 OA 
BRANCH  30  31
HETATM   31  C   UNL     1      -8.830   9.269  66.284  1.00  0.00    -0.146 A  
HETATM   32  C   UNL     1      -9.104   9.120  64.923  1.00  0.00    -0.190 A  
HETATM   33  C   UNL     1      -9.220  10.415  66.983  1.00  0.00    -0.165 A  
HETATM   34  C   UNL     1      -9.859  11.461  66.294  1.00  0.00    -0.218 A  
HETATM   35  C   UNL     1      -9.721  10.149  64.236  1.00  0.00    -0.326 A  
HETATM   36  C   UNL     1     -10.087  11.312  64.913  1.00  0.00    -0.333 A  
BRANCH  34  37
HETATM   37  N   UNL     1     -10.196  12.771  66.996  1.00  0.00    -0.240 N  
HETATM   38  C   UNL     1      -9.456  12.901  68.327  1.00  0.00    -0.206 C  
HETATM   39  C   UNL     1      -9.785  13.969  66.139  1.00  0.00    -0.280 C  
HETATM   40  C   UNL     1     -11.704  12.769  67.253  1.00  0.00    -0.378 C  
ENDBRANCH  34  37
ENDBRANCH  30  31
ENDBRANCH   4  30
TORSDOF 17
ENDMDL
MODEL      239
REMARK 921   NORMALIZED FREE ENERGY PREDICTED BY IDOCK:   -3.37 KCAL/MOL
REMARK 922        TOTAL FREE ENERGY PREDICTED BY IDOCK:   -8.95 KCAL/MOL
REMARK 923 INTER-LIGAND FREE ENERGY PREDICTED BY IDOCK:   -6.93 KCAL/MOL
REMARK 924 INTRA-LIGAND FREE ENERGY PREDICTED BY IDOCK:   -2.02 KCAL/MOL
REMARK 927      BINDING AFFINITY PREDICTED BY RF-SCORE:    0.00 PKD
ROOT
HETATM    1  C   UNL     1     -10.897  12.494  65.246  1.00  0.00    -0.286 C  
HETATM    2  N   UNL     1     -10.365  11.324  65.924  1.00  0.00    -0.246 N  
HETATM    3  O   UNL     1      -9.396  10.492  67.857  1.00  0.00    -0.141 OA 
HETATM    4  C   UNL     1      -9.973  11.392  67.253  1.00  0.00    -0.194 C  
ENDROOT
BRANCH   2   5
HETATM    5  C   UNL     1     -10.029  10.145  65.128  1.00  0.00    -0.309 C  
BRANCH   5   6
HETATM    6  C   UNL     1      -8.560  10.119  64.685  1.00  0.00    -0.193 C  
BRANCH   6   7
HETATM    7  C   UNL     1      -8.311   9.023  63.642  1.00  0.00    -0.178 C  
BRANCH   7   8
HETATM    8  C   UNL     1      -8.016   7.667  64.295  1.00  0.00    -0.112 C  
BRANCH   8   9
HETATM    9  C   UNL     1      -7.601   7.834  65.760  1.00  0.00    -0.084 C  
BRANCH   9  10
HETATM   10  C   UNL     1      -6.426   6.922  66.123  1.00  0.00    -0.051 C  
BRANCH  10  11
HETATM   11  C   UNL     1      -6.833   5.725  66.989  1.00  0.00    -0.063 C  
BRANCH  11  12
HETATM   12  C   UNL     1      -7.448   4.583  66.184  1.00  0.00    -0.085 C  
BRANCH  12  13
HETATM   13  C   UNL     1      -7.758   3.377  67.068  1.00  0.00    -0.079 C  
BRANCH  13  14
HETATM   14  C   UNL     1      -9.259   3.262  67.291  1.00  0.00    -0.192 C  
BRANCH  14  15
HETATM   15  N   UNL     1      -9.656   3.805  68.582  1.00  0.00    -0.142 N  
HETATM   16  C   UNL     1     -10.346   5.002  68.633  1.00  0.00    -0.028 C  
HETATM   17  C   UNL     1      -9.356   3.049  69.790  1.00  0.00    -0.145 C  
HETATM   18  O   UNL     1     -10.594   5.700  67.656  1.00  0.00    -0.226 OA 
BRANCH  16  19
HETATM   19  O   UNL     1     -10.605   5.394  69.939  1.00  0.00    -0.307 OA 
BRANCH  19  20
HETATM   20  C   UNL     1     -10.070   6.646  70.257  1.00  0.00    -0.179 A  
HETATM   21  C   UNL     1     -10.959   7.633  70.665  1.00  0.00    -0.259 A  
HETATM   22  C   UNL     1     -10.444   8.849  71.101  1.00  0.00    -0.336 A  
HETATM   23  C   UNL     1      -9.063   9.070  71.126  1.00  0.00    -0.316 A  
HETATM   24  C   UNL     1      -8.161   8.078  70.703  1.00  0.00    -0.114 A  
HETATM   25  C   UNL     1      -8.683   6.849  70.303  1.00  0.00    -0.144 A  
BRANCH  24  26
HETATM   26  N   UNL     1      -6.655   8.277  70.779  1.00  0.00    -0.037 N  
HETATM   27  C   UNL     1      -6.263   9.017  72.053  1.00  0.00    -0.028 C  
HETATM   28  C   UNL     1      -6.161   9.123  69.598  1.00  0.00    -0.039 C  
HETATM   29  C   UNL     1      -6.005   6.901  70.750  1.00  0.00    -0.028 C  
ENDBRANCH  24  26
ENDBRANCH  19  20
ENDBRANCH  16  19
ENDBRANCH  14  15
ENDBRANCH  13  14
ENDBRANCH  12  13
ENDBRANCH  11  12
ENDBRANCH  10  11
ENDBRANCH   9  10
ENDBRANCH   8   9
ENDBRANCH   7   8
ENDBRANCH   6   7
ENDBRANCH   5   6
ENDBRANCH   2   5
BRANCH   4  30
HETATM   30  O   UNL     1     -10.241  12.639  67.827  1.00  0.00    -0.213 OA 
BRANCH  30  31
HETATM   31  C   UNL     1      -9.137  13.508  67.816  1.00  0.00    -0.207 A  
HETATM   32  C   UNL     1      -7.851  13.000  68.008  1.00  0.00    -0.146 A  
HETATM   33  C   UNL     1      -9.347  14.855  67.504  1.00  0.00    -0.193 A  
HETATM   34  C   UNL     1      -8.248  15.727  67.427  1.00  0.00    -0.173 A  
HETATM   35  C   UNL     1      -6.765  13.854  67.946  1.00  0.00    -0.165 A  
HETATM   36  C   UNL     1      -6.962  15.206  67.667  1.00  0.00    -0.206 A  
BRANCH  34  37
HETATM   37  N   UNL     1      -8.446  17.221  67.202  1.00  0.00    -0.200 N  
HETATM   38  C   UNL     1      -7.484  17.761  66.142  1.00  0.00    -0.287 C  
HETATM   39  C   UNL     1      -9.862  17.514  66.706  1.00  0.00    -0.306 C  
HETATM   40  C   UNL     1      -8.173  17.918  68.536  1.00  0.00    -0.295 C  
ENDBRANCH  34  37
ENDBRANCH  30  31
ENDBRANCH   4  30
TORSDOF 17
ENDMDL
MODEL      240
REMARK 921   NORMALIZED FREE ENERGY PREDICTED BY IDOCK:   -3.33 KCAL/MOL
REMARK 922        TOTAL FREE ENERGY PREDICTED BY IDOCK:   -8.88 KCAL/MOL
REMARK 923 INTER-LIGAND FREE ENERGY PREDICTED BY IDOCK:   -7.05 KCAL/MOL
REMARK 924 INTRA-LIGAND FREE ENERGY PREDICTED BY IDOCK:   -1.83 KCAL/MOL
REMARK 927      BINDING AFFINITY PREDICTED BY RF-SCORE:    0.00 PKD
ROOT
HETATM    1  C   UNL     1     -11.795   9.978  70.397  1.00  0.00    -0.262 C  
HETATM    2  N   UNL     1     -10.466   9.728  69.865  1.00  0.00    -0.241 N  
HETATM    3  O   UNL     1      -8.272   9.167  70.350  1.00  0.00    -0.132 OA 
HETATM    4  C   UNL     1      -9.446   9.276  70.690  1.00  0.00    -0.272 C  
ENDROOT
BRANCH   2   5
HETATM    5  C   UNL     1     -10.157  10.183  68.510  1.00  0.00    -0.169 C  
BRANCH   5   6
HETATM    6  C   UNL     1      -9.532  11.585  68.477  1.00  0.00    -0.175 C  
BRANCH   6   7
HETATM    7  C   UNL     1     -10.595  12.673  68.675  1.00  0.00    -0.245 C  
BRANCH   7   8
HETATM    8  C   UNL     1     -11.712  12.580  67.629  1.00  0.00    -0.423 C  
BRANCH   8   9
HETATM    9  C   UNL     1     -11.206  12.978  66.239  1.00  0.00    -0.332 C  
BRANCH   9  10
HETATM   10  C   UNL     1     -11.966  12.246  65.129  1.00  0.00    -0.395 C  
BRANCH  10  11
HETATM   11  C   UNL     1     -11.087  11.895  63.924  1.00  0.00    -0.483 C  
BRANCH  11  12
HETATM   12  C   UNL     1      -9.772  11.224  64.315  1.00  0.00    -0.295 C  
BRANCH  12  13
HETATM   13  C   UNL     1      -9.353  10.171  63.292  1.00  0.00    -0.332 C  
BRANCH  13  14
HETATM   14  C   UNL     1      -7.906  10.389  62.875  1.00  0.00    -0.137 C  
BRANCH  14  15
HETATM   15  N   UNL     1      -6.986   9.612  63.692  1.00  0.00    -0.106 N  
HETATM   16  C   UNL     1      -6.794   8.272  63.413  1.00  0.00    -0.085 C  
HETATM   17  C   UNL     1      -6.252  10.280  64.758  1.00  0.00    -0.124 C  
HETATM   18  O   UNL     1      -7.408   7.648  62.554  1.00  0.00    -0.084 OA 
BRANCH  16  19
HETATM   19  O   UNL     1      -5.921   7.677  64.313  1.00  0.00    -0.046 OA 
BRANCH  19  20
HETATM   20  C   UNL     1      -6.446   6.527  64.914  1.00  0.00    -0.041 A  
HETATM   21  C   UNL     1      -5.714   5.352  64.786  1.00  0.00    -0.017 A  
HETATM   22  C   UNL     1      -6.150   4.224  65.472  1.00  0.00    -0.024 A  
HETATM   23  C   UNL     1      -7.298   4.274  66.269  1.00  0.00    -0.080 A  
HETATM   24  C   UNL     1      -8.047   5.457  66.391  1.00  0.00    -0.105 A  
HETATM   25  C   UNL     1      -7.584   6.594  65.731  1.00  0.00    -0.085 A  
BRANCH  24  26
HETATM   26  N   UNL     1      -9.263   5.547  67.300  1.00  0.00    -0.110 N  
HETATM   27  C   UNL     1      -9.643   4.175  67.846  1.00  0.00    -0.148 C  
HETATM   28  C   UNL     1     -10.479   6.075  66.526  1.00  0.00    -0.163 C  
HETATM   29  C   UNL     1      -8.917   6.490  68.443  1.00  0.00    -0.125 C  
ENDBRANCH  24  26
ENDBRANCH  19  20
ENDBRANCH  16  19
ENDBRANCH  14  15
ENDBRANCH  13  14
ENDBRANCH  12  13
ENDBRANCH  11  12
ENDBRANCH  10  11
ENDBRANCH   9  10
ENDBRANCH   8   9
ENDBRANCH   7   8
ENDBRANCH   6   7
ENDBRANCH   5   6
ENDBRANCH   2   5
BRANCH   4  30
HETATM   30  O   UNL     1      -9.885   9.019  71.992  1.00  0.00    -0.311 OA 
BRANCH  30  31
HETATM   31  C   UNL     1      -9.843   7.658  72.339  1.00  0.00    -0.181 A  
HETATM   32  C   UNL     1     -10.964   7.053  72.910  1.00  0.00    -0.337 A  
HETATM   33  C   UNL     1      -8.708   6.915  72.002  1.00  0.00    -0.126 A  
HETATM   34  C   UNL     1      -8.673   5.539  72.284  1.00  0.00    -0.129 A  
HETATM   35  C   UNL     1     -10.933   5.701  73.202  1.00  0.00    -0.326 A  
HETATM   36  C   UNL     1      -9.795   4.954  72.901  1.00  0.00    -0.181 A  
BRANCH  34  37
HETATM   37  N   UNL     1      -7.413   4.718  72.037  1.00  0.00    -0.079 N  
HETATM   38  C   UNL     1      -6.363   5.522  71.268  1.00  0.00    -0.035 C  
HETATM   39  C   UNL     1      -6.770   4.296  73.358  1.00  0.00    -0.053 C  
HETATM   40  C   UNL     1      -7.824   3.500  71.209  1.00  0.00    -0.059 C  
ENDBRANCH  34  37
ENDBRANCH  30  31
ENDBRANCH   4  30
TORSDOF 17
ENDMDL
MODEL      241
REMARK 921   NORMALIZED FREE ENERGY PREDICTED BY IDOCK:   -3.31 KCAL/MOL
REMARK 922        TOTAL FREE ENERGY PREDICTED BY IDOCK:   -8.83 KCAL/MOL
REMARK 923 INTER-LIGAND FREE ENERGY PREDICTED BY IDOCK:   -8.51 KCAL/MOL
REMARK 924 INTRA-LIGAND FREE ENERGY PREDICTED BY IDOCK:   -0.33 KCAL/MOL
REMARK 927      BINDING AFFINITY PREDICTED BY RF-SCORE:    0.00 PKD
ROOT
HETATM    1  C   UNL     1     -11.107  16.422  69.982  1.00  0.00    -0.294 C  
HETATM    2  N   UNL     1     -10.162  15.810  69.064  1.00  0.00    -0.211 N  
HETATM    3  O   UNL     1      -9.253  15.837  66.933  1.00  0.00    -0.208 OA 
HETATM    4  C   UNL     1      -9.932  16.361  67.811  1.00  0.00    -0.248 C  
ENDROOT
BRANCH   2   5
HETATM    5  C   UNL     1      -9.636  14.483  69.380  1.00  0.00     0.143 C  
BRANCH   5   6
HETATM    6  C   UNL     1     -10.100  13.403  68.393  1.00  0.00    -0.244 C  
BRANCH   6   7
HETATM    7  C   UNL     1     -11.590  13.554  68.062  1.00  0.00    -0.372 C  
BRANCH   7   8
HETATM    8  C   UNL     1     -11.917  13.053  66.650  1.00  0.00    -0.453 C  
BRANCH   8   9
HETATM    9  C   UNL     1     -11.491  11.593  66.466  1.00  0.00    -0.260 C  
BRANCH   9  10
HETATM   10  C   UNL     1     -10.840  11.361  65.100  1.00  0.00    -0.302 C  
BRANCH  10  11
HETATM   11  C   UNL     1      -9.316  11.522  65.120  1.00  0.00    -0.129 C  
BRANCH  11  12
HETATM   12  C   UNL     1      -8.592  10.307  65.695  1.00  0.00    -0.170 C  
BRANCH  12  13
HETATM   13  C   UNL     1      -9.489   9.072  65.706  1.00  0.00    -0.305 C  
BRANCH  13  14
HETATM   14  C   UNL     1      -9.829   8.683  67.137  1.00  0.00    -0.207 C  
BRANCH  14  15
HETATM   15  N   UNL     1      -8.928   7.659  67.646  1.00  0.00    -0.127 N  
HETATM   16  C   UNL     1      -9.171   6.331  67.350  1.00  0.00    -0.116 C  
HETATM   17  C   UNL     1      -7.763   8.064  68.421  1.00  0.00    -0.117 C  
HETATM   18  O   UNL     1     -10.153   5.927  66.735  1.00  0.00    -0.160 OA 
BRANCH  16  19
HETATM   19  O   UNL     1      -8.245   5.489  67.948  1.00  0.00    -0.100 OA 
BRANCH  19  20
HETATM   20  C   UNL     1      -8.816   4.601  68.865  1.00  0.00    -0.099 A  
HETATM   21  C   UNL     1      -8.914   3.268  68.482  1.00  0.00    -0.185 A  
HETATM   22  C   UNL     1      -9.367   2.343  69.417  1.00  0.00    -0.167 A  
HETATM   23  C   UNL     1      -9.717   2.748  70.709  1.00  0.00    -0.109 A  
HETATM   24  C   UNL     1      -9.631   4.097  71.096  1.00  0.00    -0.179 A  
HETATM   25  C   UNL     1      -9.140   5.012  70.166  1.00  0.00    -0.163 A  
BRANCH  24  26
HETATM   26  N   UNL     1      -9.949   4.548  72.513  1.00  0.00    -0.164 N  
HETATM   27  C   UNL     1      -8.707   5.101  73.204  1.00  0.00    -0.116 C  
HETATM   28  C   UNL     1     -10.445   3.368  73.358  1.00  0.00    -0.175 C  
HETATM   29  C   UNL     1     -11.023   5.622  72.426  1.00  0.00    -0.259 C  
ENDBRANCH  24  26
ENDBRANCH  19  20
ENDBRANCH  16  19
ENDBRANCH  14  15
ENDBRANCH  13  14
ENDBRANCH  12  13
ENDBRANCH  11  12
ENDBRANCH  10  11
ENDBRANCH   9  10
ENDBRANCH   8   9
ENDBRANCH   7   8
ENDBRANCH   6   7
ENDBRANCH   5   6
ENDBRANCH   2   5
BRANCH   4  30
HETATM   30  O   UNL     1     -10.622  17.562  67.620  1.00  0.00    -0.364 OA 
BRANCH  30  31
HETATM   31  C   UNL     1      -9.783  18.687  67.558  1.00  0.00    -0.310 A  
HETATM   32  C   UNL     1     -10.281  19.900  67.078  1.00  0.00    -0.588 A  
HETATM   33  C   UNL     1      -8.491  18.589  68.084  1.00  0.00    -0.317 A  
HETATM   34  C   UNL     1      -7.658  19.722  68.088  1.00  0.00    -0.304 A  
HETATM   35  C   UNL     1      -9.464  21.015  67.067  1.00  0.00    -0.117 A  
HETATM   36  C   UNL     1      -8.162  20.925  67.559  1.00  0.00    -0.102 A  
BRANCH  34  37
HETATM   37  N   UNL     1      -6.208  19.627  68.547  1.00  0.00    -0.236 N  
HETATM   38  C   UNL     1      -6.058  18.683  69.740  1.00  0.00    -0.234 C  
HETATM   39  C   UNL     1      -5.318  19.079  67.431  1.00  0.00    -0.159 C  
HETATM   40  C   UNL     1      -5.773  21.035  68.958  1.00  0.00    -0.276 C  
ENDBRANCH  34  37
ENDBRANCH  30  31
ENDBRANCH   4  30
TORSDOF 17
ENDMDL
MODEL      242
REMARK 921   NORMALIZED FREE ENERGY PREDICTED BY IDOCK:   -3.29 KCAL/MOL
REMARK 922        TOTAL FREE ENERGY PREDICTED BY IDOCK:   -8.79 KCAL/MOL
REMARK 923 INTER-LIGAND FREE ENERGY PREDICTED BY IDOCK:   -7.33 KCAL/MOL
REMARK 924 INTRA-LIGAND FREE ENERGY PREDICTED BY IDOCK:   -1.46 KCAL/MOL
REMARK 927      BINDING AFFINITY PREDICTED BY RF-SCORE:    0.00 PKD
ROOT
HETATM    1  C   UNL     1      -8.953  11.217  66.745  1.00  0.00    -0.165 C  
HETATM    2  N   UNL     1      -7.998  12.093  67.401  1.00  0.00    -0.159 N  
HETATM    3  O   UNL     1      -7.452  14.274  67.959  1.00  0.00    -0.113 OA 
HETATM    4  C   UNL     1      -8.258  13.449  67.538  1.00  0.00    -0.185 C  
ENDROOT
BRANCH   2   5
HETATM    5  C   UNL     1      -6.664  11.576  67.702  1.00  0.00    -0.079 C  
BRANCH   5   6
HETATM    6  C   UNL     1      -6.313  11.656  69.194  1.00  0.00    -0.084 C  
BRANCH   6   7
HETATM    7  C   UNL     1      -5.730  10.331  69.702  1.00  0.00    -0.039 C  
BRANCH   7   8
HETATM    8  C   UNL     1      -5.842   9.218  68.653  1.00  0.00    -0.041 C  
BRANCH   8   9
HETATM    9  C   UNL     1      -5.387   7.870  69.222  1.00  0.00    -0.026 C  
BRANCH   9  10
HETATM   10  C   UNL     1      -5.487   7.839  70.750  1.00  0.00    -0.026 C  
BRANCH  10  11
HETATM   11  C   UNL     1      -6.781   7.196  71.259  1.00  0.00    -0.051 C  
BRANCH  11  12
HETATM   12  C   UNL     1      -7.573   8.104  72.198  1.00  0.00    -0.142 C  
BRANCH  12  13
HETATM   13  C   UNL     1      -7.295   7.775  73.663  1.00  0.00    -0.149 C  
BRANCH  13  14
HETATM   14  C   UNL     1      -8.593   7.433  74.380  1.00  0.00    -0.209 C  
BRANCH  14  15
HETATM   15  N   UNL     1      -9.536   6.761  73.498  1.00  0.00    -0.151 N  
HETATM   16  C   UNL     1      -9.315   5.443  73.143  1.00  0.00    -0.139 C  
HETATM   17  C   UNL     1     -10.718   7.482  73.046  1.00  0.00    -0.384 C  
HETATM   18  O   UNL     1      -8.323   4.797  73.461  1.00  0.00    -0.105 OA 
BRANCH  16  19
HETATM   19  O   UNL     1     -10.283   4.975  72.266  1.00  0.00    -0.188 OA 
BRANCH  19  20
HETATM   20  C   UNL     1      -9.838   4.896  70.942  1.00  0.00    -0.207 A  
HETATM   21  C   UNL     1      -9.550   3.631  70.442  1.00  0.00    -0.254 A  
HETATM   22  C   UNL     1      -9.221   3.510  69.097  1.00  0.00    -0.225 A  
HETATM   23  C   UNL     1      -9.179   4.638  68.270  1.00  0.00    -0.166 A  
HETATM   24  C   UNL     1      -9.458   5.920  68.774  1.00  0.00    -0.126 A  
HETATM   25  C   UNL     1      -9.825   6.028  70.115  1.00  0.00    -0.217 A  
BRANCH  24  26
HETATM   26  N   UNL     1      -9.477   7.149  67.878  1.00  0.00    -0.130 N  
HETATM   27  C   UNL     1      -8.317   7.125  66.889  1.00  0.00    -0.118 C  
HETATM   28  C   UNL     1      -9.330   8.428  68.712  1.00  0.00    -0.143 C  
HETATM   29  C   UNL     1     -10.804   7.156  67.132  1.00  0.00    -0.333 C  
ENDBRANCH  24  26
ENDBRANCH  19  20
ENDBRANCH  16  19
ENDBRANCH  14  15
ENDBRANCH  13  14
ENDBRANCH  12  13
ENDBRANCH  11  12
ENDBRANCH  10  11
ENDBRANCH   9  10
ENDBRANCH   8   9
ENDBRANCH   7   8
ENDBRANCH   6   7
ENDBRANCH   5   6
ENDBRANCH   2   5
BRANCH   4  30
HETATM   30  O   UNL     1      -9.529  13.800  67.073  1.00  0.00    -0.236 OA 
BRANCH  30  31
HETATM   31  C   UNL     1     -10.203  14.703  67.912  1.00  0.00    -0.226 A  
HETATM   32  C   UNL     1     -10.167  16.071  67.632  1.00  0.00    -0.262 A  
HETATM   33  C   UNL     1     -10.986  14.195  68.952  1.00  0.00    -0.280 A  
HETATM   34  C   UNL     1     -11.719  15.080  69.763  1.00  0.00    -0.307 A  
HETATM   35  C   UNL     1     -10.875  16.949  68.433  1.00  0.00    -0.347 A  
HETATM   36  C   UNL     1     -11.635  16.459  69.493  1.00  0.00    -0.038 A  
BRANCH  34  37
HETATM   37  N   UNL     1     -12.493  14.575  70.975  1.00  0.00    -0.317 N  
HETATM   38  C   UNL     1     -11.852  15.041  72.283  1.00  0.00    -0.350 C  
HETATM   39  C   UNL     1     -13.926  15.108  70.967  1.00  0.00    -0.303 C  
HETATM   40  C   UNL     1     -12.473  13.047  70.918  1.00  0.00    -0.310 C  
ENDBRANCH  34  37
ENDBRANCH  30  31
ENDBRANCH   4  30
TORSDOF 17
ENDMDL
MODEL      243
REMARK 921   NORMALIZED FREE ENERGY PREDICTED BY IDOCK:   -3.27 KCAL/MOL
REMARK 922        TOTAL FREE ENERGY PREDICTED BY IDOCK:   -8.74 KCAL/MOL
REMARK 923 INTER-LIGAND FREE ENERGY PREDICTED BY IDOCK:   -7.07 KCAL/MOL
REMARK 924 INTRA-LIGAND FREE ENERGY PREDICTED BY IDOCK:   -1.68 KCAL/MOL
REMARK 927      BINDING AFFINITY PREDICTED BY RF-SCORE:    0.00 PKD
ROOT
HETATM    1  C   UNL     1      -5.745  10.861  68.772  1.00  0.00    -0.040 C  
HETATM    2  N   UNL     1      -6.971  11.226  68.082  1.00  0.00    -0.067 N  
HETATM    3  O   UNL     1      -8.146  12.906  67.004  1.00  0.00    -0.146 OA 
HETATM    4  C   UNL     1      -7.105  12.473  67.488  1.00  0.00    -0.151 C  
ENDROOT
BRANCH   2   5
HETATM    5  C   UNL     1      -8.140  10.360  68.224  1.00  0.00    -0.113 C  
BRANCH   5   6
HETATM    6  C   UNL     1      -8.921  10.615  69.520  1.00  0.00     0.025 C  
BRANCH   6   7
HETATM    7  C   UNL     1     -10.381  10.165  69.390  1.00  0.00    -0.251 C  
BRANCH   7   8
HETATM    8  C   UNL     1     -10.887  10.275  67.946  1.00  0.00    -0.337 C  
BRANCH   8   9
HETATM    9  C   UNL     1     -11.522  11.643  67.683  1.00  0.00    -0.373 C  
BRANCH   9  10
HETATM   10  C   UNL     1     -11.417  12.042  66.208  1.00  0.00    -0.408 C  
BRANCH  10  11
HETATM   11  C   UNL     1     -10.877  10.920  65.314  1.00  0.00    -0.123 C  
BRANCH  11  12
HETATM   12  C   UNL     1      -9.621  11.319  64.543  1.00  0.00    -0.260 C  
BRANCH  12  13
HETATM   13  C   UNL     1      -9.181  10.220  63.579  1.00  0.00    -0.321 C  
BRANCH  13  14
HETATM   14  C   UNL     1      -7.666  10.090  63.586  1.00  0.00    -0.143 C  
BRANCH  14  15
HETATM   15  N   UNL     1      -7.232   8.852  64.215  1.00  0.00    -0.090 N  
HETATM   16  C   UNL     1      -7.650   7.641  63.693  1.00  0.00    -0.118 C  
HETATM   17  C   UNL     1      -6.328   8.916  65.354  1.00  0.00    -0.063 C  
HETATM   18  O   UNL     1      -8.438   7.524  62.760  1.00  0.00    -0.002 OA 
BRANCH  16  19
HETATM   19  O   UNL     1      -7.182   6.568  64.437  1.00  0.00    -0.060 OA 
BRANCH  19  20
HETATM   20  C   UNL     1      -8.189   5.909  65.151  1.00  0.00    -0.141 A  
HETATM   21  C   UNL     1      -8.818   4.841  64.522  1.00  0.00    -0.147 A  
HETATM   22  C   UNL     1      -9.737   4.093  65.250  1.00  0.00    -0.200 A  
HETATM   23  C   UNL     1     -10.021   4.413  66.582  1.00  0.00    -0.234 A  
HETATM   24  C   UNL     1      -9.395   5.500  67.217  1.00  0.00    -0.114 A  
HETATM   25  C   UNL     1      -8.447   6.221  66.493  1.00  0.00    -0.121 A  
BRANCH  24  26
HETATM   26  N   UNL     1      -9.645   5.827  68.681  1.00  0.00    -0.123 N  
HETATM   27  C   UNL     1      -8.602   6.807  69.209  1.00  0.00    -0.129 C  
HETATM   28  C   UNL     1      -9.548   4.561  69.542  1.00  0.00    -0.195 C  
HETATM   29  C   UNL     1     -11.037   6.432  68.789  1.00  0.00    -0.326 C  
ENDBRANCH  24  26
ENDBRANCH  19  20
ENDBRANCH  16  19
ENDBRANCH  14  15
ENDBRANCH  13  14
ENDBRANCH  12  13
ENDBRANCH  11  12
ENDBRANCH  10  11
ENDBRANCH   9  10
ENDBRANCH   8   9
ENDBRANCH   7   8
ENDBRANCH   6   7
ENDBRANCH   5   6
ENDBRANCH   2   5
BRANCH   4  30
HETATM   30  O   UNL     1      -5.932  13.230  67.563  1.00  0.00    -0.251 OA 
BRANCH  30  31
HETATM   31  C   UNL     1      -6.090  14.440  68.260  1.00  0.00    -0.119 A  
HETATM   32  C   UNL     1      -5.273  14.723  69.355  1.00  0.00    -0.087 A  
HETATM   33  C   UNL     1      -6.996  15.384  67.766  1.00  0.00    -0.183 A  
HETATM   34  C   UNL     1      -7.122  16.626  68.412  1.00  0.00    -0.167 A  
HETATM   35  C   UNL     1      -5.400  15.938  70.005  1.00  0.00    -0.143 A  
HETATM   36  C   UNL     1      -6.322  16.876  69.543  1.00  0.00    -0.233 A  
BRANCH  34  37
HETATM   37  N   UNL     1      -8.178  17.635  67.975  1.00  0.00    -0.235 N  
HETATM   38  C   UNL     1      -8.257  17.738  66.451  1.00  0.00    -0.255 C  
HETATM   39  C   UNL     1      -9.565  17.219  68.465  1.00  0.00    -0.291 C  
HETATM   40  C   UNL     1      -7.772  18.991  68.553  1.00  0.00    -0.333 C  
ENDBRANCH  34  37
ENDBRANCH  30  31
ENDBRANCH   4  30
TORSDOF 17
ENDMDL
MODEL      244
REMARK 921   NORMALIZED FREE ENERGY PREDICTED BY IDOCK:   -3.23 KCAL/MOL
REMARK 922        TOTAL FREE ENERGY PREDICTED BY IDOCK:   -8.68 KCAL/MOL
REMARK 923 INTER-LIGAND FREE ENERGY PREDICTED BY IDOCK:   -7.70 KCAL/MOL
REMARK 924 INTRA-LIGAND FREE ENERGY PREDICTED BY IDOCK:   -0.98 KCAL/MOL
REMARK 927      BINDING AFFINITY PREDICTED BY RF-SCORE:    0.00 PKD
ROOT
HETATM    1  C   UNL     1     -10.167   7.830  68.647  1.00  0.00    -0.201 C  
HETATM    2  N   UNL     1      -9.243   6.736  68.891  1.00  0.00    -0.132 N  
HETATM    3  O   UNL     1      -8.299   4.791  68.058  1.00  0.00    -0.102 OA 
HETATM    4  C   UNL     1      -8.960   5.812  67.894  1.00  0.00    -0.111 C  
ENDROOT
BRANCH   2   5
HETATM    5  C   UNL     1      -8.801   6.483  70.261  1.00  0.00    -0.151 C  
BRANCH   5   6
HETATM    6  C   UNL     1      -7.478   7.182  70.602  1.00  0.00    -0.081 C  
BRANCH   6   7
HETATM    7  C   UNL     1      -7.716   8.461  71.416  1.00  0.00    -0.116 C  
BRANCH   7   8
HETATM    8  C   UNL     1      -7.860   9.694  70.515  1.00  0.00    -0.150 C  
BRANCH   8   9
HETATM    9  C   UNL     1      -6.496  10.319  70.207  1.00  0.00    -0.137 C  
BRANCH   9  10
HETATM   10  C   UNL     1      -6.618  11.483  69.218  1.00  0.00    -0.113 C  
BRANCH  10  11
HETATM   11  C   UNL     1      -6.078  12.806  69.772  1.00  0.00    -0.131 C  
BRANCH  11  12
HETATM   12  C   UNL     1      -5.973  13.901  68.713  1.00  0.00    -0.085 C  
BRANCH  12  13
HETATM   13  C   UNL     1      -6.916  13.640  67.540  1.00  0.00    -0.157 C  
BRANCH  13  14
HETATM   14  C   UNL     1      -7.579  14.937  67.101  1.00  0.00    -0.110 C  
BRANCH  14  15
HETATM   15  N   UNL     1      -9.029  14.864  67.205  1.00  0.00    -0.201 N  
HETATM   16  C   UNL     1      -9.674  13.679  66.901  1.00  0.00    -0.262 C  
HETATM   17  C   UNL     1      -9.764  16.031  67.672  1.00  0.00    -0.224 C  
HETATM   18  O   UNL     1      -9.114  12.677  66.469  1.00  0.00    -0.223 OA 
BRANCH  16  19
HETATM   19  O   UNL     1     -11.052  13.798  67.010  1.00  0.00    -0.293 OA 
BRANCH  19  20
HETATM   20  C   UNL     1     -11.565  13.223  68.178  1.00  0.00    -0.338 A  
HETATM   21  C   UNL     1     -11.459  11.843  68.307  1.00  0.00    -0.372 A  
HETATM   22  C   UNL     1     -11.851  11.259  69.507  1.00  0.00    -0.427 A  
HETATM   23  C   UNL     1     -12.344  12.044  70.554  1.00  0.00    -0.369 A  
HETATM   24  C   UNL     1     -12.465  13.438  70.422  1.00  0.00    -0.252 A  
HETATM   25  C   UNL     1     -12.033  14.021  69.231  1.00  0.00    -0.396 A  
BRANCH  24  26
HETATM   26  N   UNL     1     -12.940  14.316  71.570  1.00  0.00    -0.322 N  
HETATM   27  C   UNL     1     -13.751  13.508  72.578  1.00  0.00    -0.559 C  
HETATM   28  C   UNL     1     -13.854  15.435  71.053  1.00  0.00    -0.276 C  
HETATM   29  C   UNL     1     -11.709  14.908  72.240  1.00  0.00    -0.240 C  
ENDBRANCH  24  26
ENDBRANCH  19  20
ENDBRANCH  16  19
ENDBRANCH  14  15
ENDBRANCH  13  14
ENDBRANCH  12  13
ENDBRANCH  11  12
ENDBRANCH  10  11
ENDBRANCH   9  10
ENDBRANCH   8   9
ENDBRANCH   7   8
ENDBRANCH   6   7
ENDBRANCH   5   6
ENDBRANCH   2   5
BRANCH   4  30
HETATM   30  O   UNL     1      -9.576   6.129  66.680  1.00  0.00    -0.146 OA 
BRANCH  30  31
HETATM   31  C   UNL     1      -8.671   6.281  65.616  1.00  0.00    -0.114 A  
HETATM   32  C   UNL     1      -8.269   5.163  64.882  1.00  0.00    -0.136 A  
HETATM   33  C   UNL     1      -8.278   7.571  65.249  1.00  0.00    -0.130 A  
HETATM   34  C   UNL     1      -7.423   7.746  64.147  1.00  0.00    -0.105 A  
HETATM   35  C   UNL     1      -7.417   5.326  63.805  1.00  0.00    -0.059 A  
HETATM   36  C   UNL     1      -6.991   6.604  63.446  1.00  0.00    -0.052 A  
BRANCH  34  37
HETATM   37  N   UNL     1      -6.882   9.124  63.785  1.00  0.00    -0.089 N  
HETATM   38  C   UNL     1      -8.013  10.130  63.563  1.00  0.00    -0.161 C  
HETATM   39  C   UNL     1      -6.009   9.679  64.910  1.00  0.00    -0.081 C  
HETATM   40  C   UNL     1      -6.082   8.969  62.491  1.00  0.00    -0.094 C  
ENDBRANCH  34  37
ENDBRANCH  30  31
ENDBRANCH   4  30
TORSDOF 17
ENDMDL
MODEL      245
REMARK 921   NORMALIZED FREE ENERGY PREDICTED BY IDOCK:   -3.22 KCAL/MOL
REMARK 922        TOTAL FREE ENERGY PREDICTED BY IDOCK:   -8.66 KCAL/MOL
REMARK 923 INTER-LIGAND FREE ENERGY PREDICTED BY IDOCK:   -6.34 KCAL/MOL
REMARK 924 INTRA-LIGAND FREE ENERGY PREDICTED BY IDOCK:   -2.32 KCAL/MOL
REMARK 927      BINDING AFFINITY PREDICTED BY RF-SCORE:    0.00 PKD
ROOT
HETATM    1  C   UNL     1     -12.339  12.771  64.797  1.00  0.00    -0.478 C  
HETATM    2  N   UNL     1     -11.116  13.109  65.507  1.00  0.00    -0.277 N  
HETATM    3  O   UNL     1      -9.332  12.316  66.754  1.00  0.00    -0.205 OA 
HETATM    4  C   UNL     1     -10.305  12.113  66.033  1.00  0.00    -0.237 C  
ENDROOT
BRANCH   2   5
HETATM    5  C   UNL     1     -10.876  14.505  65.864  1.00  0.00    -0.308 C  
BRANCH   5   6
HETATM    6  C   UNL     1     -11.458  14.883  67.233  1.00  0.00    -0.350 C  
BRANCH   6   7
HETATM    7  C   UNL     1     -10.543  15.864  67.977  1.00  0.00    -0.287 C  
BRANCH   7   8
HETATM    8  C   UNL     1      -9.539  15.137  68.880  1.00  0.00    -0.223 C  
BRANCH   8   9
HETATM    9  C   UNL     1      -8.329  16.022  69.191  1.00  0.00    -0.244 C  
BRANCH   9  10
HETATM   10  C   UNL     1      -7.010  15.306  68.886  1.00  0.00    -0.125 C  
BRANCH  10  11
HETATM   11  C   UNL     1      -7.052  14.483  67.595  1.00  0.00    -0.202 C  
BRANCH  11  12
HETATM   12  C   UNL     1      -6.060  13.322  67.590  1.00  0.00    -0.140 C  
BRANCH  12  13
HETATM   13  C   UNL     1      -5.766  12.829  69.005  1.00  0.00    -0.072 C  
BRANCH  13  14
HETATM   14  C   UNL     1      -6.908  11.959  69.506  1.00  0.00    -0.004 C  
BRANCH  14  15
HETATM   15  N   UNL     1      -6.634  10.543  69.309  1.00  0.00    -0.053 N  
HETATM   16  C   UNL     1      -6.435   9.729  70.409  1.00  0.00    -0.101 C  
HETATM   17  C   UNL     1      -6.623  10.007  67.955  1.00  0.00    -0.063 C  
HETATM   18  O   UNL     1      -6.397  10.128  71.568  1.00  0.00    -0.306 OA 
BRANCH  16  19
HETATM   19  O   UNL     1      -6.144   8.423  70.040  1.00  0.00    -0.031 OA 
BRANCH  19  20
HETATM   20  C   UNL     1      -6.992   7.480  70.630  1.00  0.00    -0.051 A  
HETATM   21  C   UNL     1      -8.359   7.720  70.555  1.00  0.00    -0.125 A  
HETATM   22  C   UNL     1      -9.229   6.742  71.026  1.00  0.00    -0.156 A  
HETATM   23  C   UNL     1      -8.735   5.549  71.564  1.00  0.00    -0.138 A  
HETATM   24  C   UNL     1      -7.353   5.308  71.652  1.00  0.00    -0.085 A  
HETATM   25  C   UNL     1      -6.489   6.276  71.142  1.00  0.00    -0.049 A  
BRANCH  24  26
HETATM   26  N   UNL     1      -6.799   3.993  72.176  1.00  0.00    -0.039 N  
HETATM   27  C   UNL     1      -7.907   2.959  72.348  1.00  0.00    -0.055 C  
HETATM   28  C   UNL     1      -6.151   4.189  73.553  1.00  0.00    -0.016 C  
HETATM   29  C   UNL     1      -5.767   3.494  71.175  1.00  0.00    -0.013 C  
ENDBRANCH  24  26
ENDBRANCH  19  20
ENDBRANCH  16  19
ENDBRANCH  14  15
ENDBRANCH  13  14
ENDBRANCH  12  13
ENDBRANCH  11  12
ENDBRANCH  10  11
ENDBRANCH   9  10
ENDBRANCH   8   9
ENDBRANCH   7   8
ENDBRANCH   6   7
ENDBRANCH   5   6
ENDBRANCH   2   5
BRANCH   4  30
HETATM   30  O   UNL     1     -10.756  10.830  65.713  1.00  0.00    -0.179 OA 
BRANCH  30  31
HETATM   31  C   UNL     1      -9.816  10.067  65.000  1.00  0.00    -0.304 A  
HETATM   32  C   UNL     1      -9.372  10.503  63.751  1.00  0.00    -0.319 A  
HETATM   33  C   UNL     1      -9.264   8.939  65.615  1.00  0.00    -0.268 A  
HETATM   34  C   UNL     1      -8.275   8.199  64.943  1.00  0.00    -0.147 A  
HETATM   35  C   UNL     1      -8.408   9.773  63.077  1.00  0.00    -0.166 A  
HETATM   36  C   UNL     1      -7.872   8.628  63.664  1.00  0.00    -0.148 A  
BRANCH  34  37
HETATM   37  N   UNL     1      -7.732   6.901  65.529  1.00  0.00    -0.095 N  
HETATM   38  C   UNL     1      -6.203   6.874  65.510  1.00  0.00    -0.039 C  
HETATM   39  C   UNL     1      -8.162   6.741  66.987  1.00  0.00    -0.113 C  
HETATM   40  C   UNL     1      -8.269   5.758  64.666  1.00  0.00    -0.126 C  
ENDBRANCH  34  37
ENDBRANCH  30  31
ENDBRANCH   4  30
TORSDOF 17
ENDMDL
MODEL      246
REMARK 921   NORMALIZED FREE ENERGY PREDICTED BY IDOCK:   -3.21 KCAL/MOL
REMARK 922        TOTAL FREE ENERGY PREDICTED BY IDOCK:   -8.64 KCAL/MOL
REMARK 923 INTER-LIGAND FREE ENERGY PREDICTED BY IDOCK:   -7.93 KCAL/MOL
REMARK 924 INTRA-LIGAND FREE ENERGY PREDICTED BY IDOCK:   -0.71 KCAL/MOL
REMARK 927      BINDING AFFINITY PREDICTED BY RF-SCORE:    0.00 PKD
ROOT
HETATM    1  C   UNL     1     -12.479  13.439  64.707  1.00  0.00    -0.365 C  
HETATM    2  N   UNL     1     -11.583  12.729  65.604  1.00  0.00    -0.349 N  
HETATM    3  O   UNL     1      -9.992  12.912  67.278  1.00  0.00    -0.219 OA 
HETATM    4  C   UNL     1     -10.862  13.414  66.573  1.00  0.00    -0.282 C  
ENDROOT
BRANCH   2   5
HETATM    5  C   UNL     1     -11.271  11.330  65.321  1.00  0.00     0.003 C  
BRANCH   5   6
HETATM    6  C   UNL     1      -9.875  11.138  64.712  1.00  0.00    -0.326 C  
BRANCH   6   7
HETATM    7  C   UNL     1      -9.289   9.770  65.082  1.00  0.00    -0.322 C  
BRANCH   7   8
HETATM    8  C   UNL     1      -9.576   9.400  66.542  1.00  0.00    -0.267 C  
BRANCH   8   9
HETATM    9  C   UNL     1      -8.368   8.717  67.191  1.00  0.00    -0.107 C  
BRANCH   9  10
HETATM   10  C   UNL     1      -7.878   7.527  66.361  1.00  0.00    -0.098 C  
BRANCH  10  11
HETATM   11  C   UNL     1      -6.351   7.392  66.340  1.00  0.00    -0.041 C  
BRANCH  11  12
HETATM   12  C   UNL     1      -5.812   6.503  67.458  1.00  0.00    -0.016 C  
BRANCH  12  13
HETATM   13  C   UNL     1      -6.861   6.267  68.542  1.00  0.00    -0.074 C  
BRANCH  13  14
HETATM   14  C   UNL     1      -6.944   4.785  68.879  1.00  0.00    -0.052 C  
BRANCH  14  15
HETATM   15  N   UNL     1      -7.222   4.567  70.291  1.00  0.00    -0.048 N  
HETATM   16  C   UNL     1      -8.349   3.856  70.660  1.00  0.00    -0.069 C  
HETATM   17  C   UNL     1      -6.280   5.066  71.282  1.00  0.00    -0.022 C  
HETATM   18  O   UNL     1      -9.196   3.444  69.875  1.00  0.00    -0.120 OA 
BRANCH  16  19
HETATM   19  O   UNL     1      -8.483   3.780  72.039  1.00  0.00    -0.087 OA 
BRANCH  19  20
HETATM   20  C   UNL     1      -9.265   4.809  72.575  1.00  0.00    -0.128 A  
HETATM   21  C   UNL     1      -9.087   5.107  73.922  1.00  0.00    -0.119 A  
HETATM   22  C   UNL     1      -9.761   6.201  74.452  1.00  0.00    -0.265 A  
HETATM   23  C   UNL     1     -10.599   6.980  73.647  1.00  0.00    -0.383 A  
HETATM   24  C   UNL     1     -10.791   6.675  72.289  1.00  0.00    -0.229 A  
HETATM   25  C   UNL     1     -10.082   5.599  71.755  1.00  0.00    -0.240 A  
BRANCH  24  26
HETATM   26  N   UNL     1     -11.650   7.544  71.384  1.00  0.00    -0.268 N  
HETATM   27  C   UNL     1     -11.519   9.018  71.753  1.00  0.00    -0.372 C  
HETATM   28  C   UNL     1     -13.132   7.176  71.527  1.00  0.00    -0.375 C  
HETATM   29  C   UNL     1     -11.188   7.319  69.951  1.00  0.00    -0.170 C  
ENDBRANCH  24  26
ENDBRANCH  19  20
ENDBRANCH  16  19
ENDBRANCH  14  15
ENDBRANCH  13  14
ENDBRANCH  12  13
ENDBRANCH  11  12
ENDBRANCH  10  11
ENDBRANCH   9  10
ENDBRANCH   8   9
ENDBRANCH   7   8
ENDBRANCH   6   7
ENDBRANCH   5   6
ENDBRANCH   2   5
BRANCH   4  30
HETATM   30  O   UNL     1     -11.182  14.774  66.617  1.00  0.00    -0.335 OA 
BRANCH  30  31
HETATM   31  C   UNL     1     -11.171  15.310  67.916  1.00  0.00    -0.331 A  
HETATM   32  C   UNL     1     -10.401  16.441  68.193  1.00  0.00    -0.283 A  
HETATM   33  C   UNL     1     -12.022  14.756  68.877  1.00  0.00    -0.298 A  
HETATM   34  C   UNL     1     -12.072  15.319  70.164  1.00  0.00    -0.358 A  
HETATM   35  C   UNL     1     -10.435  16.993  69.461  1.00  0.00    -0.182 A  
HETATM   36  C   UNL     1     -11.255  16.432  70.439  1.00  0.00    -0.253 A  
BRANCH  34  37
HETATM   37  N   UNL     1     -12.900  14.676  71.270  1.00  0.00    -0.314 N  
HETATM   38  C   UNL     1     -12.085  14.504  72.553  1.00  0.00    -0.060 C  
HETATM   39  C   UNL     1     -14.106  15.546  71.623  1.00  0.00    -0.432 C  
HETATM   40  C   UNL     1     -13.340  13.302  70.762  1.00  0.00     0.330 C  
ENDBRANCH  34  37
ENDBRANCH  30  31
ENDBRANCH   4  30
TORSDOF 17
ENDMDL
MODEL      247
REMARK 921   NORMALIZED FREE ENERGY PREDICTED BY IDOCK:   -3.17 KCAL/MOL
REMARK 922        TOTAL FREE ENERGY PREDICTED BY IDOCK:   -8.55 KCAL/MOL
REMARK 923 INTER-LIGAND FREE ENERGY PREDICTED BY IDOCK:   -7.50 KCAL/MOL
REMARK 924 INTRA-LIGAND FREE ENERGY PREDICTED BY IDOCK:   -1.05 KCAL/MOL
REMARK 927      BINDING AFFINITY PREDICTED BY RF-SCORE:    0.00 PKD
ROOT
HETATM    1  C   UNL     1     -11.373   6.806  67.533  1.00  0.00     0.018 C  
HETATM    2  N   UNL     1     -10.258   7.727  67.392  1.00  0.00    -0.225 N  
HETATM    3  O   UNL     1      -7.986   8.061  67.700  1.00  0.00    -0.119 OA 
HETATM    4  C   UNL     1      -8.961   7.316  67.667  1.00  0.00    -0.126 C  
ENDROOT
BRANCH   2   5
HETATM    5  C   UNL     1     -10.541   9.146  67.188  1.00  0.00    -0.216 C  
BRANCH   5   6
HETATM    6  C   UNL     1     -10.341   9.986  68.457  1.00  0.00    -0.217 C  
BRANCH   6   7
HETATM    7  C   UNL     1     -11.608  10.774  68.810  1.00  0.00    -0.350 C  
BRANCH   7   8
HETATM    8  C   UNL     1     -11.419  12.283  68.608  1.00  0.00    -0.355 C  
BRANCH   8   9
HETATM    9  C   UNL     1     -11.306  12.634  67.121  1.00  0.00    -0.373 C  
BRANCH   9  10
HETATM   10  C   UNL     1      -9.981  13.335  66.804  1.00  0.00    -0.263 C  
BRANCH  10  11
HETATM   11  C   UNL     1      -9.157  13.665  68.053  1.00  0.00    -0.192 C  
BRANCH  11  12
HETATM   12  C   UNL     1      -8.035  12.662  68.313  1.00  0.00    -0.153 C  
BRANCH  12  13
HETATM   13  C   UNL     1      -6.661  13.278  68.060  1.00  0.00    -0.127 C  
BRANCH  13  14
HETATM   14  C   UNL     1      -6.340  14.304  69.136  1.00  0.00    -0.104 C  
BRANCH  14  15
HETATM   15  N   UNL     1      -5.773  15.520  68.571  1.00  0.00    -0.095 N  
HETATM   16  C   UNL     1      -5.699  16.661  69.348  1.00  0.00    -0.162 C  
HETATM   17  C   UNL     1      -5.253  15.491  67.211  1.00  0.00     0.282 C  
HETATM   18  O   UNL     1      -6.152  16.756  70.483  1.00  0.00     0.036 OA 
BRANCH  16  19
HETATM   19  O   UNL     1      -5.174  17.734  68.641  1.00  0.00    -0.148 OA 
BRANCH  19  20
HETATM   20  C   UNL     1      -6.134  18.693  68.299  1.00  0.00    -0.206 A  
HETATM   21  C   UNL     1      -5.723  20.020  68.269  1.00  0.00    -0.255 A  
HETATM   22  C   UNL     1      -6.622  20.981  67.817  1.00  0.00    -0.385 A  
HETATM   23  C   UNL     1      -7.908  20.615  67.407  1.00  0.00    -0.329 A  
HETATM   24  C   UNL     1      -8.331  19.276  67.449  1.00  0.00    -0.287 A  
HETATM   25  C   UNL     1      -7.412  18.314  67.866  1.00  0.00    -0.236 A  
BRANCH  24  26
HETATM   26  N   UNL     1      -9.704  18.851  66.951  1.00  0.00    -0.305 N  
HETATM   27  C   UNL     1     -10.234  19.826  65.905  1.00  0.00    -0.459 C  
HETATM   28  C   UNL     1     -10.716  18.834  68.103  1.00  0.00    -0.120 C  
HETATM   29  C   UNL     1      -9.567  17.460  66.349  1.00  0.00    -0.276 C  
ENDBRANCH  24  26
ENDBRANCH  19  20
ENDBRANCH  16  19
ENDBRANCH  14  15
ENDBRANCH  13  14
ENDBRANCH  12  13
ENDBRANCH  11  12
ENDBRANCH  10  11
ENDBRANCH   9  10
ENDBRANCH   8   9
ENDBRANCH   7   8
ENDBRANCH   6   7
ENDBRANCH   5   6
ENDBRANCH   2   5
BRANCH   4  30
HETATM   30  O   UNL     1      -8.885   5.956  67.980  1.00  0.00    -0.111 OA 
BRANCH  30  31
HETATM   31  C   UNL     1      -8.668   5.707  69.346  1.00  0.00    -0.109 A  
HETATM   32  C   UNL     1      -7.865   4.633  69.736  1.00  0.00    -0.061 A  
HETATM   33  C   UNL     1      -9.176   6.612  70.282  1.00  0.00    -0.156 A  
HETATM   34  C   UNL     1      -8.914   6.414  71.649  1.00  0.00    -0.144 A  
HETATM   35  C   UNL     1      -7.613   4.424  71.080  1.00  0.00    -0.067 A  
HETATM   36  C   UNL     1      -8.141   5.301  72.027  1.00  0.00    -0.114 A  
BRANCH  34  37
HETATM   37  N   UNL     1      -9.544   7.313  72.706  1.00  0.00    -0.150 N  
HETATM   38  C   UNL     1      -8.514   7.769  73.740  1.00  0.00    -0.236 C  
HETATM   39  C   UNL     1     -10.126   8.576  72.071  1.00  0.00    -0.316 C  
HETATM   40  C   UNL     1     -10.632   6.494  73.403  1.00  0.00    -0.285 C  
ENDBRANCH  34  37
ENDBRANCH  30  31
ENDBRANCH   4  30
TORSDOF 17
ENDMDL
MODEL      248
REMARK 921   NORMALIZED FREE ENERGY PREDICTED BY IDOCK:   -3.13 KCAL/MOL
REMARK 922        TOTAL FREE ENERGY PREDICTED BY IDOCK:   -8.48 KCAL/MOL
REMARK 923 INTER-LIGAND FREE ENERGY PREDICTED BY IDOCK:   -8.26 KCAL/MOL
REMARK 924 INTRA-LIGAND FREE ENERGY PREDICTED BY IDOCK:   -0.22 KCAL/MOL
REMARK 927      BINDING AFFINITY PREDICTED BY RF-SCORE:    0.00 PKD
ROOT
HETATM    1  C   UNL     1     -12.456   9.566  70.690  1.00  0.00    -0.039 C  
HETATM    2  N   UNL     1     -11.214   9.829  69.984  1.00  0.00    -0.251 N  
HETATM    3  O   UNL     1      -9.979  11.366  68.766  1.00  0.00    -0.206 OA 
HETATM    4  C   UNL     1     -10.938  11.094  69.483  1.00  0.00    -0.220 C  
ENDROOT
BRANCH   2   5
HETATM    5  C   UNL     1     -10.371   8.698  69.601  1.00  0.00    -0.213 C  
BRANCH   5   6
HETATM    6  C   UNL     1      -8.955   9.119  69.184  1.00  0.00    -0.144 C  
BRANCH   6   7
HETATM    7  C   UNL     1      -8.718   8.873  67.689  1.00  0.00    -0.124 C  
BRANCH   7   8
HETATM    8  C   UNL     1      -7.560   9.720  67.147  1.00  0.00    -0.092 C  
BRANCH   8   9
HETATM    9  C   UNL     1      -7.231   9.349  65.697  1.00  0.00    -0.091 C  
BRANCH   9  10
HETATM   10  C   UNL     1      -8.461   8.817  64.956  1.00  0.00    -0.193 C  
BRANCH  10  11
HETATM   11  C   UNL     1      -8.111   8.017  63.697  1.00  0.00    -0.099 C  
BRANCH  11  12
HETATM   12  C   UNL     1      -7.026   6.969  63.934  1.00  0.00    -0.057 C  
BRANCH  12  13
HETATM   13  C   UNL     1      -7.267   6.195  65.229  1.00  0.00    -0.070 C  
BRANCH  13  14
HETATM   14  C   UNL     1      -8.480   5.290  65.081  1.00  0.00    -0.149 C  
BRANCH  14  15
HETATM   15  N   UNL     1      -8.677   4.455  66.257  1.00  0.00    -0.112 N  
HETATM   16  C   UNL     1      -9.665   4.784  67.167  1.00  0.00    -0.184 C  
HETATM   17  C   UNL     1      -7.856   3.264  66.424  1.00  0.00    -0.081 C  
HETATM   18  O   UNL     1     -10.362   5.791  67.099  1.00  0.00    -0.186 OA 
BRANCH  16  19
HETATM   19  O   UNL     1      -9.686   3.911  68.246  1.00  0.00    -0.140 OA 
BRANCH  19  20
HETATM   20  C   UNL     1      -9.283   4.506  69.446  1.00  0.00    -0.129 A  
HETATM   21  C   UNL     1      -7.974   4.968  69.519  1.00  0.00    -0.075 A  
HETATM   22  C   UNL     1      -7.581   5.669  70.653  1.00  0.00    -0.090 A  
HETATM   23  C   UNL     1      -8.485   5.900  71.696  1.00  0.00    -0.128 A  
HETATM   24  C   UNL     1      -9.806   5.424  71.632  1.00  0.00    -0.172 A  
HETATM   25  C   UNL     1     -10.203   4.755  70.474  1.00  0.00    -0.252 A  
BRANCH  24  26
HETATM   26  N   UNL     1     -10.820   5.717  72.726  1.00  0.00    -0.243 N  
HETATM   27  C   UNL     1     -11.299   4.429  73.389  1.00  0.00    -0.261 C  
HETATM   28  C   UNL     1     -12.058   6.411  72.146  1.00  0.00    -0.268 C  
HETATM   29  C   UNL     1     -10.145   6.615  73.753  1.00  0.00    -0.301 C  
ENDBRANCH  24  26
ENDBRANCH  19  20
ENDBRANCH  16  19
ENDBRANCH  14  15
ENDBRANCH  13  14
ENDBRANCH  12  13
ENDBRANCH  11  12
ENDBRANCH  10  11
ENDBRANCH   9  10
ENDBRANCH   8   9
ENDBRANCH   7   8
ENDBRANCH   6   7
ENDBRANCH   5   6
ENDBRANCH   2   5
BRANCH   4  30
HETATM   30  O   UNL     1     -11.918  12.030  69.825  1.00  0.00    -0.308 OA 
BRANCH  30  31
HETATM   31  C   UNL     1     -11.761  13.267  69.177  1.00  0.00    -0.329 A  
HETATM   32  C   UNL     1     -11.648  14.437  69.931  1.00  0.00    -0.341 A  
HETATM   33  C   UNL     1     -11.611  13.282  67.787  1.00  0.00    -0.380 A  
HETATM   34  C   UNL     1     -11.389  14.503  67.128  1.00  0.00    -0.350 A  
HETATM   35  C   UNL     1     -11.443  15.645  69.289  1.00  0.00    -0.368 A  
HETATM   36  C   UNL     1     -11.323  15.678  67.900  1.00  0.00    -0.302 A  
BRANCH  34  37
HETATM   37  N   UNL     1     -11.334  14.575  65.606  1.00  0.00    -0.331 N  
HETATM   38  C   UNL     1     -10.306  13.597  65.035  1.00  0.00    -0.374 C  
HETATM   39  C   UNL     1     -12.686  14.207  64.995  1.00  0.00    -0.312 C  
HETATM   40  C   UNL     1     -10.933  16.004  65.237  1.00  0.00    -0.299 C  
ENDBRANCH  34  37
ENDBRANCH  30  31
ENDBRANCH   4  30
TORSDOF 17
ENDMDL
MODEL      249
REMARK 921   NORMALIZED FREE ENERGY PREDICTED BY IDOCK:   -3.12 KCAL/MOL
REMARK 922        TOTAL FREE ENERGY PREDICTED BY IDOCK:   -8.46 KCAL/MOL
REMARK 923 INTER-LIGAND FREE ENERGY PREDICTED BY IDOCK:   -6.92 KCAL/MOL
REMARK 924 INTRA-LIGAND FREE ENERGY PREDICTED BY IDOCK:   -1.54 KCAL/MOL
REMARK 927      BINDING AFFINITY PREDICTED BY RF-SCORE:    0.00 PKD
ROOT
HETATM    1  C   UNL     1     -11.487  14.906  65.630  1.00  0.00    -0.290 C  
HETATM    2  N   UNL     1     -11.606  14.061  66.807  1.00  0.00    -0.366 N  
HETATM    3  O   UNL     1     -12.338  12.034  67.656  1.00  0.00    -0.345 OA 
HETATM    4  C   UNL     1     -12.085  12.763  66.701  1.00  0.00    -0.246 C  
ENDROOT
BRANCH   2   5
HETATM    5  C   UNL     1     -11.442  14.669  68.126  1.00  0.00    -0.323 C  
BRANCH   5   6
HETATM    6  C   UNL     1     -11.263  16.192  68.066  1.00  0.00    -0.291 C  
BRANCH   6   7
HETATM    7  C   UNL     1      -9.847  16.604  68.487  1.00  0.00    -0.252 C  
BRANCH   7   8
HETATM    8  C   UNL     1      -9.113  15.470  69.214  1.00  0.00    -0.266 C  
BRANCH   8   9
HETATM    9  C   UNL     1      -7.832  15.072  68.473  1.00  0.00    -0.137 C  
BRANCH   9  10
HETATM   10  C   UNL     1      -6.802  14.449  69.419  1.00  0.00    -0.132 C  
BRANCH  10  11
HETATM   11  C   UNL     1      -6.784  12.918  69.371  1.00  0.00    -0.017 C  
BRANCH  11  12
HETATM   12  C   UNL     1      -6.198  12.284  70.631  1.00  0.00     0.384 C  
BRANCH  12  13
HETATM   13  C   UNL     1      -5.689  10.870  70.363  1.00  0.00    -0.117 C  
BRANCH  13  14
HETATM   14  C   UNL     1      -6.855   9.938  70.073  1.00  0.00    -0.110 C  
BRANCH  14  15
HETATM   15  N   UNL     1      -6.419   8.556  69.930  1.00  0.00    -0.035 N  
HETATM   16  C   UNL     1      -7.098   7.556  70.600  1.00  0.00    -0.059 C  
HETATM   17  C   UNL     1      -5.302   8.256  69.045  1.00  0.00    -0.027 C  
HETATM   18  O   UNL     1      -8.020   7.751  71.385  1.00  0.00    -0.090 OA 
BRANCH  16  19
HETATM   19  O   UNL     1      -6.525   6.310  70.388  1.00  0.00    -0.038 OA 
BRANCH  19  20
HETATM   20  C   UNL     1      -7.450   5.334  70.004  1.00  0.00    -0.064 A  
HETATM   21  C   UNL     1      -8.235   4.773  71.005  1.00  0.00    -0.096 A  
HETATM   22  C   UNL     1      -9.244   3.889  70.637  1.00  0.00    -0.197 A  
HETATM   23  C   UNL     1      -9.458   3.572  69.292  1.00  0.00    -0.233 A  
HETATM   24  C   UNL     1      -8.658   4.128  68.278  1.00  0.00    -0.095 A  
HETATM   25  C   UNL     1      -7.675   5.043  68.651  1.00  0.00    -0.078 A  
BRANCH  24  26
HETATM   26  N   UNL     1      -8.914   3.843  66.806  1.00  0.00    -0.127 N  
HETATM   27  C   UNL     1     -10.106   4.644  66.292  1.00  0.00    -0.265 C  
HETATM   28  C   UNL     1      -9.243   2.360  66.591  1.00  0.00    -0.029 C  
HETATM   29  C   UNL     1      -7.657   4.221  66.037  1.00  0.00    -0.089 C  
ENDBRANCH  24  26
ENDBRANCH  19  20
ENDBRANCH  16  19
ENDBRANCH  14  15
ENDBRANCH  13  14
ENDBRANCH  12  13
ENDBRANCH  11  12
ENDBRANCH  10  11
ENDBRANCH   9  10
ENDBRANCH   8   9
ENDBRANCH   7   8
ENDBRANCH   6   7
ENDBRANCH   5   6
ENDBRANCH   2   5
BRANCH   4  30
HETATM   30  O   UNL     1     -12.322  12.386  65.376  1.00  0.00    -0.596 OA 
BRANCH  30  31
HETATM   31  C   UNL     1     -11.245  11.702  64.787  1.00  0.00    -0.234 A  
HETATM   32  C   UNL     1     -10.930  11.927  63.446  1.00  0.00    -0.470 A  
HETATM   33  C   UNL     1     -10.444  10.890  65.595  1.00  0.00    -0.274 A  
HETATM   34  C   UNL     1      -9.324  10.248  65.037  1.00  0.00    -0.237 A  
HETATM   35  C   UNL     1      -9.837  11.290  62.886  1.00  0.00    -0.317 A  
HETATM   36  C   UNL     1      -9.048  10.451  63.672  1.00  0.00    -0.277 A  
BRANCH  34  37
HETATM   37  N   UNL     1      -8.494   9.266  65.856  1.00  0.00    -0.127 N  
HETATM   38  C   UNL     1      -9.146   8.971  67.207  1.00  0.00    -0.133 C  
HETATM   39  C   UNL     1      -8.357   7.930  65.127  1.00  0.00    -0.120 C  
HETATM   40  C   UNL     1      -7.127   9.914  66.084  1.00  0.00    -0.103 C  
ENDBRANCH  34  37
ENDBRANCH  30  31
ENDBRANCH   4  30
TORSDOF 17
ENDMDL
MODEL      250
REMARK 921   NORMALIZED FREE ENERGY PREDICTED BY IDOCK:   -3.09 KCAL/MOL
REMARK 922        TOTAL FREE ENERGY PREDICTED BY IDOCK:   -8.40 KCAL/MOL
REMARK 923 INTER-LIGAND FREE ENERGY PREDICTED BY IDOCK:   -8.31 KCAL/MOL
REMARK 924 INTRA-LIGAND FREE ENERGY PREDICTED BY IDOCK:   -0.09 KCAL/MOL
REMARK 927      BINDING AFFINITY PREDICTED BY RF-SCORE:    0.00 PKD
ROOT
HETATM    1  C   UNL     1     -12.804  13.432  71.279  1.00  0.00    -0.323 C  
HETATM    2  N   UNL     1     -12.198  14.241  70.234  1.00  0.00    -0.322 N  
HETATM    3  O   UNL     1     -11.168  14.249  68.159  1.00  0.00    -0.255 OA 
HETATM    4  C   UNL     1     -11.801  13.667  69.034  1.00  0.00    -0.352 C  
ENDROOT
BRANCH   2   5
HETATM    5  C   UNL     1     -11.797  15.610  70.551  1.00  0.00    -0.373 C  
BRANCH   5   6
HETATM    6  C   UNL     1     -11.369  16.411  69.313  1.00  0.00    -0.225 C  
BRANCH   6   7
HETATM    7  C   UNL     1      -9.891  16.812  69.393  1.00  0.00    -0.095 C  
BRANCH   7   8
HETATM    8  C   UNL     1      -9.405  17.467  68.093  1.00  0.00    -0.277 C  
BRANCH   8   9
HETATM    9  C   UNL     1      -8.201  16.720  67.511  1.00  0.00    -0.187 C  
BRANCH   9  10
HETATM   10  C   UNL     1      -8.228  15.233  67.876  1.00  0.00    -0.151 C  
BRANCH  10  11
HETATM   11  C   UNL     1      -6.933  14.748  68.538  1.00  0.00    -0.108 C  
BRANCH  11  12
HETATM   12  C   UNL     1      -6.070  13.893  67.613  1.00  0.00    -0.084 C  
BRANCH  12  13
HETATM   13  C   UNL     1      -6.685  12.514  67.388  1.00  0.00    -0.147 C  
BRANCH  13  14
HETATM   14  C   UNL     1      -6.251  11.559  68.490  1.00  0.00    -0.050 C  
BRANCH  14  15
HETATM   15  N   UNL     1      -6.845  10.240  68.327  1.00  0.00    -0.065 N  
HETATM   16  C   UNL     1      -7.677   9.742  69.312  1.00  0.00    -0.101 C  
HETATM   17  C   UNL     1      -6.585   9.495  67.103  1.00  0.00    -0.071 C  
HETATM   18  O   UNL     1      -7.904  10.306  70.377  1.00  0.00    -0.153 OA 
BRANCH  16  19
HETATM   19  O   UNL     1      -8.119   8.460  69.016  1.00  0.00    -0.112 OA 
BRANCH  19  20
HETATM   20  C   UNL     1      -8.001   7.573  70.091  1.00  0.00    -0.111 A  
HETATM   21  C   UNL     1      -6.716   7.199  70.469  1.00  0.00    -0.052 A  
HETATM   22  C   UNL     1      -6.564   6.415  71.607  1.00  0.00    -0.054 A  
HETATM   23  C   UNL     1      -7.679   6.010  72.349  1.00  0.00    -0.101 A  
HETATM   24  C   UNL     1      -8.980   6.375  71.962  1.00  0.00    -0.137 A  
HETATM   25  C   UNL     1      -9.122   7.194  70.843  1.00  0.00    -0.152 A  
BRANCH  24  26
HETATM   26  N   UNL     1     -10.199   5.997  72.788  1.00  0.00    -0.183 N  
HETATM   27  C   UNL     1     -10.344   6.909  74.002  1.00  0.00    -0.320 C  
HETATM   28  C   UNL     1     -10.071   4.563  73.317  1.00  0.00    -0.160 C  
HETATM   29  C   UNL     1     -11.422   6.120  71.891  1.00  0.00    -0.300 C  
ENDBRANCH  24  26
ENDBRANCH  19  20
ENDBRANCH  16  19
ENDBRANCH  14  15
ENDBRANCH  13  14
ENDBRANCH  12  13
ENDBRANCH  11  12
ENDBRANCH  10  11
ENDBRANCH   9  10
ENDBRANCH   8   9
ENDBRANCH   7   8
ENDBRANCH   6   7
ENDBRANCH   5   6
ENDBRANCH   2   5
BRANCH   4  30
HETATM   30  O   UNL     1     -12.140  12.313  68.951  1.00  0.00    -0.265 OA 
BRANCH  30  31
HETATM   31  C   UNL     1     -11.577  11.663  67.840  1.00  0.00    -0.298 A  
HETATM   32  C   UNL     1     -11.164  10.334  67.949  1.00  0.00    -0.290 A  
HETATM   33  C   UNL     1     -11.546  12.335  66.614  1.00  0.00    -0.438 A  
HETATM   34  C   UNL     1     -11.045  11.678  65.477  1.00  0.00    -0.237 A  
HETATM   35  C   UNL     1     -10.658   9.684  66.837  1.00  0.00    -0.241 A  
HETATM   36  C   UNL     1     -10.590  10.353  65.616  1.00  0.00    -0.096 A  
BRANCH  34  37
HETATM   37  N   UNL     1     -10.889  12.413  64.151  1.00  0.00    -0.340 N  
HETATM   38  C   UNL     1     -10.557  13.891  64.365  1.00  0.00    -0.234 C  
HETATM   39  C   UNL     1      -9.747  11.816  63.329  1.00  0.00    -0.324 C  
HETATM   40  C   UNL     1     -12.222  12.296  63.411  1.00  0.00    -0.527 C  
ENDBRANCH  34  37
ENDBRANCH  30  31
ENDBRANCH   4  30
TORSDOF 17
ENDMDL
MODEL      251
REMARK 921   NORMALIZED FREE ENERGY PREDICTED BY IDOCK:   -3.09 KCAL/MOL
REMARK 922        TOTAL FREE ENERGY PREDICTED BY IDOCK:   -8.40 KCAL/MOL
REMARK 923 INTER-LIGAND FREE ENERGY PREDICTED BY IDOCK:   -6.42 KCAL/MOL
REMARK 924 INTRA-LIGAND FREE ENERGY PREDICTED BY IDOCK:   -1.98 KCAL/MOL
REMARK 927      BINDING AFFINITY PREDICTED BY RF-SCORE:    0.00 PKD
ROOT
HETATM    1  C   UNL     1      -6.698   9.376  69.337  1.00  0.00    -0.048 C  
HETATM    2  N   UNL     1      -8.079   8.934  69.426  1.00  0.00    -0.102 N  
HETATM    3  O   UNL     1     -10.196   9.031  68.489  1.00  0.00    -0.189 OA 
HETATM    4  C   UNL     1      -8.990   9.250  68.427  1.00  0.00    -0.129 C  
ENDROOT
BRANCH   2   5
HETATM    5  C   UNL     1      -8.553   8.361  70.684  1.00  0.00    -0.141 C  
BRANCH   5   6
HETATM    6  C   UNL     1      -9.664   9.192  71.341  1.00  0.00    -0.338 C  
BRANCH   6   7
HETATM    7  C   UNL     1     -10.528   8.331  72.271  1.00  0.00    -0.392 C  
BRANCH   7   8
HETATM    8  C   UNL     1     -11.696   7.676  71.524  1.00  0.00    -0.310 C  
BRANCH   8   9
HETATM    9  C   UNL     1     -11.443   6.182  71.299  1.00  0.00    -0.311 C  
BRANCH   9  10
HETATM   10  C   UNL     1     -10.765   5.534  72.510  1.00  0.00    -0.289 C  
BRANCH  10  11
HETATM   11  C   UNL     1      -9.543   4.687  72.138  1.00  0.00    -0.203 C  
BRANCH  11  12
HETATM   12  C   UNL     1      -8.221   5.320  72.569  1.00  0.00    -0.114 C  
BRANCH  12  13
HETATM   13  C   UNL     1      -7.060   4.838  71.703  1.00  0.00    -0.060 C  
BRANCH  13  14
HETATM   14  C   UNL     1      -7.583   4.016  70.534  1.00  0.00    -0.045 C  
BRANCH  14  15
HETATM   15  N   UNL     1      -7.711   4.818  69.325  1.00  0.00    -0.063 N  
HETATM   16  C   UNL     1      -8.878   4.754  68.588  1.00  0.00    -0.099 C  
HETATM   17  C   UNL     1      -6.620   5.705  68.947  1.00  0.00    -0.048 C  
HETATM   18  O   UNL     1      -9.814   4.001  68.835  1.00  0.00    -0.129 OA 
BRANCH  16  19
HETATM   19  O   UNL     1      -8.814   5.544  67.449  1.00  0.00    -0.108 OA 
BRANCH  19  20
HETATM   20  C   UNL     1      -9.266   4.892  66.297  1.00  0.00    -0.142 A  
HETATM   21  C   UNL     1     -10.524   5.243  65.820  1.00  0.00    -0.001 A  
HETATM   22  C   UNL     1     -10.949   4.700  64.612  1.00  0.00     0.266 A  
HETATM   23  C   UNL     1     -10.128   3.819  63.900  1.00  0.00    -0.208 A  
HETATM   24  C   UNL     1      -8.861   3.452  64.385  1.00  0.00    -0.105 A  
HETATM   25  C   UNL     1      -8.426   4.031  65.577  1.00  0.00    -0.109 A  
BRANCH  24  26
HETATM   26  N   UNL     1      -7.931   2.545  63.596  1.00  0.00    -0.075 N  
HETATM   27  C   UNL     1      -8.718   1.507  62.804  1.00  0.00    -0.064 C  
HETATM   28  C   UNL     1      -6.996   1.776  64.539  1.00  0.00    -0.042 C  
HETATM   29  C   UNL     1      -7.121   3.422  62.651  1.00  0.00    -0.036 C  
ENDBRANCH  24  26
ENDBRANCH  19  20
ENDBRANCH  16  19
ENDBRANCH  14  15
ENDBRANCH  13  14
ENDBRANCH  12  13
ENDBRANCH  11  12
ENDBRANCH  10  11
ENDBRANCH   9  10
ENDBRANCH   8   9
ENDBRANCH   7   8
ENDBRANCH   6   7
ENDBRANCH   5   6
ENDBRANCH   2   5
BRANCH   4  30
HETATM   30  O   UNL     1      -8.396   9.922  67.355  1.00  0.00    -0.117 OA 
BRANCH  30  31
HETATM   31  C   UNL     1      -9.315  10.625  66.557  1.00  0.00    -0.167 A  
HETATM   32  C   UNL     1      -9.835  10.029  65.407  1.00  0.00    -0.384 A  
HETATM   33  C   UNL     1      -9.769  11.872  66.998  1.00  0.00    -0.204 A  
HETATM   34  C   UNL     1     -10.736  12.561  66.246  1.00  0.00    -0.260 A  
HETATM   35  C   UNL     1     -10.776  10.707  64.654  1.00  0.00    -0.031 A  
HETATM   36  C   UNL     1     -11.215  11.965  65.065  1.00  0.00    -0.350 A  
BRANCH  34  37
HETATM   37  N   UNL     1     -11.172  13.970  66.632  1.00  0.00    -0.316 N  
HETATM   38  C   UNL     1     -12.528  14.325  66.019  1.00  0.00    -0.369 C  
HETATM   39  C   UNL     1     -11.322  14.097  68.148  1.00  0.00    -0.290 C  
HETATM   40  C   UNL     1     -10.109  14.932  66.100  1.00  0.00    -0.298 C  
ENDBRANCH  34  37
ENDBRANCH  30  31
ENDBRANCH   4  30
TORSDOF 17
ENDMDL
MODEL      252
REMARK 921   NORMALIZED FREE ENERGY PREDICTED BY IDOCK:   -3.09 KCAL/MOL
REMARK 922        TOTAL FREE ENERGY PREDICTED BY IDOCK:   -8.39 KCAL/MOL
REMARK 923 INTER-LIGAND FREE ENERGY PREDICTED BY IDOCK:   -7.56 KCAL/MOL
REMARK 924 INTRA-LIGAND FREE ENERGY PREDICTED BY IDOCK:   -0.83 KCAL/MOL
REMARK 927      BINDING AFFINITY PREDICTED BY RF-SCORE:    0.00 PKD
ROOT
HETATM    1  C   UNL     1     -11.526  10.995  69.872  1.00  0.00    -0.320 C  
HETATM    2  N   UNL     1     -10.789  10.408  68.766  1.00  0.00    -0.218 N  
HETATM    3  O   UNL     1     -10.650  10.145  66.468  1.00  0.00    -0.189 OA 
HETATM    4  C   UNL     1     -11.133  10.697  67.453  1.00  0.00    -0.272 C  
ENDROOT
BRANCH   2   5
HETATM    5  C   UNL     1      -9.841   9.332  69.047  1.00  0.00    -0.166 C  
BRANCH   5   6
HETATM    6  C   UNL     1      -8.380   9.802  69.039  1.00  0.00    -0.127 C  
BRANCH   6   7
HETATM    7  C   UNL     1      -7.440   8.694  68.548  1.00  0.00    -0.093 C  
BRANCH   7   8
HETATM    8  C   UNL     1      -6.300   9.250  67.686  1.00  0.00    -0.059 C  
BRANCH   8   9
HETATM    9  C   UNL     1      -6.690   9.290  66.206  1.00  0.00    -0.074 C  
BRANCH   9  10
HETATM   10  C   UNL     1      -7.785   8.269  65.881  1.00  0.00    -0.087 C  
BRANCH  10  11
HETATM   11  C   UNL     1      -7.737   7.769  64.434  1.00  0.00    -0.123 C  
BRANCH  11  12
HETATM   12  C   UNL     1      -6.907   6.498  64.265  1.00  0.00    -0.042 C  
BRANCH  12  13
HETATM   13  C   UNL     1      -7.086   5.549  65.447  1.00  0.00    -0.066 C  
BRANCH  13  14
HETATM   14  C   UNL     1      -8.501   4.988  65.459  1.00  0.00    -0.134 C  
BRANCH  14  15
HETATM   15  N   UNL     1      -8.754   4.191  66.650  1.00  0.00    -0.112 N  
HETATM   16  C   UNL     1      -9.534   4.714  67.666  1.00  0.00    -0.153 C  
HETATM   17  C   UNL     1      -8.217   2.839  66.724  1.00  0.00    -0.087 C  
HETATM   18  O   UNL     1      -9.982   5.855  67.677  1.00  0.00    -0.121 OA 
BRANCH  16  19
HETATM   19  O   UNL     1      -9.637   3.842  68.740  1.00  0.00    -0.161 OA 
BRANCH  19  20
HETATM   20  C   UNL     1      -9.075   4.346  69.917  1.00  0.00    -0.111 A  
HETATM   21  C   UNL     1      -9.553   3.837  71.119  1.00  0.00    -0.246 A  
HETATM   22  C   UNL     1      -8.931   4.231  72.299  1.00  0.00    -0.138 A  
HETATM   23  C   UNL     1      -7.853   5.121  72.272  1.00  0.00    -0.101 A  
HETATM   24  C   UNL     1      -7.375   5.648  71.060  1.00  0.00    -0.085 A  
HETATM   25  C   UNL     1      -7.978   5.218  69.879  1.00  0.00    -0.083 A  
BRANCH  24  26
HETATM   26  N   UNL     1      -6.166   6.569  71.006  1.00  0.00    -0.039 N  
HETATM   27  C   UNL     1      -5.180   6.248  72.125  1.00  0.00    -0.027 C  
HETATM   28  C   UNL     1      -6.591   8.032  71.188  1.00  0.00    -0.038 C  
HETATM   29  C   UNL     1      -5.501   6.379  69.650  1.00  0.00    -0.014 C  
ENDBRANCH  24  26
ENDBRANCH  19  20
ENDBRANCH  16  19
ENDBRANCH  14  15
ENDBRANCH  13  14
ENDBRANCH  12  13
ENDBRANCH  11  12
ENDBRANCH  10  11
ENDBRANCH   9  10
ENDBRANCH   8   9
ENDBRANCH   7   8
ENDBRANCH   6   7
ENDBRANCH   5   6
ENDBRANCH   2   5
BRANCH   4  30
HETATM   30  O   UNL     1     -12.155  11.647  67.364  1.00  0.00    -0.605 OA 
BRANCH  30  31
HETATM   31  C   UNL     1     -11.872  12.691  66.467  1.00  0.00    -0.396 A  
HETATM   32  C   UNL     1     -12.304  12.605  65.142  1.00  0.00    -0.547 A  
HETATM   33  C   UNL     1     -11.255  13.847  66.956  1.00  0.00    -0.327 A  
HETATM   34  C   UNL     1     -11.022  14.927  66.088  1.00  0.00    -0.334 A  
HETATM   35  C   UNL     1     -12.067  13.659  64.278  1.00  0.00    -0.480 A  
HETATM   36  C   UNL     1     -11.424  14.805  64.745  1.00  0.00    -0.410 A  
BRANCH  34  37
HETATM   37  N   UNL     1     -10.251  16.156  66.555  1.00  0.00    -0.287 N  
HETATM   38  C   UNL     1      -8.761  15.853  66.723  1.00  0.00    -0.269 C  
HETATM   39  C   UNL     1     -10.361  17.289  65.533  1.00  0.00    -0.092 C  
HETATM   40  C   UNL     1     -10.838  16.571  67.904  1.00  0.00    -0.326 C  
ENDBRANCH  34  37
ENDBRANCH  30  31
ENDBRANCH   4  30
TORSDOF 17
ENDMDL
MODEL      253
REMARK 921   NORMALIZED FREE ENERGY PREDICTED BY IDOCK:   -3.07 KCAL/MOL
REMARK 922        TOTAL FREE ENERGY PREDICTED BY IDOCK:   -8.36 KCAL/MOL
REMARK 923 INTER-LIGAND FREE ENERGY PREDICTED BY IDOCK:   -8.12 KCAL/MOL
REMARK 924 INTRA-LIGAND FREE ENERGY PREDICTED BY IDOCK:   -0.24 KCAL/MOL
REMARK 927      BINDING AFFINITY PREDICTED BY RF-SCORE:    0.00 PKD
ROOT
HETATM    1  C   UNL     1     -12.739  13.546  71.385  1.00  0.00    -0.336 C  
HETATM    2  N   UNL     1     -12.390  14.308  70.198  1.00  0.00    -0.340 N  
HETATM    3  O   UNL     1     -11.573  14.233  68.032  1.00  0.00    -0.295 OA 
HETATM    4  C   UNL     1     -12.006  13.665  69.030  1.00  0.00    -0.353 C  
ENDROOT
BRANCH   2   5
HETATM    5  C   UNL     1     -12.221  15.755  70.319  1.00  0.00    -0.339 C  
BRANCH   5   6
HETATM    6  C   UNL     1     -11.393  16.359  69.176  1.00  0.00    -0.241 C  
BRANCH   6   7
HETATM    7  C   UNL     1      -9.960  16.667  69.628  1.00  0.00    -0.005 C  
BRANCH   7   8
HETATM    8  C   UNL     1      -9.193  17.484  68.580  1.00  0.00    -0.267 C  
BRANCH   8   9
HETATM    9  C   UNL     1      -8.109  16.640  67.903  1.00  0.00    -0.177 C  
BRANCH   9  10
HETATM   10  C   UNL     1      -8.273  15.150  68.217  1.00  0.00    -0.144 C  
BRANCH  10  11
HETATM   11  C   UNL     1      -7.221  14.618  69.196  1.00  0.00    -0.142 C  
BRANCH  11  12
HETATM   12  C   UNL     1      -5.898  14.262  68.521  1.00  0.00    -0.094 C  
BRANCH  12  13
HETATM   13  C   UNL     1      -6.076  13.153  67.487  1.00  0.00    -0.112 C  
BRANCH  13  14
HETATM   14  C   UNL     1      -6.947  12.042  68.054  1.00  0.00    -0.084 C  
BRANCH  14  15
HETATM   15  N   UNL     1      -6.368  10.728  67.814  1.00  0.00    -0.058 N  
HETATM   16  C   UNL     1      -6.466  10.160  66.557  1.00  0.00    -0.076 C  
HETATM   17  C   UNL     1      -5.658  10.060  68.896  1.00  0.00    -0.035 C  
HETATM   18  O   UNL     1      -7.080  10.657  65.619  1.00  0.00    -0.136 OA 
BRANCH  16  19
HETATM   19  O   UNL     1      -5.902   8.893  66.516  1.00  0.00    -0.052 OA 
BRANCH  19  20
HETATM   20  C   UNL     1      -6.763   7.921  65.996  1.00  0.00    -0.053 A  
HETATM   21  C   UNL     1      -6.523   7.488  64.697  1.00  0.00    -0.041 A  
HETATM   22  C   UNL     1      -7.287   6.439  64.198  1.00  0.00    -0.072 A  
HETATM   23  C   UNL     1      -8.275   5.839  64.986  1.00  0.00    -0.137 A  
HETATM   24  C   UNL     1      -8.529   6.283  66.295  1.00  0.00    -0.133 A  
HETATM   25  C   UNL     1      -7.733   7.309  66.802  1.00  0.00    -0.109 A  
BRANCH  24  26
HETATM   26  N   UNL     1      -9.557   5.605  67.188  1.00  0.00    -0.125 N  
HETATM   27  C   UNL     1      -9.205   5.782  68.661  1.00  0.00    -0.118 C  
HETATM   28  C   UNL     1      -9.599   4.096  66.915  1.00  0.00    -0.209 C  
HETATM   29  C   UNL     1     -10.912   6.232  66.892  1.00  0.00    -0.329 C  
ENDBRANCH  24  26
ENDBRANCH  19  20
ENDBRANCH  16  19
ENDBRANCH  14  15
ENDBRANCH  13  14
ENDBRANCH  12  13
ENDBRANCH  11  12
ENDBRANCH  10  11
ENDBRANCH   9  10
ENDBRANCH   8   9
ENDBRANCH   7   8
ENDBRANCH   6   7
ENDBRANCH   5   6
ENDBRANCH   2   5
BRANCH   4  30
HETATM   30  O   UNL     1     -12.096  12.273  69.131  1.00  0.00    -0.264 OA 
BRANCH  30  31
HETATM   31  C   UNL     1     -11.444  11.593  68.089  1.00  0.00    -0.313 A  
HETATM   32  C   UNL     1     -10.785  10.390  68.350  1.00  0.00    -0.263 A  
HETATM   33  C   UNL     1     -11.566  12.087  66.787  1.00  0.00    -0.391 A  
HETATM   34  C   UNL     1     -10.974  11.385  65.723  1.00  0.00    -0.194 A  
HETATM   35  C   UNL     1     -10.189   9.700  67.310  1.00  0.00    -0.292 A  
HETATM   36  C   UNL     1     -10.275  10.198  66.011  1.00  0.00    -0.288 A  
BRANCH  34  37
HETATM   37  N   UNL     1     -10.986  11.950  64.307  1.00  0.00    -0.329 N  
HETATM   38  C   UNL     1     -12.408  12.031  63.749  1.00  0.00    -0.496 C  
HETATM   39  C   UNL     1     -10.417  13.368  64.281  1.00  0.00    -0.305 C  
HETATM   40  C   UNL     1     -10.155  11.005  63.438  1.00  0.00    -0.370 C  
ENDBRANCH  34  37
ENDBRANCH  30  31
ENDBRANCH   4  30
TORSDOF 17
ENDMDL
MODEL      254
REMARK 921   NORMALIZED FREE ENERGY PREDICTED BY IDOCK:   -3.07 KCAL/MOL
REMARK 922        TOTAL FREE ENERGY PREDICTED BY IDOCK:   -8.35 KCAL/MOL
REMARK 923 INTER-LIGAND FREE ENERGY PREDICTED BY IDOCK:   -7.36 KCAL/MOL
REMARK 924 INTRA-LIGAND FREE ENERGY PREDICTED BY IDOCK:   -0.99 KCAL/MOL
REMARK 927      BINDING AFFINITY PREDICTED BY RF-SCORE:    0.00 PKD
ROOT
HETATM    1  C   UNL     1     -13.355  10.248  71.014  1.00  0.00    -0.225 C  
HETATM    2  N   UNL     1     -12.119   9.503  71.182  1.00  0.00    -0.327 N  
HETATM    3  O   UNL     1      -9.886   9.319  70.593  1.00  0.00    -0.229 OA 
HETATM    4  C   UNL     1     -10.937   9.953  70.609  1.00  0.00    -0.337 C  
ENDROOT
BRANCH   2   5
HETATM    5  C   UNL     1     -12.182   8.160  71.755  1.00  0.00    -0.319 C  
BRANCH   5   6
HETATM    6  C   UNL     1     -11.105   7.913  72.821  1.00  0.00    -0.462 C  
BRANCH   6   7
HETATM    7  C   UNL     1     -11.034   6.430  73.208  1.00  0.00    -0.218 C  
BRANCH   7   8
HETATM    8  C   UNL     1      -9.968   6.168  74.279  1.00  0.00    -0.294 C  
BRANCH   8   9
HETATM    9  C   UNL     1      -9.030   5.031  73.863  1.00  0.00    -0.113 C  
BRANCH   9  10
HETATM   10  C   UNL     1      -9.175   4.693  72.376  1.00  0.00    -0.149 C  
BRANCH  10  11
HETATM   11  C   UNL     1      -8.440   3.411  71.972  1.00  0.00    -0.093 C  
BRANCH  11  12
HETATM   12  C   UNL     1      -7.460   3.618  70.819  1.00  0.00    -0.040 C  
BRANCH  12  13
HETATM   13  C   UNL     1      -6.625   4.882  71.012  1.00  0.00    -0.031 C  
BRANCH  13  14
HETATM   14  C   UNL     1      -7.220   6.032  70.214  1.00  0.00    -0.076 C  
BRANCH  14  15
HETATM   15  N   UNL     1      -6.472   6.284  68.991  1.00  0.00    -0.041 N  
HETATM   16  C   UNL     1      -6.811   7.363  68.196  1.00  0.00    -0.063 C  
HETATM   17  C   UNL     1      -5.350   5.418  68.658  1.00  0.00    -0.007 C  
HETATM   18  O   UNL     1      -7.766   8.104  68.405  1.00  0.00    -0.108 OA 
BRANCH  16  19
HETATM   19  O   UNL     1      -6.028   7.429  67.053  1.00  0.00    -0.038 OA 
BRANCH  19  20
HETATM   20  C   UNL     1      -6.767   7.322  65.870  1.00  0.00    -0.053 A  
HETATM   21  C   UNL     1      -6.934   8.478  65.117  1.00  0.00    -0.075 A  
HETATM   22  C   UNL     1      -7.560   8.378  63.879  1.00  0.00    -0.135 A  
HETATM   23  C   UNL     1      -8.011   7.141  63.408  1.00  0.00    -0.066 A  
HETATM   24  C   UNL     1      -7.855   5.971  64.172  1.00  0.00    -0.117 A  
HETATM   25  C   UNL     1      -7.192   6.073  65.394  1.00  0.00    -0.074 A  
BRANCH  24  26
HETATM   26  N   UNL     1      -8.284   4.608  63.651  1.00  0.00    -0.101 N  
HETATM   27  C   UNL     1      -9.063   3.836  64.711  1.00  0.00    -0.139 C  
HETATM   28  C   UNL     1      -7.061   3.758  63.285  1.00  0.00    -0.049 C  
HETATM   29  C   UNL     1      -9.154   4.835  62.422  1.00  0.00    -0.108 C  
ENDBRANCH  24  26
ENDBRANCH  19  20
ENDBRANCH  16  19
ENDBRANCH  14  15
ENDBRANCH  13  14
ENDBRANCH  12  13
ENDBRANCH  11  12
ENDBRANCH  10  11
ENDBRANCH   9  10
ENDBRANCH   8   9
ENDBRANCH   7   8
ENDBRANCH   6   7
ENDBRANCH   5   6
ENDBRANCH   2   5
BRANCH   4  30
HETATM   30  O   UNL     1     -11.085  11.192  69.979  1.00  0.00    -0.222 OA 
BRANCH  30  31
HETATM   31  C   UNL     1     -10.894  11.138  68.588  1.00  0.00    -0.209 A  
HETATM   32  C   UNL     1     -10.553   9.929  67.980  1.00  0.00    -0.288 A  
HETATM   33  C   UNL     1     -11.159  12.283  67.831  1.00  0.00    -0.290 A  
HETATM   34  C   UNL     1     -11.035  12.231  66.431  1.00  0.00    -0.287 A  
HETATM   35  C   UNL     1     -10.416   9.873  66.604  1.00  0.00    -0.239 A  
HETATM   36  C   UNL     1     -10.646  11.015  65.839  1.00  0.00    -0.270 A  
BRANCH  34  37
HETATM   37  N   UNL     1     -11.204  13.485  65.581  1.00  0.00    -0.292 N  
HETATM   38  C   UNL     1     -12.667  13.922  65.512  1.00  0.00    -0.499 C  
HETATM   39  C   UNL     1     -10.418  14.655  66.174  1.00  0.00    -0.302 C  
HETATM   40  C   UNL     1     -10.710  13.145  64.174  1.00  0.00    -0.374 C  
ENDBRANCH  34  37
ENDBRANCH  30  31
ENDBRANCH   4  30
TORSDOF 17
ENDMDL
MODEL      255
REMARK 921   NORMALIZED FREE ENERGY PREDICTED BY IDOCK:   -3.06 KCAL/MOL
REMARK 922        TOTAL FREE ENERGY PREDICTED BY IDOCK:   -8.33 KCAL/MOL
REMARK 923 INTER-LIGAND FREE ENERGY PREDICTED BY IDOCK:   -7.90 KCAL/MOL
REMARK 924 INTRA-LIGAND FREE ENERGY PREDICTED BY IDOCK:   -0.43 KCAL/MOL
REMARK 927      BINDING AFFINITY PREDICTED BY RF-SCORE:    0.00 PKD
ROOT
HETATM    1  C   UNL     1     -10.905   6.014  67.624  1.00  0.00    -0.295 C  
HETATM    2  N   UNL     1      -9.453   6.045  67.611  1.00  0.00    -0.112 N  
HETATM    3  O   UNL     1      -7.498   4.986  68.261  1.00  0.00    -0.073 OA 
HETATM    4  C   UNL     1      -8.717   4.982  68.116  1.00  0.00    -0.102 C  
ENDROOT
BRANCH   2   5
HETATM    5  C   UNL     1      -8.781   7.300  67.279  1.00  0.00    -0.121 C  
BRANCH   5   6
HETATM    6  C   UNL     1      -8.383   8.113  68.519  1.00  0.00    -0.126 C  
BRANCH   6   7
HETATM    7  C   UNL     1      -9.481   9.111  68.907  1.00  0.00    -0.151 C  
BRANCH   7   8
HETATM    8  C   UNL     1      -9.050  10.562  68.654  1.00  0.00    -0.158 C  
BRANCH   8   9
HETATM    9  C   UNL     1     -10.190  11.540  68.955  1.00  0.00    -0.166 C  
BRANCH   9  10
HETATM   10  C   UNL     1     -10.687  12.237  67.685  1.00  0.00    -0.250 C  
BRANCH  10  11
HETATM   11  C   UNL     1      -9.901  11.842  66.430  1.00  0.00    -0.237 C  
BRANCH  11  12
HETATM   12  C   UNL     1     -10.697  10.951  65.479  1.00  0.00    -0.182 C  
BRANCH  12  13
HETATM   13  C   UNL     1     -11.629  11.771  64.590  1.00  0.00    -0.270 C  
BRANCH  13  14
HETATM   14  C   UNL     1     -10.986  13.107  64.247  1.00  0.00    -0.403 C  
BRANCH  14  15
HETATM   15  N   UNL     1     -11.488  14.180  65.091  1.00  0.00    -0.323 N  
HETATM   16  C   UNL     1     -10.685  15.276  65.348  1.00  0.00    -0.391 C  
HETATM   17  C   UNL     1     -12.846  14.095  65.610  1.00  0.00    -0.371 C  
HETATM   18  O   UNL     1      -9.524  15.387  64.970  1.00  0.00    -0.025 OA 
BRANCH  16  19
HETATM   19  O   UNL     1     -11.301  16.179  66.203  1.00  0.00     0.115 OA 
BRANCH  19  20
HETATM   20  C   UNL     1     -10.395  16.923  66.967  1.00  0.00    -0.307 A  
HETATM   21  C   UNL     1     -10.808  18.177  67.400  1.00  0.00    -0.258 A  
HETATM   22  C   UNL     1      -9.977  18.888  68.259  1.00  0.00    -0.431 A  
HETATM   23  C   UNL     1      -8.754  18.350  68.673  1.00  0.00    -0.306 A  
HETATM   24  C   UNL     1      -8.327  17.087  68.227  1.00  0.00    -0.228 A  
HETATM   25  C   UNL     1      -9.183  16.365  67.397  1.00  0.00    -0.213 A  
BRANCH  24  26
HETATM   26  N   UNL     1      -7.030  16.460  68.713  1.00  0.00    -0.160 N  
HETATM   27  C   UNL     1      -7.304  15.268  69.624  1.00  0.00    -0.188 C  
HETATM   28  C   UNL     1      -6.213  17.470  69.530  1.00  0.00    -0.246 C  
HETATM   29  C   UNL     1      -6.244  16.015  67.488  1.00  0.00    -0.165 C  
ENDBRANCH  24  26
ENDBRANCH  19  20
ENDBRANCH  16  19
ENDBRANCH  14  15
ENDBRANCH  13  14
ENDBRANCH  12  13
ENDBRANCH  11  12
ENDBRANCH  10  11
ENDBRANCH   9  10
ENDBRANCH   8   9
ENDBRANCH   7   8
ENDBRANCH   6   7
ENDBRANCH   5   6
ENDBRANCH   2   5
BRANCH   4  30
HETATM   30  O   UNL     1      -9.525   3.914  68.518  1.00  0.00    -0.156 OA 
BRANCH  30  31
HETATM   31  C   UNL     1      -9.596   3.760  69.913  1.00  0.00    -0.184 A  
HETATM   32  C   UNL     1      -9.646   2.480  70.468  1.00  0.00    -0.138 A  
HETATM   33  C   UNL     1      -9.505   4.899  70.718  1.00  0.00    -0.232 A  
HETATM   34  C   UNL     1      -9.510   4.759  72.117  1.00  0.00    -0.139 A  
HETATM   35  C   UNL     1      -9.665   2.335  71.843  1.00  0.00    -0.212 A  
HETATM   36  C   UNL     1      -9.607   3.464  72.659  1.00  0.00    -0.184 A  
BRANCH  34  37
HETATM   37  N   UNL     1      -9.527   5.981  73.028  1.00  0.00    -0.143 N  
HETATM   38  C   UNL     1     -10.898   6.178  73.676  1.00  0.00    -0.126 C  
HETATM   39  C   UNL     1      -8.516   5.827  74.165  1.00  0.00    -0.113 C  
HETATM   40  C   UNL     1      -9.199   7.195  72.158  1.00  0.00    -0.129 C  
ENDBRANCH  34  37
ENDBRANCH  30  31
ENDBRANCH   4  30
TORSDOF 17
ENDMDL
MODEL      256
REMARK 921   NORMALIZED FREE ENERGY PREDICTED BY IDOCK:   -3.02 KCAL/MOL
REMARK 922        TOTAL FREE ENERGY PREDICTED BY IDOCK:   -8.25 KCAL/MOL
REMARK 923 INTER-LIGAND FREE ENERGY PREDICTED BY IDOCK:   -8.25 KCAL/MOL
REMARK 924 INTRA-LIGAND FREE ENERGY PREDICTED BY IDOCK:    0.00 KCAL/MOL
REMARK 927      BINDING AFFINITY PREDICTED BY RF-SCORE:    0.00 PKD
ROOT
HETATM    1  C   UNL     1      -7.153  16.260  69.868  1.00  0.00     0.269 C  
HETATM    2  N   UNL     1      -7.542  16.240  68.468  1.00  0.00    -0.169 N  
HETATM    3  O   UNL     1      -9.299  16.248  66.958  1.00  0.00    -0.213 OA 
HETATM    4  C   UNL     1      -8.873  16.384  68.101  1.00  0.00    -0.192 C  
ENDROOT
BRANCH   2   5
HETATM    5  C   UNL     1      -6.555  15.830  67.472  1.00  0.00    -0.183 C  
BRANCH   5   6
HETATM    6  C   UNL     1      -6.352  14.309  67.419  1.00  0.00     0.142 C  
BRANCH   6   7
HETATM    7  C   UNL     1      -7.071  13.610  68.579  1.00  0.00    -0.107 C  
BRANCH   7   8
HETATM    8  C   UNL     1      -8.167  12.659  68.084  1.00  0.00    -0.170 C  
BRANCH   8   9
HETATM    9  C   UNL     1      -7.903  12.208  66.644  1.00  0.00     0.088 C  
BRANCH   9  10
HETATM   10  C   UNL     1      -9.076  11.400  66.080  1.00  0.00    -0.217 C  
BRANCH  10  11
HETATM   11  C   UNL     1      -8.678  10.491  64.912  1.00  0.00    -0.192 C  
BRANCH  11  12
HETATM   12  C   UNL     1      -9.130   9.044  65.098  1.00  0.00    -0.203 C  
BRANCH  12  13
HETATM   13  C   UNL     1      -8.008   8.060  64.773  1.00  0.00    -0.143 C  
BRANCH  13  14
HETATM   14  C   UNL     1      -6.767   8.392  65.587  1.00  0.00    -0.056 C  
BRANCH  14  15
HETATM   15  N   UNL     1      -6.941   8.066  66.995  1.00  0.00    -0.073 N  
HETATM   16  C   UNL     1      -7.059   6.742  67.377  1.00  0.00    -0.084 C  
HETATM   17  C   UNL     1      -6.941   9.143  67.975  1.00  0.00    -0.077 C  
HETATM   18  O   UNL     1      -7.103   5.798  66.597  1.00  0.00    -0.066 OA 
BRANCH  16  19
HETATM   19  O   UNL     1      -7.262   6.616  68.744  1.00  0.00    -0.079 OA 
BRANCH  19  20
HETATM   20  C   UNL     1      -8.611   6.679  69.110  1.00  0.00    -0.130 A  
HETATM   21  C   UNL     1      -9.550   6.353  68.139  1.00  0.00    -0.115 A  
HETATM   22  C   UNL     1     -10.889   6.291  68.507  1.00  0.00    -0.394 A  
HETATM   23  C   UNL     1     -11.278   6.554  69.825  1.00  0.00    -0.456 A  
HETATM   24  C   UNL     1     -10.333   6.896  70.807  1.00  0.00    -0.203 A  
HETATM   25  C   UNL     1      -8.988   6.918  70.439  1.00  0.00    -0.152 A  
BRANCH  24  26
HETATM   26  N   UNL     1     -10.729   7.126  72.257  1.00  0.00    -0.214 N  
HETATM   27  C   UNL     1     -11.991   7.977  72.353  1.00  0.00    -0.350 C  
HETATM   28  C   UNL     1      -9.622   7.877  73.008  1.00  0.00    -0.276 C  
HETATM   29  C   UNL     1     -10.966   5.764  72.894  1.00  0.00    -0.274 C  
ENDBRANCH  24  26
ENDBRANCH  19  20
ENDBRANCH  16  19
ENDBRANCH  14  15
ENDBRANCH  13  14
ENDBRANCH  12  13
ENDBRANCH  11  12
ENDBRANCH  10  11
ENDBRANCH   9  10
ENDBRANCH   8   9
ENDBRANCH   7   8
ENDBRANCH   6   7
ENDBRANCH   5   6
ENDBRANCH   2   5
BRANCH   4  30
HETATM   30  O   UNL     1      -9.706  16.635  69.195  1.00  0.00    -0.262 OA 
BRANCH  30  31
HETATM   31  C   UNL     1     -10.630  15.605  69.443  1.00  0.00    -0.253 A  
HETATM   32  C   UNL     1     -10.725  14.530  68.558  1.00  0.00    -0.253 A  
HETATM   33  C   UNL     1     -11.358  15.631  70.636  1.00  0.00    -0.392 A  
HETATM   34  C   UNL     1     -12.240  14.577  70.931  1.00  0.00    -0.339 A  
HETATM   35  C   UNL     1     -11.600  13.495  68.834  1.00  0.00    -0.364 A  
HETATM   36  C   UNL     1     -12.357  13.524  70.005  1.00  0.00    -0.315 A  
BRANCH  34  37
HETATM   37  N   UNL     1     -13.135  14.624  72.164  1.00  0.00    -0.325 N  
HETATM   38  C   UNL     1     -13.632  13.231  72.550  1.00  0.00    -0.532 C  
HETATM   39  C   UNL     1     -12.372  15.174  73.370  1.00  0.00    -0.484 C  
HETATM   40  C   UNL     1     -14.332  15.511  71.818  1.00  0.00    -0.444 C  
ENDBRANCH  34  37
ENDBRANCH  30  31
ENDBRANCH   4  30
TORSDOF 17
ENDMDL
MODEL      257
REMARK 921   NORMALIZED FREE ENERGY PREDICTED BY IDOCK:   -2.97 KCAL/MOL
REMARK 922        TOTAL FREE ENERGY PREDICTED BY IDOCK:   -8.16 KCAL/MOL
REMARK 923 INTER-LIGAND FREE ENERGY PREDICTED BY IDOCK:   -7.01 KCAL/MOL
REMARK 924 INTRA-LIGAND FREE ENERGY PREDICTED BY IDOCK:   -1.15 KCAL/MOL
REMARK 927      BINDING AFFINITY PREDICTED BY RF-SCORE:    0.00 PKD
ROOT
HETATM    1  C   UNL     1     -13.004  10.898  70.217  1.00  0.00    -0.043 C  
HETATM    2  N   UNL     1     -11.621  10.540  69.953  1.00  0.00    -0.283 N  
HETATM    3  O   UNL     1      -9.938  10.394  68.367  1.00  0.00    -0.154 OA 
HETATM    4  C   UNL     1     -11.050  10.783  68.711  1.00  0.00    -0.259 C  
ENDROOT
BRANCH   2   5
HETATM    5  C   UNL     1     -10.914   9.710  70.926  1.00  0.00    -0.342 C  
BRANCH   5   6
HETATM    6  C   UNL     1     -10.855   8.230  70.522  1.00  0.00    -0.245 C  
BRANCH   6   7
HETATM    7  C   UNL     1     -11.905   7.404  71.276  1.00  0.00    -0.330 C  
BRANCH   7   8
HETATM    8  C   UNL     1     -11.408   6.976  72.663  1.00  0.00    -0.290 C  
BRANCH   8   9
HETATM    9  C   UNL     1     -11.352   5.450  72.787  1.00  0.00    -0.358 C  
BRANCH   9  10
HETATM   10  C   UNL     1      -9.912   4.946  72.918  1.00  0.00    -0.194 C  
BRANCH  10  11
HETATM   11  C   UNL     1      -9.092   5.114  71.634  1.00  0.00    -0.163 C  
BRANCH  11  12
HETATM   12  C   UNL     1      -7.584   5.084  71.877  1.00  0.00    -0.102 C  
BRANCH  12  13
HETATM   13  C   UNL     1      -6.920   6.388  71.441  1.00  0.00    -0.076 C  
BRANCH  13  14
HETATM   14  C   UNL     1      -7.309   7.517  72.383  1.00  0.00    -0.074 C  
BRANCH  14  15
HETATM   15  N   UNL     1      -6.386   8.639  72.292  1.00  0.00    -0.076 N  
HETATM   16  C   UNL     1      -6.672   9.686  71.435  1.00  0.00     0.201 C  
HETATM   17  C   UNL     1      -5.204   8.653  73.142  1.00  0.00    -0.059 C  
HETATM   18  O   UNL     1      -7.630   9.713  70.670  1.00  0.00    -0.210 OA 
BRANCH  16  19
HETATM   19  O   UNL     1      -5.669  10.645  71.440  1.00  0.00    -0.309 OA 
BRANCH  19  20
HETATM   20  C   UNL     1      -5.539  11.315  70.218  1.00  0.00    -0.121 A  
HETATM   21  C   UNL     1      -5.206  10.550  69.106  1.00  0.00    -0.038 A  
HETATM   22  C   UNL     1      -5.187  11.167  67.860  1.00  0.00    -0.039 A  
HETATM   23  C   UNL     1      -5.493  12.526  67.734  1.00  0.00    -0.103 A  
HETATM   24  C   UNL     1      -5.818  13.306  68.857  1.00  0.00    -0.076 A  
HETATM   25  C   UNL     1      -5.873  12.671  70.098  1.00  0.00    -0.158 A  
BRANCH  24  26
HETATM   26  N   UNL     1      -6.214  14.769  68.733  1.00  0.00    -0.081 N  
HETATM   27  C   UNL     1      -7.503  14.923  67.933  1.00  0.00    -0.141 C  
HETATM   28  C   UNL     1      -5.129  15.561  67.993  1.00  0.00    -0.125 C  
HETATM   29  C   UNL     1      -6.401  15.318  70.140  1.00  0.00    -0.112 C  
ENDBRANCH  24  26
ENDBRANCH  19  20
ENDBRANCH  16  19
ENDBRANCH  14  15
ENDBRANCH  13  14
ENDBRANCH  12  13
ENDBRANCH  11  12
ENDBRANCH  10  11
ENDBRANCH   9  10
ENDBRANCH   8   9
ENDBRANCH   7   8
ENDBRANCH   6   7
ENDBRANCH   5   6
ENDBRANCH   2   5
BRANCH   4  30
HETATM   30  O   UNL     1     -11.914  11.466  67.850  1.00  0.00    -0.626 OA 
BRANCH  30  31
HETATM   31  C   UNL     1     -11.323  11.813  66.624  1.00  0.00    -0.316 A  
HETATM   32  C   UNL     1     -11.514  13.092  66.098  1.00  0.00    -0.366 A  
HETATM   33  C   UNL     1     -10.463  10.897  66.011  1.00  0.00    -0.287 A  
HETATM   34  C   UNL     1      -9.813  11.251  64.816  1.00  0.00    -0.266 A  
HETATM   35  C   UNL     1     -10.888  13.444  64.916  1.00  0.00    -0.363 A  
HETATM   36  C   UNL     1     -10.053  12.528  64.276  1.00  0.00    -0.298 A  
BRANCH  34  37
HETATM   37  N   UNL     1      -8.959  10.240  64.058  1.00  0.00    -0.216 N  
HETATM   38  C   UNL     1      -9.513   9.977  62.657  1.00  0.00    -0.197 C  
HETATM   39  C   UNL     1      -7.531  10.758  63.882  1.00  0.00     0.355 C  
HETATM   40  C   UNL     1      -8.979   8.940  64.864  1.00  0.00    -0.076 C  
ENDBRANCH  34  37
ENDBRANCH  30  31
ENDBRANCH   4  30
TORSDOF 17
ENDMDL
MODEL      258
REMARK 921   NORMALIZED FREE ENERGY PREDICTED BY IDOCK:   -2.96 KCAL/MOL
REMARK 922        TOTAL FREE ENERGY PREDICTED BY IDOCK:   -8.13 KCAL/MOL
REMARK 923 INTER-LIGAND FREE ENERGY PREDICTED BY IDOCK:   -7.57 KCAL/MOL
REMARK 924 INTRA-LIGAND FREE ENERGY PREDICTED BY IDOCK:   -0.56 KCAL/MOL
REMARK 927      BINDING AFFINITY PREDICTED BY RF-SCORE:    0.00 PKD
ROOT
HETATM    1  C   UNL     1     -10.135   7.126  68.867  1.00  0.00    -0.177 C  
HETATM    2  N   UNL     1     -10.114   8.409  68.185  1.00  0.00    -0.193 N  
HETATM    3  O   UNL     1      -8.906   9.851  66.832  1.00  0.00    -0.133 OA 
HETATM    4  C   UNL     1      -9.065   8.744  67.339  1.00  0.00    -0.133 C  
ENDROOT
BRANCH   2   5
HETATM    5  C   UNL     1     -11.081   9.430  68.581  1.00  0.00     0.060 C  
BRANCH   5   6
HETATM    6  C   UNL     1     -10.463  10.540  69.441  1.00  0.00    -0.264 C  
BRANCH   6   7
HETATM    7  C   UNL     1     -11.513  11.581  69.848  1.00  0.00    -0.340 C  
BRANCH   7   8
HETATM    8  C   UNL     1     -11.355  12.890  69.063  1.00  0.00    -0.341 C  
BRANCH   8   9
HETATM    9  C   UNL     1     -11.042  12.620  67.589  1.00  0.00    -0.303 C  
BRANCH   9  10
HETATM   10  C   UNL     1      -9.833  13.429  67.109  1.00  0.00    -0.237 C  
BRANCH  10  11
HETATM   11  C   UNL     1      -8.894  13.846  68.246  1.00  0.00    -0.185 C  
BRANCH  11  12
HETATM   12  C   UNL     1      -7.570  13.085  68.240  1.00  0.00    -0.135 C  
BRANCH  12  13
HETATM   13  C   UNL     1      -6.421  13.962  67.748  1.00  0.00    -0.178 C  
BRANCH  13  14
HETATM   14  C   UNL     1      -5.868  14.795  68.894  1.00  0.00    -0.086 C  
BRANCH  14  15
HETATM   15  N   UNL     1      -5.517  16.140  68.462  1.00  0.00    -0.100 N  
HETATM   16  C   UNL     1      -5.500  17.169  69.387  1.00  0.00    -0.171 C  
HETATM   17  C   UNL     1      -5.145  16.363  67.072  1.00  0.00     0.036 C  
HETATM   18  O   UNL     1      -5.837  17.051  70.560  1.00  0.00    -0.130 OA 
BRANCH  16  19
HETATM   19  O   UNL     1      -5.188  18.386  68.799  1.00  0.00    -0.177 OA 
BRANCH  19  20
HETATM   20  C   UNL     1      -6.311  19.078  68.332  1.00  0.00    -0.228 A  
HETATM   21  C   UNL     1      -6.104  20.352  67.817  1.00  0.00    -0.278 A  
HETATM   22  C   UNL     1      -7.180  21.014  67.237  1.00  0.00    -0.363 A  
HETATM   23  C   UNL     1      -8.440  20.410  67.177  1.00  0.00    -0.393 A  
HETATM   24  C   UNL     1      -8.656  19.126  67.707  1.00  0.00    -0.301 A  
HETATM   25  C   UNL     1      -7.564  18.453  68.253  1.00  0.00    -0.301 A  
BRANCH  24  26
HETATM   26  N   UNL     1     -10.003  18.427  67.597  1.00  0.00    -0.323 N  
HETATM   27  C   UNL     1     -10.093  17.608  66.314  1.00  0.00    -0.341 C  
HETATM   28  C   UNL     1     -11.143  19.453  67.556  1.00  0.00    -0.136 C  
HETATM   29  C   UNL     1     -10.153  17.521  68.810  1.00  0.00    -0.363 C  
ENDBRANCH  24  26
ENDBRANCH  19  20
ENDBRANCH  16  19
ENDBRANCH  14  15
ENDBRANCH  13  14
ENDBRANCH  12  13
ENDBRANCH  11  12
ENDBRANCH  10  11
ENDBRANCH   9  10
ENDBRANCH   8   9
ENDBRANCH   7   8
ENDBRANCH   6   7
ENDBRANCH   5   6
ENDBRANCH   2   5
BRANCH   4  30
HETATM   30  O   UNL     1      -8.152   7.698  67.177  1.00  0.00    -0.114 OA 
BRANCH  30  31
HETATM   31  C   UNL     1      -8.113   7.186  65.869  1.00  0.00    -0.122 A  
HETATM   32  C   UNL     1      -7.629   7.980  64.827  1.00  0.00    -0.105 A  
HETATM   33  C   UNL     1      -8.461   5.848  65.662  1.00  0.00    -0.153 A  
HETATM   34  C   UNL     1      -8.368   5.301  64.371  1.00  0.00    -0.137 A  
HETATM   35  C   UNL     1      -7.546   7.452  63.551  1.00  0.00    -0.121 A  
HETATM   36  C   UNL     1      -7.921   6.129  63.324  1.00  0.00    -0.102 A  
BRANCH  34  37
HETATM   37  N   UNL     1      -8.845   3.882  64.084  1.00  0.00    -0.113 N  
HETATM   38  C   UNL     1     -10.251   3.875  63.481  1.00  0.00    -0.180 C  
HETATM   39  C   UNL     1      -7.926   3.192  63.076  1.00  0.00    -0.072 C  
HETATM   40  C   UNL     1      -8.863   3.134  65.417  1.00  0.00    -0.136 C  
ENDBRANCH  34  37
ENDBRANCH  30  31
ENDBRANCH   4  30
TORSDOF 17
ENDMDL
MODEL      259
REMARK 921   NORMALIZED FREE ENERGY PREDICTED BY IDOCK:   -2.92 KCAL/MOL
REMARK 922        TOTAL FREE ENERGY PREDICTED BY IDOCK:   -8.06 KCAL/MOL
REMARK 923 INTER-LIGAND FREE ENERGY PREDICTED BY IDOCK:   -6.46 KCAL/MOL
REMARK 924 INTRA-LIGAND FREE ENERGY PREDICTED BY IDOCK:   -1.60 KCAL/MOL
REMARK 927      BINDING AFFINITY PREDICTED BY RF-SCORE:    0.00 PKD
ROOT
HETATM    1  C   UNL     1      -7.395   4.301  70.733  1.00  0.00    -0.044 C  
HETATM    2  N   UNL     1      -8.640   3.863  70.124  1.00  0.00    -0.063 N  
HETATM    3  O   UNL     1      -9.646   2.927  68.259  1.00  0.00    -0.184 OA 
HETATM    4  C   UNL     1      -8.638   3.210  68.899  1.00  0.00    -0.073 C  
ENDROOT
BRANCH   2   5
HETATM    5  C   UNL     1      -9.902   4.325  70.697  1.00  0.00    -0.195 C  
BRANCH   5   6
HETATM    6  C   UNL     1     -10.007   5.856  70.761  1.00  0.00    -0.241 C  
BRANCH   6   7
HETATM    7  C   UNL     1     -10.375   6.447  69.395  1.00  0.00    -0.252 C  
BRANCH   7   8
HETATM    8  C   UNL     1      -9.154   7.039  68.680  1.00  0.00    -0.132 C  
BRANCH   8   9
HETATM    9  C   UNL     1      -9.575   8.002  67.566  1.00  0.00    -0.191 C  
BRANCH   9  10
HETATM   10  C   UNL     1     -10.719   8.918  68.011  1.00  0.00    -0.168 C  
BRANCH  10  11
HETATM   11  C   UNL     1     -10.291   9.960  69.049  1.00  0.00    -0.224 C  
BRANCH  11  12
HETATM   12  C   UNL     1      -9.105  10.809  68.594  1.00  0.00    -0.173 C  
BRANCH  12  13
HETATM   13  C   UNL     1      -9.538  11.895  67.612  1.00  0.00    -0.185 C  
BRANCH  13  14
HETATM   14  C   UNL     1      -9.571  13.248  68.306  1.00  0.00    -0.221 C  
BRANCH  14  15
HETATM   15  N   UNL     1      -8.381  14.034  68.015  1.00  0.00    -0.151 N  
HETATM   16  C   UNL     1      -8.363  14.855  66.903  1.00  0.00    -0.177 C  
HETATM   17  C   UNL     1      -7.251  13.970  68.931  1.00  0.00    -0.108 C  
HETATM   18  O   UNL     1      -9.268  14.923  66.078  1.00  0.00    -0.277 OA 
BRANCH  16  19
HETATM   19  O   UNL     1      -7.141  15.495  66.752  1.00  0.00    -0.174 OA 
BRANCH  19  20
HETATM   20  C   UNL     1      -7.257  16.881  66.600  1.00  0.00    -0.259 A  
HETATM   21  C   UNL     1      -6.208  17.542  65.973  1.00  0.00    -0.199 A  
HETATM   22  C   UNL     1      -6.348  18.898  65.702  1.00  0.00    -0.291 A  
HETATM   23  C   UNL     1      -7.518  19.578  66.055  1.00  0.00    -0.312 A  
HETATM   24  C   UNL     1      -8.577  18.916  66.700  1.00  0.00    -0.307 A  
HETATM   25  C   UNL     1      -8.445  17.548  66.935  1.00  0.00    -0.261 A  
BRANCH  24  26
HETATM   26  N   UNL     1      -9.880  19.623  67.038  1.00  0.00    -0.349 N  
HETATM   27  C   UNL     1     -10.631  18.890  68.145  1.00  0.00    -0.235 C  
HETATM   28  C   UNL     1     -10.807  19.661  65.816  1.00  0.00    -0.303 C  
HETATM   29  C   UNL     1      -9.538  21.037  67.483  1.00  0.00    -0.103 C  
ENDBRANCH  24  26
ENDBRANCH  19  20
ENDBRANCH  16  19
ENDBRANCH  14  15
ENDBRANCH  13  14
ENDBRANCH  12  13
ENDBRANCH  11  12
ENDBRANCH  10  11
ENDBRANCH   9  10
ENDBRANCH   8   9
ENDBRANCH   7   8
ENDBRANCH   6   7
ENDBRANCH   5   6
ENDBRANCH   2   5
BRANCH   4  30
HETATM   30  O   UNL     1      -7.345   2.967  68.425  1.00  0.00    -0.049 OA 
BRANCH  30  31
HETATM   31  C   UNL     1      -7.155   3.364  67.090  1.00  0.00    -0.058 A  
HETATM   32  C   UNL     1      -7.311   2.435  66.060  1.00  0.00    -0.066 A  
HETATM   33  C   UNL     1      -6.918   4.716  66.821  1.00  0.00    -0.060 A  
HETATM   34  C   UNL     1      -6.788   5.143  65.488  1.00  0.00    -0.061 A  
HETATM   35  C   UNL     1      -7.172   2.846  64.746  1.00  0.00    -0.062 A  
HETATM   36  C   UNL     1      -6.904   4.184  64.464  1.00  0.00    -0.045 A  
BRANCH  34  37
HETATM   37  N   UNL     1      -6.418   6.584  65.159  1.00  0.00    -0.038 N  
HETATM   38  C   UNL     1      -5.266   6.652  64.155  1.00  0.00    -0.026 C  
HETATM   39  C   UNL     1      -7.600   7.321  64.529  1.00  0.00    -0.107 C  
HETATM   40  C   UNL     1      -5.988   7.249  66.468  1.00  0.00    -0.036 C  
ENDBRANCH  34  37
ENDBRANCH  30  31
ENDBRANCH   4  30
TORSDOF 17
ENDMDL
MODEL      260
REMARK 921   NORMALIZED FREE ENERGY PREDICTED BY IDOCK:   -2.92 KCAL/MOL
REMARK 922        TOTAL FREE ENERGY PREDICTED BY IDOCK:   -8.05 KCAL/MOL
REMARK 923 INTER-LIGAND FREE ENERGY PREDICTED BY IDOCK:   -7.45 KCAL/MOL
REMARK 924 INTRA-LIGAND FREE ENERGY PREDICTED BY IDOCK:   -0.60 KCAL/MOL
REMARK 927      BINDING AFFINITY PREDICTED BY RF-SCORE:    0.00 PKD
ROOT
HETATM    1  C   UNL     1     -10.843  15.646  66.393  1.00  0.00    -0.252 C  
HETATM    2  N   UNL     1     -10.052  14.757  67.227  1.00  0.00    -0.235 N  
HETATM    3  O   UNL     1      -9.742  12.586  67.974  1.00  0.00    -0.202 OA 
HETATM    4  C   UNL     1     -10.272  13.386  67.210  1.00  0.00    -0.241 C  
ENDROOT
BRANCH   2   5
HETATM    5  C   UNL     1      -9.190  15.340  68.253  1.00  0.00    -0.189 C  
BRANCH   5   6
HETATM    6  C   UNL     1      -8.790  16.790  67.947  1.00  0.00    -0.218 C  
BRANCH   6   7
HETATM    7  C   UNL     1      -7.353  17.079  68.397  1.00  0.00    -0.213 C  
BRANCH   7   8
HETATM    8  C   UNL     1      -6.856  16.052  69.422  1.00  0.00    -0.215 C  
BRANCH   8   9
HETATM    9  C   UNL     1      -5.575  15.363  68.942  1.00  0.00    -0.098 C  
BRANCH   9  10
HETATM   10  C   UNL     1      -5.143  14.244  69.895  1.00  0.00    -0.092 C  
BRANCH  10  11
HETATM   11  C   UNL     1      -6.153  13.095  69.977  1.00  0.00    -0.113 C  
BRANCH  11  12
HETATM   12  C   UNL     1      -5.789  11.912  69.083  1.00  0.00    -0.067 C  
BRANCH  12  13
HETATM   13  C   UNL     1      -6.979  10.977  68.878  1.00  0.00    -0.088 C  
BRANCH  13  14
HETATM   14  C   UNL     1      -7.375  10.333  70.199  1.00  0.00    -0.103 C  
BRANCH  14  15
HETATM   15  N   UNL     1      -8.697   9.729  70.130  1.00  0.00    -0.211 N  
HETATM   16  C   UNL     1      -9.144   8.950  71.182  1.00  0.00    -0.249 C  
HETATM   17  C   UNL     1      -9.538   9.998  68.972  1.00  0.00    -0.196 C  
HETATM   18  O   UNL     1      -8.470   8.660  72.164  1.00  0.00    -0.285 OA 
BRANCH  16  19
HETATM   19  O   UNL     1     -10.402   8.419  70.933  1.00  0.00    -0.189 OA 
BRANCH  19  20
HETATM   20  C   UNL     1     -10.360   7.146  70.355  1.00  0.00    -0.203 A  
HETATM   21  C   UNL     1     -11.035   6.970  69.153  1.00  0.00    -0.193 A  
HETATM   22  C   UNL     1     -10.911   5.751  68.497  1.00  0.00    -0.257 A  
HETATM   23  C   UNL     1     -10.127   4.726  69.039  1.00  0.00    -0.171 A  
HETATM   24  C   UNL     1      -9.453   4.896  70.260  1.00  0.00    -0.171 A  
HETATM   25  C   UNL     1      -9.551   6.135  70.893  1.00  0.00    -0.193 A  
BRANCH  24  26
HETATM   26  N   UNL     1      -8.549   3.817  70.835  1.00  0.00    -0.071 N  
HETATM   27  C   UNL     1      -9.279   2.482  70.930  1.00  0.00    -0.129 C  
HETATM   28  C   UNL     1      -8.101   4.186  72.255  1.00  0.00    -0.091 C  
HETATM   29  C   UNL     1      -7.340   3.690  69.919  1.00  0.00    -0.042 C  
ENDBRANCH  24  26
ENDBRANCH  19  20
ENDBRANCH  16  19
ENDBRANCH  14  15
ENDBRANCH  13  14
ENDBRANCH  12  13
ENDBRANCH  11  12
ENDBRANCH  10  11
ENDBRANCH   9  10
ENDBRANCH   8   9
ENDBRANCH   7   8
ENDBRANCH   6   7
ENDBRANCH   5   6
ENDBRANCH   2   5
BRANCH   4  30
HETATM   30  O   UNL     1     -11.231  13.011  66.264  1.00  0.00    -0.287 OA 
BRANCH  30  31
HETATM   31  C   UNL     1     -10.709  12.232  65.217  1.00  0.00    -0.292 A  
HETATM   32  C   UNL     1     -11.039  12.537  63.895  1.00  0.00    -0.476 A  
HETATM   33  C   UNL     1      -9.780  11.234  65.523  1.00  0.00    -0.268 A  
HETATM   34  C   UNL     1      -9.199  10.487  64.482  1.00  0.00    -0.240 A  
HETATM   35  C   UNL     1     -10.482  11.798  62.866  1.00  0.00    -0.016 A  
HETATM   36  C   UNL     1      -9.578  10.778  63.158  1.00  0.00    -0.385 A  
BRANCH  34  37
HETATM   37  N   UNL     1      -8.270   9.316  64.781  1.00  0.00    -0.139 N  
HETATM   38  C   UNL     1      -8.939   8.289  65.695  1.00  0.00    -0.109 C  
HETATM   39  C   UNL     1      -7.886   8.584  63.495  1.00  0.00    -0.151 C  
HETATM   40  C   UNL     1      -7.036   9.888  65.480  1.00  0.00    -0.110 C  
ENDBRANCH  34  37
ENDBRANCH  30  31
ENDBRANCH   4  30
TORSDOF 17
ENDMDL
MODEL      261
REMARK 921   NORMALIZED FREE ENERGY PREDICTED BY IDOCK:   -2.87 KCAL/MOL
REMARK 922        TOTAL FREE ENERGY PREDICTED BY IDOCK:   -7.95 KCAL/MOL
REMARK 923 INTER-LIGAND FREE ENERGY PREDICTED BY IDOCK:   -6.42 KCAL/MOL
REMARK 924 INTRA-LIGAND FREE ENERGY PREDICTED BY IDOCK:   -1.53 KCAL/MOL
REMARK 927      BINDING AFFINITY PREDICTED BY RF-SCORE:    0.00 PKD
ROOT
HETATM    1  C   UNL     1      -5.285   9.845  68.972  1.00  0.00    -0.036 C  
HETATM    2  N   UNL     1      -6.716  10.090  69.023  1.00  0.00    -0.052 N  
HETATM    3  O   UNL     1      -8.393  11.681  69.174  1.00  0.00     0.062 OA 
HETATM    4  C   UNL     1      -7.214  11.385  69.003  1.00  0.00    -0.118 C  
ENDROOT
BRANCH   2   5
HETATM    5  C   UNL     1      -7.608   8.975  69.334  1.00  0.00    -0.078 C  
BRANCH   5   6
HETATM    6  C   UNL     1      -8.199   9.056  70.749  1.00  0.00    -0.213 C  
BRANCH   6   7
HETATM    7  C   UNL     1      -9.488   8.232  70.863  1.00  0.00    -0.192 C  
BRANCH   7   8
HETATM    8  C   UNL     1     -10.519   8.633  69.801  1.00  0.00    -0.220 C  
BRANCH   8   9
HETATM    9  C   UNL     1     -11.180   9.972  70.144  1.00  0.00    -0.367 C  
BRANCH   9  10
HETATM   10  C   UNL     1     -11.529  10.770  68.885  1.00  0.00    -0.362 C  
BRANCH  10  11
HETATM   11  C   UNL     1     -11.267   9.999  67.587  1.00  0.00    -0.099 C  
BRANCH  11  12
HETATM   12  C   UNL     1     -10.147  10.605  66.744  1.00  0.00    -0.272 C  
BRANCH  12  13
HETATM   13  C   UNL     1     -10.593  10.839  65.303  1.00  0.00    -0.230 C  
BRANCH  13  14
HETATM   14  C   UNL     1      -9.415  11.297  64.456  1.00  0.00    -0.185 C  
BRANCH  14  15
HETATM   15  N   UNL     1      -8.339  10.317  64.453  1.00  0.00    -0.166 N  
HETATM   16  C   UNL     1      -8.285   9.368  63.449  1.00  0.00    -0.168 C  
HETATM   17  C   UNL     1      -7.315  10.389  65.486  1.00  0.00    -0.139 C  
HETATM   18  O   UNL     1      -9.136   9.236  62.575  1.00  0.00    -0.239 OA 
BRANCH  16  19
HETATM   19  O   UNL     1      -7.225   8.490  63.623  1.00  0.00    -0.091 OA 
BRANCH  19  20
HETATM   20  C   UNL     1      -7.632   7.180  63.898  1.00  0.00    -0.109 A  
HETATM   21  C   UNL     1      -7.282   6.199  62.977  1.00  0.00    -0.055 A  
HETATM   22  C   UNL     1      -7.568   4.873  63.282  1.00  0.00    -0.061 A  
HETATM   23  C   UNL     1      -8.196   4.539  64.486  1.00  0.00    -0.107 A  
HETATM   24  C   UNL     1      -8.563   5.529  65.414  1.00  0.00    -0.151 A  
HETATM   25  C   UNL     1      -8.238   6.852  65.119  1.00  0.00    -0.115 A  
BRANCH  24  26
HETATM   26  N   UNL     1      -9.191   5.180  66.755  1.00  0.00    -0.120 N  
HETATM   27  C   UNL     1      -9.478   3.686  66.854  1.00  0.00    -0.187 C  
HETATM   28  C   UNL     1     -10.530   5.908  66.930  1.00  0.00    -0.286 C  
HETATM   29  C   UNL     1      -8.216   5.601  67.845  1.00  0.00    -0.101 C  
ENDBRANCH  24  26
ENDBRANCH  19  20
ENDBRANCH  16  19
ENDBRANCH  14  15
ENDBRANCH  13  14
ENDBRANCH  12  13
ENDBRANCH  11  12
ENDBRANCH  10  11
ENDBRANCH   9  10
ENDBRANCH   8   9
ENDBRANCH   7   8
ENDBRANCH   6   7
ENDBRANCH   5   6
ENDBRANCH   2   5
BRANCH   4  30
HETATM   30  O   UNL     1      -6.209  12.343  68.836  1.00  0.00    -0.068 OA 
BRANCH  30  31
HETATM   31  C   UNL     1      -6.679  13.665  68.901  1.00  0.00    -0.108 A  
HETATM   32  C   UNL     1      -5.998  14.607  69.675  1.00  0.00    -0.110 A  
HETATM   33  C   UNL     1      -7.763  14.032  68.098  1.00  0.00    -0.143 A  
HETATM   34  C   UNL     1      -8.207  15.366  68.102  1.00  0.00    -0.144 A  
HETATM   35  C   UNL     1      -6.437  15.919  69.694  1.00  0.00    -0.186 A  
HETATM   36  C   UNL     1      -7.536  16.292  68.922  1.00  0.00    -0.212 A  
BRANCH  34  37
HETATM   37  N   UNL     1      -9.454  15.780  67.328  1.00  0.00    -0.211 N  
HETATM   38  C   UNL     1     -10.184  16.932  68.018  1.00  0.00    -0.310 C  
HETATM   39  C   UNL     1      -9.088  16.262  65.924  1.00  0.00    -0.211 C  
HETATM   40  C   UNL     1     -10.374  14.559  67.271  1.00  0.00    -0.260 C  
ENDBRANCH  34  37
ENDBRANCH  30  31
ENDBRANCH   4  30
TORSDOF 17
ENDMDL
MODEL      262
REMARK 921   NORMALIZED FREE ENERGY PREDICTED BY IDOCK:   -2.73 KCAL/MOL
REMARK 922        TOTAL FREE ENERGY PREDICTED BY IDOCK:   -7.67 KCAL/MOL
REMARK 923 INTER-LIGAND FREE ENERGY PREDICTED BY IDOCK:   -9.09 KCAL/MOL
REMARK 924 INTRA-LIGAND FREE ENERGY PREDICTED BY IDOCK:    1.42 KCAL/MOL
REMARK 927      BINDING AFFINITY PREDICTED BY RF-SCORE:    0.00 PKD
ROOT
HETATM    1  C   UNL     1      -6.209   6.699  69.460  1.00  0.00    -0.037 C  
HETATM    2  N   UNL     1      -7.229   5.664  69.444  1.00  0.00    -0.064 N  
HETATM    3  O   UNL     1      -9.045   4.733  70.539  1.00  0.00    -0.111 OA 
HETATM    4  C   UNL     1      -8.230   5.641  70.405  1.00  0.00    -0.105 C  
ENDROOT
BRANCH   2   5
HETATM    5  C   UNL     1      -7.051   4.519  68.553  1.00  0.00    -0.053 C  
BRANCH   5   6
HETATM    6  C   UNL     1      -6.050   4.790  67.421  1.00  0.00    -0.031 C  
BRANCH   6   7
HETATM    7  C   UNL     1      -5.314   6.119  67.634  1.00  0.00    -0.005 C  
BRANCH   7   8
HETATM    8  C   UNL     1      -5.349   7.000  66.379  1.00  0.00    -0.022 C  
BRANCH   8   9
HETATM    9  C   UNL     1      -6.599   7.886  66.357  1.00  0.00    -0.050 C  
BRANCH   9  10
HETATM   10  C   UNL     1      -6.869   8.449  64.959  1.00  0.00    -0.067 C  
BRANCH  10  11
HETATM   11  C   UNL     1      -7.669   9.756  64.976  1.00  0.00    -0.126 C  
BRANCH  11  12
HETATM   12  C   UNL     1      -9.044   9.627  64.325  1.00  0.00    -0.267 C  
BRANCH  12  13
HETATM   13  C   UNL     1      -9.531  10.964  63.773  1.00  0.00    -0.308 C  
BRANCH  13  14
HETATM   14  C   UNL     1     -10.895  11.306  64.352  1.00  0.00    -0.303 C  
BRANCH  14  15
HETATM   15  N   UNL     1     -11.167  12.735  64.287  1.00  0.00    -0.341 N  
HETATM   16  C   UNL     1     -10.409  13.607  65.046  1.00  0.00    -0.374 C  
HETATM   17  C   UNL     1     -12.204  13.217  63.385  1.00  0.00    -0.444 C  
HETATM   18  O   UNL     1      -9.549  13.258  65.848  1.00  0.00    -0.218 OA 
BRANCH  16  19
HETATM   19  O   UNL     1     -10.829  14.921  64.897  1.00  0.00    -0.390 OA 
BRANCH  19  20
HETATM   20  C   UNL     1     -10.788  15.652  66.089  1.00  0.00    -0.264 A  
HETATM   21  C   UNL     1     -11.340  15.058  67.219  1.00  0.00    -0.337 A  
HETATM   22  C   UNL     1     -11.207  15.710  68.440  1.00  0.00    -0.352 A  
HETATM   23  C   UNL     1     -10.537  16.935  68.525  1.00  0.00    -0.367 A  
HETATM   24  C   UNL     1      -9.989  17.544  67.383  1.00  0.00    -0.315 A  
HETATM   25  C   UNL     1     -10.092  16.867  66.169  1.00  0.00    -0.347 A  
BRANCH  24  26
HETATM   26  N   UNL     1      -9.205  18.845  67.465  1.00  0.00    -0.288 N  
HETATM   27  C   UNL     1      -8.689  19.086  68.879  1.00  0.00    -0.253 C  
HETATM   28  C   UNL     1     -10.097  20.038  67.103  1.00  0.00    -0.446 C  
HETATM   29  C   UNL     1      -8.039  18.743  66.491  1.00  0.00    -0.289 C  
ENDBRANCH  24  26
ENDBRANCH  19  20
ENDBRANCH  16  19
ENDBRANCH  14  15
ENDBRANCH  13  14
ENDBRANCH  12  13
ENDBRANCH  11  12
ENDBRANCH  10  11
ENDBRANCH   9  10
ENDBRANCH   8   9
ENDBRANCH   7   8
ENDBRANCH   6   7
ENDBRANCH   5   6
ENDBRANCH   2   5
BRANCH   4  30
HETATM   30  O   UNL     1      -8.171   6.740  71.266  1.00  0.00    -0.117 OA 
BRANCH  30  31
HETATM   31  C   UNL     1      -9.276   7.601  71.151  1.00  0.00    -0.147 A  
HETATM   32  C   UNL     1     -10.325   7.511  72.067  1.00  0.00    -0.236 A  
HETATM   33  C   UNL     1      -9.245   8.606  70.178  1.00  0.00    -0.165 A  
HETATM   34  C   UNL     1     -10.312   9.516  70.090  1.00  0.00    -0.255 A  
HETATM   35  C   UNL     1     -11.385   8.395  71.978  1.00  0.00    -0.411 A  
HETATM   36  C   UNL     1     -11.383   9.382  70.993  1.00  0.00    -0.407 A  
BRANCH  34  37
HETATM   37  N   UNL     1     -10.369  10.552  68.973  1.00  0.00    -0.200 N  
HETATM   38  C   UNL     1     -11.052   9.993  67.724  1.00  0.00    -0.180 C  
HETATM   39  C   UNL     1     -11.172  11.778  69.408  1.00  0.00    -0.234 C  
HETATM   40  C   UNL     1      -8.926  10.929  68.635  1.00  0.00    -0.162 C  
ENDBRANCH  34  37
ENDBRANCH  30  31
ENDBRANCH   4  30
TORSDOF 17
ENDMDL
MODEL      263
REMARK 921   NORMALIZED FREE ENERGY PREDICTED BY IDOCK:   -2.73 KCAL/MOL
REMARK 922        TOTAL FREE ENERGY PREDICTED BY IDOCK:   -7.67 KCAL/MOL
REMARK 923 INTER-LIGAND FREE ENERGY PREDICTED BY IDOCK:   -7.64 KCAL/MOL
REMARK 924 INTRA-LIGAND FREE ENERGY PREDICTED BY IDOCK:   -0.03 KCAL/MOL
REMARK 927      BINDING AFFINITY PREDICTED BY RF-SCORE:    0.00 PKD
ROOT
HETATM    1  C   UNL     1      -9.640   8.076  72.839  1.00  0.00    -0.279 C  
HETATM    2  N   UNL     1     -10.787   8.112  71.949  1.00  0.00    -0.252 N  
HETATM    3  O   UNL     1     -12.663   6.990  71.179  1.00  0.00    -0.381 OA 
HETATM    4  C   UNL     1     -11.740   7.103  71.981  1.00  0.00    -0.289 C  
ENDROOT
BRANCH   2   5
HETATM    5  C   UNL     1     -10.803   9.090  70.863  1.00  0.00    -0.258 C  
BRANCH   5   6
HETATM    6  C   UNL     1     -11.071   8.457  69.490  1.00  0.00     0.040 C  
BRANCH   6   7
HETATM    7  C   UNL     1     -10.574   9.359  68.354  1.00  0.00    -0.247 C  
BRANCH   7   8
HETATM    8  C   UNL     1      -9.044   9.466  68.335  1.00  0.00    -0.128 C  
BRANCH   8   9
HETATM    9  C   UNL     1      -8.576  10.837  68.834  1.00  0.00    -0.155 C  
BRANCH   9  10
HETATM   10  C   UNL     1      -8.544  11.870  67.704  1.00  0.00    -0.156 C  
BRANCH  10  11
HETATM   11  C   UNL     1      -7.506  11.552  66.622  1.00  0.00    -0.078 C  
BRANCH  11  12
HETATM   12  C   UNL     1      -6.209  10.976  67.186  1.00  0.00    -0.075 C  
BRANCH  12  13
HETATM   13  C   UNL     1      -5.655  11.842  68.316  1.00  0.00    -0.046 C  
BRANCH  13  14
HETATM   14  C   UNL     1      -5.190  13.183  67.770  1.00  0.00    -0.089 C  
BRANCH  14  15
HETATM   15  N   UNL     1      -5.574  14.283  68.642  1.00  0.00    -0.084 N  
HETATM   16  C   UNL     1      -5.869  15.517  68.092  1.00  0.00    -0.129 C  
HETATM   17  C   UNL     1      -5.682  14.045  70.075  1.00  0.00    -0.124 C  
HETATM   18  O   UNL     1      -5.761  15.787  66.901  1.00  0.00    -0.256 OA 
BRANCH  16  19
HETATM   19  O   UNL     1      -6.172  16.458  69.065  1.00  0.00    -0.142 OA 
BRANCH  19  20
HETATM   20  C   UNL     1      -7.496  16.906  69.009  1.00  0.00    -0.220 A  
HETATM   21  C   UNL     1      -7.699  18.263  68.790  1.00  0.00    -0.286 A  
HETATM   22  C   UNL     1      -9.002  18.716  68.610  1.00  0.00    -0.337 A  
HETATM   23  C   UNL     1     -10.079  17.825  68.654  1.00  0.00    -0.384 A  
HETATM   24  C   UNL     1      -9.878  16.453  68.888  1.00  0.00    -0.260 A  
HETATM   25  C   UNL     1      -8.566  16.000  69.028  1.00  0.00    -0.244 A  
BRANCH  24  26
HETATM   26  N   UNL     1     -11.029  15.459  68.878  1.00  0.00    -0.247 N  
HETATM   27  C   UNL     1     -10.557  14.070  69.292  1.00  0.00    -0.070 C  
HETATM   28  C   UNL     1     -11.621  15.331  67.469  1.00  0.00    -0.214 C  
HETATM   29  C   UNL     1     -12.085  15.966  69.850  1.00  0.00    -0.227 C  
ENDBRANCH  24  26
ENDBRANCH  19  20
ENDBRANCH  16  19
ENDBRANCH  14  15
ENDBRANCH  13  14
ENDBRANCH  12  13
ENDBRANCH  11  12
ENDBRANCH  10  11
ENDBRANCH   9  10
ENDBRANCH   8   9
ENDBRANCH   7   8
ENDBRANCH   6   7
ENDBRANCH   5   6
ENDBRANCH   2   5
BRANCH   4  30
HETATM   30  O   UNL     1     -11.499   6.171  72.994  1.00  0.00    -0.178 OA 
BRANCH  30  31
HETATM   31  C   UNL     1     -10.879   4.995  72.537  1.00  0.00    -0.196 A  
HETATM   32  C   UNL     1     -10.901   3.846  73.328  1.00  0.00    -0.297 A  
HETATM   33  C   UNL     1     -10.347   4.978  71.244  1.00  0.00    -0.255 A  
HETATM   34  C   UNL     1      -9.779   3.792  70.746  1.00  0.00    -0.165 A  
HETATM   35  C   UNL     1     -10.333   2.678  72.850  1.00  0.00    -0.239 A  
HETATM   36  C   UNL     1      -9.770   2.655  71.575  1.00  0.00    -0.222 A  
BRANCH  34  37
HETATM   37  N   UNL     1      -9.088   3.763  69.388  1.00  0.00    -0.117 N  
HETATM   38  C   UNL     1      -9.740   4.738  68.406  1.00  0.00    -0.146 C  
HETATM   39  C   UNL     1      -7.621   4.175  69.514  1.00  0.00    -0.054 C  
HETATM   40  C   UNL     1      -9.217   2.338  68.847  1.00  0.00    -0.155 C  
ENDBRANCH  34  37
ENDBRANCH  30  31
ENDBRANCH   4  30
TORSDOF 17
ENDMDL
MODEL      264
REMARK 921   NORMALIZED FREE ENERGY PREDICTED BY IDOCK:   -2.65 KCAL/MOL
REMARK 922        TOTAL FREE ENERGY PREDICTED BY IDOCK:   -7.52 KCAL/MOL
REMARK 923 INTER-LIGAND FREE ENERGY PREDICTED BY IDOCK:   -6.23 KCAL/MOL
REMARK 924 INTRA-LIGAND FREE ENERGY PREDICTED BY IDOCK:   -1.29 KCAL/MOL
REMARK 927      BINDING AFFINITY PREDICTED BY RF-SCORE:    0.00 PKD
ROOT
HETATM    1  C   UNL     1      -9.351   2.705  68.681  1.00  0.00    -0.181 C  
HETATM    2  N   UNL     1      -9.554   3.668  69.750  1.00  0.00    -0.184 N  
HETATM    3  O   UNL     1     -10.102   5.851  70.297  1.00  0.00    -0.181 OA 
HETATM    4  C   UNL     1     -10.028   4.943  69.475  1.00  0.00    -0.225 C  
ENDROOT
BRANCH   2   5
HETATM    5  C   UNL     1      -9.031   3.360  71.080  1.00  0.00    -0.098 C  
BRANCH   5   6
HETATM    6  C   UNL     1      -7.499   3.279  71.118  1.00  0.00    -0.040 C  
BRANCH   6   7
HETATM    7  C   UNL     1      -6.923   4.135  72.254  1.00  0.00    -0.050 C  
BRANCH   7   8
HETATM    8  C   UNL     1      -7.598   5.511  72.332  1.00  0.00    -0.101 C  
BRANCH   8   9
HETATM    9  C   UNL     1      -7.011   6.353  73.468  1.00  0.00    -0.082 C  
BRANCH   9  10
HETATM   10  C   UNL     1      -7.552   7.786  73.448  1.00  0.00    -0.156 C  
BRANCH  10  11
HETATM   11  C   UNL     1      -7.702   8.357  72.035  1.00  0.00    -0.163 C  
BRANCH  11  12
HETATM   12  C   UNL     1      -9.110   8.873  71.742  1.00  0.00    -0.241 C  
BRANCH  12  13
HETATM   13  C   UNL     1      -9.246   9.342  70.296  1.00  0.00    -0.285 C  
BRANCH  13  14
HETATM   14  C   UNL     1      -7.871   9.548  69.679  1.00  0.00    -0.116 C  
BRANCH  14  15
HETATM   15  N   UNL     1      -7.805  10.779  68.906  1.00  0.00    -0.127 N  
HETATM   16  C   UNL     1      -8.879  11.145  68.115  1.00  0.00    -0.148 C  
HETATM   17  C   UNL     1      -6.624  11.623  69.021  1.00  0.00    -0.092 C  
HETATM   18  O   UNL     1      -9.883  10.459  67.951  1.00  0.00    -0.151 OA 
BRANCH  16  19
HETATM   19  O   UNL     1      -8.632  12.318  67.417  1.00  0.00    -0.161 OA 
BRANCH  19  20
HETATM   20  C   UNL     1      -9.443  13.383  67.821  1.00  0.00    -0.210 A  
HETATM   21  C   UNL     1     -10.487  13.093  68.690  1.00  0.00    -0.242 A  
HETATM   22  C   UNL     1     -11.235  14.149  69.202  1.00  0.00    -0.307 A  
HETATM   23  C   UNL     1     -10.941  15.469  68.844  1.00  0.00    -0.266 A  
HETATM   24  C   UNL     1      -9.893  15.765  67.956  1.00  0.00    -0.217 A  
HETATM   25  C   UNL     1      -9.124  14.705  67.477  1.00  0.00    -0.192 A  
BRANCH  24  26
HETATM   26  N   UNL     1      -9.519  17.196  67.603  1.00  0.00    -0.239 N  
HETATM   27  C   UNL     1      -8.783  17.871  68.755  1.00  0.00    -0.199 C  
HETATM   28  C   UNL     1     -10.776  18.031  67.323  1.00  0.00    -0.290 C  
HETATM   29  C   UNL     1      -8.631  17.151  66.368  1.00  0.00    -0.265 C  
ENDBRANCH  24  26
ENDBRANCH  19  20
ENDBRANCH  16  19
ENDBRANCH  14  15
ENDBRANCH  13  14
ENDBRANCH  12  13
ENDBRANCH  11  12
ENDBRANCH  10  11
ENDBRANCH   9  10
ENDBRANCH   8   9
ENDBRANCH   7   8
ENDBRANCH   6   7
ENDBRANCH   5   6
ENDBRANCH   2   5
BRANCH   4  30
HETATM   30  O   UNL     1     -10.352   5.113  68.126  1.00  0.00    -0.146 OA 
BRANCH  30  31
HETATM   31  C   UNL     1      -9.528   6.040  67.465  1.00  0.00    -0.112 A  
HETATM   32  C   UNL     1     -10.097   6.999  66.625  1.00  0.00    -0.219 A  
HETATM   33  C   UNL     1      -8.160   6.045  67.753  1.00  0.00    -0.109 A  
HETATM   34  C   UNL     1      -7.331   7.006  67.149  1.00  0.00    -0.090 A  
HETATM   35  C   UNL     1      -9.285   7.940  66.017  1.00  0.00    -0.162 A  
HETATM   36  C   UNL     1      -7.914   7.937  66.270  1.00  0.00    -0.103 A  
BRANCH  34  37
HETATM   37  N   UNL     1      -5.820   6.974  67.349  1.00  0.00    -0.023 N  
HETATM   38  C   UNL     1      -5.451   6.564  68.775  1.00  0.00    -0.016 C  
HETATM   39  C   UNL     1      -5.168   5.957  66.411  1.00  0.00    -0.009 C  
HETATM   40  C   UNL     1      -5.299   8.386  67.077  1.00  0.00    -0.037 C  
ENDBRANCH  34  37
ENDBRANCH  30  31
ENDBRANCH   4  30
TORSDOF 17
ENDMDL
MODEL      265
REMARK 921   NORMALIZED FREE ENERGY PREDICTED BY IDOCK:   -2.65 KCAL/MOL
REMARK 922        TOTAL FREE ENERGY PREDICTED BY IDOCK:   -7.52 KCAL/MOL
REMARK 923 INTER-LIGAND FREE ENERGY PREDICTED BY IDOCK:   -7.07 KCAL/MOL
REMARK 924 INTRA-LIGAND FREE ENERGY PREDICTED BY IDOCK:   -0.45 KCAL/MOL
REMARK 927      BINDING AFFINITY PREDICTED BY RF-SCORE:    0.00 PKD
ROOT
HETATM    1  C   UNL     1      -7.243  15.569  70.186  1.00  0.00     0.225 C  
HETATM    2  N   UNL     1      -7.369  15.528  68.739  1.00  0.00    -0.132 N  
HETATM    3  O   UNL     1      -8.801  15.690  66.925  1.00  0.00    -0.212 OA 
HETATM    4  C   UNL     1      -8.576  15.828  68.124  1.00  0.00    -0.164 C  
ENDROOT
BRANCH   2   5
HETATM    5  C   UNL     1      -6.282  14.941  67.957  1.00  0.00    -0.153 C  
BRANCH   5   6
HETATM    6  C   UNL     1      -5.947  13.504  68.382  1.00  0.00    -0.095 C  
BRANCH   6   7
HETATM    7  C   UNL     1      -7.211  12.729  68.773  1.00  0.00    -0.077 C  
BRANCH   7   8
HETATM    8  C   UNL     1      -7.819  11.984  67.577  1.00  0.00    -0.155 C  
BRANCH   8   9
HETATM    9  C   UNL     1      -6.736  11.548  66.585  1.00  0.00    -0.077 C  
BRANCH   9  10
HETATM   10  C   UNL     1      -7.071  10.201  65.938  1.00  0.00    -0.121 C  
BRANCH  10  11
HETATM   11  C   UNL     1      -6.000   9.131  66.176  1.00  0.00    -0.059 C  
BRANCH  11  12
HETATM   12  C   UNL     1      -6.528   7.910  66.925  1.00  0.00    -0.056 C  
BRANCH  12  13
HETATM   13  C   UNL     1      -5.539   7.430  67.983  1.00  0.00    -0.026 C  
BRANCH  13  14
HETATM   14  C   UNL     1      -5.146   8.582  68.896  1.00  0.00    -0.032 C  
BRANCH  14  15
HETATM   15  N   UNL     1      -5.749   8.456  70.215  1.00  0.00    -0.025 N  
HETATM   16  C   UNL     1      -5.666   7.250  70.888  1.00  0.00    -0.027 C  
HETATM   17  C   UNL     1      -6.386   9.619  70.815  1.00  0.00    -0.097 C  
HETATM   18  O   UNL     1      -5.176   6.228  70.420  1.00  0.00    -0.013 OA 
BRANCH  16  19
HETATM   19  O   UNL     1      -6.329   7.293  72.106  1.00  0.00    -0.044 OA 
BRANCH  19  20
HETATM   20  C   UNL     1      -7.583   6.674  72.075  1.00  0.00    -0.096 A  
HETATM   21  C   UNL     1      -7.682   5.407  72.639  1.00  0.00    -0.099 A  
HETATM   22  C   UNL     1      -8.939   4.819  72.729  1.00  0.00    -0.127 A  
HETATM   23  C   UNL     1     -10.074   5.488  72.259  1.00  0.00    -0.225 A  
HETATM   24  C   UNL     1      -9.976   6.764  71.677  1.00  0.00    -0.172 A  
HETATM   25  C   UNL     1      -8.719   7.363  71.625  1.00  0.00    -0.124 A  
BRANCH  24  26
HETATM   26  N   UNL     1     -11.205   7.532  71.216  1.00  0.00    -0.247 N  
HETATM   27  C   UNL     1     -12.487   6.809  71.617  1.00  0.00    -0.351 C  
HETATM   28  C   UNL     1     -11.221   7.661  69.688  1.00  0.00     0.025 C  
HETATM   29  C   UNL     1     -11.157   8.910  71.860  1.00  0.00    -0.372 C  
ENDBRANCH  24  26
ENDBRANCH  19  20
ENDBRANCH  16  19
ENDBRANCH  14  15
ENDBRANCH  13  14
ENDBRANCH  12  13
ENDBRANCH  11  12
ENDBRANCH  10  11
ENDBRANCH   9  10
ENDBRANCH   8   9
ENDBRANCH   7   8
ENDBRANCH   6   7
ENDBRANCH   5   6
ENDBRANCH   2   5
BRANCH   4  30
HETATM   30  O   UNL     1      -9.553  16.242  69.035  1.00  0.00    -0.237 OA 
BRANCH  30  31
HETATM   31  C   UNL     1     -10.470  15.232  69.370  1.00  0.00    -0.251 A  
HETATM   32  C   UNL     1     -10.489  14.041  68.641  1.00  0.00    -0.249 A  
HETATM   33  C   UNL     1     -11.272  15.403  70.503  1.00  0.00    -0.358 A  
HETATM   34  C   UNL     1     -12.150  14.377  70.890  1.00  0.00    -0.344 A  
HETATM   35  C   UNL     1     -11.360  13.031  69.008  1.00  0.00    -0.340 A  
HETATM   36  C   UNL     1     -12.189  13.201  70.117  1.00  0.00    -0.360 A  
BRANCH  34  37
HETATM   37  N   UNL     1     -13.121  14.571  72.049  1.00  0.00    -0.324 N  
HETATM   38  C   UNL     1     -12.466  15.320  73.210  1.00  0.00    -0.486 C  
HETATM   39  C   UNL     1     -14.332  15.397  71.614  1.00  0.00    -0.505 C  
HETATM   40  C   UNL     1     -13.544  13.178  72.520  1.00  0.00    -0.491 C  
ENDBRANCH  34  37
ENDBRANCH  30  31
ENDBRANCH   4  30
TORSDOF 17
ENDMDL
MODEL      266
REMARK 921   NORMALIZED FREE ENERGY PREDICTED BY IDOCK:   -2.64 KCAL/MOL
REMARK 922        TOTAL FREE ENERGY PREDICTED BY IDOCK:   -7.50 KCAL/MOL
REMARK 923 INTER-LIGAND FREE ENERGY PREDICTED BY IDOCK:   -7.31 KCAL/MOL
REMARK 924 INTRA-LIGAND FREE ENERGY PREDICTED BY IDOCK:   -0.18 KCAL/MOL
REMARK 927      BINDING AFFINITY PREDICTED BY RF-SCORE:    0.00 PKD
ROOT
HETATM    1  C   UNL     1     -11.240  10.127  67.737  1.00  0.00    -0.133 C  
HETATM    2  N   UNL     1     -10.595   9.727  68.976  1.00  0.00    -0.213 N  
HETATM    3  O   UNL     1     -10.686   9.755  71.291  1.00  0.00    -0.304 OA 
HETATM    4  C   UNL     1     -11.215   9.941  70.199  1.00  0.00    -0.289 C  
ENDROOT
BRANCH   2   5
HETATM    5  C   UNL     1      -9.192   9.318  68.936  1.00  0.00    -0.143 C  
BRANCH   5   6
HETATM    6  C   UNL     1      -8.326  10.231  68.057  1.00  0.00    -0.114 C  
BRANCH   6   7
HETATM    7  C   UNL     1      -7.619   9.435  66.954  1.00  0.00    -0.091 C  
BRANCH   7   8
HETATM    8  C   UNL     1      -8.584   8.501  66.213  1.00  0.00    -0.143 C  
BRANCH   8   9
HETATM    9  C   UNL     1      -8.760   8.928  64.753  1.00  0.00    -0.162 C  
BRANCH   9  10
HETATM   10  C   UNL     1      -8.829  10.452  64.613  1.00  0.00    -0.216 C  
BRANCH  10  11
HETATM   11  C   UNL     1     -10.262  10.992  64.570  1.00  0.00    -0.406 C  
BRANCH  11  12
HETATM   12  C   UNL     1     -10.402  12.373  65.207  1.00  0.00    -0.308 C  
BRANCH  12  13
HETATM   13  C   UNL     1      -9.103  12.818  65.875  1.00  0.00     0.212 C  
BRANCH  13  14
HETATM   14  C   UNL     1      -9.370  13.975  66.826  1.00  0.00    -0.277 C  
BRANCH  14  15
HETATM   15  N   UNL     1      -8.326  14.986  66.752  1.00  0.00    -0.207 N  
HETATM   16  C   UNL     1      -7.262  14.931  67.634  1.00  0.00    -0.185 C  
HETATM   17  C   UNL     1      -8.404  16.009  65.718  1.00  0.00     0.678 C  
HETATM   18  O   UNL     1      -7.161  14.118  68.546  1.00  0.00    -0.089 OA 
BRANCH  16  19
HETATM   19  O   UNL     1      -6.387  15.992  67.454  1.00  0.00    -0.159 OA 
BRANCH  19  20
HETATM   20  C   UNL     1      -6.855  17.194  67.995  1.00  0.00    -0.169 A  
HETATM   21  C   UNL     1      -6.055  17.818  68.945  1.00  0.00    -0.203 A  
HETATM   22  C   UNL     1      -6.436  19.071  69.412  1.00  0.00    -0.325 A  
HETATM   23  C   UNL     1      -7.601  19.683  68.937  1.00  0.00    -0.344 A  
HETATM   24  C   UNL     1      -8.419  19.050  67.986  1.00  0.00    -0.301 A  
HETATM   25  C   UNL     1      -8.010  17.811  67.494  1.00  0.00    -0.217 A  
BRANCH  24  26
HETATM   26  N   UNL     1      -9.655  19.725  67.412  1.00  0.00    -0.336 N  
HETATM   27  C   UNL     1     -10.925  18.990  67.828  1.00  0.00    -0.176 C  
HETATM   28  C   UNL     1      -9.614  19.718  65.879  1.00  0.00    -0.244 C  
HETATM   29  C   UNL     1      -9.684  21.156  67.932  1.00  0.00     0.277 C  
ENDBRANCH  24  26
ENDBRANCH  19  20
ENDBRANCH  16  19
ENDBRANCH  14  15
ENDBRANCH  13  14
ENDBRANCH  12  13
ENDBRANCH  11  12
ENDBRANCH  10  11
ENDBRANCH   9  10
ENDBRANCH   8   9
ENDBRANCH   7   8
ENDBRANCH   6   7
ENDBRANCH   5   6
ENDBRANCH   2   5
BRANCH   4  30
HETATM   30  O   UNL     1     -12.503  10.467  70.061  1.00  0.00    -0.278 OA 
BRANCH  30  31
HETATM   31  C   UNL     1     -12.673  11.706  70.702  1.00  0.00    -0.138 A  
HETATM   32  C   UNL     1     -13.435  11.785  71.870  1.00  0.00    -0.278 A  
HETATM   33  C   UNL     1     -11.980  12.816  70.210  1.00  0.00    -0.358 A  
HETATM   34  C   UNL     1     -12.088  14.050  70.875  1.00  0.00    -0.329 A  
HETATM   35  C   UNL     1     -13.556  12.999  72.523  1.00  0.00    -0.537 A  
HETATM   36  C   UNL     1     -12.897  14.122  72.025  1.00  0.00    -0.423 A  
BRANCH  34  37
HETATM   37  N   UNL     1     -11.441  15.307  70.306  1.00  0.00    -0.273 N  
HETATM   38  C   UNL     1     -12.064  15.701  68.966  1.00  0.00    -0.205 C  
HETATM   39  C   UNL     1     -11.632  16.493  71.251  1.00  0.00    -0.053 C  
HETATM   40  C   UNL     1      -9.957  14.997  70.103  1.00  0.00     0.146 C  
ENDBRANCH  34  37
ENDBRANCH  30  31
ENDBRANCH   4  30
TORSDOF 17
ENDMDL
MODEL      267
REMARK 921   NORMALIZED FREE ENERGY PREDICTED BY IDOCK:   -2.62 KCAL/MOL
REMARK 922        TOTAL FREE ENERGY PREDICTED BY IDOCK:   -7.45 KCAL/MOL
REMARK 923 INTER-LIGAND FREE ENERGY PREDICTED BY IDOCK:   -6.52 KCAL/MOL
REMARK 924 INTRA-LIGAND FREE ENERGY PREDICTED BY IDOCK:   -0.93 KCAL/MOL
REMARK 927      BINDING AFFINITY PREDICTED BY RF-SCORE:    0.00 PKD
ROOT
HETATM    1  C   UNL     1      -9.063   2.824  68.307  1.00  0.00    -0.177 C  
HETATM    2  N   UNL     1      -9.257   3.774  69.389  1.00  0.00    -0.141 N  
HETATM    3  O   UNL     1     -10.033   5.871  69.996  1.00  0.00    -0.167 OA 
HETATM    4  C   UNL     1      -9.940   4.963  69.175  1.00  0.00    -0.182 C  
ENDROOT
BRANCH   2   5
HETATM    5  C   UNL     1      -8.524   3.573  70.638  1.00  0.00    -0.068 C  
BRANCH   5   6
HETATM    6  C   UNL     1      -7.011   3.783  70.485  1.00  0.00    -0.034 C  
BRANCH   6   7
HETATM    7  C   UNL     1      -6.498   4.864  71.444  1.00  0.00    -0.027 C  
BRANCH   7   8
HETATM    8  C   UNL     1      -7.610   5.836  71.859  1.00  0.00    -0.097 C  
BRANCH   8   9
HETATM    9  C   UNL     1      -7.041   7.046  72.606  1.00  0.00    -0.069 C  
BRANCH   9  10
HETATM   10  C   UNL     1      -8.121   8.092  72.895  1.00  0.00    -0.224 C  
BRANCH  10  11
HETATM   11  C   UNL     1      -9.124   8.259  71.748  1.00  0.00    -0.255 C  
BRANCH  11  12
HETATM   12  C   UNL     1     -10.579   8.185  72.208  1.00  0.00    -0.378 C  
BRANCH  12  13
HETATM   13  C   UNL     1     -11.490   9.035  71.325  1.00  0.00    -0.390 C  
BRANCH  13  14
HETATM   14  C   UNL     1     -10.695   9.639  70.178  1.00  0.00    -0.275 C  
BRANCH  14  15
HETATM   15  N   UNL     1     -11.140  10.989  69.864  1.00  0.00    -0.241 N  
HETATM   16  C   UNL     1     -10.403  11.762  68.986  1.00  0.00    -0.059 C  
HETATM   17  C   UNL     1     -12.381  11.478  70.449  1.00  0.00    -0.305 C  
HETATM   18  O   UNL     1      -9.334  11.419  68.492  1.00  0.00    -0.182 OA 
BRANCH  16  19
HETATM   19  O   UNL     1     -10.943  13.031  68.835  1.00  0.00    -0.244 OA 
BRANCH  19  20
HETATM   20  C   UNL     1     -11.125  13.398  67.498  1.00  0.00    -0.274 A  
HETATM   21  C   UNL     1     -11.267  14.754  67.225  1.00  0.00    -0.351 A  
HETATM   22  C   UNL     1     -11.329  15.158  65.896  1.00  0.00    -0.225 A  
HETATM   23  C   UNL     1     -11.254  14.219  64.861  1.00  0.00    -0.381 A  
HETATM   24  C   UNL     1     -11.124  12.847  65.134  1.00  0.00    -0.292 A  
HETATM   25  C   UNL     1     -11.023  12.453  66.468  1.00  0.00    -0.312 A  
BRANCH  24  26
HETATM   26  N   UNL     1     -10.980  11.817  64.024  1.00  0.00    -0.355 N  
HETATM   27  C   UNL     1     -10.046  12.320  62.927  1.00  0.00     0.623 C  
HETATM   28  C   UNL     1     -12.337  11.538  63.365  1.00  0.00    -0.012 C  
HETATM   29  C   UNL     1     -10.423  10.544  64.643  1.00  0.00    -0.111 C  
ENDBRANCH  24  26
ENDBRANCH  19  20
ENDBRANCH  16  19
ENDBRANCH  14  15
ENDBRANCH  13  14
ENDBRANCH  12  13
ENDBRANCH  11  12
ENDBRANCH  10  11
ENDBRANCH   9  10
ENDBRANCH   8   9
ENDBRANCH   7   8
ENDBRANCH   6   7
ENDBRANCH   5   6
ENDBRANCH   2   5
BRANCH   4  30
HETATM   30  O   UNL     1     -10.462   5.055  67.882  1.00  0.00    -0.088 OA 
BRANCH  30  31
HETATM   31  C   UNL     1      -9.792   5.988  67.073  1.00  0.00    -0.152 A  
HETATM   32  C   UNL     1      -9.612   7.296  67.526  1.00  0.00    -0.171 A  
HETATM   33  C   UNL     1      -9.224   5.550  65.873  1.00  0.00    -0.158 A  
HETATM   34  C   UNL     1      -8.496   6.455  65.081  1.00  0.00    -0.068 A  
HETATM   35  C   UNL     1      -8.908   8.196  66.746  1.00  0.00    -0.156 A  
HETATM   36  C   UNL     1      -8.363   7.781  65.532  1.00  0.00    -0.151 A  
BRANCH  34  37
HETATM   37  N   UNL     1      -7.959   6.046  63.715  1.00  0.00    -0.119 N  
HETATM   38  C   UNL     1      -6.512   5.558  63.804  1.00  0.00    -0.026 C  
HETATM   39  C   UNL     1      -8.780   4.897  63.128  1.00  0.00    -0.115 C  
HETATM   40  C   UNL     1      -8.022   7.283  62.818  1.00  0.00    -0.113 C  
ENDBRANCH  34  37
ENDBRANCH  30  31
ENDBRANCH   4  30
TORSDOF 17
ENDMDL
MODEL      268
REMARK 921   NORMALIZED FREE ENERGY PREDICTED BY IDOCK:   -2.61 KCAL/MOL
REMARK 922        TOTAL FREE ENERGY PREDICTED BY IDOCK:   -7.43 KCAL/MOL
REMARK 923 INTER-LIGAND FREE ENERGY PREDICTED BY IDOCK:   -5.79 KCAL/MOL
REMARK 924 INTRA-LIGAND FREE ENERGY PREDICTED BY IDOCK:   -1.65 KCAL/MOL
REMARK 927      BINDING AFFINITY PREDICTED BY RF-SCORE:    0.00 PKD
ROOT
HETATM    1  C   UNL     1     -11.945  12.492  64.544  1.00  0.00    -0.404 C  
HETATM    2  N   UNL     1     -10.776  12.867  65.321  1.00  0.00    -0.289 N  
HETATM    3  O   UNL     1      -8.846  12.134  66.372  1.00  0.00    -0.184 OA 
HETATM    4  C   UNL     1      -9.792  11.934  65.616  1.00  0.00    -0.241 C  
ENDROOT
BRANCH   2   5
HETATM    5  C   UNL     1     -10.765  14.169  65.987  1.00  0.00    -0.299 C  
BRANCH   5   6
HETATM    6  C   UNL     1     -11.038  14.073  67.494  1.00  0.00    -0.313 C  
BRANCH   6   7
HETATM    7  C   UNL     1     -10.168  15.061  68.282  1.00  0.00    -0.222 C  
BRANCH   7   8
HETATM    8  C   UNL     1      -8.895  14.397  68.823  1.00  0.00    -0.131 C  
BRANCH   8   9
HETATM    9  C   UNL     1      -7.924  15.437  69.391  1.00  0.00    -0.234 C  
BRANCH   9  10
HETATM   10  C   UNL     1      -6.536  15.322  68.755  1.00  0.00    -0.102 C  
BRANCH  10  11
HETATM   11  C   UNL     1      -6.531  14.510  67.456  1.00  0.00    -0.070 C  
BRANCH  11  12
HETATM   12  C   UNL     1      -5.665  13.255  67.535  1.00  0.00    -0.028 C  
BRANCH  12  13
HETATM   13  C   UNL     1      -5.152  13.016  68.953  1.00  0.00    -0.068 C  
BRANCH  13  14
HETATM   14  C   UNL     1      -6.143  12.167  69.735  1.00  0.00    -0.143 C  
BRANCH  14  15
HETATM   15  N   UNL     1      -5.903  10.745  69.545  1.00  0.00    -0.040 N  
HETATM   16  C   UNL     1      -5.990   9.889  70.628  1.00  0.00    -0.087 C  
HETATM   17  C   UNL     1      -5.621  10.248  68.205  1.00  0.00    -0.040 C  
HETATM   18  O   UNL     1      -6.187  10.252  71.782  1.00  0.00    -0.198 OA 
BRANCH  16  19
HETATM   19  O   UNL     1      -5.690   8.581  70.278  1.00  0.00    -0.025 OA 
BRANCH  19  20
HETATM   20  C   UNL     1      -6.767   7.703  70.445  1.00  0.00    -0.042 A  
HETATM   21  C   UNL     1      -6.549   6.570  71.221  1.00  0.00    -0.051 A  
HETATM   22  C   UNL     1      -7.631   5.744  71.503  1.00  0.00    -0.099 A  
HETATM   23  C   UNL     1      -8.906   6.047  71.012  1.00  0.00    -0.139 A  
HETATM   24  C   UNL     1      -9.127   7.184  70.217  1.00  0.00    -0.156 A  
HETATM   25  C   UNL     1      -8.045   8.029  69.971  1.00  0.00    -0.116 A  
BRANCH  24  26
HETATM   26  N   UNL     1     -10.515   7.563  69.725  1.00  0.00    -0.225 N  
HETATM   27  C   UNL     1     -11.484   6.393  69.860  1.00  0.00    -0.415 C  
HETATM   28  C   UNL     1     -10.478   7.946  68.240  1.00  0.00    -0.164 C  
HETATM   29  C   UNL     1     -10.996   8.741  70.561  1.00  0.00    -0.239 C  
ENDBRANCH  24  26
ENDBRANCH  19  20
ENDBRANCH  16  19
ENDBRANCH  14  15
ENDBRANCH  13  14
ENDBRANCH  12  13
ENDBRANCH  11  12
ENDBRANCH  10  11
ENDBRANCH   9  10
ENDBRANCH   8   9
ENDBRANCH   7   8
ENDBRANCH   6   7
ENDBRANCH   5   6
ENDBRANCH   2   5
BRANCH   4  30
HETATM   30  O   UNL     1     -10.029  10.697  65.010  1.00  0.00    -0.261 OA 
BRANCH  30  31
HETATM   31  C   UNL     1      -8.872   9.914  64.863  1.00  0.00    -0.193 A  
HETATM   32  C   UNL     1      -7.686  10.504  64.421  1.00  0.00     0.040 A  
HETATM   33  C   UNL     1      -8.910   8.577  65.271  1.00  0.00    -0.144 A  
HETATM   34  C   UNL     1      -7.744   7.796  65.190  1.00  0.00    -0.101 A  
HETATM   35  C   UNL     1      -6.538   9.739  64.326  1.00  0.00    -0.119 A  
HETATM   36  C   UNL     1      -6.569   8.395  64.699  1.00  0.00    -0.065 A  
BRANCH  34  37
HETATM   37  N   UNL     1      -7.773   6.307  65.517  1.00  0.00    -0.090 N  
HETATM   38  C   UNL     1      -7.201   6.027  66.907  1.00  0.00    -0.071 C  
HETATM   39  C   UNL     1      -9.207   5.776  65.511  1.00  0.00     0.033 C  
HETATM   40  C   UNL     1      -6.919   5.599  64.465  1.00  0.00    -0.052 C  
ENDBRANCH  34  37
ENDBRANCH  30  31
ENDBRANCH   4  30
TORSDOF 17
ENDMDL
MODEL      269
REMARK 921   NORMALIZED FREE ENERGY PREDICTED BY IDOCK:   -2.60 KCAL/MOL
REMARK 922        TOTAL FREE ENERGY PREDICTED BY IDOCK:   -7.41 KCAL/MOL
REMARK 923 INTER-LIGAND FREE ENERGY PREDICTED BY IDOCK:   -8.79 KCAL/MOL
REMARK 924 INTRA-LIGAND FREE ENERGY PREDICTED BY IDOCK:    1.38 KCAL/MOL
REMARK 927      BINDING AFFINITY PREDICTED BY RF-SCORE:    0.00 PKD
ROOT
HETATM    1  C   UNL     1     -11.524  15.398  64.606  1.00  0.00    -0.337 C  
HETATM    2  N   UNL     1     -11.264  13.984  64.814  1.00  0.00    -0.359 N  
HETATM    3  O   UNL     1     -10.980  12.286  66.364  1.00  0.00    -0.264 OA 
HETATM    4  C   UNL     1     -11.313  13.434  66.088  1.00  0.00    -0.303 C  
ENDROOT
BRANCH   2   5
HETATM    5  C   UNL     1     -10.722  13.200  63.706  1.00  0.00    -0.071 C  
BRANCH   5   6
HETATM    6  C   UNL     1      -9.922  11.976  64.173  1.00  0.00    -0.289 C  
BRANCH   6   7
HETATM    7  C   UNL     1      -9.712  10.977  63.028  1.00  0.00    -0.381 C  
BRANCH   7   8
HETATM    8  C   UNL     1      -8.743   9.854  63.418  1.00  0.00    -0.230 C  
BRANCH   8   9
HETATM    9  C   UNL     1      -7.675   9.642  62.340  1.00  0.00    -0.124 C  
BRANCH   9  10
HETATM   10  C   UNL     1      -6.434   8.943  62.903  1.00  0.00    -0.090 C  
BRANCH  10  11
HETATM   11  C   UNL     1      -6.564   7.417  62.943  1.00  0.00    -0.054 C  
BRANCH  11  12
HETATM   12  C   UNL     1      -7.211   6.903  64.227  1.00  0.00    -0.067 C  
BRANCH  12  13
HETATM   13  C   UNL     1      -6.321   7.153  65.442  1.00  0.00    -0.037 C  
BRANCH  13  14
HETATM   14  C   UNL     1      -6.880   8.295  66.277  1.00  0.00    -0.065 C  
BRANCH  14  15
HETATM   15  N   UNL     1      -6.940   7.951  67.690  1.00  0.00    -0.073 N  
HETATM   16  C   UNL     1      -7.519   8.836  68.582  1.00  0.00    -0.092 C  
HETATM   17  C   UNL     1      -6.429   6.659  68.126  1.00  0.00    -0.053 C  
HETATM   18  O   UNL     1      -7.933   9.950  68.281  1.00  0.00    -0.098 OA 
BRANCH  16  19
HETATM   19  O   UNL     1      -7.453   8.372  69.887  1.00  0.00    -0.062 OA 
BRANCH  19  20
HETATM   20  C   UNL     1      -8.602   7.680  70.287  1.00  0.00    -0.143 A  
HETATM   21  C   UNL     1      -9.755   7.875  69.536  1.00  0.00    -0.173 A  
HETATM   22  C   UNL     1     -10.877   7.111  69.837  1.00  0.00    -0.276 A  
HETATM   23  C   UNL     1     -10.843   6.173  70.874  1.00  0.00    -0.342 A  
HETATM   24  C   UNL     1      -9.683   5.981  71.643  1.00  0.00    -0.158 A  
HETATM   25  C   UNL     1      -8.550   6.723  71.311  1.00  0.00    -0.125 A  
BRANCH  24  26
HETATM   26  N   UNL     1      -9.606   4.924  72.733  1.00  0.00    -0.138 N  
HETATM   27  C   UNL     1      -8.196   4.827  73.306  1.00  0.00    -0.100 C  
HETATM   28  C   UNL     1      -9.958   3.541  72.171  1.00  0.00    -0.164 C  
HETATM   29  C   UNL     1     -10.591   5.314  73.826  1.00  0.00    -0.287 C  
ENDBRANCH  24  26
ENDBRANCH  19  20
ENDBRANCH  16  19
ENDBRANCH  14  15
ENDBRANCH  13  14
ENDBRANCH  12  13
ENDBRANCH  11  12
ENDBRANCH  10  11
ENDBRANCH   9  10
ENDBRANCH   8   9
ENDBRANCH   7   8
ENDBRANCH   6   7
ENDBRANCH   5   6
ENDBRANCH   2   5
BRANCH   4  30
HETATM   30  O   UNL     1     -11.718  14.359  67.054  1.00  0.00    -0.368 OA 
BRANCH  30  31
HETATM   31  C   UNL     1     -11.977  13.781  68.308  1.00  0.00    -0.357 A  
HETATM   32  C   UNL     1     -11.773  12.413  68.498  1.00  0.00    -0.373 A  
HETATM   33  C   UNL     1     -12.332  14.616  69.371  1.00  0.00    -0.199 A  
HETATM   34  C   UNL     1     -12.534  14.064  70.648  1.00  0.00    -0.365 A  
HETATM   35  C   UNL     1     -11.982  11.859  69.748  1.00  0.00    -0.377 A  
HETATM   36  C   UNL     1     -12.368  12.676  70.810  1.00  0.00    -0.372 A  
BRANCH  34  37
HETATM   37  N   UNL     1     -13.032  14.923  71.805  1.00  0.00    -0.316 N  
HETATM   38  C   UNL     1     -12.048  16.046  72.133  1.00  0.00    -0.526 C  
HETATM   39  C   UNL     1     -14.364  15.586  71.457  1.00  0.00    -0.336 C  
HETATM   40  C   UNL     1     -13.174  14.004  73.019  1.00  0.00    -0.246 C  
ENDBRANCH  34  37
ENDBRANCH  30  31
ENDBRANCH   4  30
TORSDOF 17
ENDMDL
MODEL      270
REMARK 921   NORMALIZED FREE ENERGY PREDICTED BY IDOCK:   -2.47 KCAL/MOL
REMARK 922        TOTAL FREE ENERGY PREDICTED BY IDOCK:   -7.16 KCAL/MOL
REMARK 923 INTER-LIGAND FREE ENERGY PREDICTED BY IDOCK:   -7.10 KCAL/MOL
REMARK 924 INTRA-LIGAND FREE ENERGY PREDICTED BY IDOCK:   -0.05 KCAL/MOL
REMARK 927      BINDING AFFINITY PREDICTED BY RF-SCORE:    0.00 PKD
ROOT
HETATM    1  C   UNL     1     -12.379  15.413  69.937  1.00  0.00    -0.293 C  
HETATM    2  N   UNL     1     -11.094  15.024  69.382  1.00  0.00    -0.264 N  
HETATM    3  O   UNL     1      -9.802  13.292  68.547  1.00  0.00    -0.227 OA 
HETATM    4  C   UNL     1     -10.888  13.736  68.907  1.00  0.00    -0.242 C  
ENDROOT
BRANCH   2   5
HETATM    5  C   UNL     1      -9.956  15.927  69.545  1.00  0.00    -0.274 C  
BRANCH   5   6
HETATM    6  C   UNL     1      -8.993  15.900  68.351  1.00  0.00    -0.189 C  
BRANCH   6   7
HETATM    7  C   UNL     1      -7.547  15.662  68.806  1.00  0.00    -0.162 C  
BRANCH   7   8
HETATM    8  C   UNL     1      -6.757  14.829  67.789  1.00  0.00    -0.193 C  
BRANCH   8   9
HETATM    9  C   UNL     1      -6.235  13.534  68.418  1.00  0.00    -0.093 C  
BRANCH   9  10
HETATM   10  C   UNL     1      -5.280  12.792  67.478  1.00  0.00    -0.072 C  
BRANCH  10  11
HETATM   11  C   UNL     1      -5.741  11.370  67.145  1.00  0.00    -0.092 C  
BRANCH  11  12
HETATM   12  C   UNL     1      -7.091  11.327  66.432  1.00  0.00    -0.053 C  
BRANCH  12  13
HETATM   13  C   UNL     1      -7.708   9.932  66.481  1.00  0.00    -0.107 C  
BRANCH  13  14
HETATM   14  C   UNL     1      -8.843   9.824  65.474  1.00  0.00    -0.163 C  
BRANCH  14  15
HETATM   15  N   UNL     1      -8.402   9.217  64.227  1.00  0.00    -0.165 N  
HETATM   16  C   UNL     1      -7.430   8.234  64.255  1.00  0.00    -0.107 C  
HETATM   17  C   UNL     1      -9.030   9.628  62.979  1.00  0.00    -0.238 C  
HETATM   18  O   UNL     1      -6.840   7.873  65.268  1.00  0.00    -0.054 OA 
BRANCH  16  19
HETATM   19  O   UNL     1      -7.098   7.798  62.981  1.00  0.00    -0.077 OA 
BRANCH  19  20
HETATM   20  C   UNL     1      -7.011   6.405  62.878  1.00  0.00    -0.043 A  
HETATM   21  C   UNL     1      -5.739   5.854  62.782  1.00  0.00    -0.018 A  
HETATM   22  C   UNL     1      -5.615   4.469  62.800  1.00  0.00    -0.013 A  
HETATM   23  C   UNL     1      -6.747   3.654  62.907  1.00  0.00    -0.031 A  
HETATM   24  C   UNL     1      -8.036   4.208  62.991  1.00  0.00    -0.081 A  
HETATM   25  C   UNL     1      -8.149   5.598  63.013  1.00  0.00    -0.105 A  
BRANCH  24  26
HETATM   26  N   UNL     1      -9.273   3.342  63.170  1.00  0.00    -0.091 N  
HETATM   27  C   UNL     1      -9.555   3.086  64.647  1.00  0.00    -0.138 C  
HETATM   28  C   UNL     1      -9.075   1.972  62.508  1.00  0.00    -0.076 C  
HETATM   29  C   UNL     1     -10.445   4.071  62.530  1.00  0.00    -0.175 C  
ENDBRANCH  24  26
ENDBRANCH  19  20
ENDBRANCH  16  19
ENDBRANCH  14  15
ENDBRANCH  13  14
ENDBRANCH  12  13
ENDBRANCH  11  12
ENDBRANCH  10  11
ENDBRANCH   9  10
ENDBRANCH   8   9
ENDBRANCH   7   8
ENDBRANCH   6   7
ENDBRANCH   5   6
ENDBRANCH   2   5
BRANCH   4  30
HETATM   30  O   UNL     1     -12.048  12.958  68.949  1.00  0.00    -0.270 OA 
BRANCH  30  31
HETATM   31  C   UNL     1     -11.969  11.882  69.849  1.00  0.00    -0.325 A  
HETATM   32  C   UNL     1     -12.890  11.780  70.893  1.00  0.00    -0.243 A  
HETATM   33  C   UNL     1     -11.029  10.875  69.609  1.00  0.00    -0.311 A  
HETATM   34  C   UNL     1     -10.977   9.759  70.462  1.00  0.00    -0.321 A  
HETATM   35  C   UNL     1     -12.837  10.691  71.745  1.00  0.00    -0.549 A  
HETATM   36  C   UNL     1     -11.884   9.695  71.536  1.00  0.00    -0.483 A  
BRANCH  34  37
HETATM   37  N   UNL     1      -9.894   8.698  70.301  1.00  0.00    -0.174 N  
HETATM   38  C   UNL     1      -8.502   9.274  70.566  1.00  0.00    -0.216 C  
HETATM   39  C   UNL     1     -10.099   7.556  71.296  1.00  0.00    -0.187 C  
HETATM   40  C   UNL     1      -9.968   8.194  68.859  1.00  0.00    -0.192 C  
ENDBRANCH  34  37
ENDBRANCH  30  31
ENDBRANCH   4  30
TORSDOF 17
ENDMDL
MODEL      271
REMARK 921   NORMALIZED FREE ENERGY PREDICTED BY IDOCK:   -2.47 KCAL/MOL
REMARK 922        TOTAL FREE ENERGY PREDICTED BY IDOCK:   -7.15 KCAL/MOL
REMARK 923 INTER-LIGAND FREE ENERGY PREDICTED BY IDOCK:   -6.25 KCAL/MOL
REMARK 924 INTRA-LIGAND FREE ENERGY PREDICTED BY IDOCK:   -0.90 KCAL/MOL
REMARK 927      BINDING AFFINITY PREDICTED BY RF-SCORE:    0.00 PKD
ROOT
HETATM    1  C   UNL     1      -8.952   6.774  70.986  1.00  0.00    -0.145 C  
HETATM    2  N   UNL     1      -9.623   7.036  72.247  1.00  0.00    -0.150 N  
HETATM    3  O   UNL     1     -11.459   7.989  73.289  1.00  0.00    -0.254 OA 
HETATM    4  C   UNL     1     -10.884   7.617  72.271  1.00  0.00    -0.267 C  
ENDROOT
BRANCH   2   5
HETATM    5  C   UNL     1      -8.863   6.901  73.488  1.00  0.00    -0.137 C  
BRANCH   5   6
HETATM    6  C   UNL     1      -7.359   7.142  73.298  1.00  0.00    -0.078 C  
BRANCH   6   7
HETATM    7  C   UNL     1      -6.593   5.818  73.177  1.00  0.00    -0.069 C  
BRANCH   7   8
HETATM    8  C   UNL     1      -7.076   4.782  74.199  1.00  0.00    -0.077 C  
BRANCH   8   9
HETATM    9  C   UNL     1      -7.298   3.416  73.543  1.00  0.00    -0.056 C  
BRANCH   9  10
HETATM   10  C   UNL     1      -8.435   3.459  72.518  1.00  0.00    -0.087 C  
BRANCH  10  11
HETATM   11  C   UNL     1      -7.965   3.209  71.081  1.00  0.00    -0.055 C  
BRANCH  11  12
HETATM   12  C   UNL     1      -8.474   1.890  70.504  1.00  0.00    -0.084 C  
BRANCH  12  13
HETATM   13  C   UNL     1      -9.410   2.119  69.320  1.00  0.00    -0.176 C  
BRANCH  13  14
HETATM   14  C   UNL     1      -9.283   3.550  68.819  1.00  0.00    -0.163 C  
BRANCH  14  15
HETATM   15  N   UNL     1      -8.975   3.599  67.397  1.00  0.00    -0.128 N  
HETATM   16  C   UNL     1      -8.536   4.784  66.837  1.00  0.00    -0.105 C  
HETATM   17  C   UNL     1      -9.093   2.382  66.606  1.00  0.00    -0.088 C  
HETATM   18  O   UNL     1      -8.451   5.847  67.442  1.00  0.00    -0.105 OA 
BRANCH  16  19
HETATM   19  O   UNL     1      -8.332   4.665  65.470  1.00  0.00    -0.113 OA 
BRANCH  19  20
HETATM   20  C   UNL     1      -7.336   5.518  64.982  1.00  0.00    -0.068 A  
HETATM   21  C   UNL     1      -6.205   4.926  64.432  1.00  0.00    -0.030 A  
HETATM   22  C   UNL     1      -5.254   5.745  63.833  1.00  0.00    -0.016 A  
HETATM   23  C   UNL     1      -5.434   7.132  63.790  1.00  0.00    -0.033 A  
HETATM   24  C   UNL     1      -6.570   7.735  64.357  1.00  0.00    -0.056 A  
HETATM   25  C   UNL     1      -7.538   6.904  64.921  1.00  0.00    -0.106 A  
BRANCH  24  26
HETATM   26  N   UNL     1      -6.814   9.233  64.267  1.00  0.00    -0.088 N  
HETATM   27  C   UNL     1      -8.014   9.542  63.378  1.00  0.00    -0.141 C  
HETATM   28  C   UNL     1      -5.602   9.942  63.648  1.00  0.00    -0.103 C  
HETATM   29  C   UNL     1      -7.060   9.747  65.678  1.00  0.00    -0.105 C  
ENDBRANCH  24  26
ENDBRANCH  19  20
ENDBRANCH  16  19
ENDBRANCH  14  15
ENDBRANCH  13  14
ENDBRANCH  12  13
ENDBRANCH  11  12
ENDBRANCH  10  11
ENDBRANCH   9  10
ENDBRANCH   8   9
ENDBRANCH   7   8
ENDBRANCH   6   7
ENDBRANCH   5   6
ENDBRANCH   2   5
BRANCH   4  30
HETATM   30  O   UNL     1     -11.411   7.804  70.990  1.00  0.00    -0.275 OA 
BRANCH  30  31
HETATM   31  C   UNL     1     -11.683   9.150  70.689  1.00  0.00    -0.209 A  
HETATM   32  C   UNL     1     -12.473   9.909  71.554  1.00  0.00    -0.506 A  
HETATM   33  C   UNL     1     -11.062   9.726  69.577  1.00  0.00    -0.226 A  
HETATM   34  C   UNL     1     -11.271  11.087  69.295  1.00  0.00    -0.257 A  
HETATM   35  C   UNL     1     -12.694  11.246  71.276  1.00  0.00    -0.510 A  
HETATM   36  C   UNL     1     -12.107  11.827  70.153  1.00  0.00    -0.398 A  
BRANCH  34  37
HETATM   37  N   UNL     1     -10.705  11.723  68.031  1.00  0.00    -0.200 N  
HETATM   38  C   UNL     1      -9.942  10.704  67.184  1.00  0.00    -0.195 C  
HETATM   39  C   UNL     1     -11.825  12.282  67.153  1.00  0.00    -0.258 C  
HETATM   40  C   UNL     1      -9.747  12.830  68.475  1.00  0.00    -0.126 C  
ENDBRANCH  34  37
ENDBRANCH  30  31
ENDBRANCH   4  30
TORSDOF 17
ENDMDL
MODEL      272
REMARK 921   NORMALIZED FREE ENERGY PREDICTED BY IDOCK:   -2.45 KCAL/MOL
REMARK 922        TOTAL FREE ENERGY PREDICTED BY IDOCK:   -7.12 KCAL/MOL
REMARK 923 INTER-LIGAND FREE ENERGY PREDICTED BY IDOCK:   -6.88 KCAL/MOL
REMARK 924 INTRA-LIGAND FREE ENERGY PREDICTED BY IDOCK:   -0.24 KCAL/MOL
REMARK 927      BINDING AFFINITY PREDICTED BY RF-SCORE:    0.00 PKD
ROOT
HETATM    1  C   UNL     1     -10.153  13.767  67.065  1.00  0.00    -0.256 C  
HETATM    2  N   UNL     1     -10.889  14.915  66.564  1.00  0.00    -0.317 N  
HETATM    3  O   UNL     1     -11.124  16.451  64.846  1.00  0.00    -0.510 OA 
HETATM    4  C   UNL     1     -10.644  15.413  65.292  1.00  0.00    -0.428 C  
ENDROOT
BRANCH   2   5
HETATM    5  C   UNL     1     -11.716  15.679  67.496  1.00  0.00     0.073 C  
BRANCH   5   6
HETATM    6  C   UNL     1     -11.400  15.374  68.967  1.00  0.00    -0.324 C  
BRANCH   6   7
HETATM    7  C   UNL     1     -10.516  16.464  69.585  1.00  0.00    -0.278 C  
BRANCH   7   8
HETATM    8  C   UNL     1      -9.452  16.966  68.601  1.00  0.00    -0.268 C  
BRANCH   8   9
HETATM    9  C   UNL     1      -8.057  16.464  68.987  1.00  0.00    -0.223 C  
BRANCH   9  10
HETATM   10  C   UNL     1      -7.342  15.812  67.800  1.00  0.00    -0.167 C  
BRANCH  10  11
HETATM   11  C   UNL     1      -5.992  15.191  68.174  1.00  0.00    -0.142 C  
BRANCH  11  12
HETATM   12  C   UNL     1      -5.943  13.681  67.950  1.00  0.00    -0.147 C  
BRANCH  12  13
HETATM   13  C   UNL     1      -6.376  12.914  69.197  1.00  0.00    -0.105 C  
BRANCH  13  14
HETATM   14  C   UNL     1      -7.259  11.738  68.810  1.00  0.00    -0.113 C  
BRANCH  14  15
HETATM   15  N   UNL     1      -6.999  10.571  69.640  1.00  0.00    -0.119 N  
HETATM   16  C   UNL     1      -7.771   9.435  69.479  1.00  0.00    -0.089 C  
HETATM   17  C   UNL     1      -5.898  10.613  70.592  1.00  0.00    -0.112 C  
HETATM   18  O   UNL     1      -8.732   9.353  68.722  1.00  0.00    -0.128 OA 
BRANCH  16  19
HETATM   19  O   UNL     1      -7.417   8.439  70.377  1.00  0.00    -0.062 OA 
BRANCH  19  20
HETATM   20  C   UNL     1      -8.483   8.011  71.176  1.00  0.00    -0.123 A  
HETATM   21  C   UNL     1      -9.439   8.959  71.522  1.00  0.00    -0.347 A  
HETATM   22  C   UNL     1     -10.569   8.537  72.214  1.00  0.00    -0.408 A  
HETATM   23  C   UNL     1     -10.735   7.191  72.553  1.00  0.00    -0.285 A  
HETATM   24  C   UNL     1      -9.765   6.231  72.216  1.00  0.00    -0.155 A  
HETATM   25  C   UNL     1      -8.653   6.655  71.489  1.00  0.00    -0.124 A  
BRANCH  24  26
HETATM   26  N   UNL     1      -9.956   4.754  72.522  1.00  0.00    -0.160 N  
HETATM   27  C   UNL     1     -11.269   4.511  73.259  1.00  0.00    -0.298 C  
HETATM   28  C   UNL     1      -8.831   4.239  73.429  1.00  0.00    -0.094 C  
HETATM   29  C   UNL     1      -9.950   4.002  71.199  1.00  0.00    -0.127 C  
ENDBRANCH  24  26
ENDBRANCH  19  20
ENDBRANCH  16  19
ENDBRANCH  14  15
ENDBRANCH  13  14
ENDBRANCH  12  13
ENDBRANCH  11  12
ENDBRANCH  10  11
ENDBRANCH   9  10
ENDBRANCH   8   9
ENDBRANCH   7   8
ENDBRANCH   6   7
ENDBRANCH   5   6
ENDBRANCH   2   5
BRANCH   4  30
HETATM   30  O   UNL     1      -9.721  14.639  64.582  1.00  0.00     0.046 OA 
BRANCH  30  31
HETATM   31  C   UNL     1     -10.173  13.336  64.314  1.00  0.00    -0.196 A  
HETATM   32  C   UNL     1     -11.401  13.144  63.677  1.00  0.00    -0.307 A  
HETATM   33  C   UNL     1      -9.325  12.261  64.597  1.00  0.00     0.365 A  
HETATM   34  C   UNL     1      -9.734  10.954  64.277  1.00  0.00    -0.294 A  
HETATM   35  C   UNL     1     -11.816  11.860  63.371  1.00  0.00    -0.512 A  
HETATM   36  C   UNL     1     -10.995  10.776  63.677  1.00  0.00     0.401 A  
BRANCH  34  37
HETATM   37  N   UNL     1      -8.889   9.749  64.672  1.00  0.00    -0.196 N  
HETATM   38  C   UNL     1      -7.608  10.174  65.392  1.00  0.00    -0.144 C  
HETATM   39  C   UNL     1      -9.656   8.837  65.631  1.00  0.00    -0.035 C  
HETATM   40  C   UNL     1      -8.525   9.012  63.383  1.00  0.00    -0.173 C  
ENDBRANCH  34  37
ENDBRANCH  30  31
ENDBRANCH   4  30
TORSDOF 17
ENDMDL
MODEL      273
REMARK 921   NORMALIZED FREE ENERGY PREDICTED BY IDOCK:   -2.41 KCAL/MOL
REMARK 922        TOTAL FREE ENERGY PREDICTED BY IDOCK:   -7.03 KCAL/MOL
REMARK 923 INTER-LIGAND FREE ENERGY PREDICTED BY IDOCK:   -5.67 KCAL/MOL
REMARK 924 INTRA-LIGAND FREE ENERGY PREDICTED BY IDOCK:   -1.36 KCAL/MOL
REMARK 927      BINDING AFFINITY PREDICTED BY RF-SCORE:    0.00 PKD
ROOT
HETATM    1  C   UNL     1     -12.103  10.979  68.969  1.00  0.00    -0.215 C  
HETATM    2  N   UNL     1     -10.881  10.193  68.960  1.00  0.00    -0.215 N  
HETATM    3  O   UNL     1      -9.219   9.232  67.663  1.00  0.00    -0.125 OA 
HETATM    4  C   UNL     1     -10.180   9.987  67.780  1.00  0.00    -0.192 C  
ENDROOT
BRANCH   2   5
HETATM    5  C   UNL     1     -10.529   9.429  70.155  1.00  0.00    -0.240 C  
BRANCH   5   6
HETATM    6  C   UNL     1     -10.618   7.911  69.944  1.00  0.00    -0.242 C  
BRANCH   6   7
HETATM    7  C   UNL     1     -11.704   7.287  70.828  1.00  0.00    -0.333 C  
BRANCH   7   8
HETATM    8  C   UNL     1     -11.282   7.232  72.302  1.00  0.00    -0.305 C  
BRANCH   8   9
HETATM    9  C   UNL     1     -11.232   5.789  72.813  1.00  0.00    -0.336 C  
BRANCH   9  10
HETATM   10  C   UNL     1      -9.870   5.454  73.428  1.00  0.00    -0.173 C  
BRANCH  10  11
HETATM   11  C   UNL     1      -8.803   5.105  72.385  1.00  0.00    -0.131 C  
BRANCH  11  12
HETATM   12  C   UNL     1      -7.377   5.258  72.911  1.00  0.00    -0.091 C  
BRANCH  12  13
HETATM   13  C   UNL     1      -6.612   6.338  72.151  1.00  0.00    -0.059 C  
BRANCH  13  14
HETATM   14  C   UNL     1      -7.250   7.699  72.388  1.00  0.00    -0.077 C  
BRANCH  14  15
HETATM   15  N   UNL     1      -6.437   8.778  71.848  1.00  0.00    -0.078 N  
HETATM   16  C   UNL     1      -6.600   9.158  70.528  1.00  0.00    -0.061 C  
HETATM   17  C   UNL     1      -5.500   9.465  72.726  1.00  0.00    -0.013 C  
HETATM   18  O   UNL     1      -7.345   8.596  69.733  1.00  0.00    -0.051 OA 
BRANCH  16  19
HETATM   19  O   UNL     1      -5.718  10.167  70.168  1.00  0.00    -0.043 OA 
BRANCH  19  20
HETATM   20  C   UNL     1      -6.083  10.825  68.988  1.00  0.00    -0.041 A  
HETATM   21  C   UNL     1      -5.688  10.244  67.789  1.00  0.00    -0.044 A  
HETATM   22  C   UNL     1      -6.138  10.810  66.601  1.00  0.00    -0.090 A  
HETATM   23  C   UNL     1      -6.964  11.939  66.617  1.00  0.00     0.084 A  
HETATM   24  C   UNL     1      -7.355  12.536  67.828  1.00  0.00    -0.124 A  
HETATM   25  C   UNL     1      -6.932  11.940  69.016  1.00  0.00    -0.098 A  
BRANCH  24  26
HETATM   26  N   UNL     1      -8.301  13.726  67.868  1.00  0.00    -0.159 N  
HETATM   27  C   UNL     1      -8.982  13.931  66.519  1.00  0.00    -0.073 C  
HETATM   28  C   UNL     1      -7.535  15.016  68.186  1.00  0.00    -0.112 C  
HETATM   29  C   UNL     1      -9.342  13.452  68.944  1.00  0.00     0.221 C  
ENDBRANCH  24  26
ENDBRANCH  19  20
ENDBRANCH  16  19
ENDBRANCH  14  15
ENDBRANCH  13  14
ENDBRANCH  12  13
ENDBRANCH  11  12
ENDBRANCH  10  11
ENDBRANCH   9  10
ENDBRANCH   8   9
ENDBRANCH   7   8
ENDBRANCH   6   7
ENDBRANCH   5   6
ENDBRANCH   2   5
BRANCH   4  30
HETATM   30  O   UNL     1     -10.733  10.683  66.701  1.00  0.00    -0.239 OA 
BRANCH  30  31
HETATM   31  C   UNL     1     -10.100  10.411  65.476  1.00  0.00    -0.283 A  
HETATM   32  C   UNL     1     -10.188  11.331  64.430  1.00  0.00    -0.377 A  
HETATM   33  C   UNL     1      -9.302   9.268  65.373  1.00  0.00    -0.292 A  
HETATM   34  C   UNL     1      -8.610   9.013  64.176  1.00  0.00    -0.143 A  
HETATM   35  C   UNL     1      -9.521  11.081  63.244  1.00  0.00    -0.346 A  
HETATM   36  C   UNL     1      -8.747   9.928  63.116  1.00  0.00    -0.224 A  
BRANCH  34  37
HETATM   37  N   UNL     1      -7.823   7.721  63.985  1.00  0.00    -0.129 N  
HETATM   38  C   UNL     1      -6.348   7.906  64.343  1.00  0.00    -0.056 C  
HETATM   39  C   UNL     1      -8.365   6.614  64.889  1.00  0.00    -0.034 C  
HETATM   40  C   UNL     1      -7.941   7.336  62.510  1.00  0.00    -0.131 C  
ENDBRANCH  34  37
ENDBRANCH  30  31
ENDBRANCH   4  30
TORSDOF 17
ENDMDL
MODEL      274
REMARK 921   NORMALIZED FREE ENERGY PREDICTED BY IDOCK:   -2.40 KCAL/MOL
REMARK 922        TOTAL FREE ENERGY PREDICTED BY IDOCK:   -7.01 KCAL/MOL
REMARK 923 INTER-LIGAND FREE ENERGY PREDICTED BY IDOCK:   -6.25 KCAL/MOL
REMARK 924 INTRA-LIGAND FREE ENERGY PREDICTED BY IDOCK:   -0.76 KCAL/MOL
REMARK 927      BINDING AFFINITY PREDICTED BY RF-SCORE:    0.00 PKD
ROOT
HETATM    1  C   UNL     1      -5.432  10.911  68.184  1.00  0.00    -0.039 C  
HETATM    2  N   UNL     1      -6.689  11.151  68.873  1.00  0.00    -0.070 N  
HETATM    3  O   UNL     1      -8.808  10.345  69.349  1.00  0.00    -0.167 OA 
HETATM    4  C   UNL     1      -7.676  10.176  68.906  1.00  0.00    -0.093 C  
ENDROOT
BRANCH   2   5
HETATM    5  C   UNL     1      -6.993  12.507  69.325  1.00  0.00     0.032 C  
BRANCH   5   6
HETATM    6  C   UNL     1      -7.227  13.487  68.167  1.00  0.00    -0.117 C  
BRANCH   6   7
HETATM    7  C   UNL     1      -7.368  14.927  68.675  1.00  0.00    -0.120 C  
BRANCH   7   8
HETATM    8  C   UNL     1      -6.050  15.704  68.568  1.00  0.00    -0.102 C  
BRANCH   8   9
HETATM    9  C   UNL     1      -6.025  16.892  69.534  1.00  0.00    -0.213 C  
BRANCH   9  10
HETATM   10  C   UNL     1      -5.506  18.163  68.855  1.00  0.00    -0.192 C  
BRANCH  10  11
HETATM   11  C   UNL     1      -6.436  19.367  69.033  1.00  0.00    -0.334 C  
BRANCH  11  12
HETATM   12  C   UNL     1      -6.774  20.064  67.716  1.00  0.00    -0.286 C  
BRANCH  12  13
HETATM   13  C   UNL     1      -7.899  19.347  66.974  1.00  0.00    -0.275 C  
BRANCH  13  14
HETATM   14  C   UNL     1      -8.426  18.190  67.811  1.00  0.00    -0.248 C  
BRANCH  14  15
HETATM   15  N   UNL     1      -9.335  17.345  67.051  1.00  0.00    -0.253 N  
HETATM   16  C   UNL     1     -10.671  17.292  67.403  1.00  0.00    -0.247 C  
HETATM   17  C   UNL     1      -8.822  16.607  65.905  1.00  0.00    -0.086 C  
HETATM   18  O   UNL     1     -11.153  17.861  68.377  1.00  0.00    -0.023 OA 
BRANCH  16  19
HETATM   19  O   UNL     1     -11.382  16.408  66.605  1.00  0.00     0.196 OA 
BRANCH  19  20
HETATM   20  C   UNL     1     -11.141  15.065  66.917  1.00  0.00    -0.331 A  
HETATM   21  C   UNL     1     -11.221  14.700  68.256  1.00  0.00    -0.301 A  
HETATM   22  C   UNL     1     -11.104  13.353  68.582  1.00  0.00    -0.295 A  
HETATM   23  C   UNL     1     -10.908  12.393  67.584  1.00  0.00    -0.258 A  
HETATM   24  C   UNL     1     -10.814  12.760  66.230  1.00  0.00    -0.275 A  
HETATM   25  C   UNL     1     -10.970  14.108  65.908  1.00  0.00    -0.297 A  
BRANCH  24  26
HETATM   26  N   UNL     1     -10.661  11.726  65.126  1.00  0.00    -0.282 N  
HETATM   27  C   UNL     1     -10.499  10.325  65.705  1.00  0.00    -0.082 C  
HETATM   28  C   UNL     1      -9.410  12.012  64.285  1.00  0.00     0.276 C  
HETATM   29  C   UNL     1     -11.908  11.793  64.254  1.00  0.00    -0.217 C  
ENDBRANCH  24  26
ENDBRANCH  19  20
ENDBRANCH  16  19
ENDBRANCH  14  15
ENDBRANCH  13  14
ENDBRANCH  12  13
ENDBRANCH  11  12
ENDBRANCH  10  11
ENDBRANCH   9  10
ENDBRANCH   8   9
ENDBRANCH   7   8
ENDBRANCH   6   7
ENDBRANCH   5   6
ENDBRANCH   2   5
BRANCH   4  30
HETATM   30  O   UNL     1      -7.268   8.981  68.305  1.00  0.00    -0.076 OA 
BRANCH  30  31
HETATM   31  C   UNL     1      -7.317   7.875  69.171  1.00  0.00    -0.083 A  
HETATM   32  C   UNL     1      -6.196   7.539  69.932  1.00  0.00    -0.027 A  
HETATM   33  C   UNL     1      -8.531   7.200  69.328  1.00  0.00    -0.133 A  
HETATM   34  C   UNL     1      -8.615   6.131  70.237  1.00  0.00    -0.140 A  
HETATM   35  C   UNL     1      -6.267   6.480  70.819  1.00  0.00    -0.035 A  
HETATM   36  C   UNL     1      -7.462   5.777  70.963  1.00  0.00    -0.090 A  
BRANCH  34  37
HETATM   37  N   UNL     1      -9.887   5.299  70.354  1.00  0.00    -0.196 N  
HETATM   38  C   UNL     1      -9.760   3.973  69.602  1.00  0.00    -0.175 C  
HETATM   39  C   UNL     1     -10.180   4.955  71.814  1.00  0.00    -0.200 C  
HETATM   40  C   UNL     1     -11.021   6.122  69.742  1.00  0.00    -0.390 C  
ENDBRANCH  34  37
ENDBRANCH  30  31
ENDBRANCH   4  30
TORSDOF 17
ENDMDL
MODEL      275
REMARK 921   NORMALIZED FREE ENERGY PREDICTED BY IDOCK:   -2.39 KCAL/MOL
REMARK 922        TOTAL FREE ENERGY PREDICTED BY IDOCK:   -6.99 KCAL/MOL
REMARK 923 INTER-LIGAND FREE ENERGY PREDICTED BY IDOCK:   -5.94 KCAL/MOL
REMARK 924 INTRA-LIGAND FREE ENERGY PREDICTED BY IDOCK:   -1.06 KCAL/MOL
REMARK 927      BINDING AFFINITY PREDICTED BY RF-SCORE:    0.00 PKD
ROOT
HETATM    1  C   UNL     1     -10.851   8.512  68.354  1.00  0.00     0.076 C  
HETATM    2  N   UNL     1      -9.483   8.023  68.389  1.00  0.00    -0.144 N  
HETATM    3  O   UNL     1      -7.667   7.294  67.149  1.00  0.00    -0.107 OA 
HETATM    4  C   UNL     1      -8.772   7.825  67.214  1.00  0.00    -0.128 C  
ENDROOT
BRANCH   2   5
HETATM    5  C   UNL     1      -8.950   7.521  69.653  1.00  0.00    -0.141 C  
BRANCH   5   6
HETATM    6  C   UNL     1      -7.689   8.268  70.111  1.00  0.00    -0.084 C  
BRANCH   6   7
HETATM    7  C   UNL     1      -8.038   9.639  70.703  1.00  0.00    -0.068 C  
BRANCH   7   8
HETATM    8  C   UNL     1      -7.973  10.752  69.649  1.00  0.00     0.065 C  
BRANCH   8   9
HETATM    9  C   UNL     1      -6.654  11.526  69.738  1.00  0.00    -0.091 C  
BRANCH   9  10
HETATM   10  C   UNL     1      -6.832  12.994  69.342  1.00  0.00     0.038 C  
BRANCH  10  11
HETATM   11  C   UNL     1      -5.931  13.948  70.132  1.00  0.00    -0.152 C  
BRANCH  11  12
HETATM   12  C   UNL     1      -5.616  15.239  69.380  1.00  0.00    -0.098 C  
BRANCH  12  13
HETATM   13  C   UNL     1      -6.340  15.296  68.037  1.00  0.00    -0.155 C  
BRANCH  13  14
HETATM   14  C   UNL     1      -7.053  16.631  67.881  1.00  0.00    -0.140 C  
BRANCH  14  15
HETATM   15  N   UNL     1      -8.498  16.485  67.972  1.00  0.00    -0.182 N  
HETATM   16  C   UNL     1      -9.091  15.308  67.554  1.00  0.00    -0.185 C  
HETATM   17  C   UNL     1      -9.283  17.569  68.547  1.00  0.00    -0.278 C  
HETATM   18  O   UNL     1      -8.488  14.378  67.029  1.00  0.00    -0.213 OA 
BRANCH  16  19
HETATM   19  O   UNL     1     -10.473  15.356  67.669  1.00  0.00    -0.261 OA 
BRANCH  19  20
HETATM   20  C   UNL     1     -10.992  14.368  68.513  1.00  0.00    -0.251 A  
HETATM   21  C   UNL     1     -10.553  13.064  68.310  1.00  0.00    -0.260 A  
HETATM   22  C   UNL     1     -10.959  12.083  69.208  1.00  0.00    -0.189 A  
HETATM   23  C   UNL     1     -11.791  12.403  70.286  1.00  0.00    -0.315 A  
HETATM   24  C   UNL     1     -12.246  13.718  70.486  1.00  0.00    -0.369 A  
HETATM   25  C   UNL     1     -11.804  14.704  69.605  1.00  0.00    -0.367 A  
BRANCH  24  26
HETATM   26  N   UNL     1     -13.101  14.098  71.686  1.00  0.00    -0.333 N  
HETATM   27  C   UNL     1     -13.689  12.859  72.354  1.00  0.00    -0.431 C  
HETATM   28  C   UNL     1     -14.280  14.978  71.253  1.00  0.00    -0.416 C  
HETATM   29  C   UNL     1     -12.213  14.851  72.666  1.00  0.00    -0.298 C  
ENDBRANCH  24  26
ENDBRANCH  19  20
ENDBRANCH  16  19
ENDBRANCH  14  15
ENDBRANCH  13  14
ENDBRANCH  12  13
ENDBRANCH  11  12
ENDBRANCH  10  11
ENDBRANCH   9  10
ENDBRANCH   8   9
ENDBRANCH   7   8
ENDBRANCH   6   7
ENDBRANCH   5   6
ENDBRANCH   2   5
BRANCH   4  30
HETATM   30  O   UNL     1      -9.484   8.232  66.082  1.00  0.00    -0.209 OA 
BRANCH  30  31
HETATM   31  C   UNL     1      -9.214   9.556  65.696  1.00  0.00    -0.223 A  
HETATM   32  C   UNL     1      -7.892   9.997  65.609  1.00  0.00    -0.138 A  
HETATM   33  C   UNL     1     -10.280  10.370  65.303  1.00  0.00    -0.332 A  
HETATM   34  C   UNL     1     -10.023  11.677  64.854  1.00  0.00    -0.255 A  
HETATM   35  C   UNL     1      -7.632  11.287  65.180  1.00  0.00     0.710 A  
HETATM   36  C   UNL     1      -8.688  12.121  64.815  1.00  0.00     1.223 A  
BRANCH  34  37
HETATM   37  N   UNL     1     -11.164  12.633  64.525  1.00  0.00    -0.317 N  
HETATM   38  C   UNL     1     -11.789  12.313  63.166  1.00  0.00    -0.235 C  
HETATM   39  C   UNL     1     -12.281  12.525  65.564  1.00  0.00    -0.377 C  
HETATM   40  C   UNL     1     -10.575  14.044  64.492  1.00  0.00    -0.309 C  
ENDBRANCH  34  37
ENDBRANCH  30  31
ENDBRANCH   4  30
TORSDOF 17
ENDMDL
MODEL      276
REMARK 921   NORMALIZED FREE ENERGY PREDICTED BY IDOCK:   -2.25 KCAL/MOL
REMARK 922        TOTAL FREE ENERGY PREDICTED BY IDOCK:   -6.72 KCAL/MOL
REMARK 923 INTER-LIGAND FREE ENERGY PREDICTED BY IDOCK:   -7.83 KCAL/MOL
REMARK 924 INTRA-LIGAND FREE ENERGY PREDICTED BY IDOCK:    1.11 KCAL/MOL
REMARK 927      BINDING AFFINITY PREDICTED BY RF-SCORE:    0.00 PKD
ROOT
HETATM    1  C   UNL     1      -5.556   5.776  69.097  1.00  0.00    -0.008 C  
HETATM    2  N   UNL     1      -6.527   4.698  69.176  1.00  0.00    -0.038 N  
HETATM    3  O   UNL     1      -7.962   3.495  70.541  1.00  0.00    -0.052 OA 
HETATM    4  C   UNL     1      -7.227   4.460  70.351  1.00  0.00    -0.048 C  
ENDROOT
BRANCH   2   5
HETATM    5  C   UNL     1      -6.585   3.724  68.088  1.00  0.00    -0.042 C  
BRANCH   5   6
HETATM    6  C   UNL     1      -6.740   4.377  66.707  1.00  0.00    -0.051 C  
BRANCH   6   7
HETATM    7  C   UNL     1      -6.313   5.850  66.735  1.00  0.00    -0.045 C  
BRANCH   7   8
HETATM    8  C   UNL     1      -6.943   6.651  65.589  1.00  0.00    -0.056 C  
BRANCH   8   9
HETATM    9  C   UNL     1      -8.136   7.476  66.079  1.00  0.00    -0.123 C  
BRANCH   9  10
HETATM   10  C   UNL     1      -8.550   8.536  65.054  1.00  0.00    -0.162 C  
BRANCH  10  11
HETATM   11  C   UNL     1      -8.890   9.890  65.686  1.00  0.00    -0.184 C  
BRANCH  11  12
HETATM   12  C   UNL     1     -10.347  10.298  65.484  1.00  0.00    -0.239 C  
BRANCH  12  13
HETATM   13  C   UNL     1     -10.461  11.708  64.907  1.00  0.00    -0.339 C  
BRANCH  13  14
HETATM   14  C   UNL     1     -11.384  12.555  65.770  1.00  0.00    -0.336 C  
BRANCH  14  15
HETATM   15  N   UNL     1     -11.330  13.961  65.397  1.00  0.00    -0.304 N  
HETATM   16  C   UNL     1     -10.464  14.809  66.062  1.00  0.00    -0.303 C  
HETATM   17  C   UNL     1     -12.160  14.433  64.297  1.00  0.00    -0.436 C  
HETATM   18  O   UNL     1      -9.769  14.479  67.017  1.00  0.00    -0.233 OA 
BRANCH  16  19
HETATM   19  O   UNL     1     -10.573  16.117  65.612  1.00  0.00    -0.358 OA 
BRANCH  19  20
HETATM   20  C   UNL     1      -9.924  17.041  66.437  1.00  0.00    -0.307 A  
HETATM   21  C   UNL     1     -10.702  17.717  67.371  1.00  0.00    -0.262 A  
HETATM   22  C   UNL     1     -10.065  18.552  68.282  1.00  0.00    -0.424 A  
HETATM   23  C   UNL     1      -8.675  18.708  68.256  1.00  0.00    -0.349 A  
HETATM   24  C   UNL     1      -7.887  18.036  67.306  1.00  0.00    -0.214 A  
HETATM   25  C   UNL     1      -8.528  17.171  66.420  1.00  0.00    -0.307 A  
BRANCH  24  26
HETATM   26  N   UNL     1      -6.370  18.145  67.299  1.00  0.00    -0.170 N  
HETATM   27  C   UNL     1      -5.855  18.711  68.619  1.00  0.00    -0.203 C  
HETATM   28  C   UNL     1      -5.900  19.094  66.190  1.00  0.00    -0.161 C  
HETATM   29  C   UNL     1      -5.807  16.749  67.072  1.00  0.00    -0.170 C  
ENDBRANCH  24  26
ENDBRANCH  19  20
ENDBRANCH  16  19
ENDBRANCH  14  15
ENDBRANCH  13  14
ENDBRANCH  12  13
ENDBRANCH  11  12
ENDBRANCH  10  11
ENDBRANCH   9  10
ENDBRANCH   8   9
ENDBRANCH   7   8
ENDBRANCH   6   7
ENDBRANCH   5   6
ENDBRANCH   2   5
BRANCH   4  30
HETATM   30  O   UNL     1      -6.950   5.408  71.340  1.00  0.00    -0.061 OA 
BRANCH  30  31
HETATM   31  C   UNL     1      -7.671   6.604  71.187  1.00  0.00    -0.097 A  
HETATM   32  C   UNL     1      -6.997   7.787  70.880  1.00  0.00    -0.049 A  
HETATM   33  C   UNL     1      -9.068   6.556  71.241  1.00  0.00    -0.148 A  
HETATM   34  C   UNL     1      -9.809   7.731  71.026  1.00  0.00    -0.174 A  
HETATM   35  C   UNL     1      -7.718   8.950  70.681  1.00  0.00    -0.112 A  
HETATM   36  C   UNL     1      -9.110   8.924  70.762  1.00  0.00    -0.260 A  
BRANCH  34  37
HETATM   37  N   UNL     1     -11.324   7.744  71.189  1.00  0.00    -0.265 N  
HETATM   38  C   UNL     1     -11.745   7.216  72.561  1.00  0.00    -0.180 C  
HETATM   39  C   UNL     1     -11.873   9.166  71.071  1.00  0.00    -0.292 C  
HETATM   40  C   UNL     1     -11.901   6.838  70.099  1.00  0.00    -0.262 C  
ENDBRANCH  34  37
ENDBRANCH  30  31
ENDBRANCH   4  30
TORSDOF 17
ENDMDL
MODEL      277
REMARK 921   NORMALIZED FREE ENERGY PREDICTED BY IDOCK:   -2.22 KCAL/MOL
REMARK 922        TOTAL FREE ENERGY PREDICTED BY IDOCK:   -6.67 KCAL/MOL
REMARK 923 INTER-LIGAND FREE ENERGY PREDICTED BY IDOCK:   -5.78 KCAL/MOL
REMARK 924 INTRA-LIGAND FREE ENERGY PREDICTED BY IDOCK:   -0.89 KCAL/MOL
REMARK 927      BINDING AFFINITY PREDICTED BY RF-SCORE:    0.00 PKD
ROOT
HETATM    1  C   UNL     1     -10.509  13.676  64.360  1.00  0.00    -0.300 C  
HETATM    2  N   UNL     1     -10.537  12.686  65.423  1.00  0.00    -0.276 N  
HETATM    3  O   UNL     1     -10.408  10.437  65.964  1.00  0.00    -0.241 OA 
HETATM    4  C   UNL     1     -10.276  11.350  65.154  1.00  0.00    -0.277 C  
ENDROOT
BRANCH   2   5
HETATM    5  C   UNL     1     -11.073  13.072  66.727  1.00  0.00    -0.286 C  
BRANCH   5   6
HETATM    6  C   UNL     1     -11.224  14.591  66.887  1.00  0.00    -0.340 C  
BRANCH   6   7
HETATM    7  C   UNL     1      -9.857  15.285  66.930  1.00  0.00    -0.242 C  
BRANCH   7   8
HETATM    8  C   UNL     1      -9.028  14.843  68.143  1.00  0.00    -0.176 C  
BRANCH   8   9
HETATM    9  C   UNL     1      -7.844  13.969  67.718  1.00  0.00    -0.176 C  
BRANCH   9  10
HETATM   10  C   UNL     1      -7.234  13.224  68.909  1.00  0.00    -0.054 C  
BRANCH  10  11
HETATM   11  C   UNL     1      -6.378  12.022  68.498  1.00  0.00    -0.055 C  
BRANCH  11  12
HETATM   12  C   UNL     1      -6.926  11.283  67.279  1.00  0.00    -0.109 C  
BRANCH  12  13
HETATM   13  C   UNL     1      -7.801  10.100  67.686  1.00  0.00    -0.098 C  
BRANCH  13  14
HETATM   14  C   UNL     1      -8.647  10.465  68.896  1.00  0.00    -0.149 C  
BRANCH  14  15
HETATM   15  N   UNL     1      -9.022   9.288  69.667  1.00  0.00    -0.149 N  
HETATM   16  C   UNL     1      -8.347   8.999  70.839  1.00  0.00    -0.197 C  
HETATM   17  C   UNL     1     -10.134   8.468  69.208  1.00  0.00    -0.202 C  
HETATM   18  O   UNL     1      -7.382   9.631  71.256  1.00  0.00    -0.322 OA 
BRANCH  16  19
HETATM   19  O   UNL     1      -8.802   7.824  71.420  1.00  0.00    -0.128 OA 
BRANCH  19  20
HETATM   20  C   UNL     1      -7.923   6.749  71.253  1.00  0.00    -0.106 A  
HETATM   21  C   UNL     1      -6.820   6.691  72.097  1.00  0.00    -0.067 A  
HETATM   22  C   UNL     1      -5.996   5.573  72.034  1.00  0.00    -0.030 A  
HETATM   23  C   UNL     1      -6.273   4.534  71.139  1.00  0.00    -0.018 A  
HETATM   24  C   UNL     1      -7.380   4.594  70.275  1.00  0.00    -0.050 A  
HETATM   25  C   UNL     1      -8.223   5.701  70.371  1.00  0.00    -0.105 A  
BRANCH  24  26
HETATM   26  N   UNL     1      -7.732   3.449  69.339  1.00  0.00    -0.051 N  
HETATM   27  C   UNL     1      -7.472   3.829  67.885  1.00  0.00    -0.066 C  
HETATM   28  C   UNL     1      -9.220   3.095  69.452  1.00  0.00    -0.149 C  
HETATM   29  C   UNL     1      -6.875   2.253  69.729  1.00  0.00    -0.033 C  
ENDBRANCH  24  26
ENDBRANCH  19  20
ENDBRANCH  16  19
ENDBRANCH  14  15
ENDBRANCH  13  14
ENDBRANCH  12  13
ENDBRANCH  11  12
ENDBRANCH  10  11
ENDBRANCH   9  10
ENDBRANCH   8   9
ENDBRANCH   7   8
ENDBRANCH   6   7
ENDBRANCH   5   6
ENDBRANCH   2   5
BRANCH   4  30
HETATM   30  O   UNL     1      -9.910  11.134  63.822  1.00  0.00    -0.268 OA 
BRANCH  30  31
HETATM   31  C   UNL     1      -8.845  10.229  63.673  1.00  0.00    -0.222 A  
HETATM   32  C   UNL     1      -7.710  10.605  62.953  1.00  0.00    -0.046 A  
HETATM   33  C   UNL     1      -8.906   9.006  64.348  1.00  0.00    -0.107 A  
HETATM   34  C   UNL     1      -7.822   8.115  64.263  1.00  0.00    -0.137 A  
HETATM   35  C   UNL     1      -6.645   9.728  62.854  1.00  0.00    -0.111 A  
HETATM   36  C   UNL     1      -6.705   8.491  63.495  1.00  0.00    -0.085 A  
BRANCH  34  37
HETATM   37  N   UNL     1      -7.897   6.727  64.890  1.00  0.00    -0.113 N  
HETATM   38  C   UNL     1      -8.885   6.691  66.057  1.00  0.00    -0.139 C  
HETATM   39  C   UNL     1      -8.375   5.694  63.870  1.00  0.00    -0.058 C  
HETATM   40  C   UNL     1      -6.496   6.388  65.402  1.00  0.00    -0.039 C  
ENDBRANCH  34  37
ENDBRANCH  30  31
ENDBRANCH   4  30
TORSDOF 17
ENDMDL
MODEL      278
REMARK 921   NORMALIZED FREE ENERGY PREDICTED BY IDOCK:   -2.17 KCAL/MOL
REMARK 922        TOTAL FREE ENERGY PREDICTED BY IDOCK:   -6.56 KCAL/MOL
REMARK 923 INTER-LIGAND FREE ENERGY PREDICTED BY IDOCK:   -5.98 KCAL/MOL
REMARK 924 INTRA-LIGAND FREE ENERGY PREDICTED BY IDOCK:   -0.58 KCAL/MOL
REMARK 927      BINDING AFFINITY PREDICTED BY RF-SCORE:    0.00 PKD
ROOT
HETATM    1  C   UNL     1      -7.799   8.291  68.899  1.00  0.00    -0.111 C  
HETATM    2  N   UNL     1      -9.213   8.508  69.156  1.00  0.00    -0.149 N  
HETATM    3  O   UNL     1     -11.354   8.505  68.270  1.00  0.00     0.451 OA 
HETATM    4  C   UNL     1     -10.161   8.229  68.181  1.00  0.00    -0.210 C  
ENDROOT
BRANCH   2   5
HETATM    5  C   UNL     1      -9.603   9.242  70.358  1.00  0.00    -0.244 C  
BRANCH   5   6
HETATM    6  C   UNL     1     -10.918  10.015  70.189  1.00  0.00    -0.368 C  
BRANCH   6   7
HETATM    7  C   UNL     1     -11.730  10.026  71.490  1.00  0.00    -0.359 C  
BRANCH   7   8
HETATM    8  C   UNL     1     -12.962   9.117  71.404  1.00  0.00    -0.366 C  
BRANCH   8   9
HETATM    9  C   UNL     1     -12.568   7.639  71.471  1.00  0.00    -0.369 C  
BRANCH   9  10
HETATM   10  C   UNL     1     -11.860   7.301  72.786  1.00  0.00    -0.058 C  
BRANCH  10  11
HETATM   11  C   UNL     1     -11.268   5.888  72.810  1.00  0.00    -0.317 C  
BRANCH  11  12
HETATM   12  C   UNL     1     -10.001   5.782  73.656  1.00  0.00    -0.192 C  
BRANCH  12  13
HETATM   13  C   UNL     1      -8.845   5.178  72.862  1.00  0.00    -0.117 C  
BRANCH  13  14
HETATM   14  C   UNL     1      -8.730   5.857  71.505  1.00  0.00    -0.132 C  
BRANCH  14  15
HETATM   15  N   UNL     1      -8.782   4.895  70.414  1.00  0.00    -0.098 N  
HETATM   16  C   UNL     1      -7.663   4.139  70.119  1.00  0.00    -0.049 C  
HETATM   17  C   UNL     1     -10.032   4.717  69.688  1.00  0.00    -0.227 C  
HETATM   18  O   UNL     1      -6.575   4.269  70.669  1.00  0.00    -0.029 OA 
BRANCH  16  19
HETATM   19  O   UNL     1      -7.873   3.308  69.028  1.00  0.00    -0.051 OA 
BRANCH  19  20
HETATM   20  C   UNL     1      -7.514   3.894  67.809  1.00  0.00    -0.067 A  
HETATM   21  C   UNL     1      -6.265   4.501  67.739  1.00  0.00    -0.036 A  
HETATM   22  C   UNL     1      -5.833   4.985  66.509  1.00  0.00    -0.022 A  
HETATM   23  C   UNL     1      -6.640   4.866  65.373  1.00  0.00    -0.040 A  
HETATM   24  C   UNL     1      -7.908   4.264  65.443  1.00  0.00    -0.086 A  
HETATM   25  C   UNL     1      -8.318   3.746  66.670  1.00  0.00    -0.104 A  
BRANCH  24  26
HETATM   26  N   UNL     1      -8.774   4.070  64.208  1.00  0.00    -0.114 N  
HETATM   27  C   UNL     1      -8.557   5.196  63.203  1.00  0.00    -0.091 C  
HETATM   28  C   UNL     1     -10.261   4.082  64.582  1.00  0.00    -0.214 C  
HETATM   29  C   UNL     1      -8.399   2.732  63.585  1.00  0.00    -0.086 C  
ENDBRANCH  24  26
ENDBRANCH  19  20
ENDBRANCH  16  19
ENDBRANCH  14  15
ENDBRANCH  13  14
ENDBRANCH  12  13
ENDBRANCH  11  12
ENDBRANCH  10  11
ENDBRANCH   9  10
ENDBRANCH   8   9
ENDBRANCH   7   8
ENDBRANCH   6   7
ENDBRANCH   5   6
ENDBRANCH   2   5
BRANCH   4  30
HETATM   30  O   UNL     1      -9.599   7.655  67.037  1.00  0.00    -0.153 OA 
BRANCH  30  31
HETATM   31  C   UNL     1      -9.222   8.598  66.066  1.00  0.00    -0.216 A  
HETATM   32  C   UNL     1      -8.162   8.319  65.202  1.00  0.00    -0.156 A  
HETATM   33  C   UNL     1      -9.994   9.755  65.919  1.00  0.00    -0.345 A  
HETATM   34  C   UNL     1      -9.670  10.679  64.911  1.00  0.00    -0.284 A  
HETATM   35  C   UNL     1      -7.829   9.230  64.215  1.00  0.00    -0.125 A  
HETATM   36  C   UNL     1      -8.570  10.403  64.078  1.00  0.00    -0.179 A  
BRANCH  34  37
HETATM   37  N   UNL     1     -10.416  12.004  64.792  1.00  0.00    -0.281 N  
HETATM   38  C   UNL     1     -11.811  11.919  65.413  1.00  0.00    -0.079 C  
HETATM   39  C   UNL     1      -9.669  13.117  65.526  1.00  0.00    -0.043 C  
HETATM   40  C   UNL     1     -10.544  12.315  63.300  1.00  0.00    -0.265 C  
ENDBRANCH  34  37
ENDBRANCH  30  31
ENDBRANCH   4  30
TORSDOF 17
ENDMDL
MODEL      279
REMARK 921   NORMALIZED FREE ENERGY PREDICTED BY IDOCK:   -2.14 KCAL/MOL
REMARK 922        TOTAL FREE ENERGY PREDICTED BY IDOCK:   -6.51 KCAL/MOL
REMARK 923 INTER-LIGAND FREE ENERGY PREDICTED BY IDOCK:   -5.35 KCAL/MOL
REMARK 924 INTRA-LIGAND FREE ENERGY PREDICTED BY IDOCK:   -1.16 KCAL/MOL
REMARK 927      BINDING AFFINITY PREDICTED BY RF-SCORE:    0.00 PKD
ROOT
HETATM    1  C   UNL     1      -9.667  12.535  65.853  1.00  0.00    -0.219 C  
HETATM    2  N   UNL     1      -8.516  12.784  66.705  1.00  0.00    -0.095 N  
HETATM    3  O   UNL     1      -7.103  14.378  67.615  1.00  0.00    -0.160 OA 
HETATM    4  C   UNL     1      -8.132  14.081  67.015  1.00  0.00    -0.003 C  
ENDROOT
BRANCH   2   5
HETATM    5  C   UNL     1      -7.634  11.667  67.037  1.00  0.00    -0.154 C  
BRANCH   5   6
HETATM    6  C   UNL     1      -7.141  11.704  68.490  1.00  0.00    -0.089 C  
BRANCH   6   7
HETATM    7  C   UNL     1      -6.937  10.289  69.046  1.00  0.00    -0.064 C  
BRANCH   7   8
HETATM    8  C   UNL     1      -7.308   9.212  68.019  1.00  0.00    -0.083 C  
BRANCH   8   9
HETATM    9  C   UNL     1      -6.892   7.819  68.500  1.00  0.00    -0.066 C  
BRANCH   9  10
HETATM   10  C   UNL     1      -6.952   7.705  70.026  1.00  0.00    -0.051 C  
BRANCH  10  11
HETATM   11  C   UNL     1      -8.365   7.447  70.559  1.00  0.00    -0.132 C  
BRANCH  11  12
HETATM   12  C   UNL     1      -8.807   8.468  71.606  1.00  0.00    -0.272 C  
BRANCH  12  13
HETATM   13  C   UNL     1      -8.270   8.119  72.992  1.00  0.00    -0.248 C  
BRANCH  13  14
HETATM   14  C   UNL     1      -9.409   7.689  73.904  1.00  0.00    -0.213 C  
BRANCH  14  15
HETATM   15  N   UNL     1      -9.879   6.349  73.585  1.00  0.00    -0.180 N  
HETATM   16  C   UNL     1      -9.009   5.280  73.687  1.00  0.00    -0.124 C  
HETATM   17  C   UNL     1     -11.274   6.161  73.209  1.00  0.00    -0.036 C  
HETATM   18  O   UNL     1      -7.818   5.381  73.962  1.00  0.00    -0.099 OA 
BRANCH  16  19
HETATM   19  O   UNL     1      -9.607   4.088  73.305  1.00  0.00    -0.114 OA 
BRANCH  19  20
HETATM   20  C   UNL     1      -8.926   3.433  72.272  1.00  0.00    -0.099 A  
HETATM   21  C   UNL     1      -8.215   2.287  72.607  1.00  0.00    -0.055 A  
HETATM   22  C   UNL     1      -7.629   1.550  71.583  1.00  0.00    -0.040 A  
HETATM   23  C   UNL     1      -7.751   1.959  70.251  1.00  0.00    -0.043 A  
HETATM   24  C   UNL     1      -8.459   3.124  69.910  1.00  0.00    -0.053 A  
HETATM   25  C   UNL     1      -9.077   3.836  70.938  1.00  0.00    -0.180 A  
BRANCH  24  26
HETATM   26  N   UNL     1      -8.655   3.551  68.464  1.00  0.00    -0.087 N  
HETATM   27  C   UNL     1      -9.619   4.729  68.366  1.00  0.00    -0.151 C  
HETATM   28  C   UNL     1      -9.259   2.407  67.639  1.00  0.00    -0.178 C  
HETATM   29  C   UNL     1      -7.293   3.940  67.908  1.00  0.00    -0.066 C  
ENDBRANCH  24  26
ENDBRANCH  19  20
ENDBRANCH  16  19
ENDBRANCH  14  15
ENDBRANCH  13  14
ENDBRANCH  12  13
ENDBRANCH  11  12
ENDBRANCH  10  11
ENDBRANCH   9  10
ENDBRANCH   8   9
ENDBRANCH   7   8
ENDBRANCH   6   7
ENDBRANCH   5   6
ENDBRANCH   2   5
BRANCH   4  30
HETATM   30  O   UNL     1      -9.013  15.038  66.502  1.00  0.00    -0.269 OA 
BRANCH  30  31
HETATM   31  C   UNL     1      -9.769  15.690  67.491  1.00  0.00    -0.222 A  
HETATM   32  C   UNL     1      -9.877  17.081  67.478  1.00  0.00    -0.258 A  
HETATM   33  C   UNL     1     -10.488  14.914  68.405  1.00  0.00    -0.243 A  
HETATM   34  C   UNL     1     -11.300  15.547  69.362  1.00  0.00    -0.316 A  
HETATM   35  C   UNL     1     -10.664  17.713  68.424  1.00  0.00    -0.246 A  
HETATM   36  C   UNL     1     -11.361  16.953  69.362  1.00  0.00     0.322 A  
BRANCH  34  37
HETATM   37  N   UNL     1     -12.008  14.743  70.446  1.00  0.00    -0.288 N  
HETATM   38  C   UNL     1     -13.435  15.244  70.673  1.00  0.00    -0.208 C  
HETATM   39  C   UNL     1     -12.112  13.269  70.050  1.00  0.00    -0.315 C  
HETATM   40  C   UNL     1     -11.200  14.913  71.733  1.00  0.00     0.046 C  
ENDBRANCH  34  37
ENDBRANCH  30  31
ENDBRANCH   4  30
TORSDOF 17
ENDMDL
MODEL      280
REMARK 921   NORMALIZED FREE ENERGY PREDICTED BY IDOCK:   -1.99 KCAL/MOL
REMARK 922        TOTAL FREE ENERGY PREDICTED BY IDOCK:   -6.20 KCAL/MOL
REMARK 923 INTER-LIGAND FREE ENERGY PREDICTED BY IDOCK:   -5.93 KCAL/MOL
REMARK 924 INTRA-LIGAND FREE ENERGY PREDICTED BY IDOCK:   -0.27 KCAL/MOL
REMARK 927      BINDING AFFINITY PREDICTED BY RF-SCORE:    0.00 PKD
ROOT
HETATM    1  C   UNL     1     -10.456  13.141  63.950  1.00  0.00    -0.098 C  
HETATM    2  N   UNL     1     -10.450  11.974  64.816  1.00  0.00    -0.281 N  
HETATM    3  O   UNL     1      -9.987   9.711  64.995  1.00  0.00    -0.224 OA 
HETATM    4  C   UNL     1      -9.914  10.771  64.379  1.00  0.00    -0.338 C  
ENDROOT
BRANCH   2   5
HETATM    5  C   UNL     1     -11.223  12.017  66.055  1.00  0.00    -0.335 C  
BRANCH   5   6
HETATM    6  C   UNL     1     -11.724  13.426  66.401  1.00  0.00    -0.409 C  
BRANCH   6   7
HETATM    7  C   UNL     1     -10.590  14.303  66.947  1.00  0.00    -0.273 C  
BRANCH   7   8
HETATM    8  C   UNL     1      -9.972  13.712  68.220  1.00  0.00    -0.236 C  
BRANCH   8   9
HETATM    9  C   UNL     1      -8.554  13.193  67.960  1.00  0.00    -0.182 C  
BRANCH   9  10
HETATM   10  C   UNL     1      -8.089  12.238  69.063  1.00  0.00     0.276 C  
BRANCH  10  11
HETATM   11  C   UNL     1      -6.805  11.481  68.708  1.00  0.00    -0.084 C  
BRANCH  11  12
HETATM   12  C   UNL     1      -6.638  11.254  67.207  1.00  0.00    -0.093 C  
BRANCH  12  13
HETATM   13  C   UNL     1      -7.331   9.972  66.753  1.00  0.00    -0.095 C  
BRANCH  13  14
HETATM   14  C   UNL     1      -8.269   9.468  67.840  1.00  0.00    -0.114 C  
BRANCH  14  15
HETATM   15  N   UNL     1      -8.098   8.043  68.082  1.00  0.00    -0.127 N  
HETATM   16  C   UNL     1      -9.193   7.203  67.996  1.00  0.00    -0.130 C  
HETATM   17  C   UNL     1      -6.765   7.529  68.365  1.00  0.00    -0.054 C  
HETATM   18  O   UNL     1     -10.342   7.581  67.798  1.00  0.00    -0.190 OA 
BRANCH  16  19
HETATM   19  O   UNL     1      -8.861   5.890  68.298  1.00  0.00    -0.112 OA 
BRANCH  19  20
HETATM   20  C   UNL     1      -8.955   5.596  69.663  1.00  0.00    -0.123 A  
HETATM   21  C   UNL     1      -8.301   4.455  70.114  1.00  0.00    -0.079 A  
HETATM   22  C   UNL     1      -8.278   4.203  71.481  1.00  0.00    -0.087 A  
HETATM   23  C   UNL     1      -8.901   5.078  72.377  1.00  0.00    -0.133 A  
HETATM   24  C   UNL     1      -9.574   6.226  71.924  1.00  0.00    -0.152 A  
HETATM   25  C   UNL     1      -9.560   6.492  70.555  1.00  0.00    -0.180 A  
BRANCH  24  26
HETATM   26  N   UNL     1     -10.205   7.220  72.886  1.00  0.00    -0.219 N  
HETATM   27  C   UNL     1     -11.616   7.593  72.442  1.00  0.00    -0.336 C  
HETATM   28  C   UNL     1      -9.391   8.519  72.932  1.00  0.00    -0.127 C  
HETATM   29  C   UNL     1     -10.242   6.572  74.262  1.00  0.00    -0.350 C  
ENDBRANCH  24  26
ENDBRANCH  19  20
ENDBRANCH  16  19
ENDBRANCH  14  15
ENDBRANCH  13  14
ENDBRANCH  12  13
ENDBRANCH  11  12
ENDBRANCH  10  11
ENDBRANCH   9  10
ENDBRANCH   8   9
ENDBRANCH   7   8
ENDBRANCH   6   7
ENDBRANCH   5   6
ENDBRANCH   2   5
BRANCH   4  30
HETATM   30  O   UNL     1      -9.333  10.872  63.112  1.00  0.00    -0.255 OA 
BRANCH  30  31
HETATM   31  C   UNL     1      -8.174  10.091  62.963  1.00  0.00    -0.156 A  
HETATM   32  C   UNL     1      -7.005  10.672  62.466  1.00  0.00    -0.100 A  
HETATM   33  C   UNL     1      -8.191   8.771  63.422  1.00  0.00    -0.170 A  
HETATM   34  C   UNL     1      -7.022   7.995  63.340  1.00  0.00    -0.084 A  
HETATM   35  C   UNL     1      -5.854   9.910  62.370  1.00  0.00    -0.096 A  
HETATM   36  C   UNL     1      -5.866   8.582  62.794  1.00  0.00    -0.082 A  
BRANCH  34  37
HETATM   37  N   UNL     1      -7.031   6.519  63.724  1.00  0.00    -0.049 N  
HETATM   38  C   UNL     1      -8.338   6.128  64.415  1.00  0.00     0.002 C  
HETATM   39  C   UNL     1      -6.902   5.634  62.485  1.00  0.00    -0.036 C  
HETATM   40  C   UNL     1      -5.864   6.297  64.686  1.00  0.00    -0.022 C  
ENDBRANCH  34  37
ENDBRANCH  30  31
ENDBRANCH   4  30
TORSDOF 17
ENDMDL
MODEL      281
REMARK 921   NORMALIZED FREE ENERGY PREDICTED BY IDOCK:   -1.99 KCAL/MOL
REMARK 922        TOTAL FREE ENERGY PREDICTED BY IDOCK:   -6.20 KCAL/MOL
REMARK 923 INTER-LIGAND FREE ENERGY PREDICTED BY IDOCK:   -5.74 KCAL/MOL
REMARK 924 INTRA-LIGAND FREE ENERGY PREDICTED BY IDOCK:   -0.46 KCAL/MOL
REMARK 927      BINDING AFFINITY PREDICTED BY RF-SCORE:    0.00 PKD
ROOT
HETATM    1  C   UNL     1      -8.875   6.700  70.480  1.00  0.00    -0.152 C  
HETATM    2  N   UNL     1      -9.382   6.129  71.716  1.00  0.00    -0.151 N  
HETATM    3  O   UNL     1     -11.251   5.701  73.015  1.00  0.00    -0.280 OA 
HETATM    4  C   UNL     1     -10.747   6.046  71.951  1.00  0.00    -0.234 C  
ENDROOT
BRANCH   2   5
HETATM    5  C   UNL     1      -8.441   5.862  72.803  1.00  0.00    -0.122 C  
BRANCH   5   6
HETATM    6  C   UNL     1      -7.057   6.480  72.562  1.00  0.00    -0.074 C  
BRANCH   6   7
HETATM    7  C   UNL     1      -6.214   5.611  71.621  1.00  0.00    -0.042 C  
BRANCH   7   8
HETATM    8  C   UNL     1      -5.819   4.279  72.271  1.00  0.00    -0.012 C  
BRANCH   8   9
HETATM    9  C   UNL     1      -5.870   3.130  71.259  1.00  0.00    -0.013 C  
BRANCH   9  10
HETATM   10  C   UNL     1      -7.295   2.880  70.757  1.00  0.00    -0.033 C  
BRANCH  10  11
HETATM   11  C   UNL     1      -7.429   2.991  69.235  1.00  0.00    -0.047 C  
BRANCH  11  12
HETATM   12  C   UNL     1      -7.850   1.681  68.572  1.00  0.00    -0.052 C  
BRANCH  12  13
HETATM   13  C   UNL     1      -9.114   1.857  67.734  1.00  0.00    -0.197 C  
BRANCH  13  14
HETATM   14  C   UNL     1      -9.393   3.335  67.509  1.00  0.00    -0.206 C  
BRANCH  14  15
HETATM   15  N   UNL     1      -9.041   3.753  66.160  1.00  0.00    -0.142 N  
HETATM   16  C   UNL     1      -8.820   5.092  65.898  1.00  0.00    -0.142 C  
HETATM   17  C   UNL     1      -8.884   2.740  65.125  1.00  0.00    -0.127 C  
HETATM   18  O   UNL     1      -8.972   5.992  66.718  1.00  0.00    -0.117 OA 
BRANCH  16  19
HETATM   19  O   UNL     1      -8.539   5.318  64.559  1.00  0.00    -0.144 OA 
BRANCH  19  20
HETATM   20  C   UNL     1      -8.013   6.590  64.310  1.00  0.00    -0.095 A  
HETATM   21  C   UNL     1      -8.361   7.198  63.110  1.00  0.00     0.170 A  
HETATM   22  C   UNL     1      -7.952   8.509  62.889  1.00  0.00    -0.159 A  
HETATM   23  C   UNL     1      -7.207   9.195  63.854  1.00  0.00    -0.096 A  
HETATM   24  C   UNL     1      -6.843   8.579  65.064  1.00  0.00    -0.071 A  
HETATM   25  C   UNL     1      -7.289   7.278  65.294  1.00  0.00    -0.080 A  
BRANCH  24  26
HETATM   26  N   UNL     1      -6.085   9.327  66.150  1.00  0.00    -0.059 N  
HETATM   27  C   UNL     1      -5.241   8.371  66.988  1.00  0.00    -0.036 C  
HETATM   28  C   UNL     1      -7.060  10.022  67.109  1.00  0.00    -0.089 C  
HETATM   29  C   UNL     1      -5.193  10.354  65.468  1.00  0.00    -0.087 C  
ENDBRANCH  24  26
ENDBRANCH  19  20
ENDBRANCH  16  19
ENDBRANCH  14  15
ENDBRANCH  13  14
ENDBRANCH  12  13
ENDBRANCH  11  12
ENDBRANCH  10  11
ENDBRANCH   9  10
ENDBRANCH   8   9
ENDBRANCH   7   8
ENDBRANCH   6   7
ENDBRANCH   5   6
ENDBRANCH   2   5
BRANCH   4  30
HETATM   30  O   UNL     1     -11.505   6.471  70.856  1.00  0.00    -0.312 OA 
BRANCH  30  31
HETATM   31  C   UNL     1     -11.937   7.805  70.958  1.00  0.00    -0.262 A  
HETATM   32  C   UNL     1     -12.889   8.154  71.918  1.00  0.00    -0.360 A  
HETATM   33  C   UNL     1     -11.318   8.773  70.163  1.00  0.00    -0.099 A  
HETATM   34  C   UNL     1     -11.692  10.121  70.297  1.00  0.00    -0.282 A  
HETATM   35  C   UNL     1     -13.272   9.477  72.047  1.00  0.00    -0.539 A  
HETATM   36  C   UNL     1     -12.686  10.449  71.238  1.00  0.00    -0.536 A  
BRANCH  34  37
HETATM   37  N   UNL     1     -11.123  11.189  69.370  1.00  0.00    -0.244 N  
HETATM   38  C   UNL     1     -11.583  12.589  69.779  1.00  0.00    -0.221 C  
HETATM   39  C   UNL     1      -9.595  11.193  69.416  1.00  0.00     0.217 C  
HETATM   40  C   UNL     1     -11.632  10.881  67.961  1.00  0.00    -0.215 C  
ENDBRANCH  34  37
ENDBRANCH  30  31
ENDBRANCH   4  30
TORSDOF 17
ENDMDL
MODEL      282
REMARK 921   NORMALIZED FREE ENERGY PREDICTED BY IDOCK:   -1.95 KCAL/MOL
REMARK 922        TOTAL FREE ENERGY PREDICTED BY IDOCK:   -6.13 KCAL/MOL
REMARK 923 INTER-LIGAND FREE ENERGY PREDICTED BY IDOCK:   -7.11 KCAL/MOL
REMARK 924 INTRA-LIGAND FREE ENERGY PREDICTED BY IDOCK:    0.98 KCAL/MOL
REMARK 927      BINDING AFFINITY PREDICTED BY RF-SCORE:    0.00 PKD
ROOT
HETATM    1  C   UNL     1      -7.851   6.873  71.940  1.00  0.00    -0.095 C  
HETATM    2  N   UNL     1      -7.442   7.356  70.632  1.00  0.00    -0.077 N  
HETATM    3  O   UNL     1      -6.121   6.977  68.766  1.00  0.00    -0.025 OA 
HETATM    4  C   UNL     1      -6.616   6.590  69.821  1.00  0.00    -0.048 C  
ENDROOT
BRANCH   2   5
HETATM    5  C   UNL     1      -7.715   8.748  70.280  1.00  0.00    -0.085 C  
BRANCH   5   6
HETATM    6  C   UNL     1      -8.924   9.328  71.028  1.00  0.00    -0.225 C  
BRANCH   6   7
HETATM    7  C   UNL     1     -10.117   9.531  70.086  1.00  0.00    -0.293 C  
BRANCH   7   8
HETATM    8  C   UNL     1     -10.226   8.405  69.049  1.00  0.00    -0.217 C  
BRANCH   8   9
HETATM    9  C   UNL     1      -9.850   8.900  67.649  1.00  0.00    -0.229 C  
BRANCH   9  10
HETATM   10  C   UNL     1     -10.911   9.847  67.080  1.00  0.00    -0.147 C  
BRANCH  10  11
HETATM   11  C   UNL     1     -10.524  10.445  65.724  1.00  0.00    -0.187 C  
BRANCH  11  12
HETATM   12  C   UNL     1     -10.212  11.939  65.793  1.00  0.00    -0.276 C  
BRANCH  12  13
HETATM   13  C   UNL     1      -8.821  12.196  66.366  1.00  0.00    -0.100 C  
BRANCH  13  14
HETATM   14  C   UNL     1      -8.929  12.811  67.753  1.00  0.00    -0.190 C  
BRANCH  14  15
HETATM   15  N   UNL     1      -9.798  13.979  67.759  1.00  0.00    -0.227 N  
HETATM   16  C   UNL     1      -9.416  15.115  67.070  1.00  0.00    -0.226 C  
HETATM   17  C   UNL     1     -11.075  13.905  68.454  1.00  0.00    -0.255 C  
HETATM   18  O   UNL     1      -8.340  15.248  66.497  1.00  0.00    -0.235 OA 
BRANCH  16  19
HETATM   19  O   UNL     1     -10.336  16.143  67.217  1.00  0.00    -0.276 OA 
BRANCH  19  20
HETATM   20  C   UNL     1      -9.770  17.327  67.700  1.00  0.00    -0.272 A  
HETATM   21  C   UNL     1     -10.631  18.260  68.266  1.00  0.00    -0.249 A  
HETATM   22  C   UNL     1     -10.084  19.391  68.861  1.00  0.00    -0.459 A  
HETATM   23  C   UNL     1      -8.698  19.583  68.884  1.00  0.00    -0.291 A  
HETATM   24  C   UNL     1      -7.825  18.649  68.302  1.00  0.00    -0.307 A  
HETATM   25  C   UNL     1      -8.379  17.499  67.742  1.00  0.00    -0.220 A  
BRANCH  24  26
HETATM   26  N   UNL     1      -6.314  18.810  68.371  1.00  0.00    -0.212 N  
HETATM   27  C   UNL     1      -5.665  18.474  67.032  1.00  0.00    -0.146 C  
HETATM   28  C   UNL     1      -5.715  17.857  69.412  1.00  0.00    -0.221 C  
HETATM   29  C   UNL     1      -6.020  20.255  68.748  1.00  0.00    -0.300 C  
ENDBRANCH  24  26
ENDBRANCH  19  20
ENDBRANCH  16  19
ENDBRANCH  14  15
ENDBRANCH  13  14
ENDBRANCH  12  13
ENDBRANCH  11  12
ENDBRANCH  10  11
ENDBRANCH   9  10
ENDBRANCH   8   9
ENDBRANCH   7   8
ENDBRANCH   6   7
ENDBRANCH   5   6
ENDBRANCH   2   5
BRANCH   4  30
HETATM   30  O   UNL     1      -6.339   5.335  70.371  1.00  0.00    -0.025 OA 
BRANCH  30  31
HETATM   31  C   UNL     1      -7.458   4.486  70.420  1.00  0.00    -0.050 A  
HETATM   32  C   UNL     1      -8.124   4.147  69.241  1.00  0.00    -0.063 A  
HETATM   33  C   UNL     1      -7.811   3.913  71.646  1.00  0.00    -0.062 A  
HETATM   34  C   UNL     1      -8.889   3.012  71.702  1.00  0.00    -0.076 A  
HETATM   35  C   UNL     1      -9.194   3.271  69.291  1.00  0.00    -0.218 A  
HETATM   36  C   UNL     1      -9.578   2.716  70.511  1.00  0.00    -0.149 A  
BRANCH  34  37
HETATM   37  N   UNL     1      -9.376   2.454  73.035  1.00  0.00    -0.083 N  
HETATM   38  C   UNL     1      -9.617   3.569  74.054  1.00  0.00    -0.096 C  
HETATM   39  C   UNL     1     -10.702   1.714  72.863  1.00  0.00    -0.150 C  
HETATM   40  C   UNL     1      -8.285   1.518  73.557  1.00  0.00    -0.045 C  
ENDBRANCH  34  37
ENDBRANCH  30  31
ENDBRANCH   4  30
TORSDOF 17
ENDMDL
MODEL      283
REMARK 921   NORMALIZED FREE ENERGY PREDICTED BY IDOCK:   -1.81 KCAL/MOL
REMARK 922        TOTAL FREE ENERGY PREDICTED BY IDOCK:   -5.85 KCAL/MOL
REMARK 923 INTER-LIGAND FREE ENERGY PREDICTED BY IDOCK:   -6.03 KCAL/MOL
REMARK 924 INTRA-LIGAND FREE ENERGY PREDICTED BY IDOCK:    0.18 KCAL/MOL
REMARK 927      BINDING AFFINITY PREDICTED BY RF-SCORE:    0.00 PKD
ROOT
HETATM    1  C   UNL     1     -11.915  15.758  68.448  1.00  0.00    -0.025 C  
HETATM    2  N   UNL     1     -10.725  15.128  67.901  1.00  0.00    -0.262 N  
HETATM    3  O   UNL     1      -9.682  13.134  67.350  1.00  0.00    -0.212 OA 
HETATM    4  C   UNL     1     -10.686  13.758  67.682  1.00  0.00    -0.249 C  
ENDROOT
BRANCH   2   5
HETATM    5  C   UNL     1      -9.496  15.913  67.808  1.00  0.00    -0.216 C  
BRANCH   5   6
HETATM    6  C   UNL     1      -8.273  15.069  67.425  1.00  0.00    -0.215 C  
BRANCH   6   7
HETATM    7  C   UNL     1      -7.333  14.875  68.621  1.00  0.00    -0.120 C  
BRANCH   7   8
HETATM    8  C   UNL     1      -6.378  13.692  68.414  1.00  0.00    -0.098 C  
BRANCH   8   9
HETATM    9  C   UNL     1      -6.408  12.737  69.611  1.00  0.00    -0.091 C  
BRANCH   9  10
HETATM   10  C   UNL     1      -5.133  11.893  69.693  1.00  0.00    -0.066 C  
BRANCH  10  11
HETATM   11  C   UNL     1      -5.391  10.390  69.537  1.00  0.00    -0.038 C  
BRANCH  11  12
HETATM   12  C   UNL     1      -5.420   9.935  68.079  1.00  0.00    -0.039 C  
BRANCH  12  13
HETATM   13  C   UNL     1      -6.616   9.027  67.800  1.00  0.00    -0.061 C  
BRANCH  13  14
HETATM   14  C   UNL     1      -6.642   8.631  66.331  1.00  0.00    -0.062 C  
BRANCH  14  15
HETATM   15  N   UNL     1      -6.200   7.258  66.134  1.00  0.00    -0.040 N  
HETATM   16  C   UNL     1      -6.739   6.252  66.915  1.00  0.00    -0.061 C  
HETATM   17  C   UNL     1      -5.232   6.970  65.085  1.00  0.00    -0.027 C  
HETATM   18  O   UNL     1      -7.528   6.437  67.835  1.00  0.00    -0.090 OA 
BRANCH  16  19
HETATM   19  O   UNL     1      -6.177   5.017  66.626  1.00  0.00    -0.030 OA 
BRANCH  19  20
HETATM   20  C   UNL     1      -7.122   4.048  66.271  1.00  0.00    -0.064 A  
HETATM   21  C   UNL     1      -7.635   3.256  67.291  1.00  0.00    -0.074 A  
HETATM   22  C   UNL     1      -8.661   2.369  66.987  1.00  0.00    -0.138 A  
HETATM   23  C   UNL     1      -9.160   2.276  65.684  1.00  0.00    -0.086 A  
HETATM   24  C   UNL     1      -8.635   3.066  64.647  1.00  0.00    -0.100 A  
HETATM   25  C   UNL     1      -7.633   3.981  64.967  1.00  0.00    -0.077 A  
BRANCH  24  26
HETATM   26  N   UNL     1      -9.205   3.023  63.237  1.00  0.00    -0.094 N  
HETATM   27  C   UNL     1     -10.723   2.885  63.263  1.00  0.00    -0.235 C  
HETATM   28  C   UNL     1      -8.656   1.815  62.468  1.00  0.00    -0.072 C  
HETATM   29  C   UNL     1      -8.808   4.316  62.539  1.00  0.00    -0.108 C  
ENDBRANCH  24  26
ENDBRANCH  19  20
ENDBRANCH  16  19
ENDBRANCH  14  15
ENDBRANCH  13  14
ENDBRANCH  12  13
ENDBRANCH  11  12
ENDBRANCH  10  11
ENDBRANCH   9  10
ENDBRANCH   8   9
ENDBRANCH   7   8
ENDBRANCH   6   7
ENDBRANCH   5   6
ENDBRANCH   2   5
BRANCH   4  30
HETATM   30  O   UNL     1     -11.909  13.137  67.952  1.00  0.00    -0.342 OA 
BRANCH  30  31
HETATM   31  C   UNL     1     -11.853  12.236  69.029  1.00  0.00    -0.305 A  
HETATM   32  C   UNL     1     -12.433  12.578  70.252  1.00  0.00    -0.157 A  
HETATM   33  C   UNL     1     -11.309  10.966  68.813  1.00  0.00    -0.357 A  
HETATM   34  C   UNL     1     -11.302  10.029  69.861  1.00  0.00    -0.250 A  
HETATM   35  C   UNL     1     -12.419  11.666  71.292  1.00  0.00    -0.371 A  
HETATM   36  C   UNL     1     -11.851  10.408  71.101  1.00  0.00    -0.432 A  
BRANCH  34  37
HETATM   37  N   UNL     1     -10.617   8.677  69.700  1.00  0.00    -0.222 N  
HETATM   38  C   UNL     1      -9.189   8.704  70.247  1.00  0.00    -0.166 C  
HETATM   39  C   UNL     1     -11.368   7.591  70.470  1.00  0.00    -0.260 C  
HETATM   40  C   UNL     1     -10.579   8.367  68.203  1.00  0.00    -0.118 C  
ENDBRANCH  34  37
ENDBRANCH  30  31
ENDBRANCH   4  30
TORSDOF 17
ENDMDL
MODEL      284
REMARK 921   NORMALIZED FREE ENERGY PREDICTED BY IDOCK:   -1.68 KCAL/MOL
REMARK 922        TOTAL FREE ENERGY PREDICTED BY IDOCK:   -5.58 KCAL/MOL
REMARK 923 INTER-LIGAND FREE ENERGY PREDICTED BY IDOCK:   -7.27 KCAL/MOL
REMARK 924 INTRA-LIGAND FREE ENERGY PREDICTED BY IDOCK:    1.70 KCAL/MOL
REMARK 927      BINDING AFFINITY PREDICTED BY RF-SCORE:    0.00 PKD
ROOT
HETATM    1  C   UNL     1      -7.551   6.510  72.466  1.00  0.00    -0.095 C  
HETATM    2  N   UNL     1      -6.919   6.878  71.211  1.00  0.00    -0.061 N  
HETATM    3  O   UNL     1      -5.427   6.256  69.551  1.00  0.00    -0.012 OA 
HETATM    4  C   UNL     1      -6.098   5.981  70.541  1.00  0.00    -0.030 C  
ENDROOT
BRANCH   2   5
HETATM    5  C   UNL     1      -6.965   8.275  70.785  1.00  0.00    -0.043 C  
BRANCH   5   6
HETATM    6  C   UNL     1      -8.176   9.033  71.347  1.00  0.00    -0.113 C  
BRANCH   6   7
HETATM    7  C   UNL     1      -9.341   9.041  70.349  1.00  0.00    -0.244 C  
BRANCH   7   8
HETATM    8  C   UNL     1      -9.445   7.718  69.580  1.00  0.00    -0.156 C  
BRANCH   8   9
HETATM    9  C   UNL     1      -9.120   7.911  68.096  1.00  0.00    -0.133 C  
BRANCH   9  10
HETATM   10  C   UNL     1     -10.332   8.425  67.313  1.00  0.00    -0.369 C  
BRANCH  10  11
HETATM   11  C   UNL     1     -10.033   8.677  65.831  1.00  0.00     0.044 C  
BRANCH  11  12
HETATM   12  C   UNL     1     -10.044  10.159  65.461  1.00  0.00    -0.338 C  
BRANCH  12  13
HETATM   13  C   UNL     1      -8.641  10.760  65.511  1.00  0.00    -0.181 C  
BRANCH  13  14
HETATM   14  C   UNL     1      -8.507  11.680  66.715  1.00  0.00    -0.177 C  
BRANCH  14  15
HETATM   15  N   UNL     1      -9.788  12.253  67.102  1.00  0.00    -0.201 N  
HETATM   16  C   UNL     1     -10.338  13.267  66.340  1.00  0.00    -0.286 C  
HETATM   17  C   UNL     1     -10.484  11.710  68.260  1.00  0.00    -0.204 C  
HETATM   18  O   UNL     1      -9.784  13.789  65.379  1.00  0.00    -0.182 OA 
BRANCH  16  19
HETATM   19  O   UNL     1     -11.534  13.724  66.874  1.00  0.00    -0.319 OA 
BRANCH  19  20
HETATM   20  C   UNL     1     -11.371  14.798  67.757  1.00  0.00    -0.330 A  
HETATM   21  C   UNL     1     -11.895  14.653  69.036  1.00  0.00    -0.346 A  
HETATM   22  C   UNL     1     -11.644  15.653  69.970  1.00  0.00    -0.360 A  
HETATM   23  C   UNL     1     -10.886  16.776  69.625  1.00  0.00    -0.205 A  
HETATM   24  C   UNL     1     -10.365  16.931  68.329  1.00  0.00    -0.335 A  
HETATM   25  C   UNL     1     -10.587  15.907  67.410  1.00  0.00    -0.315 A  
BRANCH  24  26
HETATM   26  N   UNL     1      -9.487  18.115  67.952  1.00  0.00    -0.275 N  
HETATM   27  C   UNL     1      -9.659  18.478  66.481  1.00  0.00    -0.329 C  
HETATM   28  C   UNL     1      -8.005  17.778  68.162  1.00  0.00    -0.263 C  
HETATM   29  C   UNL     1      -9.890  19.288  68.833  1.00  0.00    -0.446 C  
ENDBRANCH  24  26
ENDBRANCH  19  20
ENDBRANCH  16  19
ENDBRANCH  14  15
ENDBRANCH  13  14
ENDBRANCH  12  13
ENDBRANCH  11  12
ENDBRANCH  10  11
ENDBRANCH   9  10
ENDBRANCH   8   9
ENDBRANCH   7   8
ENDBRANCH   6   7
ENDBRANCH   5   6
ENDBRANCH   2   5
BRANCH   4  30
HETATM   30  O   UNL     1      -6.057   4.728  71.161  1.00  0.00    -0.017 OA 
BRANCH  30  31
HETATM   31  C   UNL     1      -7.294   4.061  71.158  1.00  0.00    -0.040 A  
HETATM   32  C   UNL     1      -7.772   3.490  69.977  1.00  0.00    -0.047 A  
HETATM   33  C   UNL     1      -7.967   3.891  72.372  1.00  0.00    -0.081 A  
HETATM   34  C   UNL     1      -9.174   3.172  72.398  1.00  0.00    -0.099 A  
HETATM   35  C   UNL     1      -8.966   2.792  69.993  1.00  0.00    -0.166 A  
HETATM   36  C   UNL     1      -9.664   2.642  71.190  1.00  0.00    -0.181 A  
BRANCH  34  37
HETATM   37  N   UNL     1      -9.994   3.062  73.679  1.00  0.00    -0.104 N  
HETATM   38  C   UNL     1     -11.495   3.077  73.386  1.00  0.00    -0.044 C  
HETATM   39  C   UNL     1      -9.696   1.751  74.406  1.00  0.00    -0.076 C  
HETATM   40  C   UNL     1      -9.635   4.269  74.547  1.00  0.00    -0.118 C  
ENDBRANCH  34  37
ENDBRANCH  30  31
ENDBRANCH   4  30
TORSDOF 17
ENDMDL
MODEL      285
REMARK 921   NORMALIZED FREE ENERGY PREDICTED BY IDOCK:   -1.56 KCAL/MOL
REMARK 922        TOTAL FREE ENERGY PREDICTED BY IDOCK:   -5.34 KCAL/MOL
REMARK 923 INTER-LIGAND FREE ENERGY PREDICTED BY IDOCK:   -6.36 KCAL/MOL
REMARK 924 INTRA-LIGAND FREE ENERGY PREDICTED BY IDOCK:    1.03 KCAL/MOL
REMARK 927      BINDING AFFINITY PREDICTED BY RF-SCORE:    0.00 PKD
ROOT
HETATM    1  C   UNL     1      -9.830  13.253  69.308  1.00  0.00     0.591 C  
HETATM    2  N   UNL     1     -10.681  12.104  69.053  1.00  0.00    -0.169 N  
HETATM    3  O   UNL     1     -11.402  10.549  67.495  1.00  0.00    -0.396 OA 
HETATM    4  C   UNL     1     -10.630  11.439  67.836  1.00  0.00    -0.189 C  
ENDROOT
BRANCH   2   5
HETATM    5  C   UNL     1     -11.755  11.803  69.998  1.00  0.00    -0.305 C  
BRANCH   5   6
HETATM    6  C   UNL     1     -12.592  10.584  69.587  1.00  0.00     0.060 C  
BRANCH   6   7
HETATM    7  C   UNL     1     -12.565   9.498  70.669  1.00  0.00    -0.064 C  
BRANCH   7   8
HETATM    8  C   UNL     1     -11.385   9.679  71.632  1.00  0.00    -0.336 C  
BRANCH   8   9
HETATM    9  C   UNL     1     -10.153   8.904  71.155  1.00  0.00    -0.341 C  
BRANCH   9  10
HETATM   10  C   UNL     1      -9.170   8.643  72.299  1.00  0.00    -0.297 C  
BRANCH  10  11
HETATM   11  C   UNL     1      -8.500   7.267  72.221  1.00  0.00    -0.129 C  
BRANCH  11  12
HETATM   12  C   UNL     1      -9.407   6.131  72.689  1.00  0.00    -0.146 C  
BRANCH  12  13
HETATM   13  C   UNL     1     -10.507   5.836  71.672  1.00  0.00    -0.286 C  
BRANCH  13  14
HETATM   14  C   UNL     1     -10.271   4.483  71.019  1.00  0.00    -0.097 C  
BRANCH  14  15
HETATM   15  N   UNL     1      -9.018   4.452  70.279  1.00  0.00    -0.083 N  
HETATM   16  C   UNL     1      -8.938   5.082  69.051  1.00  0.00    -0.097 C  
HETATM   17  C   UNL     1      -7.861   3.797  70.874  1.00  0.00    -0.051 C  
HETATM   18  O   UNL     1      -9.884   5.618  68.484  1.00  0.00    -0.128 OA 
BRANCH  16  19
HETATM   19  O   UNL     1      -7.690   4.918  68.466  1.00  0.00    -0.077 OA 
BRANCH  19  20
HETATM   20  C   UNL     1      -7.673   5.234  67.103  1.00  0.00    -0.096 A  
HETATM   21  C   UNL     1      -8.003   4.220  66.212  1.00  0.00    -0.098 A  
HETATM   22  C   UNL     1      -8.110   4.535  64.861  1.00  0.00    -0.100 A  
HETATM   23  C   UNL     1      -7.887   5.842  64.415  1.00  0.00    -0.110 A  
HETATM   24  C   UNL     1      -7.540   6.867  65.312  1.00  0.00    -0.099 A  
HETATM   25  C   UNL     1      -7.473   6.552  66.669  1.00  0.00    -0.079 A  
BRANCH  24  26
HETATM   26  N   UNL     1      -7.354   8.305  64.855  1.00  0.00    -0.084 N  
HETATM   27  C   UNL     1      -6.828   9.178  65.991  1.00  0.00    -0.084 C  
HETATM   28  C   UNL     1      -8.691   8.909  64.407  1.00  0.00    -0.066 C  
HETATM   29  C   UNL     1      -6.365   8.298  63.698  1.00  0.00    -0.072 C  
ENDBRANCH  24  26
ENDBRANCH  19  20
ENDBRANCH  16  19
ENDBRANCH  14  15
ENDBRANCH  13  14
ENDBRANCH  12  13
ENDBRANCH  11  12
ENDBRANCH  10  11
ENDBRANCH   9  10
ENDBRANCH   8   9
ENDBRANCH   7   8
ENDBRANCH   6   7
ENDBRANCH   5   6
ENDBRANCH   2   5
BRANCH   4  30
HETATM   30  O   UNL     1      -9.636  11.944  66.992  1.00  0.00    -0.185 OA 
BRANCH  30  31
HETATM   31  C   UNL     1     -10.065  13.028  66.207  1.00  0.00    -0.282 A  
HETATM   32  C   UNL     1     -10.847  12.797  65.073  1.00  0.00    -0.319 A  
HETATM   33  C   UNL     1      -9.787  14.326  66.646  1.00  0.00    -0.288 A  
HETATM   34  C   UNL     1     -10.264  15.422  65.908  1.00  0.00    -0.344 A  
HETATM   35  C   UNL     1     -11.308  13.871  64.334  1.00  0.00    -0.352 A  
HETATM   36  C   UNL     1     -11.012  15.170  64.742  1.00  0.00    -0.394 A  
BRANCH  34  37
HETATM   37  N   UNL     1      -9.886  16.849  66.290  1.00  0.00    -0.292 N  
HETATM   38  C   UNL     1     -10.224  17.146  67.751  1.00  0.00    -0.324 C  
HETATM   39  C   UNL     1      -8.383  17.077  66.125  1.00  0.00    -0.241 C  
HETATM   40  C   UNL     1     -10.689  17.785  65.385  1.00  0.00     0.086 C  
ENDBRANCH  34  37
ENDBRANCH  30  31
ENDBRANCH   4  30
TORSDOF 17
ENDMDL
MODEL      286
REMARK 921   NORMALIZED FREE ENERGY PREDICTED BY IDOCK:   -1.55 KCAL/MOL
REMARK 922        TOTAL FREE ENERGY PREDICTED BY IDOCK:   -5.32 KCAL/MOL
REMARK 923 INTER-LIGAND FREE ENERGY PREDICTED BY IDOCK:   -6.01 KCAL/MOL
REMARK 924 INTRA-LIGAND FREE ENERGY PREDICTED BY IDOCK:    0.69 KCAL/MOL
REMARK 927      BINDING AFFINITY PREDICTED BY RF-SCORE:    0.00 PKD
ROOT
HETATM    1  C   UNL     1     -10.276   7.299  68.950  1.00  0.00    -0.193 C  
HETATM    2  N   UNL     1      -9.508   6.091  69.199  1.00  0.00    -0.127 N  
HETATM    3  O   UNL     1      -8.592   4.169  68.286  1.00  0.00    -0.092 OA 
HETATM    4  C   UNL     1      -9.124   5.267  68.151  1.00  0.00    -0.110 C  
ENDROOT
BRANCH   2   5
HETATM    5  C   UNL     1      -9.351   5.632  70.578  1.00  0.00    -0.161 C  
BRANCH   5   6
HETATM    6  C   UNL     1      -8.063   6.145  71.237  1.00  0.00    -0.118 C  
BRANCH   6   7
HETATM    7  C   UNL     1      -8.294   7.487  71.943  1.00  0.00    -0.118 C  
BRANCH   7   8
HETATM    8  C   UNL     1      -8.046   8.677  71.008  1.00  0.00    -0.164 C  
BRANCH   8   9
HETATM    9  C   UNL     1      -6.584   9.130  71.061  1.00  0.00    -0.086 C  
BRANCH   9  10
HETATM   10  C   UNL     1      -6.387  10.488  70.380  1.00  0.00    -0.126 C  
BRANCH  10  11
HETATM   11  C   UNL     1      -5.750  11.538  71.295  1.00  0.00     0.233 C  
BRANCH  11  12
HETATM   12  C   UNL     1      -5.134  12.707  70.530  1.00  0.00    -0.113 C  
BRANCH  12  13
HETATM   13  C   UNL     1      -5.933  13.039  69.273  1.00  0.00    -0.093 C  
BRANCH  13  14
HETATM   14  C   UNL     1      -6.137  14.542  69.160  1.00  0.00    -0.096 C  
BRANCH  14  15
HETATM   15  N   UNL     1      -7.504  14.876  68.792  1.00  0.00    -0.123 N  
HETATM   16  C   UNL     1      -8.322  13.899  68.254  1.00  0.00    -0.163 C  
HETATM   17  C   UNL     1      -7.995  16.224  69.042  1.00  0.00    -0.238 C  
HETATM   18  O   UNL     1      -7.955  12.760  67.987  1.00  0.00    -0.136 OA 
BRANCH  16  19
HETATM   19  O   UNL     1      -9.573  14.398  67.921  1.00  0.00    -0.210 OA 
BRANCH  19  20
HETATM   20  C   UNL     1     -10.621  13.744  68.577  1.00  0.00    -0.253 A  
HETATM   21  C   UNL     1     -10.955  12.471  68.130  1.00  0.00    -0.260 A  
HETATM   22  C   UNL     1     -11.911  11.750  68.838  1.00  0.00    -0.332 A  
HETATM   23  C   UNL     1     -12.522  12.299  69.970  1.00  0.00    -0.041 A  
HETATM   24  C   UNL     1     -12.196  13.591  70.418  1.00  0.00    -0.356 A  
HETATM   25  C   UNL     1     -11.209  14.292  69.726  1.00  0.00    -0.230 A  
BRANCH  24  26
HETATM   26  N   UNL     1     -12.803  14.181  71.681  1.00  0.00    -0.333 N  
HETATM   27  C   UNL     1     -13.956  15.121  71.348  1.00  0.00    -0.506 C  
HETATM   28  C   UNL     1     -11.761  15.003  72.450  1.00  0.00    -0.315 C  
HETATM   29  C   UNL     1     -13.300  13.025  72.538  1.00  0.00    -0.366 C  
ENDBRANCH  24  26
ENDBRANCH  19  20
ENDBRANCH  16  19
ENDBRANCH  14  15
ENDBRANCH  13  14
ENDBRANCH  12  13
ENDBRANCH  11  12
ENDBRANCH  10  11
ENDBRANCH   9  10
ENDBRANCH   8   9
ENDBRANCH   7   8
ENDBRANCH   6   7
ENDBRANCH   5   6
ENDBRANCH   2   5
BRANCH   4  30
HETATM   30  O   UNL     1      -9.475   5.790  66.903  1.00  0.00    -0.125 OA 
BRANCH  30  31
HETATM   31  C   UNL     1      -8.740   6.934  66.548  1.00  0.00    -0.133 A  
HETATM   32  C   UNL     1      -7.352   6.941  66.697  1.00  0.00    -0.077 A  
HETATM   33  C   UNL     1      -9.413   8.003  65.949  1.00  0.00    -0.036 A  
HETATM   34  C   UNL     1      -8.685   9.130  65.529  1.00  0.00    -0.181 A  
HETATM   35  C   UNL     1      -6.630   8.052  66.299  1.00  0.00    -0.047 A  
HETATM   36  C   UNL     1      -7.291   9.139  65.729  1.00  0.00    -0.090 A  
BRANCH  34  37
HETATM   37  N   UNL     1      -9.394  10.361  64.977  1.00  0.00    -0.207 N  
HETATM   38  C   UNL     1     -10.826  10.467  65.504  1.00  0.00     0.147 C  
HETATM   39  C   UNL     1      -8.670  11.641  65.396  1.00  0.00     0.258 C  
HETATM   40  C   UNL     1      -9.424  10.218  63.454  1.00  0.00    -0.295 C  
ENDBRANCH  34  37
ENDBRANCH  30  31
ENDBRANCH   4  30
TORSDOF 17
ENDMDL
MODEL      287
REMARK 921   NORMALIZED FREE ENERGY PREDICTED BY IDOCK:   -1.41 KCAL/MOL
REMARK 922        TOTAL FREE ENERGY PREDICTED BY IDOCK:   -5.04 KCAL/MOL
REMARK 923 INTER-LIGAND FREE ENERGY PREDICTED BY IDOCK:   -5.85 KCAL/MOL
REMARK 924 INTRA-LIGAND FREE ENERGY PREDICTED BY IDOCK:    0.81 KCAL/MOL
REMARK 927      BINDING AFFINITY PREDICTED BY RF-SCORE:    0.00 PKD
ROOT
HETATM    1  C   UNL     1      -7.065  15.813  70.682  1.00  0.00     1.246 C  
HETATM    2  N   UNL     1      -7.033  15.778  69.230  1.00  0.00    -0.174 N  
HETATM    3  O   UNL     1      -8.259  15.948  67.272  1.00  0.00    -0.159 OA 
HETATM    4  C   UNL     1      -8.166  16.081  68.488  1.00  0.00    -0.181 C  
ENDROOT
BRANCH   2   5
HETATM    5  C   UNL     1      -5.867  15.196  68.568  1.00  0.00    -0.095 C  
BRANCH   5   6
HETATM    6  C   UNL     1      -5.570  13.762  69.029  1.00  0.00    -0.077 C  
BRANCH   6   7
HETATM    7  C   UNL     1      -6.862  12.954  69.204  1.00  0.00    -0.054 C  
BRANCH   7   8
HETATM    8  C   UNL     1      -7.315  12.308  67.889  1.00  0.00    -0.111 C  
BRANCH   8   9
HETATM    9  C   UNL     1      -6.151  12.182  66.901  1.00  0.00    -0.014 C  
BRANCH   9  10
HETATM   10  C   UNL     1      -6.271  10.919  66.043  1.00  0.00    -0.115 C  
BRANCH  10  11
HETATM   11  C   UNL     1      -5.183   9.881  66.338  1.00  0.00    -0.043 C  
BRANCH  11  12
HETATM   12  C   UNL     1      -5.340   8.599  65.523  1.00  0.00    -0.034 C  
BRANCH  12  13
HETATM   13  C   UNL     1      -5.436   7.370  66.425  1.00  0.00    -0.024 C  
BRANCH  13  14
HETATM   14  C   UNL     1      -6.633   7.494  67.355  1.00  0.00    -0.062 C  
BRANCH  14  15
HETATM   15  N   UNL     1      -7.827   6.891  66.781  1.00  0.00    -0.105 N  
HETATM   16  C   UNL     1      -8.919   6.637  67.591  1.00  0.00    -0.111 C  
HETATM   17  C   UNL     1      -7.861   6.611  65.352  1.00  0.00    -0.111 C  
HETATM   18  O   UNL     1      -8.937   6.818  68.804  1.00  0.00    -0.131 OA 
BRANCH  16  19
HETATM   19  O   UNL     1      -9.949   6.024  66.894  1.00  0.00    -0.146 OA 
BRANCH  19  20
HETATM   20  C   UNL     1      -9.647   4.716  66.499  1.00  0.00    -0.182 A  
HETATM   21  C   UNL     1      -9.438   3.780  67.505  1.00  0.00    -0.237 A  
HETATM   22  C   UNL     1      -9.255   2.450  67.144  1.00  0.00    -0.127 A  
HETATM   23  C   UNL     1      -9.278   2.068  65.798  1.00  0.00     0.009 A  
HETATM   24  C   UNL     1      -9.476   3.013  64.777  1.00  0.00    -0.143 A  
HETATM   25  C   UNL     1      -9.698   4.338  65.149  1.00  0.00    -0.199 A  
BRANCH  24  26
HETATM   26  N   UNL     1      -9.565   2.609  63.314  1.00  0.00    -0.095 N  
HETATM   27  C   UNL     1      -9.309   3.802  62.399  1.00  0.00    -0.099 C  
HETATM   28  C   UNL     1     -10.967   2.081  62.982  1.00  0.00    -0.240 C  
HETATM   29  C   UNL     1      -8.523   1.527  63.069  1.00  0.00    -0.065 C  
ENDBRANCH  24  26
ENDBRANCH  19  20
ENDBRANCH  16  19
ENDBRANCH  14  15
ENDBRANCH  13  14
ENDBRANCH  12  13
ENDBRANCH  11  12
ENDBRANCH  10  11
ENDBRANCH   9  10
ENDBRANCH   8   9
ENDBRANCH   7   8
ENDBRANCH   6   7
ENDBRANCH   5   6
ENDBRANCH   2   5
BRANCH   4  30
HETATM   30  O   UNL     1      -9.236  16.490  69.290  1.00  0.00    -0.227 OA 
BRANCH  30  31
HETATM   31  C   UNL     1     -10.224  15.504  69.451  1.00  0.00    -0.262 A  
HETATM   32  C   UNL     1     -10.310  14.451  68.538  1.00  0.00    -0.248 A  
HETATM   33  C   UNL     1     -11.033  15.545  70.591  1.00  0.00    -0.370 A  
HETATM   34  C   UNL     1     -11.984  14.532  70.802  1.00  0.00    -0.322 A  
HETATM   35  C   UNL     1     -11.252  13.457  68.732  1.00  0.00    -0.315 A  
HETATM   36  C   UNL     1     -12.087  13.503  69.848  1.00  0.00    -0.408 A  
BRANCH  34  37
HETATM   37  N   UNL     1     -12.959  14.602  71.971  1.00  0.00    -0.318 N  
HETATM   38  C   UNL     1     -14.192  15.438  71.623  1.00  0.00    -0.515 C  
HETATM   39  C   UNL     1     -13.460  13.208  72.347  1.00  0.00    -0.543 C  
HETATM   40  C   UNL     1     -12.217  15.256  73.138  1.00  0.00    -0.438 C  
ENDBRANCH  34  37
ENDBRANCH  30  31
ENDBRANCH   4  30
TORSDOF 17
ENDMDL
MODEL      288
REMARK 921   NORMALIZED FREE ENERGY PREDICTED BY IDOCK:   -1.32 KCAL/MOL
REMARK 922        TOTAL FREE ENERGY PREDICTED BY IDOCK:   -4.86 KCAL/MOL
REMARK 923 INTER-LIGAND FREE ENERGY PREDICTED BY IDOCK:   -6.12 KCAL/MOL
REMARK 924 INTRA-LIGAND FREE ENERGY PREDICTED BY IDOCK:    1.26 KCAL/MOL
REMARK 927      BINDING AFFINITY PREDICTED BY RF-SCORE:    0.00 PKD
ROOT
HETATM    1  C   UNL     1     -10.759   9.980  66.193  1.00  0.00     0.093 C  
HETATM    2  N   UNL     1     -10.174   8.705  66.571  1.00  0.00    -0.273 N  
HETATM    3  O   UNL     1      -9.657   7.264  68.309  1.00  0.00    -0.146 OA 
HETATM    4  C   UNL     1     -10.236   8.259  67.884  1.00  0.00    -0.220 C  
ENDROOT
BRANCH   2   5
HETATM    5  C   UNL     1      -9.317   8.014  65.609  1.00  0.00     0.156 C  
BRANCH   5   6
HETATM    6  C   UNL     1      -8.148   8.879  65.119  1.00  0.00    -0.133 C  
BRANCH   6   7
HETATM    7  C   UNL     1      -7.022   8.016  64.536  1.00  0.00    -0.071 C  
BRANCH   7   8
HETATM    8  C   UNL     1      -5.875   8.869  63.981  1.00  0.00    -0.071 C  
BRANCH   8   9
HETATM    9  C   UNL     1      -5.126   9.591  65.105  1.00  0.00    -0.039 C  
BRANCH   9  10
HETATM   10  C   UNL     1      -5.855   9.462  66.446  1.00  0.00    -0.058 C  
BRANCH  10  11
HETATM   11  C   UNL     1      -5.601  10.643  67.389  1.00  0.00    -0.044 C  
BRANCH  11  12
HETATM   12  C   UNL     1      -6.869  11.144  68.078  1.00  0.00    -0.067 C  
BRANCH  12  13
HETATM   13  C   UNL     1      -6.543  11.980  69.313  1.00  0.00    -0.109 C  
BRANCH  13  14
HETATM   14  C   UNL     1      -5.302  12.823  69.064  1.00  0.00    -0.068 C  
BRANCH  14  15
HETATM   15  N   UNL     1      -5.627  14.234  68.920  1.00  0.00    -0.081 N  
HETATM   16  C   UNL     1      -6.161  14.922  69.994  1.00  0.00    -0.148 C  
HETATM   17  C   UNL     1      -5.339  14.901  67.658  1.00  0.00     0.061 C  
HETATM   18  O   UNL     1      -6.458  14.408  71.067  1.00  0.00    -0.050 OA 
BRANCH  16  19
HETATM   19  O   UNL     1      -6.451  16.240  69.672  1.00  0.00    -0.196 OA 
BRANCH  19  20
HETATM   20  C   UNL     1      -7.728  16.407  69.125  1.00  0.00    -0.220 A  
HETATM   21  C   UNL     1      -8.015  17.636  68.544  1.00  0.00    -0.283 A  
HETATM   22  C   UNL     1      -9.231  17.790  67.889  1.00  0.00    -0.265 A  
HETATM   23  C   UNL     1     -10.143  16.732  67.821  1.00  0.00    -0.281 A  
HETATM   24  C   UNL     1      -9.862  15.491  68.419  1.00  0.00    -0.210 A  
HETATM   25  C   UNL     1      -8.624  15.332  69.040  1.00  0.00    -0.226 A  
BRANCH  24  26
HETATM   26  N   UNL     1     -10.813  14.310  68.304  1.00  0.00    -0.241 N  
HETATM   27  C   UNL     1     -10.157  13.146  67.569  1.00  0.00    -0.222 C  
HETATM   28  C   UNL     1     -12.064  14.698  67.505  1.00  0.00    -0.178 C  
HETATM   29  C   UNL     1     -11.199  13.889  69.715  1.00  0.00    -0.089 C  
ENDBRANCH  24  26
ENDBRANCH  19  20
ENDBRANCH  16  19
ENDBRANCH  14  15
ENDBRANCH  13  14
ENDBRANCH  12  13
ENDBRANCH  11  12
ENDBRANCH  10  11
ENDBRANCH   9  10
ENDBRANCH   8   9
ENDBRANCH   7   8
ENDBRANCH   6   7
ENDBRANCH   5   6
ENDBRANCH   2   5
BRANCH   4  30
HETATM   30  O   UNL     1     -10.981   9.111  68.704  1.00  0.00    -0.099 OA 
BRANCH  30  31
HETATM   31  C   UNL     1     -10.946   8.752  70.062  1.00  0.00    -0.209 A  
HETATM   32  C   UNL     1     -11.695   9.477  70.991  1.00  0.00    -0.419 A  
HETATM   33  C   UNL     1     -10.243   7.602  70.434  1.00  0.00    -0.203 A  
HETATM   34  C   UNL     1     -10.250   7.192  71.778  1.00  0.00    -0.195 A  
HETATM   35  C   UNL     1     -11.696   9.087  72.318  1.00  0.00    -0.283 A  
HETATM   36  C   UNL     1     -10.973   7.961  72.709  1.00  0.00    -0.456 A  
BRANCH  34  37
HETATM   37  N   UNL     1      -9.404   6.011  72.242  1.00  0.00    -0.144 N  
HETATM   38  C   UNL     1     -10.170   4.693  72.126  1.00  0.00    -0.193 C  
HETATM   39  C   UNL     1      -8.147   5.872  71.384  1.00  0.00    -0.115 C  
HETATM   40  C   UNL     1      -9.047   6.262  73.708  1.00  0.00    -0.129 C  
ENDBRANCH  34  37
ENDBRANCH  30  31
ENDBRANCH   4  30
TORSDOF 17
ENDMDL
MODEL      289
REMARK 921   NORMALIZED FREE ENERGY PREDICTED BY IDOCK:   -1.23 KCAL/MOL
REMARK 922        TOTAL FREE ENERGY PREDICTED BY IDOCK:   -4.69 KCAL/MOL
REMARK 923 INTER-LIGAND FREE ENERGY PREDICTED BY IDOCK:   -5.52 KCAL/MOL
REMARK 924 INTRA-LIGAND FREE ENERGY PREDICTED BY IDOCK:    0.83 KCAL/MOL
REMARK 927      BINDING AFFINITY PREDICTED BY RF-SCORE:    0.00 PKD
ROOT
HETATM    1  C   UNL     1     -10.449  13.178  63.996  1.00  0.00    -0.234 C  
HETATM    2  N   UNL     1     -10.631  11.844  64.541  1.00  0.00    -0.292 N  
HETATM    3  O   UNL     1     -10.075   9.601  64.371  1.00  0.00     0.250 OA 
HETATM    4  C   UNL     1      -9.890  10.774  64.059  1.00  0.00    -0.332 C  
ENDROOT
BRANCH   2   5
HETATM    5  C   UNL     1     -11.764  11.598  65.431  1.00  0.00     0.073 C  
BRANCH   5   6
HETATM    6  C   UNL     1     -12.270  12.872  66.123  1.00  0.00    -0.385 C  
BRANCH   6   7
HETATM    7  C   UNL     1     -11.432  13.202  67.365  1.00  0.00    -0.375 C  
BRANCH   7   8
HETATM    8  C   UNL     1     -11.553  12.117  68.442  1.00  0.00    -0.381 C  
BRANCH   8   9
HETATM    9  C   UNL     1     -10.411  11.102  68.339  1.00  0.00    -0.201 C  
BRANCH   9  10
HETATM   10  C   UNL     1     -10.735   9.807  69.090  1.00  0.00    -0.242 C  
BRANCH  10  11
HETATM   11  C   UNL     1      -9.899   8.611  68.624  1.00  0.00    -0.180 C  
BRANCH  11  12
HETATM   12  C   UNL     1     -10.666   7.665  67.702  1.00  0.00    -0.246 C  
BRANCH  12  13
HETATM   13  C   UNL     1     -11.222   6.466  68.465  1.00  0.00    -0.321 C  
BRANCH  13  14
HETATM   14  C   UNL     1     -11.036   6.664  69.962  1.00  0.00    -0.339 C  
BRANCH  14  15
HETATM   15  N   UNL     1     -10.357   5.533  70.576  1.00  0.00    -0.253 N  
HETATM   16  C   UNL     1     -10.755   5.097  71.827  1.00  0.00    -0.133 C  
HETATM   17  C   UNL     1      -9.302   4.855  69.836  1.00  0.00    -0.141 C  
HETATM   18  O   UNL     1     -11.610   5.648  72.512  1.00  0.00    -0.300 OA 
BRANCH  16  19
HETATM   19  O   UNL     1      -9.976   4.042  72.279  1.00  0.00    -0.156 OA 
BRANCH  19  20
HETATM   20  C   UNL     1      -8.710   4.440  72.721  1.00  0.00    -0.108 A  
HETATM   21  C   UNL     1      -7.707   3.478  72.726  1.00  0.00    -0.061 A  
HETATM   22  C   UNL     1      -6.413   3.873  73.047  1.00  0.00    -0.032 A  
HETATM   23  C   UNL     1      -6.132   5.207  73.359  1.00  0.00    -0.042 A  
HETATM   24  C   UNL     1      -7.146   6.180  73.367  1.00  0.00    -0.084 A  
HETATM   25  C   UNL     1      -8.434   5.784  73.007  1.00  0.00    -0.118 A  
BRANCH  24  26
HETATM   26  N   UNL     1      -6.850   7.646  73.644  1.00  0.00    -0.082 N  
HETATM   27  C   UNL     1      -8.039   8.328  74.314  1.00  0.00    -0.217 C  
HETATM   28  C   UNL     1      -6.579   8.400  72.336  1.00  0.00    -0.088 C  
HETATM   29  C   UNL     1      -5.630   7.708  74.551  1.00  0.00    -0.073 C  
ENDBRANCH  24  26
ENDBRANCH  19  20
ENDBRANCH  16  19
ENDBRANCH  14  15
ENDBRANCH  13  14
ENDBRANCH  12  13
ENDBRANCH  11  12
ENDBRANCH  10  11
ENDBRANCH   9  10
ENDBRANCH   8   9
ENDBRANCH   7   8
ENDBRANCH   6   7
ENDBRANCH   5   6
ENDBRANCH   2   5
BRANCH   4  30
HETATM   30  O   UNL     1      -8.941  11.165  63.110  1.00  0.00    -0.221 OA 
BRANCH  30  31
HETATM   31  C   UNL     1      -7.764  10.398  63.146  1.00  0.00    -0.105 A  
HETATM   32  C   UNL     1      -6.523  11.026  63.029  1.00  0.00     0.401 A  
HETATM   33  C   UNL     1      -7.864   9.028  63.409  1.00  0.00    -0.139 A  
HETATM   34  C   UNL     1      -6.694   8.257  63.512  1.00  0.00    -0.084 A  
HETATM   35  C   UNL     1      -5.367  10.271  63.117  1.00  0.00    -0.132 A  
HETATM   36  C   UNL     1      -5.452   8.899  63.347  1.00  0.00    -0.068 A  
BRANCH  34  37
HETATM   37  N   UNL     1      -6.764   6.744  63.684  1.00  0.00    -0.044 N  
HETATM   38  C   UNL     1      -8.211   6.247  63.692  1.00  0.00     0.021 C  
HETATM   39  C   UNL     1      -6.056   6.031  62.532  1.00  0.00    -0.026 C  
HETATM   40  C   UNL     1      -6.108   6.412  65.025  1.00  0.00    -0.030 C  
ENDBRANCH  34  37
ENDBRANCH  30  31
ENDBRANCH   4  30
TORSDOF 17
ENDMDL
MODEL      290
REMARK 921   NORMALIZED FREE ENERGY PREDICTED BY IDOCK:   -1.11 KCAL/MOL
REMARK 922        TOTAL FREE ENERGY PREDICTED BY IDOCK:   -4.44 KCAL/MOL
REMARK 923 INTER-LIGAND FREE ENERGY PREDICTED BY IDOCK:   -5.70 KCAL/MOL
REMARK 924 INTRA-LIGAND FREE ENERGY PREDICTED BY IDOCK:    1.27 KCAL/MOL
REMARK 927      BINDING AFFINITY PREDICTED BY RF-SCORE:    0.00 PKD
ROOT
HETATM    1  C   UNL     1     -10.926  14.830  67.391  1.00  0.00    -0.313 C  
HETATM    2  N   UNL     1     -10.768  16.271  67.487  1.00  0.00    -0.316 N  
HETATM    3  O   UNL     1      -9.714  18.153  66.642  1.00  0.00    -0.305 OA 
HETATM    4  C   UNL     1     -10.004  16.964  66.558  1.00  0.00    -0.301 C  
ENDROOT
BRANCH   2   5
HETATM    5  C   UNL     1     -11.224  16.948  68.699  1.00  0.00    -0.091 C  
BRANCH   5   6
HETATM    6  C   UNL     1     -11.509  15.979  69.855  1.00  0.00    -0.327 C  
BRANCH   6   7
HETATM    7  C   UNL     1     -10.211  15.521  70.531  1.00  0.00     0.096 C  
BRANCH   7   8
HETATM    8  C   UNL     1      -8.974  15.887  69.702  1.00  0.00    -0.010 C  
BRANCH   8   9
HETATM    9  C   UNL     1      -8.054  14.676  69.512  1.00  0.00     0.099 C  
BRANCH   9  10
HETATM   10  C   UNL     1      -7.207  14.802  68.243  1.00  0.00    -0.115 C  
BRANCH  10  11
HETATM   11  C   UNL     1      -5.993  13.868  68.230  1.00  0.00    -0.117 C  
BRANCH  11  12
HETATM   12  C   UNL     1      -6.169  12.666  67.305  1.00  0.00    -0.094 C  
BRANCH  12  13
HETATM   13  C   UNL     1      -7.130  11.639  67.897  1.00  0.00    -0.081 C  
BRANCH  13  14
HETATM   14  C   UNL     1      -6.359  10.594  68.690  1.00  0.00    -0.046 C  
BRANCH  14  15
HETATM   15  N   UNL     1      -7.156   9.400  68.928  1.00  0.00    -0.067 N  
HETATM   16  C   UNL     1      -7.519   9.071  70.222  1.00  0.00    -0.083 C  
HETATM   17  C   UNL     1      -7.592   8.602  67.791  1.00  0.00    -0.098 C  
HETATM   18  O   UNL     1      -7.153   9.682  71.220  1.00  0.00    -0.329 OA 
BRANCH  16  19
HETATM   19  O   UNL     1      -8.237   7.885  70.271  1.00  0.00    -0.119 OA 
BRANCH  19  20
HETATM   20  C   UNL     1      -9.411   7.980  71.026  1.00  0.00    -0.157 A  
HETATM   21  C   UNL     1      -9.435   7.324  72.251  1.00  0.00    -0.167 A  
HETATM   22  C   UNL     1     -10.542   7.500  73.074  1.00  0.00    -0.422 A  
HETATM   23  C   UNL     1     -11.605   8.316  72.673  1.00  0.00    -0.419 A  
HETATM   24  C   UNL     1     -11.590   8.971  71.430  1.00  0.00    -0.326 A  
HETATM   25  C   UNL     1     -10.460   8.821  70.627  1.00  0.00    -0.253 A  
BRANCH  24  26
HETATM   26  N   UNL     1     -12.708   9.910  71.003  1.00  0.00    -0.336 N  
HETATM   27  C   UNL     1     -13.998   9.142  70.737  1.00  0.00     0.366 C  
HETATM   28  C   UNL     1     -12.339  10.632  69.700  1.00  0.00    -0.139 C  
HETATM   29  C   UNL     1     -12.918  10.918  72.123  1.00  0.00    -0.167 C  
ENDBRANCH  24  26
ENDBRANCH  19  20
ENDBRANCH  16  19
ENDBRANCH  14  15
ENDBRANCH  13  14
ENDBRANCH  12  13
ENDBRANCH  11  12
ENDBRANCH  10  11
ENDBRANCH   9  10
ENDBRANCH   8   9
ENDBRANCH   7   8
ENDBRANCH   6   7
ENDBRANCH   5   6
ENDBRANCH   2   5
BRANCH   4  30
HETATM   30  O   UNL     1      -9.527  16.138  65.535  1.00  0.00    -0.428 OA 
BRANCH  30  31
HETATM   31  C   UNL     1     -10.529  15.360  64.931  1.00  0.00    -0.292 A  
HETATM   32  C   UNL     1     -11.700  15.968  64.474  1.00  0.00    -0.127 A  
HETATM   33  C   UNL     1     -10.279  14.003  64.706  1.00  0.00    -0.332 A  
HETATM   34  C   UNL     1     -11.244  13.222  64.046  1.00  0.00    -0.339 A  
HETATM   35  C   UNL     1     -12.660  15.204  63.835  1.00  0.00     0.450 A  
HETATM   36  C   UNL     1     -12.438  13.843  63.632  1.00  0.00    -0.066 A  
BRANCH  34  37
HETATM   37  N   UNL     1     -11.058  11.718  63.882  1.00  0.00    -0.380 N  
HETATM   38  C   UNL     1      -9.714  11.387  63.232  1.00  0.00    -0.394 C  
HETATM   39  C   UNL     1     -11.081  11.016  65.240  1.00  0.00     0.062 C  
HETATM   40  C   UNL     1     -12.191  11.220  62.984  1.00  0.00     0.780 C  
ENDBRANCH  34  37
ENDBRANCH  30  31
ENDBRANCH   4  30
TORSDOF 17
ENDMDL
MODEL      291
REMARK 921   NORMALIZED FREE ENERGY PREDICTED BY IDOCK:   -1.08 KCAL/MOL
REMARK 922        TOTAL FREE ENERGY PREDICTED BY IDOCK:   -4.38 KCAL/MOL
REMARK 923 INTER-LIGAND FREE ENERGY PREDICTED BY IDOCK:   -7.20 KCAL/MOL
REMARK 924 INTRA-LIGAND FREE ENERGY PREDICTED BY IDOCK:    2.82 KCAL/MOL
REMARK 927      BINDING AFFINITY PREDICTED BY RF-SCORE:    0.00 PKD
ROOT
HETATM    1  C   UNL     1      -9.316   6.779  67.699  1.00  0.00    -0.120 C  
HETATM    2  N   UNL     1      -9.557   7.718  66.616  1.00  0.00    -0.210 N  
HETATM    3  O   UNL     1      -8.714   8.698  64.694  1.00  0.00    -0.141 OA 
HETATM    4  C   UNL     1      -8.651   7.843  65.572  1.00  0.00    -0.116 C  
ENDROOT
BRANCH   2   5
HETATM    5  C   UNL     1     -10.638   8.691  66.759  1.00  0.00    -0.153 C  
BRANCH   5   6
HETATM    6  C   UNL     1     -10.135  10.098  67.110  1.00  0.00    -0.260 C  
BRANCH   6   7
HETATM    7  C   UNL     1     -11.238  10.938  67.765  1.00  0.00    -0.384 C  
BRANCH   7   8
HETATM    8  C   UNL     1     -11.695  12.089  66.860  1.00  0.00    -0.342 C  
BRANCH   8   9
HETATM    9  C   UNL     1     -11.047  11.998  65.475  1.00  0.00    -0.361 C  
BRANCH   9  10
HETATM   10  C   UNL     1      -9.931  13.033  65.304  1.00  0.00    -0.186 C  
BRANCH  10  11
HETATM   11  C   UNL     1      -9.702  13.889  66.555  1.00  0.00    -0.303 C  
BRANCH  11  12
HETATM   12  C   UNL     1      -8.862  13.185  67.618  1.00  0.00    -0.191 C  
BRANCH  12  13
HETATM   13  C   UNL     1      -7.447  13.754  67.683  1.00  0.00    -0.187 C  
BRANCH  13  14
HETATM   14  C   UNL     1      -7.359  14.822  68.762  1.00  0.00    -0.129 C  
BRANCH  14  15
HETATM   15  N   UNL     1      -6.546  15.953  68.338  1.00  0.00    -0.113 N  
HETATM   16  C   UNL     1      -5.829  16.667  69.280  1.00  0.00    -0.161 C  
HETATM   17  C   UNL     1      -6.471  16.277  66.920  1.00  0.00    -0.040 C  
HETATM   18  O   UNL     1      -5.881  16.465  70.488  1.00  0.00    -0.116 OA 
BRANCH  16  19
HETATM   19  O   UNL     1      -5.148  17.733  68.711  1.00  0.00    -0.148 OA 
BRANCH  19  20
HETATM   20  C   UNL     1      -5.979  18.810  68.386  1.00  0.00    -0.211 A  
HETATM   21  C   UNL     1      -5.366  20.032  68.132  1.00  0.00    -0.211 A  
HETATM   22  C   UNL     1      -6.155  21.089  67.690  1.00  0.00    -0.399 A  
HETATM   23  C   UNL     1      -7.533  20.922  67.510  1.00  0.00    -0.304 A  
HETATM   24  C   UNL     1      -8.157  19.692  67.778  1.00  0.00    -0.301 A  
HETATM   25  C   UNL     1      -7.354  18.627  68.183  1.00  0.00    -0.274 A  
BRANCH  24  26
HETATM   26  N   UNL     1      -9.642  19.474  67.530  1.00  0.00    -0.315 N  
HETATM   27  C   UNL     1     -10.161  20.412  66.445  1.00  0.00    -0.253 C  
HETATM   28  C   UNL     1     -10.451  19.767  68.801  1.00  0.00    -0.093 C  
HETATM   29  C   UNL     1      -9.832  18.025  67.107  1.00  0.00    -0.316 C  
ENDBRANCH  24  26
ENDBRANCH  19  20
ENDBRANCH  16  19
ENDBRANCH  14  15
ENDBRANCH  13  14
ENDBRANCH  12  13
ENDBRANCH  11  12
ENDBRANCH  10  11
ENDBRANCH   9  10
ENDBRANCH   8   9
ENDBRANCH   7   8
ENDBRANCH   6   7
ENDBRANCH   5   6
ENDBRANCH   2   5
BRANCH   4  30
HETATM   30  O   UNL     1      -7.601   6.925  65.663  1.00  0.00    -0.081 OA 
BRANCH  30  31
HETATM   31  C   UNL     1      -7.998   5.595  65.442  1.00  0.00    -0.112 A  
HETATM   32  C   UNL     1      -8.369   5.185  64.160  1.00  0.00    -0.137 A  
HETATM   33  C   UNL     1      -7.907   4.684  66.499  1.00  0.00    -0.099 A  
HETATM   34  C   UNL     1      -8.240   3.336  66.281  1.00  0.00    -0.097 A  
HETATM   35  C   UNL     1      -8.710   3.863  63.940  1.00  0.00    -0.105 A  
HETATM   36  C   UNL     1      -8.655   2.950  64.993  1.00  0.00    -0.102 A  
BRANCH  34  37
HETATM   37  N   UNL     1      -8.263   2.338  67.432  1.00  0.00    -0.070 N  
HETATM   38  C   UNL     1      -8.275   3.045  68.788  1.00  0.00    -0.060 C  
HETATM   39  C   UNL     1      -9.519   1.468  67.373  1.00  0.00     0.036 C  
HETATM   40  C   UNL     1      -6.997   1.487  67.316  1.00  0.00    -0.038 C  
ENDBRANCH  34  37
ENDBRANCH  30  31
ENDBRANCH   4  30
TORSDOF 17
ENDMDL
MODEL      292
REMARK 921   NORMALIZED FREE ENERGY PREDICTED BY IDOCK:   -1.07 KCAL/MOL
REMARK 922        TOTAL FREE ENERGY PREDICTED BY IDOCK:   -4.37 KCAL/MOL
REMARK 923 INTER-LIGAND FREE ENERGY PREDICTED BY IDOCK:   -4.67 KCAL/MOL
REMARK 924 INTRA-LIGAND FREE ENERGY PREDICTED BY IDOCK:    0.30 KCAL/MOL
REMARK 927      BINDING AFFINITY PREDICTED BY RF-SCORE:    0.00 PKD
ROOT
HETATM    1  C   UNL     1     -10.443  13.157  63.954  1.00  0.00    -0.098 C  
HETATM    2  N   UNL     1     -10.446  11.999  64.831  1.00  0.00    -0.273 N  
HETATM    3  O   UNL     1      -9.992   9.736  65.034  1.00  0.00    -0.286 OA 
HETATM    4  C   UNL     1      -9.912  10.789  64.409  1.00  0.00    -0.338 C  
ENDROOT
BRANCH   2   5
HETATM    5  C   UNL     1     -11.225  12.056  66.066  1.00  0.00    -0.335 C  
BRANCH   5   6
HETATM    6  C   UNL     1     -11.718  13.471  66.399  1.00  0.00    -0.405 C  
BRANCH   6   7
HETATM    7  C   UNL     1     -10.577  14.349  66.929  1.00  0.00    -0.278 C  
BRANCH   7   8
HETATM    8  C   UNL     1      -9.930  13.750  68.184  1.00  0.00    -0.242 C  
BRANCH   8   9
HETATM    9  C   UNL     1      -8.516  13.239  67.891  1.00  0.00    -0.177 C  
BRANCH   9  10
HETATM   10  C   UNL     1      -8.029  12.269  68.972  1.00  0.00     0.238 C  
BRANCH  10  11
HETATM   11  C   UNL     1      -6.753  11.516  68.579  1.00  0.00    -0.067 C  
BRANCH  11  12
HETATM   12  C   UNL     1      -6.618  11.308  67.072  1.00  0.00    -0.116 C  
BRANCH  12  13
HETATM   13  C   UNL     1      -7.141   9.939  66.647  1.00  0.00    -0.087 C  
BRANCH  13  14
HETATM   14  C   UNL     1      -7.908   9.290  67.790  1.00  0.00    -0.092 C  
BRANCH  14  15
HETATM   15  N   UNL     1      -7.508   7.905  67.991  1.00  0.00    -0.105 N  
HETATM   16  C   UNL     1      -8.471   6.913  67.998  1.00  0.00    -0.124 C  
HETATM   17  C   UNL     1      -6.093   7.592  68.134  1.00  0.00    -0.036 C  
HETATM   18  O   UNL     1      -9.677   7.119  67.919  1.00  0.00    -0.135 OA 
BRANCH  16  19
HETATM   19  O   UNL     1      -7.923   5.663  68.245  1.00  0.00    -0.098 OA 
BRANCH  19  20
HETATM   20  C   UNL     1      -7.804   5.371  69.608  1.00  0.00    -0.078 A  
HETATM   21  C   UNL     1      -7.404   6.404  70.447  1.00  0.00    -0.089 A  
HETATM   22  C   UNL     1      -7.393   6.176  71.818  1.00  0.00    -0.093 A  
HETATM   23  C   UNL     1      -7.772   4.933  72.337  1.00  0.00    -0.092 A  
HETATM   24  C   UNL     1      -8.164   3.882  71.491  1.00  0.00    -0.073 A  
HETATM   25  C   UNL     1      -8.211   4.130  70.120  1.00  0.00    -0.068 A  
BRANCH  24  26
HETATM   26  N   UNL     1      -8.638   2.544  72.038  1.00  0.00    -0.068 N  
HETATM   27  C   UNL     1      -9.672   1.909  71.115  1.00  0.00    -0.113 C  
HETATM   28  C   UNL     1      -9.309   2.726  73.406  1.00  0.00    -0.088 C  
HETATM   29  C   UNL     1      -7.421   1.639  72.164  1.00  0.00    -0.039 C  
ENDBRANCH  24  26
ENDBRANCH  19  20
ENDBRANCH  16  19
ENDBRANCH  14  15
ENDBRANCH  13  14
ENDBRANCH  12  13
ENDBRANCH  11  12
ENDBRANCH  10  11
ENDBRANCH   9  10
ENDBRANCH   8   9
ENDBRANCH   7   8
ENDBRANCH   6   7
ENDBRANCH   5   6
ENDBRANCH   2   5
BRANCH   4  30
HETATM   30  O   UNL     1      -9.325  10.876  63.143  1.00  0.00    -0.255 OA 
BRANCH  30  31
HETATM   31  C   UNL     1      -8.178  10.076  63.002  1.00  0.00    -0.156 A  
HETATM   32  C   UNL     1      -6.965  10.660  62.634  1.00  0.00    -0.060 A  
HETATM   33  C   UNL     1      -8.260   8.722  63.341  1.00  0.00    -0.170 A  
HETATM   34  C   UNL     1      -7.108   7.920  63.267  1.00  0.00    -0.087 A  
HETATM   35  C   UNL     1      -5.830   9.874  62.546  1.00  0.00    -0.095 A  
HETATM   36  C   UNL     1      -5.903   8.516  62.850  1.00  0.00    -0.078 A  
BRANCH  34  37
HETATM   37  N   UNL     1      -7.180   6.418  63.518  1.00  0.00    -0.054 N  
HETATM   38  C   UNL     1      -8.627   5.941  63.655  1.00  0.00     0.208 C  
HETATM   39  C   UNL     1      -6.565   5.641  62.354  1.00  0.00    -0.029 C  
HETATM   40  C   UNL     1      -6.431   6.143  64.822  1.00  0.00    -0.038 C  
ENDBRANCH  34  37
ENDBRANCH  30  31
ENDBRANCH   4  30
TORSDOF 17
ENDMDL
MODEL      293
REMARK 921   NORMALIZED FREE ENERGY PREDICTED BY IDOCK:   -1.05 KCAL/MOL
REMARK 922        TOTAL FREE ENERGY PREDICTED BY IDOCK:   -4.33 KCAL/MOL
REMARK 923 INTER-LIGAND FREE ENERGY PREDICTED BY IDOCK:   -4.37 KCAL/MOL
REMARK 924 INTRA-LIGAND FREE ENERGY PREDICTED BY IDOCK:    0.05 KCAL/MOL
REMARK 927      BINDING AFFINITY PREDICTED BY RF-SCORE:    0.00 PKD
ROOT
HETATM    1  C   UNL     1      -9.112   6.894  70.563  1.00  0.00    -0.156 C  
HETATM    2  N   UNL     1      -9.271   6.163  71.809  1.00  0.00    -0.145 N  
HETATM    3  O   UNL     1     -10.743   5.080  73.232  1.00  0.00    -0.207 OA 
HETATM    4  C   UNL     1     -10.491   5.596  72.147  1.00  0.00    -0.216 C  
ENDROOT
BRANCH   2   5
HETATM    5  C   UNL     1      -8.203   6.236  72.805  1.00  0.00    -0.112 C  
BRANCH   5   6
HETATM    6  C   UNL     1      -7.161   7.318  72.489  1.00  0.00    -0.068 C  
BRANCH   6   7
HETATM    7  C   UNL     1      -6.425   7.016  71.177  1.00  0.00    -0.041 C  
BRANCH   7   8
HETATM    8  C   UNL     1      -5.255   6.047  71.387  1.00  0.00    -0.017 C  
BRANCH   8   9
HETATM    9  C   UNL     1      -5.242   4.952  70.315  1.00  0.00    -0.003 C  
BRANCH   9  10
HETATM   10  C   UNL     1      -6.528   4.121  70.338  1.00  0.00    -0.031 C  
BRANCH  10  11
HETATM   11  C   UNL     1      -7.311   4.181  69.023  1.00  0.00    -0.055 C  
BRANCH  11  12
HETATM   12  C   UNL     1      -7.909   2.835  68.618  1.00  0.00    -0.058 C  
BRANCH  12  13
HETATM   13  C   UNL     1      -9.364   2.977  68.180  1.00  0.00    -0.254 C  
BRANCH  13  14
HETATM   14  C   UNL     1      -9.752   4.446  68.112  1.00  0.00    -0.119 C  
BRANCH  14  15
HETATM   15  N   UNL     1      -9.397   5.039  66.831  1.00  0.00    -0.125 N  
HETATM   16  C   UNL     1      -9.043   6.375  66.774  1.00  0.00    -0.140 C  
HETATM   17  C   UNL     1      -9.377   4.197  65.643  1.00  0.00    -0.162 C  
HETATM   18  O   UNL     1      -9.075   7.141  67.731  1.00  0.00    -0.128 OA 
BRANCH  16  19
HETATM   19  O   UNL     1      -8.778   6.784  65.475  1.00  0.00    -0.128 OA 
BRANCH  19  20
HETATM   20  C   UNL     1      -8.366   8.119  65.390  1.00  0.00    -0.155 A  
HETATM   21  C   UNL     1      -7.061   8.355  64.973  1.00  0.00    -0.079 A  
HETATM   22  C   UNL     1      -6.662   9.671  64.764  1.00  0.00    -0.103 A  
HETATM   23  C   UNL     1      -7.554  10.728  64.972  1.00  0.00     0.162 A  
HETATM   24  C   UNL     1      -8.870  10.493  65.406  1.00  0.00    -0.187 A  
HETATM   25  C   UNL     1      -9.275   9.170  65.576  1.00  0.00    -0.287 A  
BRANCH  24  26
HETATM   26  N   UNL     1      -9.873  11.623  65.579  1.00  0.00    -0.229 N  
HETATM   27  C   UNL     1      -9.165  12.966  65.732  1.00  0.00     0.239 C  
HETATM   28  C   UNL     1     -10.713  11.412  66.845  1.00  0.00    -0.265 C  
HETATM   29  C   UNL     1     -10.769  11.640  64.349  1.00  0.00    -0.330 C  
ENDBRANCH  24  26
ENDBRANCH  19  20
ENDBRANCH  16  19
ENDBRANCH  14  15
ENDBRANCH  13  14
ENDBRANCH  12  13
ENDBRANCH  11  12
ENDBRANCH  10  11
ENDBRANCH   9  10
ENDBRANCH   8   9
ENDBRANCH   7   8
ENDBRANCH   6   7
ENDBRANCH   5   6
ENDBRANCH   2   5
BRANCH   4  30
HETATM   30  O   UNL     1     -11.446   5.737  71.136  1.00  0.00    -0.175 OA 
BRANCH  30  31
HETATM   31  C   UNL     1     -12.338   6.801  71.353  1.00  0.00    -0.353 A  
HETATM   32  C   UNL     1     -13.557   6.565  71.992  1.00  0.00     0.127 A  
HETATM   33  C   UNL     1     -11.932   8.096  71.018  1.00  0.00    -0.257 A  
HETATM   34  C   UNL     1     -12.786   9.180  71.286  1.00  0.00    -0.278 A  
HETATM   35  C   UNL     1     -14.408   7.625  72.248  1.00  0.00    -0.243 A  
HETATM   36  C   UNL     1     -14.030   8.918  71.890  1.00  0.00    -0.476 A  
BRANCH  34  37
HETATM   37  N   UNL     1     -12.429  10.591  70.833  1.00  0.00    -0.356 N  
HETATM   38  C   UNL     1     -12.870  11.637  71.857  1.00  0.00    -0.248 C  
HETATM   39  C   UNL     1     -10.917  10.743  70.666  1.00  0.00     0.315 C  
HETATM   40  C   UNL     1     -13.157  10.837  69.511  1.00  0.00     0.970 C  
ENDBRANCH  34  37
ENDBRANCH  30  31
ENDBRANCH   4  30
TORSDOF 17
ENDMDL
MODEL      294
REMARK 921   NORMALIZED FREE ENERGY PREDICTED BY IDOCK:   -0.91 KCAL/MOL
REMARK 922        TOTAL FREE ENERGY PREDICTED BY IDOCK:   -4.05 KCAL/MOL
REMARK 923 INTER-LIGAND FREE ENERGY PREDICTED BY IDOCK:   -6.87 KCAL/MOL
REMARK 924 INTRA-LIGAND FREE ENERGY PREDICTED BY IDOCK:    2.82 KCAL/MOL
REMARK 927      BINDING AFFINITY PREDICTED BY RF-SCORE:    0.00 PKD
ROOT
HETATM    1  C   UNL     1     -10.593  14.266  67.195  1.00  0.00    -0.279 C  
HETATM    2  N   UNL     1     -11.071  15.638  67.189  1.00  0.00    -0.270 N  
HETATM    3  O   UNL     1     -11.022  17.690  66.113  1.00  0.00    -0.033 OA 
HETATM    4  C   UNL     1     -10.770  16.489  66.133  1.00  0.00    -0.155 C  
ENDROOT
BRANCH   2   5
HETATM    5  C   UNL     1     -11.667  16.179  68.408  1.00  0.00    -0.126 C  
BRANCH   5   6
HETATM    6  C   UNL     1     -11.557  15.223  69.604  1.00  0.00    -0.340 C  
BRANCH   6   7
HETATM    7  C   UNL     1     -10.285  15.490  70.417  1.00  0.00    -0.036 C  
BRANCH   7   8
HETATM    8  C   UNL     1      -9.126  15.961  69.529  1.00  0.00    -0.158 C  
BRANCH   8   9
HETATM    9  C   UNL     1      -7.923  15.021  69.640  1.00  0.00    -0.069 C  
BRANCH   9  10
HETATM   10  C   UNL     1      -7.514  14.461  68.274  1.00  0.00    -0.123 C  
BRANCH  10  11
HETATM   11  C   UNL     1      -6.125  13.814  68.276  1.00  0.00    -0.111 C  
BRANCH  11  12
HETATM   12  C   UNL     1      -6.069  12.509  67.484  1.00  0.00    -0.154 C  
BRANCH  12  13
HETATM   13  C   UNL     1      -6.243  11.295  68.392  1.00  0.00    -0.045 C  
BRANCH  13  14
HETATM   14  C   UNL     1      -7.147  10.267  67.727  1.00  0.00    -0.085 C  
BRANCH  14  15
HETATM   15  N   UNL     1      -6.815   8.911  68.138  1.00  0.00    -0.068 N  
HETATM   16  C   UNL     1      -7.464   7.843  67.546  1.00  0.00    -0.093 C  
HETATM   17  C   UNL     1      -5.772   8.709  69.134  1.00  0.00    -0.039 C  
HETATM   18  O   UNL     1      -8.373   7.951  66.730  1.00  0.00    -0.115 OA 
BRANCH  16  19
HETATM   19  O   UNL     1      -7.060   6.629  68.084  1.00  0.00    -0.077 OA 
BRANCH  19  20
HETATM   20  C   UNL     1      -8.099   5.925  68.701  1.00  0.00    -0.103 A  
HETATM   21  C   UNL     1      -8.190   4.564  68.436  1.00  0.00    -0.086 A  
HETATM   22  C   UNL     1      -9.138   3.817  69.127  1.00  0.00    -0.200 A  
HETATM   23  C   UNL     1      -9.980   4.425  70.063  1.00  0.00    -0.245 A  
HETATM   24  C   UNL     1      -9.900   5.804  70.325  1.00  0.00    -0.189 A  
HETATM   25  C   UNL     1      -8.921   6.539  69.657  1.00  0.00    -0.141 A  
BRANCH  24  26
HETATM   26  N   UNL     1     -10.764   6.473  71.383  1.00  0.00    -0.232 N  
HETATM   27  C   UNL     1     -10.939   5.570  72.599  1.00  0.00    -0.270 C  
HETATM   28  C   UNL     1     -12.167   6.761  70.832  1.00  0.00    -0.331 C  
HETATM   29  C   UNL     1     -10.079   7.770  71.787  1.00  0.00    -0.179 C  
ENDBRANCH  24  26
ENDBRANCH  19  20
ENDBRANCH  16  19
ENDBRANCH  14  15
ENDBRANCH  13  14
ENDBRANCH  12  13
ENDBRANCH  11  12
ENDBRANCH  10  11
ENDBRANCH   9  10
ENDBRANCH   8   9
ENDBRANCH   7   8
ENDBRANCH   6   7
ENDBRANCH   5   6
ENDBRANCH   2   5
BRANCH   4  30
HETATM   30  O   UNL     1     -10.074  15.843  65.107  1.00  0.00    -0.451 OA 
BRANCH  30  31
HETATM   31  C   UNL     1     -10.659  14.627  64.713  1.00  0.00    -0.353 A  
HETATM   32  C   UNL     1     -11.889  14.631  64.052  1.00  0.00    -0.135 A  
HETATM   33  C   UNL     1      -9.937  13.445  64.898  1.00  0.00    -0.162 A  
HETATM   34  C   UNL     1     -10.479  12.227  64.451  1.00  0.00    -0.325 A  
HETATM   35  C   UNL     1     -12.435  13.435  63.621  1.00  0.00    -0.316 A  
HETATM   36  C   UNL     1     -11.740  12.244  63.828  1.00  0.00    -0.566 A  
BRANCH  34  37
HETATM   37  N   UNL     1      -9.776  10.904  64.736  1.00  0.00    -0.248 N  
HETATM   38  C   UNL     1      -8.404  11.125  65.375  1.00  0.00     0.096 C  
HETATM   39  C   UNL     1     -10.589  10.054  65.711  1.00  0.00     0.119 C  
HETATM   40  C   UNL     1      -9.600  10.191  63.394  1.00  0.00    -0.181 C  
ENDBRANCH  34  37
ENDBRANCH  30  31
ENDBRANCH   4  30
TORSDOF 17
ENDMDL
MODEL      295
REMARK 921   NORMALIZED FREE ENERGY PREDICTED BY IDOCK:   -0.86 KCAL/MOL
REMARK 922        TOTAL FREE ENERGY PREDICTED BY IDOCK:   -3.95 KCAL/MOL
REMARK 923 INTER-LIGAND FREE ENERGY PREDICTED BY IDOCK:   -4.55 KCAL/MOL
REMARK 924 INTRA-LIGAND FREE ENERGY PREDICTED BY IDOCK:    0.60 KCAL/MOL
REMARK 927      BINDING AFFINITY PREDICTED BY RF-SCORE:    0.00 PKD
ROOT
HETATM    1  C   UNL     1      -7.429  15.836  70.752  1.00  0.00     2.012 C  
HETATM    2  N   UNL     1      -7.416  15.768  69.300  1.00  0.00    -0.209 N  
HETATM    3  O   UNL     1      -8.668  15.895  67.355  1.00  0.00    -0.174 OA 
HETATM    4  C   UNL     1      -8.559  16.055  68.567  1.00  0.00    -0.190 C  
ENDROOT
BRANCH   2   5
HETATM    5  C   UNL     1      -6.260  15.168  68.637  1.00  0.00    -0.089 C  
BRANCH   5   6
HETATM    6  C   UNL     1      -5.959  13.745  69.127  1.00  0.00    -0.087 C  
BRANCH   6   7
HETATM    7  C   UNL     1      -7.245  12.922  69.274  1.00  0.00     0.172 C  
BRANCH   7   8
HETATM    8  C   UNL     1      -7.666  12.276  67.948  1.00  0.00    -0.133 C  
BRANCH   8   9
HETATM    9  C   UNL     1      -6.488  12.190  66.973  1.00  0.00    -0.088 C  
BRANCH   9  10
HETATM   10  C   UNL     1      -6.562  10.930  66.106  1.00  0.00    -0.108 C  
BRANCH  10  11
HETATM   11  C   UNL     1      -5.421   9.943  66.372  1.00  0.00    -0.045 C  
BRANCH  11  12
HETATM   12  C   UNL     1      -5.910   8.538  66.716  1.00  0.00    -0.049 C  
BRANCH  12  13
HETATM   13  C   UNL     1      -5.339   8.054  68.047  1.00  0.00    -0.033 C  
BRANCH  13  14
HETATM   14  C   UNL     1      -5.751   8.996  69.168  1.00  0.00    -0.036 C  
BRANCH  14  15
HETATM   15  N   UNL     1      -6.970   8.550  69.827  1.00  0.00    -0.046 N  
HETATM   16  C   UNL     1      -7.587   9.377  70.747  1.00  0.00    -0.114 C  
HETATM   17  C   UNL     1      -7.537   7.259  69.465  1.00  0.00    -0.100 C  
HETATM   18  O   UNL     1      -7.138  10.457  71.118  1.00  0.00     0.082 OA 
BRANCH  16  19
HETATM   19  O   UNL     1      -8.707   8.781  71.308  1.00  0.00    -0.181 OA 
BRANCH  19  20
HETATM   20  C   UNL     1      -8.400   7.689  72.127  1.00  0.00    -0.110 A  
HETATM   21  C   UNL     1      -7.884   7.965  73.388  1.00  0.00    -0.209 A  
HETATM   22  C   UNL     1      -7.682   6.906  74.267  1.00  0.00    -0.122 A  
HETATM   23  C   UNL     1      -7.989   5.596  73.886  1.00  0.00    -0.107 A  
HETATM   24  C   UNL     1      -8.500   5.312  72.607  1.00  0.00    -0.117 A  
HETATM   25  C   UNL     1      -8.736   6.382  71.746  1.00  0.00    -0.132 A  
BRANCH  24  26
HETATM   26  N   UNL     1      -8.897   3.903  72.196  1.00  0.00    -0.103 N  
HETATM   27  C   UNL     1      -9.315   3.857  70.730  1.00  0.00    -0.144 C  
HETATM   28  C   UNL     1     -10.096   3.416  73.020  1.00  0.00    -0.150 C  
HETATM   29  C   UNL     1      -7.696   2.997  72.428  1.00  0.00    -0.057 C  
ENDBRANCH  24  26
ENDBRANCH  19  20
ENDBRANCH  16  19
ENDBRANCH  14  15
ENDBRANCH  13  14
ENDBRANCH  12  13
ENDBRANCH  11  12
ENDBRANCH  10  11
ENDBRANCH   9  10
ENDBRANCH   8   9
ENDBRANCH   7   8
ENDBRANCH   6   7
ENDBRANCH   5   6
ENDBRANCH   2   5
BRANCH   4  30
HETATM   30  O   UNL     1      -9.617  16.485  69.373  1.00  0.00    -0.211 OA 
BRANCH  30  31
HETATM   31  C   UNL     1     -10.591  15.496  69.593  1.00  0.00    -0.282 A  
HETATM   32  C   UNL     1     -10.748  14.460  68.671  1.00  0.00    -0.258 A  
HETATM   33  C   UNL     1     -11.308  15.516  70.793  1.00  0.00    -0.384 A  
HETATM   34  C   UNL     1     -12.241  14.499  71.059  1.00  0.00    -0.339 A  
HETATM   35  C   UNL     1     -11.674  13.462  68.919  1.00  0.00    -0.369 A  
HETATM   36  C   UNL     1     -12.419  13.487  70.097  1.00  0.00    -0.276 A  
BRANCH  34  37
HETATM   37  N   UNL     1     -13.122  14.548  72.302  1.00  0.00    -0.348 N  
HETATM   38  C   UNL     1     -14.270  15.545  72.136  1.00  0.00    -0.522 C  
HETATM   39  C   UNL     1     -13.755  13.183  72.574  1.00  0.00    -0.459 C  
HETATM   40  C   UNL     1     -12.234  14.987  73.467  1.00  0.00    -0.437 C  
ENDBRANCH  34  37
ENDBRANCH  30  31
ENDBRANCH   4  30
TORSDOF 17
ENDMDL
MODEL      296
REMARK 921   NORMALIZED FREE ENERGY PREDICTED BY IDOCK:   -0.73 KCAL/MOL
REMARK 922        TOTAL FREE ENERGY PREDICTED BY IDOCK:   -3.69 KCAL/MOL
REMARK 923 INTER-LIGAND FREE ENERGY PREDICTED BY IDOCK:   -5.15 KCAL/MOL
REMARK 924 INTRA-LIGAND FREE ENERGY PREDICTED BY IDOCK:    1.45 KCAL/MOL
REMARK 927      BINDING AFFINITY PREDICTED BY RF-SCORE:    0.00 PKD
ROOT
HETATM    1  C   UNL     1     -11.234  14.449  67.643  1.00  0.00    -0.313 C  
HETATM    2  N   UNL     1     -11.241  15.871  67.945  1.00  0.00    -0.329 N  
HETATM    3  O   UNL     1     -10.325  17.945  67.470  1.00  0.00    -0.346 OA 
HETATM    4  C   UNL     1     -10.476  16.757  67.199  1.00  0.00    -0.299 C  
ENDROOT
BRANCH   2   5
HETATM    5  C   UNL     1     -11.873  16.322  69.183  1.00  0.00    -0.070 C  
BRANCH   5   6
HETATM    6  C   UNL     1     -11.958  15.220  70.248  1.00  0.00    -0.367 C  
BRANCH   6   7
HETATM    7  C   UNL     1     -10.584  14.933  70.866  1.00  0.00     0.280 C  
BRANCH   7   8
HETATM    8  C   UNL     1      -9.464  15.697  70.149  1.00  0.00     0.320 C  
BRANCH   8   9
HETATM    9  C   UNL     1      -8.119  14.978  70.294  1.00  0.00     0.743 C  
BRANCH   9  10
HETATM   10  C   UNL     1      -6.956  15.849  69.812  1.00  0.00    -0.072 C  
BRANCH  10  11
HETATM   11  C   UNL     1      -5.704  15.043  69.451  1.00  0.00    -0.101 C  
BRANCH  11  12
HETATM   12  C   UNL     1      -5.543  14.825  67.947  1.00  0.00    -0.117 C  
BRANCH  12  13
HETATM   13  C   UNL     1      -6.546  13.803  67.418  1.00  0.00     0.032 C  
BRANCH  13  14
HETATM   14  C   UNL     1      -6.242  12.426  67.987  1.00  0.00    -0.082 C  
BRANCH  14  15
HETATM   15  N   UNL     1      -7.382  11.528  67.866  1.00  0.00    -0.089 N  
HETATM   16  C   UNL     1      -7.666  10.648  68.893  1.00  0.00    -0.121 C  
HETATM   17  C   UNL     1      -8.225  11.612  66.682  1.00  0.00    -0.140 C  
HETATM   18  O   UNL     1      -6.974  10.506  69.895  1.00  0.00    -0.129 OA 
BRANCH  16  19
HETATM   19  O   UNL     1      -8.754   9.840  68.595  1.00  0.00    -0.117 OA 
BRANCH  19  20
HETATM   20  C   UNL     1      -9.566   9.575  69.703  1.00  0.00    -0.202 A  
HETATM   21  C   UNL     1     -10.665  10.404  69.898  1.00  0.00    -0.331 A  
HETATM   22  C   UNL     1     -11.555  10.092  70.920  1.00  0.00    -0.459 A  
HETATM   23  C   UNL     1     -11.345   8.973  71.732  1.00  0.00    -0.447 A  
HETATM   24  C   UNL     1     -10.228   8.140  71.546  1.00  0.00    -0.206 A  
HETATM   25  C   UNL     1      -9.361   8.436  70.495  1.00  0.00    -0.177 A  
BRANCH  24  26
HETATM   26  N   UNL     1     -10.014   6.885  72.377  1.00  0.00    -0.165 N  
HETATM   27  C   UNL     1      -8.923   6.006  71.774  1.00  0.00    -0.138 C  
HETATM   28  C   UNL     1     -11.295   6.042  72.424  1.00  0.00    -0.301 C  
HETATM   29  C   UNL     1      -9.620   7.322  73.781  1.00  0.00    -0.285 C  
ENDBRANCH  24  26
ENDBRANCH  19  20
ENDBRANCH  16  19
ENDBRANCH  14  15
ENDBRANCH  13  14
ENDBRANCH  12  13
ENDBRANCH  11  12
ENDBRANCH  10  11
ENDBRANCH   9  10
ENDBRANCH   8   9
ENDBRANCH   7   8
ENDBRANCH   6   7
ENDBRANCH   5   6
ENDBRANCH   2   5
BRANCH   4  30
HETATM   30  O   UNL     1      -9.825  16.134  66.131  1.00  0.00    -0.290 OA 
BRANCH  30  31
HETATM   31  C   UNL     1     -10.694  15.436  65.276  1.00  0.00    -0.421 A  
HETATM   32  C   UNL     1     -11.694  16.126  64.587  1.00  0.00    -0.010 A  
HETATM   33  C   UNL     1     -10.464  14.075  65.051  1.00  0.00    -0.440 A  
HETATM   34  C   UNL     1     -11.285  13.375  64.150  1.00  0.00    -0.350 A  
HETATM   35  C   UNL     1     -12.514  15.441  63.709  1.00  0.00     0.555 A  
HETATM   36  C   UNL     1     -12.316  14.077  63.500  1.00  0.00     0.034 A  
BRANCH  34  37
HETATM   37  N   UNL     1     -11.139  11.869  63.965  1.00  0.00    -0.360 N  
HETATM   38  C   UNL     1     -10.959  11.154  65.305  1.00  0.00    -0.083 C  
HETATM   39  C   UNL     1     -12.387  11.277  63.310  1.00  0.00     0.629 C  
HETATM   40  C   UNL     1      -9.900  11.639  63.098  1.00  0.00    -0.382 C  
ENDBRANCH  34  37
ENDBRANCH  30  31
ENDBRANCH   4  30
TORSDOF 17
ENDMDL
MODEL      297
REMARK 921   NORMALIZED FREE ENERGY PREDICTED BY IDOCK:   -0.73 KCAL/MOL
REMARK 922        TOTAL FREE ENERGY PREDICTED BY IDOCK:   -3.69 KCAL/MOL
REMARK 923 INTER-LIGAND FREE ENERGY PREDICTED BY IDOCK:   -5.92 KCAL/MOL
REMARK 924 INTRA-LIGAND FREE ENERGY PREDICTED BY IDOCK:    2.23 KCAL/MOL
REMARK 927      BINDING AFFINITY PREDICTED BY RF-SCORE:    0.00 PKD
ROOT
HETATM    1  C   UNL     1     -10.723  14.803  67.448  1.00  0.00    -0.281 C  
HETATM    2  N   UNL     1     -10.466  16.227  67.583  1.00  0.00    -0.289 N  
HETATM    3  O   UNL     1      -9.338  18.068  66.745  1.00  0.00    -0.268 OA 
HETATM    4  C   UNL     1      -9.709  16.903  66.637  1.00  0.00    -0.271 C  
ENDROOT
BRANCH   2   5
HETATM    5  C   UNL     1     -10.811  16.885  68.842  1.00  0.00    -0.274 C  
BRANCH   5   6
HETATM    6  C   UNL     1     -11.000  15.898  70.002  1.00  0.00    -0.361 C  
BRANCH   6   7
HETATM    7  C   UNL     1      -9.651  15.427  70.559  1.00  0.00     0.781 C  
BRANCH   7   8
HETATM    8  C   UNL     1      -8.528  15.554  69.522  1.00  0.00    -0.211 C  
BRANCH   8   9
HETATM    9  C   UNL     1      -7.740  14.247  69.393  1.00  0.00     0.126 C  
BRANCH   9  10
HETATM   10  C   UNL     1      -7.419  13.921  67.931  1.00  0.00    -0.155 C  
BRANCH  10  11
HETATM   11  C   UNL     1      -6.287  12.901  67.773  1.00  0.00    -0.144 C  
BRANCH  11  12
HETATM   12  C   UNL     1      -6.762  11.558  67.222  1.00  0.00    -0.112 C  
BRANCH  12  13
HETATM   13  C   UNL     1      -7.730  10.869  68.180  1.00  0.00    -0.103 C  
BRANCH  13  14
HETATM   14  C   UNL     1      -8.665   9.947  67.411  1.00  0.00    -0.128 C  
BRANCH  14  15
HETATM   15  N   UNL     1      -9.595   9.262  68.296  1.00  0.00    -0.145 N  
HETATM   16  C   UNL     1      -9.881   7.926  68.079  1.00  0.00    -0.165 C  
HETATM   17  C   UNL     1     -10.170   9.989  69.419  1.00  0.00    -0.222 C  
HETATM   18  O   UNL     1      -9.457   7.272  67.132  1.00  0.00    -0.133 OA 
BRANCH  16  19
HETATM   19  O   UNL     1     -10.816   7.444  68.984  1.00  0.00    -0.184 OA 
BRANCH  19  20
HETATM   20  C   UNL     1     -10.271   6.567  69.928  1.00  0.00    -0.184 A  
HETATM   21  C   UNL     1     -10.076   5.249  69.532  1.00  0.00    -0.322 A  
HETATM   22  C   UNL     1      -9.427   4.384  70.407  1.00  0.00    -0.245 A  
HETATM   23  C   UNL     1      -8.985   4.834  71.656  1.00  0.00    -0.160 A  
HETATM   24  C   UNL     1      -9.191   6.163  72.064  1.00  0.00    -0.146 A  
HETATM   25  C   UNL     1      -9.808   7.034  71.166  1.00  0.00    -0.180 A  
BRANCH  24  26
HETATM   26  N   UNL     1      -8.665   6.687  73.391  1.00  0.00    -0.122 N  
HETATM   27  C   UNL     1      -7.379   5.972  73.792  1.00  0.00    -0.092 C  
HETATM   28  C   UNL     1      -9.683   6.441  74.512  1.00  0.00    -0.310 C  
HETATM   29  C   UNL     1      -8.408   8.178  73.231  1.00  0.00    -0.214 C  
ENDBRANCH  24  26
ENDBRANCH  19  20
ENDBRANCH  16  19
ENDBRANCH  14  15
ENDBRANCH  13  14
ENDBRANCH  12  13
ENDBRANCH  11  12
ENDBRANCH  10  11
ENDBRANCH   9  10
ENDBRANCH   8   9
ENDBRANCH   7   8
ENDBRANCH   6   7
ENDBRANCH   5   6
ENDBRANCH   2   5
BRANCH   4  30
HETATM   30  O   UNL     1      -9.344  16.088  65.562  1.00  0.00    -0.380 OA 
BRANCH  30  31
HETATM   31  C   UNL     1     -10.419  15.366  65.016  1.00  0.00    -0.381 A  
HETATM   32  C   UNL     1     -11.597  16.030  64.671  1.00  0.00    -0.169 A  
HETATM   33  C   UNL     1     -10.238  14.009  64.730  1.00  0.00    -0.332 A  
HETATM   34  C   UNL     1     -11.281  13.286  64.125  1.00  0.00    -0.379 A  
HETATM   35  C   UNL     1     -12.632  15.322  64.088  1.00  0.00     0.242 A  
HETATM   36  C   UNL     1     -12.479  13.961  63.826  1.00  0.00    -0.150 A  
BRANCH  34  37
HETATM   37  N   UNL     1     -11.165  11.782  63.902  1.00  0.00    -0.392 N  
HETATM   38  C   UNL     1     -12.327  11.249  63.062  1.00  0.00     0.833 C  
HETATM   39  C   UNL     1      -9.880  11.441  63.148  1.00  0.00    -0.388 C  
HETATM   40  C   UNL     1     -11.190  11.119  65.280  1.00  0.00     0.089 C  
ENDBRANCH  34  37
ENDBRANCH  30  31
ENDBRANCH   4  30
TORSDOF 17
ENDMDL
MODEL      298
REMARK 921   NORMALIZED FREE ENERGY PREDICTED BY IDOCK:   -0.67 KCAL/MOL
REMARK 922        TOTAL FREE ENERGY PREDICTED BY IDOCK:   -3.56 KCAL/MOL
REMARK 923 INTER-LIGAND FREE ENERGY PREDICTED BY IDOCK:   -4.69 KCAL/MOL
REMARK 924 INTRA-LIGAND FREE ENERGY PREDICTED BY IDOCK:    1.13 KCAL/MOL
REMARK 927      BINDING AFFINITY PREDICTED BY RF-SCORE:    0.00 PKD
ROOT
HETATM    1  C   UNL     1      -9.329  15.955  70.021  1.00  0.00     0.371 C  
HETATM    2  N   UNL     1      -9.075  15.266  68.767  1.00  0.00    -0.189 N  
HETATM    3  O   UNL     1      -9.515  15.180  66.494  1.00  0.00    -0.246 OA 
HETATM    4  C   UNL     1      -9.571  15.766  67.571  1.00  0.00    -0.224 C  
ENDROOT
BRANCH   2   5
HETATM    5  C   UNL     1      -8.498  13.924  68.809  1.00  0.00    -0.008 C  
BRANCH   5   6
HETATM    6  C   UNL     1      -9.546  12.828  69.052  1.00  0.00     0.379 C  
BRANCH   6   7
HETATM    7  C   UNL     1      -9.239  11.571  68.229  1.00  0.00    -0.186 C  
BRANCH   7   8
HETATM    8  C   UNL     1      -8.602  11.913  66.876  1.00  0.00    -0.185 C  
BRANCH   8   9
HETATM    9  C   UNL     1      -7.888  10.699  66.275  1.00  0.00    -0.150 C  
BRANCH   9  10
HETATM   10  C   UNL     1      -8.878   9.596  65.886  1.00  0.00    -0.180 C  
BRANCH  10  11
HETATM   11  C   UNL     1      -8.898   8.425  66.874  1.00  0.00    -0.157 C  
BRANCH  11  12
HETATM   12  C   UNL     1      -9.043   7.066  66.191  1.00  0.00    -0.149 C  
BRANCH  12  13
HETATM   13  C   UNL     1      -7.769   6.672  65.449  1.00  0.00    -0.100 C  
BRANCH  13  14
HETATM   14  C   UNL     1      -6.554   7.283  66.131  1.00  0.00    -0.052 C  
BRANCH  14  15
HETATM   15  N   UNL     1      -6.368   6.757  67.475  1.00  0.00    -0.042 N  
HETATM   16  C   UNL     1      -6.407   5.391  67.683  1.00  0.00    -0.039 C  
HETATM   17  C   UNL     1      -6.099   7.685  68.565  1.00  0.00    -0.032 C  
HETATM   18  O   UNL     1      -6.665   4.566  66.814  1.00  0.00    -0.049 OA 
BRANCH  16  19
HETATM   19  O   UNL     1      -6.256   5.068  69.024  1.00  0.00    -0.028 OA 
BRANCH  19  20
HETATM   20  C   UNL     1      -7.474   4.899  69.692  1.00  0.00    -0.056 A  
HETATM   21  C   UNL     1      -7.654   3.714  70.396  1.00  0.00    -0.041 A  
HETATM   22  C   UNL     1      -8.803   3.571  71.167  1.00  0.00    -0.136 A  
HETATM   23  C   UNL     1      -9.753   4.595  71.227  1.00  0.00    -0.251 A  
HETATM   24  C   UNL     1      -9.580   5.790  70.506  1.00  0.00    -0.173 A  
HETATM   25  C   UNL     1      -8.408   5.942  69.767  1.00  0.00    -0.124 A  
BRANCH  24  26
HETATM   26  N   UNL     1     -10.571   6.939  70.606  1.00  0.00    -0.218 N  
HETATM   27  C   UNL     1     -11.899   6.577  69.949  1.00  0.00    -0.156 C  
HETATM   28  C   UNL     1     -10.035   8.180  69.882  1.00  0.00    -0.190 C  
HETATM   29  C   UNL     1     -10.783   7.240  72.083  1.00  0.00    -0.219 C  
ENDBRANCH  24  26
ENDBRANCH  19  20
ENDBRANCH  16  19
ENDBRANCH  14  15
ENDBRANCH  13  14
ENDBRANCH  12  13
ENDBRANCH  11  12
ENDBRANCH  10  11
ENDBRANCH   9  10
ENDBRANCH   8   9
ENDBRANCH   7   8
ENDBRANCH   6   7
ENDBRANCH   5   6
ENDBRANCH   2   5
BRANCH   4  30
HETATM   30  O   UNL     1     -10.218  16.995  67.731  1.00  0.00    -0.288 OA 
BRANCH  30  31
HETATM   31  C   UNL     1      -9.337  18.088  67.791  1.00  0.00    -0.263 A  
HETATM   32  C   UNL     1      -9.525  19.079  68.756  1.00  0.00    -0.433 A  
HETATM   33  C   UNL     1      -8.223  18.098  66.946  1.00  0.00    -0.258 A  
HETATM   34  C   UNL     1      -7.296  19.151  67.036  1.00  0.00    -0.213 A  
HETATM   35  C   UNL     1      -8.624  20.125  68.842  1.00  0.00     0.253 A  
HETATM   36  C   UNL     1      -7.526  20.165  67.984  1.00  0.00    -0.297 A  
BRANCH  34  37
HETATM   37  N   UNL     1      -6.133  19.257  66.057  1.00  0.00    -0.174 N  
HETATM   38  C   UNL     1      -5.127  20.323  66.495  1.00  0.00    -0.152 C  
HETATM   39  C   UNL     1      -5.370  17.935  65.971  1.00  0.00    -0.197 C  
HETATM   40  C   UNL     1      -6.721  19.644  64.699  1.00  0.00     0.159 C  
ENDBRANCH  34  37
ENDBRANCH  30  31
ENDBRANCH   4  30
TORSDOF 17
ENDMDL
MODEL      299
REMARK 921   NORMALIZED FREE ENERGY PREDICTED BY IDOCK:   -0.57 KCAL/MOL
REMARK 922        TOTAL FREE ENERGY PREDICTED BY IDOCK:   -3.37 KCAL/MOL
REMARK 923 INTER-LIGAND FREE ENERGY PREDICTED BY IDOCK:   -5.92 KCAL/MOL
REMARK 924 INTRA-LIGAND FREE ENERGY PREDICTED BY IDOCK:    2.55 KCAL/MOL
REMARK 927      BINDING AFFINITY PREDICTED BY RF-SCORE:    0.00 PKD
ROOT
HETATM    1  C   UNL     1      -8.091   6.600  71.435  1.00  0.00    -0.111 C  
HETATM    2  N   UNL     1      -7.806   6.373  70.028  1.00  0.00    -0.108 N  
HETATM    3  O   UNL     1      -8.655   5.726  67.972  1.00  0.00    -0.106 OA 
HETATM    4  C   UNL     1      -8.826   6.060  69.140  1.00  0.00    -0.119 C  
ENDROOT
BRANCH   2   5
HETATM    5  C   UNL     1      -6.413   6.244  69.606  1.00  0.00    -0.043 C  
BRANCH   5   6
HETATM    6  C   UNL     1      -5.746   7.597  69.322  1.00  0.00    -0.029 C  
BRANCH   6   7
HETATM    7  C   UNL     1      -5.646   8.448  70.593  1.00  0.00    -0.028 C  
BRANCH   7   8
HETATM    8  C   UNL     1      -5.947   9.927  70.318  1.00  0.00    -0.064 C  
BRANCH   8   9
HETATM    9  C   UNL     1      -5.588  10.309  68.879  1.00  0.00    -0.041 C  
BRANCH   9  10
HETATM   10  C   UNL     1      -6.413  11.501  68.387  1.00  0.00    -0.051 C  
BRANCH  10  11
HETATM   11  C   UNL     1      -7.925  11.262  68.456  1.00  0.00    -0.145 C  
BRANCH  11  12
HETATM   12  C   UNL     1      -8.734  12.300  67.680  1.00  0.00    -0.175 C  
BRANCH  12  13
HETATM   13  C   UNL     1      -8.641  13.680  68.326  1.00  0.00    -0.170 C  
BRANCH  13  14
HETATM   14  C   UNL     1     -10.013  14.337  68.362  1.00  0.00    -0.240 C  
BRANCH  14  15
HETATM   15  N   UNL     1     -10.861  13.873  67.274  1.00  0.00    -0.284 N  
HETATM   16  C   UNL     1     -11.582  12.702  67.425  1.00  0.00    -0.360 C  
HETATM   17  C   UNL     1     -10.968  14.681  66.067  1.00  0.00    -0.325 C  
HETATM   18  O   UNL     1     -11.505  11.963  68.400  1.00  0.00    -0.250 OA 
BRANCH  16  19
HETATM   19  O   UNL     1     -12.300  12.387  66.281  1.00  0.00    -0.577 OA 
BRANCH  19  20
HETATM   20  C   UNL     1     -11.497  11.920  65.235  1.00  0.00    -0.253 A  
HETATM   21  C   UNL     1     -11.646  12.533  63.996  1.00  0.00    -0.485 A  
HETATM   22  C   UNL     1     -10.779  12.172  62.971  1.00  0.00     0.003 A  
HETATM   23  C   UNL     1      -9.784  11.212  63.184  1.00  0.00    -0.401 A  
HETATM   24  C   UNL     1      -9.639  10.581  64.431  1.00  0.00    -0.300 A  
HETATM   25  C   UNL     1     -10.486  10.976  65.465  1.00  0.00    -0.302 A  
BRANCH  24  26
HETATM   26  N   UNL     1      -8.526   9.580  64.700  1.00  0.00    -0.154 N  
HETATM   27  C   UNL     1      -7.164  10.267  64.723  1.00  0.00    -0.092 C  
HETATM   28  C   UNL     1      -8.474   8.518  63.594  1.00  0.00    -0.021 C  
HETATM   29  C   UNL     1      -8.807   8.926  66.045  1.00  0.00    -0.172 C  
ENDBRANCH  24  26
ENDBRANCH  19  20
ENDBRANCH  16  19
ENDBRANCH  14  15
ENDBRANCH  13  14
ENDBRANCH  12  13
ENDBRANCH  11  12
ENDBRANCH  10  11
ENDBRANCH   9  10
ENDBRANCH   8   9
ENDBRANCH   7   8
ENDBRANCH   6   7
ENDBRANCH   5   6
ENDBRANCH   2   5
BRANCH   4  30
HETATM   30  O   UNL     1     -10.088   6.093  69.742  1.00  0.00    -0.166 OA 
BRANCH  30  31
HETATM   31  C   UNL     1     -10.439   7.361  70.236  1.00  0.00    -0.221 A  
HETATM   32  C   UNL     1      -9.495   8.389  70.243  1.00  0.00    -0.168 A  
HETATM   33  C   UNL     1     -11.767   7.590  70.610  1.00  0.00    -0.240 A  
HETATM   34  C   UNL     1     -12.151   8.869  71.047  1.00  0.00    -0.233 A  
HETATM   35  C   UNL     1      -9.862   9.648  70.684  1.00  0.00    -0.268 A  
HETATM   36  C   UNL     1     -11.175   9.883  71.091  1.00  0.00    -0.404 A  
BRANCH  34  37
HETATM   37  N   UNL     1     -13.559   9.130  71.570  1.00  0.00    -0.368 N  
HETATM   38  C   UNL     1     -14.186   7.860  72.147  1.00  0.00    -0.254 C  
HETATM   39  C   UNL     1     -13.539  10.166  72.694  1.00  0.00     0.386 C  
HETATM   40  C   UNL     1     -14.396   9.616  70.386  1.00  0.00     1.419 C  
ENDBRANCH  34  37
ENDBRANCH  30  31
ENDBRANCH   4  30
TORSDOF 17
ENDMDL
MODEL      300
REMARK 921   NORMALIZED FREE ENERGY PREDICTED BY IDOCK:   -0.52 KCAL/MOL
REMARK 922        TOTAL FREE ENERGY PREDICTED BY IDOCK:   -3.27 KCAL/MOL
REMARK 923 INTER-LIGAND FREE ENERGY PREDICTED BY IDOCK:   -4.68 KCAL/MOL
REMARK 924 INTRA-LIGAND FREE ENERGY PREDICTED BY IDOCK:    1.40 KCAL/MOL
REMARK 927      BINDING AFFINITY PREDICTED BY RF-SCORE:    0.00 PKD
ROOT
HETATM    1  C   UNL     1     -10.791  14.689  67.530  1.00  0.00    -0.286 C  
HETATM    2  N   UNL     1     -10.458  16.082  67.769  1.00  0.00    -0.289 N  
HETATM    3  O   UNL     1      -9.173  17.895  67.114  1.00  0.00    -0.250 OA 
HETATM    4  C   UNL     1      -9.606  16.765  66.912  1.00  0.00    -0.245 C  
ENDROOT
BRANCH   2   5
HETATM    5  C   UNL     1     -10.838  16.685  69.046  1.00  0.00    -0.314 C  
BRANCH   5   6
HETATM    6  C   UNL     1     -11.101  15.646  70.144  1.00  0.00    -0.347 C  
BRANCH   6   7
HETATM    7  C   UNL     1      -9.792  15.161  70.779  1.00  0.00     0.917 C  
BRANCH   7   8
HETATM    8  C   UNL     1      -8.573  15.516  69.918  1.00  0.00     0.192 C  
BRANCH   8   9
HETATM    9  C   UNL     1      -7.711  14.281  69.638  1.00  0.00     0.303 C  
BRANCH   9  10
HETATM   10  C   UNL     1      -7.143  14.298  68.216  1.00  0.00    -0.111 C  
BRANCH  10  11
HETATM   11  C   UNL     1      -5.875  13.453  68.060  1.00  0.00    -0.124 C  
BRANCH  11  12
HETATM   12  C   UNL     1      -6.048  12.283  67.094  1.00  0.00    -0.119 C  
BRANCH  12  13
HETATM   13  C   UNL     1      -7.039  11.254  67.632  1.00  0.00    -0.090 C  
BRANCH  13  14
HETATM   14  C   UNL     1      -8.010  10.838  66.537  1.00  0.00    -0.144 C  
BRANCH  14  15
HETATM   15  N   UNL     1      -8.895   9.770  66.977  1.00  0.00    -0.134 N  
HETATM   16  C   UNL     1      -9.154   8.708  66.130  1.00  0.00    -0.201 C  
HETATM   17  C   UNL     1      -9.452   9.823  68.322  1.00  0.00    -0.139 C  
HETATM   18  O   UNL     1      -8.745   8.627  64.977  1.00  0.00    -0.179 OA 
BRANCH  16  19
HETATM   19  O   UNL     1     -10.049   7.807  66.690  1.00  0.00    -0.253 OA 
BRANCH  19  20
HETATM   20  C   UNL     1      -9.438   6.635  67.149  1.00  0.00    -0.136 A  
HETATM   21  C   UNL     1      -9.145   5.659  66.205  1.00  0.00    -0.158 A  
HETATM   22  C   UNL     1      -8.432   4.537  66.612  1.00  0.00    -0.105 A  
HETATM   23  C   UNL     1      -8.023   4.397  67.943  1.00  0.00    -0.087 A  
HETATM   24  C   UNL     1      -8.329   5.376  68.903  1.00  0.00    -0.100 A  
HETATM   25  C   UNL     1      -9.010   6.516  68.479  1.00  0.00    -0.126 A  
BRANCH  24  26
HETATM   26  N   UNL     1      -7.842   5.272  70.340  1.00  0.00    -0.075 N  
HETATM   27  C   UNL     1      -8.981   4.888  71.279  1.00  0.00    -0.133 C  
HETATM   28  C   UNL     1      -7.295   6.620  70.826  1.00  0.00    -0.079 C  
HETATM   29  C   UNL     1      -6.748   4.214  70.382  1.00  0.00    -0.033 C  
ENDBRANCH  24  26
ENDBRANCH  19  20
ENDBRANCH  16  19
ENDBRANCH  14  15
ENDBRANCH  13  14
ENDBRANCH  12  13
ENDBRANCH  11  12
ENDBRANCH  10  11
ENDBRANCH   9  10
ENDBRANCH   8   9
ENDBRANCH   7   8
ENDBRANCH   6   7
ENDBRANCH   5   6
ENDBRANCH   2   5
BRANCH   4  30
HETATM   30  O   UNL     1      -9.226  15.994  65.809  1.00  0.00    -0.356 OA 
BRANCH  30  31
HETATM   31  C   UNL     1     -10.311  15.403  65.139  1.00  0.00    -0.374 A  
HETATM   32  C   UNL     1     -11.334  16.207  64.632  1.00  0.00    -0.287 A  
HETATM   33  C   UNL     1     -10.282  14.026  64.900  1.00  0.00    -0.377 A  
HETATM   34  C   UNL     1     -11.328  13.428  64.175  1.00  0.00    -0.364 A  
HETATM   35  C   UNL     1     -12.373  15.624  63.929  1.00  0.00     0.389 A  
HETATM   36  C   UNL     1     -12.374  14.247  63.711  1.00  0.00    -0.048 A  
BRANCH  34  37
HETATM   37  N   UNL     1     -11.391  11.916  63.992  1.00  0.00    -0.376 N  
HETATM   38  C   UNL     1     -10.127  11.380  63.317  1.00  0.00    -0.387 C  
HETATM   39  C   UNL     1     -11.508  11.209  65.342  1.00  0.00     0.333 C  
HETATM   40  C   UNL     1     -12.602  11.620  63.107  1.00  0.00     0.015 C  
ENDBRANCH  34  37
ENDBRANCH  30  31
ENDBRANCH   4  30
TORSDOF 17
ENDMDL
MODEL      301
REMARK 921   NORMALIZED FREE ENERGY PREDICTED BY IDOCK:   -0.42 KCAL/MOL
REMARK 922        TOTAL FREE ENERGY PREDICTED BY IDOCK:   -3.07 KCAL/MOL
REMARK 923 INTER-LIGAND FREE ENERGY PREDICTED BY IDOCK:   -5.29 KCAL/MOL
REMARK 924 INTRA-LIGAND FREE ENERGY PREDICTED BY IDOCK:    2.22 KCAL/MOL
REMARK 927      BINDING AFFINITY PREDICTED BY RF-SCORE:    0.00 PKD
ROOT
HETATM    1  C   UNL     1      -9.556  13.421  65.280  1.00  0.00     0.170 C  
HETATM    2  N   UNL     1     -10.151  12.119  65.532  1.00  0.00    -0.246 N  
HETATM    3  O   UNL     1     -10.072   9.847  65.087  1.00  0.00    -0.309 OA 
HETATM    4  C   UNL     1      -9.566  10.964  65.033  1.00  0.00    -0.251 C  
ENDROOT
BRANCH   2   5
HETATM    5  C   UNL     1     -11.492  12.061  66.111  1.00  0.00    -0.339 C  
BRANCH   5   6
HETATM    6  C   UNL     1     -11.932  13.392  66.738  1.00  0.00    -0.447 C  
BRANCH   6   7
HETATM    7  C   UNL     1     -11.244  13.626  68.088  1.00  0.00    -0.303 C  
BRANCH   7   8
HETATM    8  C   UNL     1     -11.489  12.468  69.064  1.00  0.00    -0.355 C  
BRANCH   8   9
HETATM    9  C   UNL     1     -10.355  11.441  69.003  1.00  0.00    -0.166 C  
BRANCH   9  10
HETATM   10  C   UNL     1     -10.759  10.113  69.652  1.00  0.00    -0.295 C  
BRANCH  10  11
HETATM   11  C   UNL     1      -9.889   8.933  69.207  1.00  0.00    -0.176 C  
BRANCH  11  12
HETATM   12  C   UNL     1     -10.594   8.007  68.218  1.00  0.00    -0.155 C  
BRANCH  12  13
HETATM   13  C   UNL     1     -11.262   6.832  68.927  1.00  0.00    -0.196 C  
BRANCH  13  14
HETATM   14  C   UNL     1     -11.258   7.056  70.432  1.00  0.00    -0.299 C  
BRANCH  14  15
HETATM   15  N   UNL     1     -10.804   5.875  71.153  1.00  0.00    -0.268 N  
HETATM   16  C   UNL     1     -11.478   5.473  72.291  1.00  0.00    -0.156 C  
HETATM   17  C   UNL     1      -9.677   5.118  70.629  1.00  0.00    -0.192 C  
HETATM   18  O   UNL     1     -12.409   6.088  72.799  1.00  0.00     0.037 OA 
BRANCH  16  19
HETATM   19  O   UNL     1     -10.888   4.360  72.874  1.00  0.00    -0.203 OA 
BRANCH  19  20
HETATM   20  C   UNL     1      -9.532   4.543  73.167  1.00  0.00    -0.120 A  
HETATM   21  C   UNL     1      -9.211   5.496  74.126  1.00  0.00    -0.126 A  
HETATM   22  C   UNL     1      -7.884   5.615  74.523  1.00  0.00    -0.097 A  
HETATM   23  C   UNL     1      -6.898   4.795  73.965  1.00  0.00    -0.074 A  
HETATM   24  C   UNL     1      -7.216   3.838  72.985  1.00  0.00    -0.059 A  
HETATM   25  C   UNL     1      -8.555   3.698  72.621  1.00  0.00    -0.094 A  
BRANCH  24  26
HETATM   26  N   UNL     1      -6.169   2.896  72.411  1.00  0.00    -0.013 N  
HETATM   27  C   UNL     1      -6.823   1.757  71.637  1.00  0.00    -0.023 C  
HETATM   28  C   UNL     1      -5.341   2.259  73.534  1.00  0.00     0.000 C  
HETATM   29  C   UNL     1      -5.271   3.710  71.490  1.00  0.00     0.000 C  
ENDBRANCH  24  26
ENDBRANCH  19  20
ENDBRANCH  16  19
ENDBRANCH  14  15
ENDBRANCH  13  14
ENDBRANCH  12  13
ENDBRANCH  11  12
ENDBRANCH  10  11
ENDBRANCH   9  10
ENDBRANCH   8   9
ENDBRANCH   7   8
ENDBRANCH   6   7
ENDBRANCH   5   6
ENDBRANCH   2   5
BRANCH   4  30
HETATM   30  O   UNL     1      -8.353  11.215  64.385  1.00  0.00     0.179 OA 
BRANCH  30  31
HETATM   31  C   UNL     1      -7.334  10.313  64.734  1.00  0.00    -0.099 A  
HETATM   32  C   UNL     1      -6.284  10.074  63.846  1.00  0.00    -0.132 A  
HETATM   33  C   UNL     1      -7.342   9.757  66.017  1.00  0.00    -0.102 A  
HETATM   34  C   UNL     1      -6.297   8.902  66.406  1.00  0.00    -0.065 A  
HETATM   35  C   UNL     1      -5.258   9.223  64.217  1.00  0.00    -0.058 A  
HETATM   36  C   UNL     1      -5.270   8.636  65.481  1.00  0.00    -0.034 A  
BRANCH  34  37
HETATM   37  N   UNL     1      -6.329   8.187  67.752  1.00  0.00    -0.052 N  
HETATM   38  C   UNL     1      -5.156   7.216  67.899  1.00  0.00    -0.019 C  
HETATM   39  C   UNL     1      -6.223   9.187  68.903  1.00  0.00    -0.044 C  
HETATM   40  C   UNL     1      -7.643   7.407  67.817  1.00  0.00    -0.107 C  
ENDBRANCH  34  37
ENDBRANCH  30  31
ENDBRANCH   4  30
TORSDOF 17
ENDMDL
MODEL      302
REMARK 921   NORMALIZED FREE ENERGY PREDICTED BY IDOCK:    0.17 KCAL/MOL
REMARK 922        TOTAL FREE ENERGY PREDICTED BY IDOCK:   -1.89 KCAL/MOL
REMARK 923 INTER-LIGAND FREE ENERGY PREDICTED BY IDOCK:   -4.49 KCAL/MOL
REMARK 924 INTRA-LIGAND FREE ENERGY PREDICTED BY IDOCK:    2.60 KCAL/MOL
REMARK 927      BINDING AFFINITY PREDICTED BY RF-SCORE:    0.00 PKD
ROOT
HETATM    1  C   UNL     1     -10.674  10.886  66.017  1.00  0.00    -0.140 C  
HETATM    2  N   UNL     1     -10.136   9.591  66.399  1.00  0.00    -0.264 N  
HETATM    3  O   UNL     1      -9.867   8.044  68.102  1.00  0.00    -0.160 OA 
HETATM    4  C   UNL     1     -10.388   9.063  67.658  1.00  0.00    -0.257 C  
ENDROOT
BRANCH   2   5
HETATM    5  C   UNL     1      -9.139   8.963  65.535  1.00  0.00    -0.190 C  
BRANCH   5   6
HETATM    6  C   UNL     1      -7.930   9.868  65.259  1.00  0.00    -0.137 C  
BRANCH   6   7
HETATM    7  C   UNL     1      -6.669   9.043  64.975  1.00  0.00    -0.069 C  
BRANCH   7   8
HETATM    8  C   UNL     1      -5.403   9.909  64.992  1.00  0.00    -0.060 C  
BRANCH   8   9
HETATM    9  C   UNL     1      -5.258  10.656  66.321  1.00  0.00    -0.075 C  
BRANCH   9  10
HETATM   10  C   UNL     1      -6.566  10.653  67.117  1.00  0.00    -0.076 C  
BRANCH  10  11
HETATM   11  C   UNL     1      -6.829  11.969  67.856  1.00  0.00    -0.087 C  
BRANCH  11  12
HETATM   12  C   UNL     1      -8.287  12.419  67.781  1.00  0.00    -0.164 C  
BRANCH  12  13
HETATM   13  C   UNL     1      -8.670  13.282  68.981  1.00  0.00     0.433 C  
BRANCH  13  14
HETATM   14  C   UNL     1      -7.569  14.289  69.277  1.00  0.00     0.012 C  
BRANCH  14  15
HETATM   15  N   UNL     1      -8.021  15.658  69.072  1.00  0.00    -0.190 N  
HETATM   16  C   UNL     1      -9.105  16.131  69.788  1.00  0.00     0.297 C  
HETATM   17  C   UNL     1      -7.288  16.513  68.149  1.00  0.00    -0.160 C  
HETATM   18  O   UNL     1      -9.782  15.449  70.550  1.00  0.00     0.163 OA 
BRANCH  16  19
HETATM   19  O   UNL     1      -9.425  17.435  69.439  1.00  0.00     0.004 OA 
BRANCH  19  20
HETATM   20  C   UNL     1     -10.102  17.530  68.218  1.00  0.00    -0.346 A  
HETATM   21  C   UNL     1     -10.378  18.806  67.742  1.00  0.00    -0.467 A  
HETATM   22  C   UNL     1     -10.942  18.933  66.477  1.00  0.00    -0.064 A  
HETATM   23  C   UNL     1     -11.227  17.800  65.708  1.00  0.00     0.790 A  
HETATM   24  C   UNL     1     -10.961  16.507  66.191  1.00  0.00     0.081 A  
HETATM   25  C   UNL     1     -10.360  16.390  67.444  1.00  0.00    -0.295 A  
BRANCH  24  26
HETATM   26  N   UNL     1     -11.206  15.267  65.346  1.00  0.00    -0.331 N  
HETATM   27  C   UNL     1      -9.909  14.500  65.107  1.00  0.00    -0.111 C  
HETATM   28  C   UNL     1     -11.760  15.652  63.968  1.00  0.00     0.070 C  
HETATM   29  C   UNL     1     -12.205  14.391  66.089  1.00  0.00    -0.340 C  
ENDBRANCH  24  26
ENDBRANCH  19  20
ENDBRANCH  16  19
ENDBRANCH  14  15
ENDBRANCH  13  14
ENDBRANCH  12  13
ENDBRANCH  11  12
ENDBRANCH  10  11
ENDBRANCH   9  10
ENDBRANCH   8   9
ENDBRANCH   7   8
ENDBRANCH   6   7
ENDBRANCH   5   6
ENDBRANCH   2   5
BRANCH   4  30
HETATM   30  O   UNL     1     -11.255   9.861  68.409  1.00  0.00    -0.188 OA 
BRANCH  30  31
HETATM   31  C   UNL     1     -11.297   9.514  69.770  1.00  0.00    -0.083 A  
HETATM   32  C   UNL     1     -12.056  10.278  70.659  1.00  0.00    -0.433 A  
HETATM   33  C   UNL     1     -10.661   8.339  70.182  1.00  0.00    -0.233 A  
HETATM   34  C   UNL     1     -10.746   7.942  71.528  1.00  0.00    -0.227 A  
HETATM   35  C   UNL     1     -12.133   9.902  71.987  1.00  0.00    -0.103 A  
HETATM   36  C   UNL     1     -11.477   8.750  72.419  1.00  0.00    -0.301 A  
BRANCH  34  37
HETATM   37  N   UNL     1      -9.973   6.732  72.039  1.00  0.00    -0.172 N  
HETATM   38  C   UNL     1      -8.469   6.890  71.813  1.00  0.00    -0.115 C  
HETATM   39  C   UNL     1     -10.179   6.549  73.543  1.00  0.00    -0.263 C  
HETATM   40  C   UNL     1     -10.476   5.515  71.262  1.00  0.00    -0.239 C  
ENDBRANCH  34  37
ENDBRANCH  30  31
ENDBRANCH   4  30
TORSDOF 17
ENDMDL
MODEL      303
REMARK 921   NORMALIZED FREE ENERGY PREDICTED BY IDOCK:    0.36 KCAL/MOL
REMARK 922        TOTAL FREE ENERGY PREDICTED BY IDOCK:   -1.51 KCAL/MOL
REMARK 923 INTER-LIGAND FREE ENERGY PREDICTED BY IDOCK:   -5.00 KCAL/MOL
REMARK 924 INTRA-LIGAND FREE ENERGY PREDICTED BY IDOCK:    3.49 KCAL/MOL
REMARK 927      BINDING AFFINITY PREDICTED BY RF-SCORE:    0.00 PKD
ROOT
HETATM    1  C   UNL     1      -5.426  13.603  70.912  1.00  0.00    -0.178 C  
HETATM    2  N   UNL     1      -5.640  13.179  69.539  1.00  0.00    -0.083 N  
HETATM    3  O   UNL     1      -6.829  13.522  67.580  1.00  0.00    -0.152 OA 
HETATM    4  C   UNL     1      -6.494  13.886  68.703  1.00  0.00    -0.092 C  
ENDROOT
BRANCH   2   5
HETATM    5  C   UNL     1      -5.136  11.872  69.121  1.00  0.00    -0.051 C  
BRANCH   5   6
HETATM    6  C   UNL     1      -6.101  11.126  68.190  1.00  0.00    -0.049 C  
BRANCH   6   7
HETATM    7  C   UNL     1      -5.800   9.622  68.162  1.00  0.00    -0.040 C  
BRANCH   7   8
HETATM    8  C   UNL     1      -6.623   8.854  69.204  1.00  0.00    -0.047 C  
BRANCH   8   9
HETATM    9  C   UNL     1      -8.110   8.842  68.839  1.00  0.00    -0.112 C  
BRANCH   9  10
HETATM   10  C   UNL     1      -8.523  10.121  68.104  1.00  0.00    -0.118 C  
BRANCH  10  11
HETATM   11  C   UNL     1      -9.814   9.964  67.294  1.00  0.00    -0.228 C  
BRANCH  11  12
HETATM   12  C   UNL     1      -9.579   9.969  65.784  1.00  0.00    -0.291 C  
BRANCH  12  13
HETATM   13  C   UNL     1      -9.996  11.297  65.157  1.00  0.00    -0.312 C  
BRANCH  13  14
HETATM   14  C   UNL     1     -11.353  11.729  65.692  1.00  0.00    -0.233 C  
BRANCH  14  15
HETATM   15  N   UNL     1     -11.226  12.743  66.729  1.00  0.00    -0.281 N  
HETATM   16  C   UNL     1     -12.253  13.648  66.923  1.00  0.00    -0.352 C  
HETATM   17  C   UNL     1     -10.038  12.749  67.570  1.00  0.00    -0.213 C  
HETATM   18  O   UNL     1     -13.259  13.715  66.225  1.00  0.00     0.070 OA 
BRANCH  16  19
HETATM   19  O   UNL     1     -11.950  14.567  67.917  1.00  0.00    -0.343 OA 
BRANCH  19  20
HETATM   20  C   UNL     1     -12.215  14.095  69.207  1.00  0.00    -0.269 A  
HETATM   21  C   UNL     1     -12.610  15.028  70.158  1.00  0.00    -0.312 A  
HETATM   22  C   UNL     1     -12.994  14.572  71.414  1.00  0.00    -0.403 A  
HETATM   23  C   UNL     1     -12.979  13.205  71.710  1.00  0.00    -0.435 A  
HETATM   24  C   UNL     1     -12.569  12.259  70.755  1.00  0.00    -0.213 A  
HETATM   25  C   UNL     1     -12.222  12.721  69.486  1.00  0.00    -0.161 A  
BRANCH  24  26
HETATM   26  N   UNL     1     -12.604  10.765  71.037  1.00  0.00    -0.385 N  
HETATM   27  C   UNL     1     -13.427  10.027  69.986  1.00  0.00     0.931 C  
HETATM   28  C   UNL     1     -13.258  10.486  72.397  1.00  0.00     0.063 C  
HETATM   29  C   UNL     1     -11.169  10.259  71.029  1.00  0.00    -0.144 C  
ENDBRANCH  24  26
ENDBRANCH  19  20
ENDBRANCH  16  19
ENDBRANCH  14  15
ENDBRANCH  13  14
ENDBRANCH  12  13
ENDBRANCH  11  12
ENDBRANCH  10  11
ENDBRANCH   9  10
ENDBRANCH   8   9
ENDBRANCH   7   8
ENDBRANCH   6   7
ENDBRANCH   5   6
ENDBRANCH   2   5
BRANCH   4  30
HETATM   30  O   UNL     1      -6.999  15.041  69.308  1.00  0.00    -0.129 OA 
BRANCH  30  31
HETATM   31  C   UNL     1      -7.009  16.160  68.459  1.00  0.00    -0.137 A  
HETATM   32  C   UNL     1      -6.629  16.020  67.123  1.00  0.00    -0.177 A  
HETATM   33  C   UNL     1      -7.506  17.370  68.951  1.00  0.00    -0.235 A  
HETATM   34  C   UNL     1      -7.583  18.484  68.097  1.00  0.00    -0.274 A  
HETATM   35  C   UNL     1      -6.690  17.115  66.279  1.00  0.00    -0.213 A  
HETATM   36  C   UNL     1      -7.153  18.337  66.765  1.00  0.00    -0.232 A  
BRANCH  34  37
HETATM   37  N   UNL     1      -8.011  19.849  68.624  1.00  0.00    -0.216 N  
HETATM   38  C   UNL     1      -9.193  20.411  67.832  1.00  0.00    -0.150 C  
HETATM   39  C   UNL     1      -8.460  19.753  70.082  1.00  0.00     1.189 C  
HETATM   40  C   UNL     1      -6.811  20.786  68.476  1.00  0.00     0.006 C  
ENDBRANCH  34  37
ENDBRANCH  30  31
ENDBRANCH   4  30
TORSDOF 17
ENDMDL
MODEL      304
REMARK 921   NORMALIZED FREE ENERGY PREDICTED BY IDOCK:    0.52 KCAL/MOL
REMARK 922        TOTAL FREE ENERGY PREDICTED BY IDOCK:   -1.20 KCAL/MOL
REMARK 923 INTER-LIGAND FREE ENERGY PREDICTED BY IDOCK:   -4.65 KCAL/MOL
REMARK 924 INTRA-LIGAND FREE ENERGY PREDICTED BY IDOCK:    3.44 KCAL/MOL
REMARK 927      BINDING AFFINITY PREDICTED BY RF-SCORE:    0.00 PKD
ROOT
HETATM    1  C   UNL     1     -11.603  12.196  69.998  1.00  0.00    -0.171 C  
HETATM    2  N   UNL     1     -11.593  12.741  68.651  1.00  0.00    -0.292 N  
HETATM    3  O   UNL     1     -10.953  14.504  67.292  1.00  0.00    -0.291 OA 
HETATM    4  C   UNL     1     -10.904  13.911  68.365  1.00  0.00    -0.254 C  
ENDROOT
BRANCH   2   5
HETATM    5  C   UNL     1     -12.506  12.176  67.659  1.00  0.00     1.198 C  
BRANCH   5   6
HETATM    6  C   UNL     1     -11.793  11.724  66.377  1.00  0.00     0.002 C  
BRANCH   6   7
HETATM    7  C   UNL     1     -10.767  10.622  66.668  1.00  0.00    -0.246 C  
BRANCH   7   8
HETATM    8  C   UNL     1      -9.381  11.199  66.984  1.00  0.00    -0.182 C  
BRANCH   8   9
HETATM    9  C   UNL     1      -8.270  10.348  66.361  1.00  0.00    -0.141 C  
BRANCH   9  10
HETATM   10  C   UNL     1      -8.430  10.231  64.843  1.00  0.00    -0.182 C  
BRANCH  10  11
HETATM   11  C   UNL     1      -8.920   8.852  64.391  1.00  0.00     0.048 C  
BRANCH  11  12
HETATM   12  C   UNL     1      -9.037   7.850  65.538  1.00  0.00     0.057 C  
BRANCH  12  13
HETATM   13  C   UNL     1      -7.676   7.548  66.160  1.00  0.00    -0.090 C  
BRANCH  13  14
HETATM   14  C   UNL     1      -7.830   7.264  67.647  1.00  0.00    -0.113 C  
BRANCH  14  15
HETATM   15  N   UNL     1      -8.307   5.911  67.891  1.00  0.00    -0.111 N  
HETATM   16  C   UNL     1      -7.548   4.835  67.467  1.00  0.00    -0.082 C  
HETATM   17  C   UNL     1      -9.554   5.722  68.618  1.00  0.00    -0.127 C  
HETATM   18  O   UNL     1      -6.511   4.931  66.820  1.00  0.00    -0.039 OA 
BRANCH  16  19
HETATM   19  O   UNL     1      -8.170   3.625  67.741  1.00  0.00    -0.087 OA 
BRANCH  19  20
HETATM   20  C   UNL     1      -8.051   3.233  69.079  1.00  0.00    -0.059 A  
HETATM   21  C   UNL     1      -7.444   2.008  69.331  1.00  0.00    -0.043 A  
HETATM   22  C   UNL     1      -7.206   1.648  70.653  1.00  0.00    -0.033 A  
HETATM   23  C   UNL     1      -7.573   2.499  71.700  1.00  0.00    -0.041 A  
HETATM   24  C   UNL     1      -8.199   3.732  71.450  1.00  0.00    -0.068 A  
HETATM   25  C   UNL     1      -8.399   4.104  70.121  1.00  0.00    -0.083 A  
BRANCH  24  26
HETATM   26  N   UNL     1      -8.550   4.697  72.571  1.00  0.00    -0.114 N  
HETATM   27  C   UNL     1      -8.104   6.116  72.233  1.00  0.00    -0.109 C  
HETATM   28  C   UNL     1      -7.838   4.300  73.870  1.00  0.00    -0.085 C  
HETATM   29  C   UNL     1     -10.059   4.653  72.763  1.00  0.00    -0.170 C  
ENDBRANCH  24  26
ENDBRANCH  19  20
ENDBRANCH  16  19
ENDBRANCH  14  15
ENDBRANCH  13  14
ENDBRANCH  12  13
ENDBRANCH  11  12
ENDBRANCH  10  11
ENDBRANCH   9  10
ENDBRANCH   8   9
ENDBRANCH   7   8
ENDBRANCH   6   7
ENDBRANCH   5   6
ENDBRANCH   2   5
BRANCH   4  30
HETATM   30  O   UNL     1     -10.191  14.395  69.466  1.00  0.00    -0.065 OA 
BRANCH  30  31
HETATM   31  C   UNL     1      -9.360  15.486  69.160  1.00  0.00    -0.250 A  
HETATM   32  C   UNL     1      -8.002  15.435  69.480  1.00  0.00    -0.204 A  
HETATM   33  C   UNL     1      -9.897  16.556  68.438  1.00  0.00    -0.237 A  
HETATM   34  C   UNL     1      -9.065  17.627  68.067  1.00  0.00    -0.267 A  
HETATM   35  C   UNL     1      -7.179  16.491  69.130  1.00  0.00    -0.226 A  
HETATM   36  C   UNL     1      -7.708  17.580  68.439  1.00  0.00    -0.260 A  
BRANCH  34  37
HETATM   37  N   UNL     1      -9.636  18.862  67.381  1.00  0.00    -0.302 N  
HETATM   38  C   UNL     1     -10.438  18.490  66.133  1.00  0.00    -0.413 C  
HETATM   39  C   UNL     1     -10.586  19.613  68.313  1.00  0.00    -0.196 C  
HETATM   40  C   UNL     1      -8.450  19.741  66.977  1.00  0.00    -0.319 C  
ENDBRANCH  34  37
ENDBRANCH  30  31
ENDBRANCH   4  30
TORSDOF 17
ENDMDL
MODEL      305
REMARK 921   NORMALIZED FREE ENERGY PREDICTED BY IDOCK:    0.55 KCAL/MOL
REMARK 922        TOTAL FREE ENERGY PREDICTED BY IDOCK:   -1.14 KCAL/MOL
REMARK 923 INTER-LIGAND FREE ENERGY PREDICTED BY IDOCK:   -2.07 KCAL/MOL
REMARK 924 INTRA-LIGAND FREE ENERGY PREDICTED BY IDOCK:    0.94 KCAL/MOL
REMARK 927      BINDING AFFINITY PREDICTED BY RF-SCORE:    0.00 PKD
ROOT
HETATM    1  C   UNL     1      -9.479  13.100  69.752  1.00  0.00     2.163 C  
HETATM    2  N   UNL     1     -10.407  12.047  69.378  1.00  0.00     0.206 N  
HETATM    3  O   UNL     1     -11.025  10.513  67.756  1.00  0.00    -0.271 OA 
HETATM    4  C   UNL     1     -10.222  11.323  68.208  1.00  0.00    -0.186 C  
ENDROOT
BRANCH   2   5
HETATM    5  C   UNL     1     -11.660  11.919  70.119  1.00  0.00    -0.167 C  
BRANCH   5   6
HETATM    6  C   UNL     1     -12.640  10.929  69.474  1.00  0.00     0.017 C  
BRANCH   6   7
HETATM    7  C   UNL     1     -12.889   9.719  70.383  1.00  0.00     0.088 C  
BRANCH   7   8
HETATM    8  C   UNL     1     -11.929   9.695  71.579  1.00  0.00    -0.485 C  
BRANCH   8   9
HETATM    9  C   UNL     1     -10.587   9.058  71.202  1.00  0.00    -0.361 C  
BRANCH   9  10
HETATM   10  C   UNL     1      -9.758   8.711  72.442  1.00  0.00    -0.313 C  
BRANCH  10  11
HETATM   11  C   UNL     1      -9.013   7.377  72.318  1.00  0.00    -0.154 C  
BRANCH  11  12
HETATM   12  C   UNL     1      -9.944   6.167  72.328  1.00  0.00    -0.186 C  
BRANCH  12  13
HETATM   13  C   UNL     1     -10.801   6.107  71.066  1.00  0.00    -0.338 C  
BRANCH  13  14
HETATM   14  C   UNL     1     -10.493   4.840  70.282  1.00  0.00     0.024 C  
BRANCH  14  15
HETATM   15  N   UNL     1      -9.074   4.722  69.981  1.00  0.00    -0.098 N  
HETATM   16  C   UNL     1      -8.559   5.366  68.871  1.00  0.00    -0.099 C  
HETATM   17  C   UNL     1      -8.220   3.965  70.885  1.00  0.00    -0.067 C  
HETATM   18  O   UNL     1      -9.232   5.986  68.055  1.00  0.00    -0.117 OA 
BRANCH  16  19
HETATM   19  O   UNL     1      -7.204   5.113  68.710  1.00  0.00    -0.059 OA 
BRANCH  19  20
HETATM   20  C   UNL     1      -6.932   4.177  67.706  1.00  0.00    -0.056 A  
HETATM   21  C   UNL     1      -5.959   3.222  67.974  1.00  0.00    -0.027 A  
HETATM   22  C   UNL     1      -5.752   2.209  67.044  1.00  0.00    -0.019 A  
HETATM   23  C   UNL     1      -6.506   2.157  65.867  1.00  0.00    -0.024 A  
HETATM   24  C   UNL     1      -7.483   3.129  65.587  1.00  0.00    -0.073 A  
HETATM   25  C   UNL     1      -7.711   4.119  66.542  1.00  0.00    -0.090 A  
BRANCH  24  26
HETATM   26  N   UNL     1      -8.354   3.056  64.343  1.00  0.00    -0.086 N  
HETATM   27  C   UNL     1      -7.594   2.436  63.176  1.00  0.00    -0.058 C  
HETATM   28  C   UNL     1      -8.786   4.460  63.902  1.00  0.00    -0.133 C  
HETATM   29  C   UNL     1      -9.575   2.212  64.682  1.00  0.00    -0.044 C  
ENDBRANCH  24  26
ENDBRANCH  19  20
ENDBRANCH  16  19
ENDBRANCH  14  15
ENDBRANCH  13  14
ENDBRANCH  12  13
ENDBRANCH  11  12
ENDBRANCH  10  11
ENDBRANCH   9  10
ENDBRANCH   8   9
ENDBRANCH   7   8
ENDBRANCH   6   7
ENDBRANCH   5   6
ENDBRANCH   2   5
BRANCH   4  30
HETATM   30  O   UNL     1      -9.039  11.667  67.547  1.00  0.00    -0.165 OA 
BRANCH  30  31
HETATM   31  C   UNL     1      -8.285  10.556  67.132  1.00  0.00    -0.123 A  
HETATM   32  C   UNL     1      -8.250   9.407  67.924  1.00  0.00    -0.115 A  
HETATM   33  C   UNL     1      -7.673  10.593  65.876  1.00  0.00    -0.146 A  
HETATM   34  C   UNL     1      -6.968   9.466  65.417  1.00  0.00    -0.090 A  
HETATM   35  C   UNL     1      -7.547   8.299  67.485  1.00  0.00    -0.098 A  
HETATM   36  C   UNL     1      -6.905   8.332  66.248  1.00  0.00    -0.065 A  
BRANCH  34  37
HETATM   37  N   UNL     1      -6.193   9.507  64.105  1.00  0.00    -0.092 N  
HETATM   38  C   UNL     1      -7.124   9.372  62.900  1.00  0.00    -0.099 C  
HETATM   39  C   UNL     1      -5.454  10.836  63.950  1.00  0.00    -0.030 C  
HETATM   40  C   UNL     1      -5.215   8.331  64.124  1.00  0.00    -0.040 C  
ENDBRANCH  34  37
ENDBRANCH  30  31
ENDBRANCH   4  30
TORSDOF 17
ENDMDL
MODEL      306
REMARK 921   NORMALIZED FREE ENERGY PREDICTED BY IDOCK:    0.60 KCAL/MOL
REMARK 922        TOTAL FREE ENERGY PREDICTED BY IDOCK:   -1.04 KCAL/MOL
REMARK 923 INTER-LIGAND FREE ENERGY PREDICTED BY IDOCK:   -2.89 KCAL/MOL
REMARK 924 INTRA-LIGAND FREE ENERGY PREDICTED BY IDOCK:    1.85 KCAL/MOL
REMARK 927      BINDING AFFINITY PREDICTED BY RF-SCORE:    0.00 PKD
ROOT
HETATM    1  C   UNL     1     -11.423  13.620  68.817  1.00  0.00    -0.309 C  
HETATM    2  N   UNL     1     -11.600  14.346  67.572  1.00  0.00    -0.355 N  
HETATM    3  O   UNL     1     -12.319  14.250  65.371  1.00  0.00    -0.417 OA 
HETATM    4  C   UNL     1     -12.245  13.757  66.493  1.00  0.00    -0.430 C  
ENDROOT
BRANCH   2   5
HETATM    5  C   UNL     1     -10.885  15.608  67.388  1.00  0.00    -0.315 C  
BRANCH   5   6
HETATM    6  C   UNL     1      -9.963  15.951  68.567  1.00  0.00    -0.216 C  
BRANCH   6   7
HETATM    7  C   UNL     1      -9.333  14.689  69.167  1.00  0.00    -0.051 C  
BRANCH   7   8
HETATM    8  C   UNL     1      -7.803  14.704  69.053  1.00  0.00    -0.133 C  
BRANCH   8   9
HETATM    9  C   UNL     1      -7.278  13.393  68.459  1.00  0.00    -0.110 C  
BRANCH   9  10
HETATM   10  C   UNL     1      -5.772  13.231  68.689  1.00  0.00    -0.079 C  
BRANCH  10  11
HETATM   11  C   UNL     1      -5.261  11.820  68.380  1.00  0.00    -0.042 C  
BRANCH  11  12
HETATM   12  C   UNL     1      -5.175  10.929  69.618  1.00  0.00    -0.038 C  
BRANCH  12  13
HETATM   13  C   UNL     1      -6.357  11.158  70.557  1.00  0.00     0.065 C  
BRANCH  13  14
HETATM   14  C   UNL     1      -7.338  10.000  70.458  1.00  0.00     0.013 C  
BRANCH  14  15
HETATM   15  N   UNL     1      -6.778   8.770  71.000  1.00  0.00    -0.062 N  
HETATM   16  C   UNL     1      -6.004   7.961  70.189  1.00  0.00    -0.022 C  
HETATM   17  C   UNL     1      -7.010   8.444  72.400  1.00  0.00    -0.088 C  
HETATM   18  O   UNL     1      -5.804   8.164  68.996  1.00  0.00    -0.033 OA 
BRANCH  16  19
HETATM   19  O   UNL     1      -5.589   6.813  70.849  1.00  0.00    -0.026 OA 
BRANCH  19  20
HETATM   20  C   UNL     1      -6.380   5.695  70.564  1.00  0.00    -0.031 A  
HETATM   21  C   UNL     1      -6.388   4.666  71.499  1.00  0.00    -0.019 A  
HETATM   22  C   UNL     1      -7.255   3.598  71.300  1.00  0.00    -0.033 A  
HETATM   23  C   UNL     1      -8.096   3.562  70.183  1.00  0.00    -0.057 A  
HETATM   24  C   UNL     1      -8.082   4.594  69.229  1.00  0.00    -0.069 A  
HETATM   25  C   UNL     1      -7.238   5.680  69.455  1.00  0.00    -0.066 A  
BRANCH  24  26
HETATM   26  N   UNL     1      -9.031   4.602  68.041  1.00  0.00    -0.110 N  
HETATM   27  C   UNL     1      -8.786   5.817  67.152  1.00  0.00    -0.108 C  
HETATM   28  C   UNL     1     -10.489   4.679  68.513  1.00  0.00     0.353 C  
HETATM   29  C   UNL     1      -8.799   3.321  67.254  1.00  0.00    -0.134 C  
ENDBRANCH  24  26
ENDBRANCH  19  20
ENDBRANCH  16  19
ENDBRANCH  14  15
ENDBRANCH  13  14
ENDBRANCH  12  13
ENDBRANCH  11  12
ENDBRANCH  10  11
ENDBRANCH   9  10
ENDBRANCH   8   9
ENDBRANCH   7   8
ENDBRANCH   6   7
ENDBRANCH   5   6
ENDBRANCH   2   5
BRANCH   4  30
HETATM   30  O   UNL     1     -12.751  12.490  66.799  1.00  0.00     0.163 OA 
BRANCH  30  31
HETATM   31  C   UNL     1     -11.768  11.486  66.820  1.00  0.00     0.095 A  
HETATM   32  C   UNL     1     -11.733  10.571  67.874  1.00  0.00     0.176 A  
HETATM   33  C   UNL     1     -10.913  11.361  65.721  1.00  0.00    -0.256 A  
HETATM   34  C   UNL     1      -9.966  10.323  65.695  1.00  0.00    -0.280 A  
HETATM   35  C   UNL     1     -10.795   9.555  67.863  1.00  0.00    -0.240 A  
HETATM   36  C   UNL     1      -9.914   9.437  66.788  1.00  0.00    -0.305 A  
BRANCH  34  37
HETATM   37  N   UNL     1      -8.943  10.222  64.570  1.00  0.00    -0.200 N  
HETATM   38  C   UNL     1      -8.842  11.531  63.785  1.00  0.00     0.366 C  
HETATM   39  C   UNL     1      -7.549   9.929  65.126  1.00  0.00    -0.132 C  
HETATM   40  C   UNL     1      -9.410   9.105  63.635  1.00  0.00     0.643 C  
ENDBRANCH  34  37
ENDBRANCH  30  31
ENDBRANCH   4  30
TORSDOF 17
ENDMDL
MODEL      307
REMARK 921   NORMALIZED FREE ENERGY PREDICTED BY IDOCK:    0.65 KCAL/MOL
REMARK 922        TOTAL FREE ENERGY PREDICTED BY IDOCK:   -0.94 KCAL/MOL
REMARK 923 INTER-LIGAND FREE ENERGY PREDICTED BY IDOCK:   -4.52 KCAL/MOL
REMARK 924 INTRA-LIGAND FREE ENERGY PREDICTED BY IDOCK:    3.59 KCAL/MOL
REMARK 927      BINDING AFFINITY PREDICTED BY RF-SCORE:    0.00 PKD
ROOT
HETATM    1  C   UNL     1      -9.771  13.147  69.490  1.00  0.00     1.224 C  
HETATM    2  N   UNL     1     -10.489  11.931  69.149  1.00  0.00    -0.074 N  
HETATM    3  O   UNL     1     -10.896  10.325  67.530  1.00  0.00    -0.276 OA 
HETATM    4  C   UNL     1     -10.244  11.276  67.950  1.00  0.00    -0.181 C  
ENDROOT
BRANCH   2   5
HETATM    5  C   UNL     1     -11.635  11.540  69.969  1.00  0.00    -0.282 C  
BRANCH   5   6
HETATM    6  C   UNL     1     -12.431  10.374  69.367  1.00  0.00     0.255 C  
BRANCH   6   7
HETATM    7  C   UNL     1     -12.552   9.211  70.359  1.00  0.00     0.419 C  
BRANCH   7   8
HETATM    8  C   UNL     1     -11.559   9.344  71.521  1.00  0.00    -0.467 C  
BRANCH   8   9
HETATM    9  C   UNL     1     -10.241   8.629  71.210  1.00  0.00    -0.308 C  
BRANCH   9  10
HETATM   10  C   UNL     1      -9.466   8.289  72.487  1.00  0.00    -0.356 C  
BRANCH  10  11
HETATM   11  C   UNL     1      -8.761   6.931  72.424  1.00  0.00    -0.134 C  
BRANCH  11  12
HETATM   12  C   UNL     1      -9.728   5.749  72.469  1.00  0.00    -0.175 C  
BRANCH  12  13
HETATM   13  C   UNL     1     -10.510   5.614  71.165  1.00  0.00    -0.306 C  
BRANCH  13  14
HETATM   14  C   UNL     1     -10.143   4.314  70.465  1.00  0.00    -0.056 C  
BRANCH  14  15
HETATM   15  N   UNL     1      -8.709   4.209  70.237  1.00  0.00    -0.072 N  
HETATM   16  C   UNL     1      -8.131   4.917  69.199  1.00  0.00    -0.079 C  
HETATM   17  C   UNL     1      -7.907   3.396  71.141  1.00  0.00    -0.054 C  
HETATM   18  O   UNL     1      -8.758   5.587  68.385  1.00  0.00    -0.106 OA 
BRANCH  16  19
HETATM   19  O   UNL     1      -6.770   4.668  69.099  1.00  0.00    -0.043 OA 
BRANCH  19  20
HETATM   20  C   UNL     1      -6.439   3.828  68.031  1.00  0.00    -0.038 A  
HETATM   21  C   UNL     1      -5.528   2.808  68.283  1.00  0.00    -0.017 A  
HETATM   22  C   UNL     1      -5.271   1.886  67.274  1.00  0.00    -0.008 A  
HETATM   23  C   UNL     1      -5.913   1.988  66.036  1.00  0.00    -0.022 A  
HETATM   24  C   UNL     1      -6.825   3.025  65.773  1.00  0.00    -0.048 A  
HETATM   25  C   UNL     1      -7.107   3.923  66.802  1.00  0.00    -0.063 A  
BRANCH  24  26
HETATM   26  N   UNL     1      -7.578   3.117  64.455  1.00  0.00    -0.075 N  
HETATM   27  C   UNL     1      -6.719   2.623  63.296  1.00  0.00    -0.027 C  
HETATM   28  C   UNL     1      -7.954   4.572  64.147  1.00  0.00    -0.093 C  
HETATM   29  C   UNL     1      -8.833   2.264  64.579  1.00  0.00    -0.108 C  
ENDBRANCH  24  26
ENDBRANCH  19  20
ENDBRANCH  16  19
ENDBRANCH  14  15
ENDBRANCH  13  14
ENDBRANCH  12  13
ENDBRANCH  11  12
ENDBRANCH  10  11
ENDBRANCH   9  10
ENDBRANCH   8   9
ENDBRANCH   7   8
ENDBRANCH   6   7
ENDBRANCH   5   6
ENDBRANCH   2   5
BRANCH   4  30
HETATM   30  O   UNL     1      -9.206  11.865  67.221  1.00  0.00    -0.172 OA 
BRANCH  30  31
HETATM   31  C   UNL     1      -9.532  13.131  66.706  1.00  0.00    -0.252 A  
HETATM   32  C   UNL     1     -10.252  13.231  65.514  1.00  0.00    -0.298 A  
HETATM   33  C   UNL     1      -9.218  14.263  67.463  1.00  0.00    -0.197 A  
HETATM   34  C   UNL     1      -9.593  15.534  66.993  1.00  0.00    -0.224 A  
HETATM   35  C   UNL     1     -10.613  14.478  65.039  1.00  0.00    -0.458 A  
HETATM   36  C   UNL     1     -10.278  15.619  65.767  1.00  0.00    -0.391 A  
BRANCH  34  37
HETATM   37  N   UNL     1      -9.170  16.799  67.731  1.00  0.00    -0.220 N  
HETATM   38  C   UNL     1      -9.984  17.001  69.010  1.00  0.00    -0.269 C  
HETATM   39  C   UNL     1      -7.701  16.721  68.148  1.00  0.00    -0.180 C  
HETATM   40  C   UNL     1      -9.414  17.976  66.784  1.00  0.00    -0.293 C  
ENDBRANCH  34  37
ENDBRANCH  30  31
ENDBRANCH   4  30
TORSDOF 17
ENDMDL
MODEL      308
REMARK 921   NORMALIZED FREE ENERGY PREDICTED BY IDOCK:    1.30 KCAL/MOL
REMARK 922        TOTAL FREE ENERGY PREDICTED BY IDOCK:    0.36 KCAL/MOL
REMARK 923 INTER-LIGAND FREE ENERGY PREDICTED BY IDOCK:   -4.76 KCAL/MOL
REMARK 924 INTRA-LIGAND FREE ENERGY PREDICTED BY IDOCK:    5.12 KCAL/MOL
REMARK 927      BINDING AFFINITY PREDICTED BY RF-SCORE:    0.00 PKD
ROOT
HETATM    1  C   UNL     1     -10.677  13.103  68.308  1.00  0.00    -0.245 C  
HETATM    2  N   UNL     1     -11.064  14.172  67.403  1.00  0.00    -0.298 N  
HETATM    3  O   UNL     1     -12.345  14.774  65.569  1.00  0.00    -0.207 OA 
HETATM    4  C   UNL     1     -12.054  13.972  66.451  1.00  0.00    -0.455 C  
ENDROOT
BRANCH   2   5
HETATM    5  C   UNL     1     -10.239  15.377  67.349  1.00  0.00    -0.249 C  
BRANCH   5   6
HETATM    6  C   UNL     1      -9.278  15.500  68.540  1.00  0.00    -0.197 C  
BRANCH   6   7
HETATM    7  C   UNL     1      -8.783  14.123  69.001  1.00  0.00     0.116 C  
BRANCH   7   8
HETATM    8  C   UNL     1      -7.271  13.961  68.800  1.00  0.00    -0.106 C  
BRANCH   8   9
HETATM    9  C   UNL     1      -6.964  12.997  67.650  1.00  0.00    -0.154 C  
BRANCH   9  10
HETATM   10  C   UNL     1      -5.459  12.751  67.505  1.00  0.00    -0.091 C  
BRANCH  10  11
HETATM   11  C   UNL     1      -5.127  11.469  66.735  1.00  0.00    -0.116 C  
BRANCH  11  12
HETATM   12  C   UNL     1      -5.485  10.198  67.502  1.00  0.00    -0.041 C  
BRANCH  12  13
HETATM   13  C   UNL     1      -6.466  10.485  68.636  1.00  0.00    -0.051 C  
BRANCH  13  14
HETATM   14  C   UNL     1      -7.855   9.987  68.267  1.00  0.00    -0.089 C  
BRANCH  14  15
HETATM   15  N   UNL     1      -8.011   8.566  68.542  1.00  0.00    -0.115 N  
HETATM   16  C   UNL     1      -7.349   7.644  67.751  1.00  0.00    -0.099 C  
HETATM   17  C   UNL     1      -8.825   8.150  69.675  1.00  0.00    -0.143 C  
HETATM   18  O   UNL     1      -6.680   7.932  66.764  1.00  0.00    -0.060 OA 
BRANCH  16  19
HETATM   19  O   UNL     1      -7.642   6.340  68.123  1.00  0.00    -0.098 OA 
BRANCH  19  20
HETATM   20  C   UNL     1      -8.572   5.721  67.281  1.00  0.00    -0.109 A  
HETATM   21  C   UNL     1      -9.914   5.830  67.628  1.00  0.00    -0.165 A  
HETATM   22  C   UNL     1     -10.867   5.328  66.748  1.00  0.00    -0.124 A  
HETATM   23  C   UNL     1     -10.481   4.727  65.546  1.00  0.00    -0.168 A  
HETATM   24  C   UNL     1      -9.125   4.604  65.198  1.00  0.00    -0.155 A  
HETATM   25  C   UNL     1      -8.176   5.144  66.066  1.00  0.00    -0.114 A  
BRANCH  24  26
HETATM   26  N   UNL     1      -8.687   4.009  63.869  1.00  0.00    -0.108 N  
HETATM   27  C   UNL     1      -8.419   5.102  62.840  1.00  0.00    -0.110 C  
HETATM   28  C   UNL     1      -9.786   3.108  63.291  1.00  0.00    -0.111 C  
HETATM   29  C   UNL     1      -7.421   3.201  64.118  1.00  0.00    -0.070 C  
ENDBRANCH  24  26
ENDBRANCH  19  20
ENDBRANCH  16  19
ENDBRANCH  14  15
ENDBRANCH  13  14
ENDBRANCH  12  13
ENDBRANCH  11  12
ENDBRANCH  10  11
ENDBRANCH   9  10
ENDBRANCH   8   9
ENDBRANCH   7   8
ENDBRANCH   6   7
ENDBRANCH   5   6
ENDBRANCH   2   5
BRANCH   4  30
HETATM   30  O   UNL     1     -12.648  12.711  66.554  1.00  0.00    -0.252 OA 
BRANCH  30  31
HETATM   31  C   UNL     1     -11.734  11.650  66.442  1.00  0.00     0.075 A  
HETATM   32  C   UNL     1     -11.710  10.648  67.414  1.00  0.00     0.470 A  
HETATM   33  C   UNL     1     -10.940  11.568  65.294  1.00  0.00    -0.291 A  
HETATM   34  C   UNL     1     -10.065  10.479  65.134  1.00  0.00    -0.314 A  
HETATM   35  C   UNL     1     -10.842   9.580  67.270  1.00  0.00    -0.188 A  
HETATM   36  C   UNL     1     -10.022   9.502  66.146  1.00  0.00    -0.342 A  
BRANCH  34  37
HETATM   37  N   UNL     1      -9.103  10.413  63.953  1.00  0.00    -0.223 N  
HETATM   38  C   UNL     1      -9.104   9.027  63.307  1.00  0.00     0.324 C  
HETATM   39  C   UNL     1      -9.504  11.411  62.867  1.00  0.00    -0.345 C  
HETATM   40  C   UNL     1      -7.705  10.718  64.494  1.00  0.00     0.261 C  
ENDBRANCH  34  37
ENDBRANCH  30  31
ENDBRANCH   4  30
TORSDOF 17
ENDMDL
MODEL      309
REMARK 921   NORMALIZED FREE ENERGY PREDICTED BY IDOCK:    2.12 KCAL/MOL
REMARK 922        TOTAL FREE ENERGY PREDICTED BY IDOCK:    1.99 KCAL/MOL
REMARK 923 INTER-LIGAND FREE ENERGY PREDICTED BY IDOCK:    1.23 KCAL/MOL
REMARK 924 INTRA-LIGAND FREE ENERGY PREDICTED BY IDOCK:    0.76 KCAL/MOL
REMARK 927      BINDING AFFINITY PREDICTED BY RF-SCORE:    0.00 PKD
ROOT
HETATM    1  C   UNL     1     -10.430   7.438  69.134  1.00  0.00    -0.213 C  
HETATM    2  N   UNL     1     -10.406   5.989  69.029  1.00  0.00    -0.201 N  
HETATM    3  O   UNL     1     -10.751   4.152  67.660  1.00  0.00     0.813 OA 
HETATM    4  C   UNL     1     -10.624   5.363  67.809  1.00  0.00    -0.098 C  
ENDROOT
BRANCH   2   5
HETATM    5  C   UNL     1     -10.386   5.196  70.257  1.00  0.00    -0.261 C  
BRANCH   5   6
HETATM    6  C   UNL     1      -9.045   5.276  71.000  1.00  0.00    -0.171 C  
BRANCH   6   7
HETATM    7  C   UNL     1      -9.009   6.475  71.956  1.00  0.00    -0.140 C  
BRANCH   7   8
HETATM    8  C   UNL     1      -8.386   7.713  71.300  1.00  0.00    -0.108 C  
BRANCH   8   9
HETATM    9  C   UNL     1      -6.904   7.850  71.665  1.00  0.00    -0.057 C  
BRANCH   9  10
HETATM   10  C   UNL     1      -6.456   9.314  71.670  1.00  0.00     0.029 C  
BRANCH  10  11
HETATM   11  C   UNL     1      -6.430   9.935  73.071  1.00  0.00     1.422 C  
BRANCH  11  12
HETATM   12  C   UNL     1      -5.572  11.196  73.153  1.00  0.00     1.306 C  
BRANCH  12  13
HETATM   13  C   UNL     1      -5.315  11.791  71.771  1.00  0.00     0.251 C  
BRANCH  13  14
HETATM   14  C   UNL     1      -5.468  13.304  71.813  1.00  0.00    -0.049 C  
BRANCH  14  15
HETATM   15  N   UNL     1      -6.000  13.828  70.564  1.00  0.00    -0.173 N  
HETATM   16  C   UNL     1      -6.471  12.951  69.604  1.00  0.00    -0.044 C  
HETATM   17  C   UNL     1      -6.068  15.270  70.374  1.00  0.00    -0.071 C  
HETATM   18  O   UNL     1      -6.406  11.729  69.691  1.00  0.00    -0.112 OA 
BRANCH  16  19
HETATM   19  O   UNL     1      -6.900  13.614  68.463  1.00  0.00    -0.083 OA 
BRANCH  19  20
HETATM   20  C   UNL     1      -8.284  13.546  68.272  1.00  0.00    -0.157 A  
HETATM   21  C   UNL     1      -9.089  13.698  69.395  1.00  0.00     0.878 A  
HETATM   22  C   UNL     1     -10.467  13.755  69.217  1.00  0.00     0.040 A  
HETATM   23  C   UNL     1     -11.026  13.657  67.939  1.00  0.00    -0.277 A  
HETATM   24  C   UNL     1     -10.215  13.491  66.802  1.00  0.00    -0.264 A  
HETATM   25  C   UNL     1      -8.833  13.474  66.984  1.00  0.00    -0.219 A  
BRANCH  24  26
HETATM   26  N   UNL     1     -10.799  13.445  65.399  1.00  0.00    -0.288 N  
HETATM   27  C   UNL     1     -10.881  12.011  64.887  1.00  0.00    -0.301 C  
HETATM   28  C   UNL     1      -9.912  14.222  64.418  1.00  0.00     0.873 C  
HETATM   29  C   UNL     1     -12.189  14.063  65.455  1.00  0.00    -0.439 C  
ENDBRANCH  24  26
ENDBRANCH  19  20
ENDBRANCH  16  19
ENDBRANCH  14  15
ENDBRANCH  13  14
ENDBRANCH  12  13
ENDBRANCH  11  12
ENDBRANCH  10  11
ENDBRANCH   9  10
ENDBRANCH   8   9
ENDBRANCH   7   8
ENDBRANCH   6   7
ENDBRANCH   5   6
ENDBRANCH   2   5
BRANCH   4  30
HETATM   30  O   UNL     1     -10.760   6.274  66.758  1.00  0.00    -0.290 OA 
BRANCH  30  31
HETATM   31  C   UNL     1      -9.594   6.419  65.987  1.00  0.00     0.087 A  
HETATM   32  C   UNL     1      -8.774   5.313  65.756  1.00  0.00    -0.143 A  
HETATM   33  C   UNL     1      -9.341   7.651  65.378  1.00  0.00     0.496 A  
HETATM   34  C   UNL     1      -8.213   7.796  64.552  1.00  0.00    -0.056 A  
HETATM   35  C   UNL     1      -7.654   5.451  64.955  1.00  0.00    -0.080 A  
HETATM   36  C   UNL     1      -7.372   6.683  64.367  1.00  0.00    -0.087 A  
BRANCH  34  37
HETATM   37  N   UNL     1      -7.841   9.152  63.962  1.00  0.00    -0.122 N  
HETATM   38  C   UNL     1      -8.873   9.618  62.934  1.00  0.00    -0.245 C  
HETATM   39  C   UNL     1      -7.785  10.223  65.052  1.00  0.00    -0.129 C  
HETATM   40  C   UNL     1      -6.483   8.988  63.278  1.00  0.00    -0.090 C  
ENDBRANCH  34  37
ENDBRANCH  30  31
ENDBRANCH   4  30
TORSDOF 17
ENDMDL
MODEL      310
REMARK 921   NORMALIZED FREE ENERGY PREDICTED BY IDOCK:    2.36 KCAL/MOL
REMARK 922        TOTAL FREE ENERGY PREDICTED BY IDOCK:    2.48 KCAL/MOL
REMARK 923 INTER-LIGAND FREE ENERGY PREDICTED BY IDOCK:   -3.73 KCAL/MOL
REMARK 924 INTRA-LIGAND FREE ENERGY PREDICTED BY IDOCK:    6.22 KCAL/MOL
REMARK 927      BINDING AFFINITY PREDICTED BY RF-SCORE:    0.00 PKD
ROOT
HETATM    1  C   UNL     1      -9.211   6.613  67.932  1.00  0.00    -0.111 C  
HETATM    2  N   UNL     1      -9.320   7.130  66.578  1.00  0.00    -0.169 N  
HETATM    3  O   UNL     1      -8.237   7.492  64.563  1.00  0.00    -0.122 OA 
HETATM    4  C   UNL     1      -8.278   6.975  65.675  1.00  0.00    -0.134 C  
ENDROOT
BRANCH   2   5
HETATM    5  C   UNL     1     -10.436   8.016  66.254  1.00  0.00     0.539 C  
BRANCH   5   6
HETATM    6  C   UNL     1     -10.020   9.489  66.145  1.00  0.00    -0.342 C  
BRANCH   6   7
HETATM    7  C   UNL     1     -11.221  10.423  66.336  1.00  0.00     0.349 C  
BRANCH   7   8
HETATM    8  C   UNL     1     -11.658  11.071  65.016  1.00  0.00     0.555 C  
BRANCH   8   9
HETATM    9  C   UNL     1     -10.657  10.778  63.895  1.00  0.00    -0.149 C  
BRANCH   9  10
HETATM   10  C   UNL     1      -9.471  11.745  63.928  1.00  0.00    -0.053 C  
BRANCH  10  11
HETATM   11  C   UNL     1      -9.588  12.811  65.023  1.00  0.00     0.161 C  
BRANCH  11  12
HETATM   12  C   UNL     1      -9.386  12.250  66.429  1.00  0.00    -0.219 C  
BRANCH  12  13
HETATM   13  C   UNL     1      -8.325  13.034  67.198  1.00  0.00    -0.153 C  
BRANCH  13  14
HETATM   14  C   UNL     1      -8.986  14.056  68.111  1.00  0.00    -0.183 C  
BRANCH  14  15
HETATM   15  N   UNL     1      -8.227  15.297  68.171  1.00  0.00    -0.138 N  
HETATM   16  C   UNL     1      -8.569  16.259  69.103  1.00  0.00    -0.212 C  
HETATM   17  C   UNL     1      -7.094  15.476  67.274  1.00  0.00    -0.190 C  
HETATM   18  O   UNL     1      -9.532  16.181  69.858  1.00  0.00    -0.014 OA 
BRANCH  16  19
HETATM   19  O   UNL     1      -7.774  17.391  68.993  1.00  0.00    -0.238 OA 
BRANCH  19  20
HETATM   20  C   UNL     1      -8.079  18.173  67.873  1.00  0.00    -0.247 A  
HETATM   21  C   UNL     1      -9.420  18.450  67.637  1.00  0.00    -0.281 A  
HETATM   22  C   UNL     1      -9.743  19.322  66.603  1.00  0.00    -0.421 A  
HETATM   23  C   UNL     1      -8.739  19.901  65.820  1.00  0.00    -0.005 A  
HETATM   24  C   UNL     1      -7.383  19.613  66.047  1.00  0.00    -0.298 A  
HETATM   25  C   UNL     1      -7.064  18.768  67.110  1.00  0.00    -0.212 A  
BRANCH  24  26
HETATM   26  N   UNL     1      -6.275  20.279  65.246  1.00  0.00    -0.235 N  
HETATM   27  C   UNL     1      -5.554  21.334  66.079  1.00  0.00    -0.236 C  
HETATM   28  C   UNL     1      -6.850  20.993  64.017  1.00  0.00     0.154 C  
HETATM   29  C   UNL     1      -5.299  19.193  64.816  1.00  0.00    -0.198 C  
ENDBRANCH  24  26
ENDBRANCH  19  20
ENDBRANCH  16  19
ENDBRANCH  14  15
ENDBRANCH  13  14
ENDBRANCH  12  13
ENDBRANCH  11  12
ENDBRANCH  10  11
ENDBRANCH   9  10
ENDBRANCH   8   9
ENDBRANCH   7   8
ENDBRANCH   6   7
ENDBRANCH   5   6
ENDBRANCH   2   5
BRANCH   4  30
HETATM   30  O   UNL     1      -7.226   6.216  66.196  1.00  0.00    -0.072 OA 
BRANCH  30  31
HETATM   31  C   UNL     1      -7.608   4.918  66.577  1.00  0.00    -0.088 A  
HETATM   32  C   UNL     1      -7.527   3.872  65.656  1.00  0.00    -0.081 A  
HETATM   33  C   UNL     1      -7.958   4.686  67.911  1.00  0.00    -0.089 A  
HETATM   34  C   UNL     1      -8.281   3.383  68.324  1.00  0.00    -0.077 A  
HETATM   35  C   UNL     1      -7.856   2.588  66.052  1.00  0.00    -0.081 A  
HETATM   36  C   UNL     1      -8.238   2.348  67.371  1.00  0.00    -0.077 A  
BRANCH  34  37
HETATM   37  N   UNL     1      -8.776   3.109  69.740  1.00  0.00    -0.066 N  
HETATM   38  C   UNL     1      -9.759   4.184  70.207  1.00  0.00    -0.207 C  
HETATM   39  C   UNL     1      -9.514   1.772  69.809  1.00  0.00    -0.054 C  
HETATM   40  C   UNL     1      -7.551   3.111  70.654  1.00  0.00    -0.040 C  
ENDBRANCH  34  37
ENDBRANCH  30  31
ENDBRANCH   4  30
TORSDOF 17
ENDMDL
MODEL      311
REMARK 921   NORMALIZED FREE ENERGY PREDICTED BY IDOCK:    2.46 KCAL/MOL
REMARK 922        TOTAL FREE ENERGY PREDICTED BY IDOCK:    2.67 KCAL/MOL
REMARK 923 INTER-LIGAND FREE ENERGY PREDICTED BY IDOCK:   -1.28 KCAL/MOL
REMARK 924 INTRA-LIGAND FREE ENERGY PREDICTED BY IDOCK:    3.94 KCAL/MOL
REMARK 927      BINDING AFFINITY PREDICTED BY RF-SCORE:    0.00 PKD
ROOT
HETATM    1  C   UNL     1     -11.066   9.230  72.705  1.00  0.00     1.164 C  
HETATM    2  N   UNL     1     -12.023   9.501  71.645  1.00  0.00    -0.384 N  
HETATM    3  O   UNL     1     -13.662   8.627  70.261  1.00  0.00     1.199 OA 
HETATM    4  C   UNL     1     -12.917   8.523  71.231  1.00  0.00    -0.159 C  
ENDROOT
BRANCH   2   5
HETATM    5  C   UNL     1     -11.876  10.727  70.864  1.00  0.00    -0.297 C  
BRANCH   5   6
HETATM    6  C   UNL     1     -12.192  10.531  69.375  1.00  0.00    -0.094 C  
BRANCH   6   7
HETATM    7  C   UNL     1     -11.392  11.506  68.502  1.00  0.00    -0.337 C  
BRANCH   7   8
HETATM    8  C   UNL     1     -10.270  12.192  69.290  1.00  0.00     0.286 C  
BRANCH   8   9
HETATM    9  C   UNL     1     -10.387  13.717  69.212  1.00  0.00     0.105 C  
BRANCH   9  10
HETATM   10  C   UNL     1      -9.350  14.317  68.257  1.00  0.00    -0.208 C  
BRANCH  10  11
HETATM   11  C   UNL     1      -7.985  13.624  68.334  1.00  0.00    -0.147 C  
BRANCH  11  12
HETATM   12  C   UNL     1      -7.437  13.534  69.757  1.00  0.00     0.752 C  
BRANCH  12  13
HETATM   13  C   UNL     1      -7.367  14.907  70.419  1.00  0.00     0.492 C  
BRANCH  13  14
HETATM   14  C   UNL     1      -6.464  15.832  69.618  1.00  0.00    -0.181 C  
BRANCH  14  15
HETATM   15  N   UNL     1      -7.059  17.148  69.439  1.00  0.00    -0.168 N  
HETATM   16  C   UNL     1      -6.292  18.277  69.658  1.00  0.00    -0.183 C  
HETATM   17  C   UNL     1      -8.441  17.243  68.988  1.00  0.00    -0.080 C  
HETATM   18  O   UNL     1      -5.138  18.261  70.072  1.00  0.00    -0.184 OA 
BRANCH  16  19
HETATM   19  O   UNL     1      -7.026  19.442  69.485  1.00  0.00    -0.319 OA 
BRANCH  19  20
HETATM   20  C   UNL     1      -7.484  19.618  68.175  1.00  0.00    -0.304 A  
HETATM   21  C   UNL     1      -6.543  19.975  67.216  1.00  0.00    -0.237 A  
HETATM   22  C   UNL     1      -6.946  20.040  65.887  1.00  0.00    -0.305 A  
HETATM   23  C   UNL     1      -8.268  19.756  65.528  1.00  0.00     0.264 A  
HETATM   24  C   UNL     1      -9.225  19.407  66.497  1.00  0.00    -0.356 A  
HETATM   25  C   UNL     1      -8.805  19.306  67.822  1.00  0.00    -0.348 A  
BRANCH  24  26
HETATM   26  N   UNL     1     -10.651  19.036  66.120  1.00  0.00    -0.442 N  
HETATM   27  C   UNL     1     -10.695  17.694  65.398  1.00  0.00     0.042 C  
HETATM   28  C   UNL     1     -11.248  20.079  65.167  1.00  0.00     0.792 C  
HETATM   29  C   UNL     1     -11.465  18.968  67.404  1.00  0.00     0.733 C  
ENDBRANCH  24  26
ENDBRANCH  19  20
ENDBRANCH  16  19
ENDBRANCH  14  15
ENDBRANCH  13  14
ENDBRANCH  12  13
ENDBRANCH  11  12
ENDBRANCH  10  11
ENDBRANCH   9  10
ENDBRANCH   8   9
ENDBRANCH   7   8
ENDBRANCH   6   7
ENDBRANCH   5   6
ENDBRANCH   2   5
BRANCH   4  30
HETATM   30  O   UNL     1     -12.830   7.358  71.999  1.00  0.00    -0.273 OA 
BRANCH  30  31
HETATM   31  C   UNL     1     -11.660   6.617  71.761  1.00  0.00    -0.304 A  
HETATM   32  C   UNL     1     -11.215   5.699  72.714  1.00  0.00    -0.347 A  
HETATM   33  C   UNL     1     -11.029   6.740  70.520  1.00  0.00    -0.327 A  
HETATM   34  C   UNL     1      -9.895   5.959  70.240  1.00  0.00    -0.185 A  
HETATM   35  C   UNL     1     -10.091   4.935  72.452  1.00  0.00    -0.240 A  
HETATM   36  C   UNL     1      -9.433   5.071  71.230  1.00  0.00    -0.209 A  
BRANCH  34  37
HETATM   37  N   UNL     1      -9.112   6.146  68.945  1.00  0.00    -0.123 N  
HETATM   38  C   UNL     1      -7.654   5.714  69.104  1.00  0.00    -0.088 C  
HETATM   39  C   UNL     1      -9.708   5.298  67.822  1.00  0.00    -0.140 C  
HETATM   40  C   UNL     1      -9.164   7.635  68.600  1.00  0.00    -0.141 C  
ENDBRANCH  34  37
ENDBRANCH  30  31
ENDBRANCH   4  30
TORSDOF 17
ENDMDL
MODEL      312
REMARK 921   NORMALIZED FREE ENERGY PREDICTED BY IDOCK:    2.72 KCAL/MOL
REMARK 922        TOTAL FREE ENERGY PREDICTED BY IDOCK:    3.18 KCAL/MOL
REMARK 923 INTER-LIGAND FREE ENERGY PREDICTED BY IDOCK:   -0.67 KCAL/MOL
REMARK 924 INTRA-LIGAND FREE ENERGY PREDICTED BY IDOCK:    3.85 KCAL/MOL
REMARK 927      BINDING AFFINITY PREDICTED BY RF-SCORE:    0.00 PKD
ROOT
HETATM    1  C   UNL     1     -13.189   8.848  69.719  1.00  0.00     2.948 C  
HETATM    2  N   UNL     1     -11.797   8.534  69.444  1.00  0.00     0.957 N  
HETATM    3  O   UNL     1      -9.588   8.896  70.041  1.00  0.00    -0.166 OA 
HETATM    4  C   UNL     1     -10.788   9.004  70.274  1.00  0.00    -0.238 C  
ENDROOT
BRANCH   2   5
HETATM    5  C   UNL     1     -11.456   7.923  68.161  1.00  0.00     1.158 C  
BRANCH   5   6
HETATM    6  C   UNL     1     -10.116   8.419  67.599  1.00  0.00    -0.268 C  
BRANCH   6   7
HETATM    7  C   UNL     1     -10.244   8.813  66.122  1.00  0.00    -0.028 C  
BRANCH   7   8
HETATM    8  C   UNL     1     -10.045  10.320  65.913  1.00  0.00    -0.319 C  
BRANCH   8   9
HETATM    9  C   UNL     1      -8.612  10.743  66.249  1.00  0.00    -0.163 C  
BRANCH   9  10
HETATM   10  C   UNL     1      -7.623  10.302  65.166  1.00  0.00    -0.133 C  
BRANCH  10  11
HETATM   11  C   UNL     1      -6.163  10.332  65.631  1.00  0.00    -0.113 C  
BRANCH  11  12
HETATM   12  C   UNL     1      -5.966   9.752  67.030  1.00  0.00    -0.055 C  
BRANCH  12  13
HETATM   13  C   UNL     1      -7.025   8.701  67.355  1.00  0.00    -0.078 C  
BRANCH  13  14
HETATM   14  C   UNL     1      -6.863   7.493  66.443  1.00  0.00    -0.061 C  
BRANCH  14  15
HETATM   15  N   UNL     1      -6.414   6.319  67.177  1.00  0.00    -0.051 N  
HETATM   16  C   UNL     1      -7.174   5.165  67.144  1.00  0.00    -0.081 C  
HETATM   17  C   UNL     1      -5.147   6.375  67.893  1.00  0.00    -0.004 C  
HETATM   18  O   UNL     1      -8.264   5.069  66.591  1.00  0.00    -0.108 OA 
BRANCH  16  19
HETATM   19  O   UNL     1      -6.624   4.162  67.930  1.00  0.00    -0.041 OA 
BRANCH  19  20
HETATM   20  C   UNL     1      -6.642   4.458  69.297  1.00  0.00    -0.040 A  
HETATM   21  C   UNL     1      -5.416   4.541  69.946  1.00  0.00    -0.008 A  
HETATM   22  C   UNL     1      -5.396   4.951  71.274  1.00  0.00    -0.004 A  
HETATM   23  C   UNL     1      -6.585   5.268  71.939  1.00  0.00    -0.044 A  
HETATM   24  C   UNL     1      -7.828   5.174  71.290  1.00  0.00    -0.106 A  
HETATM   25  C   UNL     1      -7.837   4.800  69.947  1.00  0.00    -0.062 A  
BRANCH  24  26
HETATM   26  N   UNL     1      -9.125   5.573  71.977  1.00  0.00    -0.141 N  
HETATM   27  C   UNL     1      -9.187   5.020  73.397  1.00  0.00    -0.123 C  
HETATM   28  C   UNL     1     -10.334   5.005  71.222  1.00  0.00    -0.185 C  
HETATM   29  C   UNL     1      -9.187   7.093  72.002  1.00  0.00    -0.134 C  
ENDBRANCH  24  26
ENDBRANCH  19  20
ENDBRANCH  16  19
ENDBRANCH  14  15
ENDBRANCH  13  14
ENDBRANCH  12  13
ENDBRANCH  11  12
ENDBRANCH  10  11
ENDBRANCH   9  10
ENDBRANCH   8   9
ENDBRANCH   7   8
ENDBRANCH   6   7
ENDBRANCH   5   6
ENDBRANCH   2   5
BRANCH   4  30
HETATM   30  O   UNL     1     -11.286   9.688  71.387  1.00  0.00    -0.365 OA 
BRANCH  30  31
HETATM   31  C   UNL     1     -11.837  10.942  71.072  1.00  0.00    -0.191 A  
HETATM   32  C   UNL     1     -12.836  11.484  71.882  1.00  0.00    -0.372 A  
HETATM   33  C   UNL     1     -11.289  11.668  70.010  1.00  0.00    -0.176 A  
HETATM   34  C   UNL     1     -11.785  12.951  69.720  1.00  0.00    -0.281 A  
HETATM   35  C   UNL     1     -13.339  12.741  71.596  1.00  0.00    -0.345 A  
HETATM   36  C   UNL     1     -12.824  13.463  70.520  1.00  0.00    -0.094 A  
BRANCH  34  37
HETATM   37  N   UNL     1     -11.294  13.726  68.503  1.00  0.00    -0.266 N  
HETATM   38  C   UNL     1     -11.630  15.213  68.613  1.00  0.00    -0.338 C  
HETATM   39  C   UNL     1      -9.775  13.621  68.368  1.00  0.00    -0.217 C  
HETATM   40  C   UNL     1     -11.999  13.136  67.280  1.00  0.00    -0.335 C  
ENDBRANCH  34  37
ENDBRANCH  30  31
ENDBRANCH   4  30
TORSDOF 17
ENDMDL
MODEL      313
REMARK 921   NORMALIZED FREE ENERGY PREDICTED BY IDOCK:    2.79 KCAL/MOL
REMARK 922        TOTAL FREE ENERGY PREDICTED BY IDOCK:    3.34 KCAL/MOL
REMARK 923 INTER-LIGAND FREE ENERGY PREDICTED BY IDOCK:   -4.01 KCAL/MOL
REMARK 924 INTRA-LIGAND FREE ENERGY PREDICTED BY IDOCK:    7.35 KCAL/MOL
REMARK 927      BINDING AFFINITY PREDICTED BY RF-SCORE:    0.00 PKD
ROOT
HETATM    1  C   UNL     1     -10.725   7.509  69.084  1.00  0.00    -0.151 C  
HETATM    2  N   UNL     1     -10.637   6.067  68.931  1.00  0.00    -0.257 N  
HETATM    3  O   UNL     1     -10.902   4.263  67.502  1.00  0.00     0.890 OA 
HETATM    4  C   UNL     1     -10.829   5.473  67.691  1.00  0.00     0.008 C  
ENDROOT
BRANCH   2   5
HETATM    5  C   UNL     1     -10.581   5.236  70.132  1.00  0.00    -0.227 C  
BRANCH   5   6
HETATM    6  C   UNL     1      -9.446   5.636  71.085  1.00  0.00    -0.191 C  
BRANCH   6   7
HETATM    7  C   UNL     1      -9.694   7.021  71.697  1.00  0.00    -0.164 C  
BRANCH   7   8
HETATM    8  C   UNL     1      -9.334   8.150  70.723  1.00  0.00    -0.174 C  
BRANCH   8   9
HETATM    9  C   UNL     1      -7.952   7.928  70.102  1.00  0.00    -0.107 C  
BRANCH   9  10
HETATM   10  C   UNL     1      -7.139   9.225  70.052  1.00  0.00    -0.070 C  
BRANCH  10  11
HETATM   11  C   UNL     1      -6.415   9.537  71.366  1.00  0.00     0.048 C  
BRANCH  11  12
HETATM   12  C   UNL     1      -5.333  10.604  71.216  1.00  0.00    -0.062 C  
BRANCH  12  13
HETATM   13  C   UNL     1      -5.486  11.380  69.910  1.00  0.00    -0.075 C  
BRANCH  13  14
HETATM   14  C   UNL     1      -5.589  12.871  70.194  1.00  0.00    -0.137 C  
BRANCH  14  15
HETATM   15  N   UNL     1      -6.066  13.609  69.033  1.00  0.00    -0.083 N  
HETATM   16  C   UNL     1      -7.397  13.519  68.670  1.00  0.00    -0.112 C  
HETATM   17  C   UNL     1      -5.136  14.464  68.309  1.00  0.00    -0.112 C  
HETATM   18  O   UNL     1      -8.217  12.790  69.217  1.00  0.00     0.455 OA 
BRANCH  16  19
HETATM   19  O   UNL     1      -7.669  14.248  67.521  1.00  0.00    -0.166 OA 
BRANCH  19  20
HETATM   20  C   UNL     1      -7.624  15.632  67.721  1.00  0.00    -0.141 A  
HETATM   21  C   UNL     1      -6.405  16.181  68.101  1.00  0.00    -0.130 A  
HETATM   22  C   UNL     1      -6.301  17.564  68.190  1.00  0.00    -0.173 A  
HETATM   23  C   UNL     1      -7.400  18.381  67.906  1.00  0.00    -0.242 A  
HETATM   24  C   UNL     1      -8.638  17.830  67.534  1.00  0.00    -0.228 A  
HETATM   25  C   UNL     1      -8.724  16.444  67.409  1.00  0.00    -0.195 A  
BRANCH  24  26
HETATM   26  N   UNL     1      -9.827  18.702  67.162  1.00  0.00    -0.303 N  
HETATM   27  C   UNL     1     -11.022  18.415  68.066  1.00  0.00     0.031 C  
HETATM   28  C   UNL     1     -10.276  18.421  65.723  1.00  0.00    -0.095 C  
HETATM   29  C   UNL     1      -9.398  20.155  67.306  1.00  0.00    -0.391 C  
ENDBRANCH  24  26
ENDBRANCH  19  20
ENDBRANCH  16  19
ENDBRANCH  14  15
ENDBRANCH  13  14
ENDBRANCH  12  13
ENDBRANCH  11  12
ENDBRANCH  10  11
ENDBRANCH   9  10
ENDBRANCH   8   9
ENDBRANCH   7   8
ENDBRANCH   6   7
ENDBRANCH   5   6
ENDBRANCH   2   5
BRANCH   4  30
HETATM   30  O   UNL     1     -11.006   6.412  66.670  1.00  0.00    -0.304 OA 
BRANCH  30  31
HETATM   31  C   UNL     1      -9.915   7.284  66.516  1.00  0.00    -0.112 A  
HETATM   32  C   UNL     1      -8.615   6.776  66.517  1.00  0.00    -0.128 A  
HETATM   33  C   UNL     1     -10.168   8.634  66.254  1.00  0.00    -0.121 A  
HETATM   34  C   UNL     1      -9.090   9.509  66.034  1.00  0.00    -0.176 A  
HETATM   35  C   UNL     1      -7.548   7.633  66.314  1.00  0.00    -0.088 A  
HETATM   36  C   UNL     1      -7.784   8.988  66.084  1.00  0.00    -0.099 A  
BRANCH  34  37
HETATM   37  N   UNL     1      -9.318  11.006  65.859  1.00  0.00    -0.197 N  
HETATM   38  C   UNL     1      -9.918  11.326  64.489  1.00  0.00    -0.284 C  
HETATM   39  C   UNL     1     -10.298  11.533  66.907  1.00  0.00    -0.223 C  
HETATM   40  C   UNL     1      -7.955  11.687  65.986  1.00  0.00     0.273 C  
ENDBRANCH  34  37
ENDBRANCH  30  31
ENDBRANCH   4  30
TORSDOF 17
ENDMDL
MODEL      314
REMARK 921   NORMALIZED FREE ENERGY PREDICTED BY IDOCK:    3.07 KCAL/MOL
REMARK 922        TOTAL FREE ENERGY PREDICTED BY IDOCK:    3.89 KCAL/MOL
REMARK 923 INTER-LIGAND FREE ENERGY PREDICTED BY IDOCK:   -0.72 KCAL/MOL
REMARK 924 INTRA-LIGAND FREE ENERGY PREDICTED BY IDOCK:    4.61 KCAL/MOL
REMARK 927      BINDING AFFINITY PREDICTED BY RF-SCORE:    0.00 PKD
ROOT
HETATM    1  C   UNL     1     -11.066   9.230  72.705  1.00  0.00     1.164 C  
HETATM    2  N   UNL     1     -12.040   9.489  71.658  1.00  0.00    -0.378 N  
HETATM    3  O   UNL     1     -13.702   8.600  70.311  1.00  0.00     1.199 OA 
HETATM    4  C   UNL     1     -12.941   8.508  71.270  1.00  0.00    -0.159 C  
ENDROOT
BRANCH   2   5
HETATM    5  C   UNL     1     -11.904  10.706  70.859  1.00  0.00    -0.331 C  
BRANCH   5   6
HETATM    6  C   UNL     1     -12.245  10.492  69.378  1.00  0.00    -0.094 C  
BRANCH   6   7
HETATM    7  C   UNL     1     -11.459  11.455  68.480  1.00  0.00    -0.361 C  
BRANCH   7   8
HETATM    8  C   UNL     1     -10.323  12.150  69.242  1.00  0.00     0.204 C  
BRANCH   8   9
HETATM    9  C   UNL     1     -10.440  13.674  69.147  1.00  0.00    -0.016 C  
BRANCH   9  10
HETATM   10  C   UNL     1      -9.418  14.260  68.169  1.00  0.00    -0.204 C  
BRANCH  10  11
HETATM   11  C   UNL     1      -8.053  13.567  68.231  1.00  0.00    -0.155 C  
BRANCH  11  12
HETATM   12  C   UNL     1      -7.482  13.493  69.646  1.00  0.00     0.588 C  
BRANCH  12  13
HETATM   13  C   UNL     1      -7.400  14.875  70.291  1.00  0.00     0.336 C  
BRANCH  13  14
HETATM   14  C   UNL     1      -6.508  15.789  69.463  1.00  0.00    -0.177 C  
BRANCH  14  15
HETATM   15  N   UNL     1      -7.105  17.103  69.278  1.00  0.00    -0.209 N  
HETATM   16  C   UNL     1      -6.334  18.234  69.471  1.00  0.00    -0.230 C  
HETATM   17  C   UNL     1      -8.494  17.194  68.849  1.00  0.00    -0.187 C  
HETATM   18  O   UNL     1      -5.173  18.221  69.866  1.00  0.00    -0.187 OA 
BRANCH  16  19
HETATM   19  O   UNL     1      -7.069  19.397  69.296  1.00  0.00    -0.348 OA 
BRANCH  19  20
HETATM   20  C   UNL     1      -7.548  19.559  67.992  1.00  0.00    -0.296 A  
HETATM   21  C   UNL     1      -6.623  19.902  67.013  1.00  0.00    -0.223 A  
HETATM   22  C   UNL     1      -7.047  19.952  65.690  1.00  0.00    -0.337 A  
HETATM   23  C   UNL     1      -8.375  19.665  65.356  1.00  0.00     0.635 A  
HETATM   24  C   UNL     1      -9.316  19.329  66.345  1.00  0.00    -0.360 A  
HETATM   25  C   UNL     1      -8.875  19.244  67.664  1.00  0.00    -0.342 A  
BRANCH  24  26
HETATM   26  N   UNL     1     -10.749  18.955  65.996  1.00  0.00    -0.381 N  
HETATM   27  C   UNL     1     -11.361  19.968  65.034  1.00  0.00     1.251 C  
HETATM   28  C   UNL     1     -11.626  18.943  67.254  1.00  0.00     1.176 C  
HETATM   29  C   UNL     1     -10.723  17.574  65.358  1.00  0.00    -0.004 C  
ENDBRANCH  24  26
ENDBRANCH  19  20
ENDBRANCH  16  19
ENDBRANCH  14  15
ENDBRANCH  13  14
ENDBRANCH  12  13
ENDBRANCH  11  12
ENDBRANCH  10  11
ENDBRANCH   9  10
ENDBRANCH   8   9
ENDBRANCH   7   8
ENDBRANCH   6   7
ENDBRANCH   5   6
ENDBRANCH   2   5
BRANCH   4  30
HETATM   30  O   UNL     1     -12.843   7.352  72.051  1.00  0.00    -0.273 OA 
BRANCH  30  31
HETATM   31  C   UNL     1     -11.678   6.606  71.803  1.00  0.00    -0.318 A  
HETATM   32  C   UNL     1     -10.792   7.014  70.804  1.00  0.00    -0.272 A  
HETATM   33  C   UNL     1     -11.381   5.528  72.643  1.00  0.00    -0.346 A  
HETATM   34  C   UNL     1     -10.189   4.810  72.450  1.00  0.00    -0.194 A  
HETATM   35  C   UNL     1      -9.623   6.304  70.599  1.00  0.00    -0.189 A  
HETATM   36  C   UNL     1      -9.329   5.207  71.409  1.00  0.00    -0.189 A  
BRANCH  34  37
HETATM   37  N   UNL     1      -9.884   3.561  73.269  1.00  0.00    -0.114 N  
HETATM   38  C   UNL     1     -11.160   2.793  73.616  1.00  0.00    -0.222 C  
HETATM   39  C   UNL     1      -8.986   2.602  72.487  1.00  0.00    -0.078 C  
HETATM   40  C   UNL     1      -9.206   4.024  74.559  1.00  0.00    -0.102 C  
ENDBRANCH  34  37
ENDBRANCH  30  31
ENDBRANCH   4  30
TORSDOF 17
ENDMDL
MODEL      315
REMARK 921   NORMALIZED FREE ENERGY PREDICTED BY IDOCK:    3.59 KCAL/MOL
REMARK 922        TOTAL FREE ENERGY PREDICTED BY IDOCK:    4.93 KCAL/MOL
REMARK 923 INTER-LIGAND FREE ENERGY PREDICTED BY IDOCK:   -0.95 KCAL/MOL
REMARK 924 INTRA-LIGAND FREE ENERGY PREDICTED BY IDOCK:    5.88 KCAL/MOL
REMARK 927      BINDING AFFINITY PREDICTED BY RF-SCORE:    0.00 PKD
ROOT
HETATM    1  C   UNL     1      -9.213   6.611  67.928  1.00  0.00    -0.111 C  
HETATM    2  N   UNL     1      -9.326   7.092  66.561  1.00  0.00    -0.165 N  
HETATM    3  O   UNL     1      -8.250   7.395  64.532  1.00  0.00    -0.114 OA 
HETATM    4  C   UNL     1      -8.288   6.907  65.658  1.00  0.00    -0.146 C  
ENDROOT
BRANCH   2   5
HETATM    5  C   UNL     1     -10.438   7.975  66.218  1.00  0.00     0.539 C  
BRANCH   5   6
HETATM    6  C   UNL     1     -10.014   9.441  66.062  1.00  0.00    -0.352 C  
BRANCH   6   7
HETATM    7  C   UNL     1     -11.207  10.389  66.233  1.00  0.00     0.417 C  
BRANCH   7   8
HETATM    8  C   UNL     1     -11.654  10.995  64.897  1.00  0.00     0.551 C  
BRANCH   8   9
HETATM    9  C   UNL     1     -10.672  10.650  63.774  1.00  0.00     0.244 C  
BRANCH   9  10
HETATM   10  C   UNL     1      -9.465  11.593  63.768  1.00  0.00    -0.121 C  
BRANCH  10  11
HETATM   11  C   UNL     1      -9.542  12.682  64.843  1.00  0.00     0.161 C  
BRANCH  11  12
HETATM   12  C   UNL     1      -9.293  12.152  66.254  1.00  0.00    -0.221 C  
BRANCH  12  13
HETATM   13  C   UNL     1      -8.207  12.951  66.970  1.00  0.00    -0.086 C  
BRANCH  13  14
HETATM   14  C   UNL     1      -8.816  14.160  67.663  1.00  0.00    -0.194 C  
BRANCH  14  15
HETATM   15  N   UNL     1      -7.950  15.327  67.576  1.00  0.00    -0.160 N  
HETATM   16  C   UNL     1      -6.593  15.152  67.373  1.00  0.00    -0.056 C  
HETATM   17  C   UNL     1      -8.542  16.655  67.657  1.00  0.00    -0.200 C  
HETATM   18  O   UNL     1      -6.034  14.062  67.333  1.00  0.00    -0.350 OA 
BRANCH  16  19
HETATM   19  O   UNL     1      -5.913  16.362  67.358  1.00  0.00    -0.139 OA 
BRANCH  19  20
HETATM   20  C   UNL     1      -5.792  16.943  68.625  1.00  0.00    -0.140 A  
HETATM   21  C   UNL     1      -5.375  16.120  69.665  1.00  0.00    -0.127 A  
HETATM   22  C   UNL     1      -5.130  16.696  70.907  1.00  0.00    -0.204 A  
HETATM   23  C   UNL     1      -5.305  18.070  71.102  1.00  0.00    -0.150 A  
HETATM   24  C   UNL     1      -5.739  18.903  70.056  1.00  0.00    -0.248 A  
HETATM   25  C   UNL     1      -5.944  18.325  68.804  1.00  0.00    -0.199 A  
BRANCH  24  26
HETATM   26  N   UNL     1      -5.876  20.407  70.232  1.00  0.00    -0.341 N  
HETATM   27  C   UNL     1      -5.292  20.859  71.566  1.00  0.00     0.005 C  
HETATM   28  C   UNL     1      -7.353  20.821  70.224  1.00  0.00     2.022 C  
HETATM   29  C   UNL     1      -5.135  21.076  69.082  1.00  0.00    -0.316 C  
ENDBRANCH  24  26
ENDBRANCH  19  20
ENDBRANCH  16  19
ENDBRANCH  14  15
ENDBRANCH  13  14
ENDBRANCH  12  13
ENDBRANCH  11  12
ENDBRANCH  10  11
ENDBRANCH   9  10
ENDBRANCH   8   9
ENDBRANCH   7   8
ENDBRANCH   6   7
ENDBRANCH   5   6
ENDBRANCH   2   5
BRANCH   4  30
HETATM   30  O   UNL     1      -7.238   6.156  66.195  1.00  0.00    -0.072 OA 
BRANCH  30  31
HETATM   31  C   UNL     1      -7.618   4.860  66.582  1.00  0.00    -0.088 A  
HETATM   32  C   UNL     1      -7.988   3.926  65.613  1.00  0.00    -0.093 A  
HETATM   33  C   UNL     1      -7.511   4.505  67.930  1.00  0.00    -0.069 A  
HETATM   34  C   UNL     1      -7.826   3.194  68.327  1.00  0.00    -0.058 A  
HETATM   35  C   UNL     1      -8.312   2.637  65.997  1.00  0.00    -0.092 A  
HETATM   36  C   UNL     1      -8.240   2.278  67.342  1.00  0.00    -0.077 A  
BRANCH  34  37
HETATM   37  N   UNL     1      -7.831   2.799  69.799  1.00  0.00    -0.043 N  
HETATM   38  C   UNL     1      -6.417   2.516  70.309  1.00  0.00    -0.028 C  
HETATM   39  C   UNL     1      -8.397   3.926  70.663  1.00  0.00    -0.069 C  
HETATM   40  C   UNL     1      -8.677   1.531  69.923  1.00  0.00    -0.055 C  
ENDBRANCH  34  37
ENDBRANCH  30  31
ENDBRANCH   4  30
TORSDOF 17
ENDMDL
MODEL      316
REMARK 921   NORMALIZED FREE ENERGY PREDICTED BY IDOCK:    3.92 KCAL/MOL
REMARK 922        TOTAL FREE ENERGY PREDICTED BY IDOCK:    5.57 KCAL/MOL
REMARK 923 INTER-LIGAND FREE ENERGY PREDICTED BY IDOCK:    2.21 KCAL/MOL
REMARK 924 INTRA-LIGAND FREE ENERGY PREDICTED BY IDOCK:    3.36 KCAL/MOL
REMARK 927      BINDING AFFINITY PREDICTED BY RF-SCORE:    0.00 PKD
ROOT
HETATM    1  C   UNL     1      -7.038  13.460  67.794  1.00  0.00    -0.156 C  
HETATM    2  N   UNL     1      -8.008  13.345  68.869  1.00  0.00     0.033 N  
HETATM    3  O   UNL     1     -10.174  13.784  69.564  1.00  0.00     0.200 OA 
HETATM    4  C   UNL     1      -9.329  13.726  68.676  1.00  0.00    -0.081 C  
ENDROOT
BRANCH   2   5
HETATM    5  C   UNL     1      -7.528  13.051  70.218  1.00  0.00     2.279 C  
BRANCH   5   6
HETATM    6  C   UNL     1      -5.997  13.085  70.330  1.00  0.00    -0.111 C  
BRANCH   6   7
HETATM    7  C   UNL     1      -5.502  14.466  70.778  1.00  0.00    -0.154 C  
BRANCH   7   8
HETATM    8  C   UNL     1      -6.255  14.972  72.014  1.00  0.00     0.950 C  
BRANCH   8   9
HETATM    9  C   UNL     1      -6.488  13.843  73.023  1.00  0.00     1.913 C  
BRANCH   9  10
HETATM   10  C   UNL     1      -5.174  13.350  73.635  1.00  0.00    -0.024 C  
BRANCH  10  11
HETATM   11  C   UNL     1      -5.166  11.845  73.922  1.00  0.00     0.585 C  
BRANCH  11  12
HETATM   12  C   UNL     1      -5.128  10.993  72.655  1.00  0.00     0.318 C  
BRANCH  12  13
HETATM   13  C   UNL     1      -6.182   9.889  72.690  1.00  0.00     0.901 C  
BRANCH  13  14
HETATM   14  C   UNL     1      -5.802   8.770  71.731  1.00  0.00    -0.058 C  
BRANCH  14  15
HETATM   15  N   UNL     1      -6.576   7.562  71.977  1.00  0.00    -0.049 N  
HETATM   16  C   UNL     1      -7.744   7.641  72.712  1.00  0.00    -0.098 C  
HETATM   17  C   UNL     1      -6.124   6.304  71.401  1.00  0.00    -0.040 C  
HETATM   18  O   UNL     1      -8.155   8.663  73.251  1.00  0.00    -0.408 OA 
BRANCH  16  19
HETATM   19  O   UNL     1      -8.330   6.396  72.887  1.00  0.00    -0.117 OA 
BRANCH  19  20
HETATM   20  C   UNL     1      -8.741   5.805  71.687  1.00  0.00    -0.136 A  
HETATM   21  C   UNL     1      -9.516   6.578  70.830  1.00  0.00    -0.179 A  
HETATM   22  C   UNL     1      -9.837   6.060  69.581  1.00  0.00    -0.205 A  
HETATM   23  C   UNL     1      -9.393   4.789  69.200  1.00  0.00    -0.195 A  
HETATM   24  C   UNL     1      -8.620   4.000  70.069  1.00  0.00    -0.065 A  
HETATM   25  C   UNL     1      -8.268   4.541  71.305  1.00  0.00    -0.095 A  
BRANCH  24  26
HETATM   26  N   UNL     1      -8.076   2.642  69.651  1.00  0.00    -0.041 N  
HETATM   27  C   UNL     1      -8.242   1.617  70.768  1.00  0.00    -0.044 C  
HETATM   28  C   UNL     1      -6.575   2.732  69.344  1.00  0.00    -0.033 C  
HETATM   29  C   UNL     1      -8.841   2.199  68.413  1.00  0.00    -0.109 C  
ENDBRANCH  24  26
ENDBRANCH  19  20
ENDBRANCH  16  19
ENDBRANCH  14  15
ENDBRANCH  13  14
ENDBRANCH  12  13
ENDBRANCH  11  12
ENDBRANCH  10  11
ENDBRANCH   9  10
ENDBRANCH   8   9
ENDBRANCH   7   8
ENDBRANCH   6   7
ENDBRANCH   5   6
ENDBRANCH   2   5
BRANCH   4  30
HETATM   30  O   UNL     1      -9.587  14.112  67.357  1.00  0.00    -0.220 OA 
BRANCH  30  31
HETATM   31  C   UNL     1      -9.852  13.031  66.499  1.00  0.00    -0.263 A  
HETATM   32  C   UNL     1     -10.752  13.188  65.443  1.00  0.00    -0.308 A  
HETATM   33  C   UNL     1      -9.121  11.851  66.662  1.00  0.00    -0.203 A  
HETATM   34  C   UNL     1      -9.328  10.782  65.773  1.00  0.00    -0.203 A  
HETATM   35  C   UNL     1     -10.971  12.136  64.572  1.00  0.00    -0.361 A  
HETATM   36  C   UNL     1     -10.272  10.941  64.742  1.00  0.00    -0.398 A  
BRANCH  34  37
HETATM   37  N   UNL     1      -8.635   9.440  65.985  1.00  0.00    -0.137 N  
HETATM   38  C   UNL     1      -9.537   8.455  66.730  1.00  0.00    -0.219 C  
HETATM   39  C   UNL     1      -8.280   8.793  64.646  1.00  0.00    -0.165 C  
HETATM   40  C   UNL     1      -7.381   9.708  66.818  1.00  0.00    -0.091 C  
ENDBRANCH  34  37
ENDBRANCH  30  31
ENDBRANCH   4  30
TORSDOF 17
ENDMDL
MODEL      317
REMARK 921   NORMALIZED FREE ENERGY PREDICTED BY IDOCK:    5.40 KCAL/MOL
REMARK 922        TOTAL FREE ENERGY PREDICTED BY IDOCK:    8.53 KCAL/MOL
REMARK 923 INTER-LIGAND FREE ENERGY PREDICTED BY IDOCK:   -3.04 KCAL/MOL
REMARK 924 INTRA-LIGAND FREE ENERGY PREDICTED BY IDOCK:   11.57 KCAL/MOL
REMARK 927      BINDING AFFINITY PREDICTED BY RF-SCORE:    0.00 PKD
ROOT
HETATM    1  C   UNL     1     -10.710  13.100  68.307  1.00  0.00    -0.245 C  
HETATM    2  N   UNL     1     -11.174  14.192  67.468  1.00  0.00    -0.294 N  
HETATM    3  O   UNL     1     -12.557  14.824  65.720  1.00  0.00    -0.089 OA 
HETATM    4  C   UNL     1     -12.198  13.996  66.552  1.00  0.00    -0.451 C  
ENDROOT
BRANCH   2   5
HETATM    5  C   UNL     1     -10.396  15.428  67.432  1.00  0.00    -0.262 C  
BRANCH   5   6
HETATM    6  C   UNL     1      -9.366  15.522  68.566  1.00  0.00    -0.197 C  
BRANCH   6   7
HETATM    7  C   UNL     1      -8.810  14.140  68.930  1.00  0.00     0.021 C  
BRANCH   7   8
HETATM    8  C   UNL     1      -7.300  14.045  68.677  1.00  0.00    -0.120 C  
BRANCH   8   9
HETATM    9  C   UNL     1      -6.997  13.194  67.440  1.00  0.00    -0.117 C  
BRANCH   9  10
HETATM   10  C   UNL     1      -5.491  12.993  67.247  1.00  0.00     0.142 C  
BRANCH  10  11
HETATM   11  C   UNL     1      -5.150  11.806  66.340  1.00  0.00     0.076 C  
BRANCH  11  12
HETATM   12  C   UNL     1      -5.540  10.458  66.943  1.00  0.00    -0.047 C  
BRANCH  12  13
HETATM   13  C   UNL     1      -6.438  10.630  68.166  1.00  0.00    -0.062 C  
BRANCH  13  14
HETATM   14  C   UNL     1      -7.804  10.013  67.905  1.00  0.00    -0.090 C  
BRANCH  14  15
HETATM   15  N   UNL     1      -7.804   8.578  68.148  1.00  0.00    -0.102 N  
HETATM   16  C   UNL     1      -7.098   7.745  67.299  1.00  0.00    -0.086 C  
HETATM   17  C   UNL     1      -8.511   8.057  69.309  1.00  0.00    -0.136 C  
HETATM   18  O   UNL     1      -6.516   8.119  66.287  1.00  0.00    -0.046 OA 
BRANCH  16  19
HETATM   19  O   UNL     1      -7.242   6.410  67.649  1.00  0.00    -0.081 OA 
BRANCH  19  20
HETATM   20  C   UNL     1      -7.209   6.194  69.031  1.00  0.00    -0.083 A  
HETATM   21  C   UNL     1      -6.003   6.422  69.682  1.00  0.00    -0.018 A  
HETATM   22  C   UNL     1      -5.972   6.332  71.069  1.00  0.00    -0.031 A  
HETATM   23  C   UNL     1      -7.129   6.015  71.788  1.00  0.00    -0.086 A  
HETATM   24  C   UNL     1      -8.348   5.771  71.133  1.00  0.00    -0.123 A  
HETATM   25  C   UNL     1      -8.380   5.902  69.745  1.00  0.00    -0.124 A  
BRANCH  24  26
HETATM   26  N   UNL     1      -9.630   5.486  71.899  1.00  0.00    -0.155 N  
HETATM   27  C   UNL     1      -9.961   6.625  72.859  1.00  0.00    -0.172 C  
HETATM   28  C   UNL     1      -9.483   4.215  72.745  1.00  0.00    -0.125 C  
HETATM   29  C   UNL     1     -10.750   5.316  70.882  1.00  0.00    -0.119 C  
ENDBRANCH  24  26
ENDBRANCH  19  20
ENDBRANCH  16  19
ENDBRANCH  14  15
ENDBRANCH  13  14
ENDBRANCH  12  13
ENDBRANCH  11  12
ENDBRANCH  10  11
ENDBRANCH   9  10
ENDBRANCH   8   9
ENDBRANCH   7   8
ENDBRANCH   6   7
ENDBRANCH   5   6
ENDBRANCH   2   5
BRANCH   4  30
HETATM   30  O   UNL     1     -12.743  12.710  66.625  1.00  0.00     0.017 OA 
BRANCH  30  31
HETATM   31  C   UNL     1     -11.790  11.689  66.467  1.00  0.00     0.217 A  
HETATM   32  C   UNL     1     -11.726  10.650  67.398  1.00  0.00     0.470 A  
HETATM   33  C   UNL     1     -10.998  11.683  65.315  1.00  0.00    -0.327 A  
HETATM   34  C   UNL     1     -10.084  10.635  65.109  1.00  0.00    -0.307 A  
HETATM   35  C   UNL     1     -10.820   9.622  67.209  1.00  0.00    -0.212 A  
HETATM   36  C   UNL     1     -10.001   9.620  66.080  1.00  0.00    -0.346 A  
BRANCH  34  37
HETATM   37  N   UNL     1      -9.125  10.652  63.925  1.00  0.00    -0.210 N  
HETATM   38  C   UNL     1      -7.702  10.289  64.351  1.00  0.00    -0.104 C  
HETATM   39  C   UNL     1      -9.546   9.632  62.868  1.00  0.00     0.429 C  
HETATM   40  C   UNL     1      -9.136  12.072  63.357  1.00  0.00     0.552 C  
ENDBRANCH  34  37
ENDBRANCH  30  31
ENDBRANCH   4  30
TORSDOF 17
ENDMDL
MODEL      318
REMARK 921   NORMALIZED FREE ENERGY PREDICTED BY IDOCK:    6.56 KCAL/MOL
REMARK 922        TOTAL FREE ENERGY PREDICTED BY IDOCK:   10.86 KCAL/MOL
REMARK 923 INTER-LIGAND FREE ENERGY PREDICTED BY IDOCK:   -0.80 KCAL/MOL
REMARK 924 INTRA-LIGAND FREE ENERGY PREDICTED BY IDOCK:   11.66 KCAL/MOL
REMARK 927      BINDING AFFINITY PREDICTED BY RF-SCORE:    0.00 PKD
ROOT
HETATM    1  C   UNL     1      -5.424  13.626  70.944  1.00  0.00    -0.178 C  
HETATM    2  N   UNL     1      -5.735  13.299  69.563  1.00  0.00    -0.087 N  
HETATM    3  O   UNL     1      -6.998  13.832  67.695  1.00  0.00    -0.156 OA 
HETATM    4  C   UNL     1      -6.583  14.106  68.817  1.00  0.00    -0.094 C  
ENDROOT
BRANCH   2   5
HETATM    5  C   UNL     1      -5.338  11.991  69.045  1.00  0.00    -0.051 C  
BRANCH   5   6
HETATM    6  C   UNL     1      -6.344  11.414  68.040  1.00  0.00    -0.053 C  
BRANCH   6   7
HETATM    7  C   UNL     1      -6.364   9.881  68.088  1.00  0.00    -0.055 C  
BRANCH   7   8
HETATM    8  C   UNL     1      -7.456   9.351  69.025  1.00  0.00    -0.073 C  
BRANCH   8   9
HETATM    9  C   UNL     1      -8.851   9.745  68.531  1.00  0.00    -0.121 C  
BRANCH   9  10
HETATM   10  C   UNL     1      -8.821  11.050  67.730  1.00  0.00    -0.133 C  
BRANCH  10  11
HETATM   11  C   UNL     1     -10.016  11.207  66.784  1.00  0.00    -0.242 C  
BRANCH  11  12
HETATM   12  C   UNL     1      -9.670  10.907  65.326  1.00  0.00    -0.296 C  
BRANCH  12  13
HETATM   13  C   UNL     1      -9.433  12.188  64.531  1.00  0.00     0.171 C  
BRANCH  13  14
HETATM   14  C   UNL     1     -10.505  13.216  64.858  1.00  0.00    -0.351 C  
BRANCH  14  15
HETATM   15  N   UNL     1     -10.187  13.963  66.066  1.00  0.00    -0.301 N  
HETATM   16  C   UNL     1     -10.553  15.293  66.160  1.00  0.00    -0.313 C  
HETATM   17  C   UNL     1      -9.528  13.276  67.168  1.00  0.00    -0.240 C  
HETATM   18  O   UNL     1     -11.076  15.933  65.254  1.00  0.00    -0.320 OA 
BRANCH  16  19
HETATM   19  O   UNL     1     -10.135  15.861  67.355  1.00  0.00    -0.244 OA 
BRANCH  19  20
HETATM   20  C   UNL     1     -10.829  15.378  68.469  1.00  0.00    -0.264 A  
HETATM   21  C   UNL     1     -11.288  14.067  68.414  1.00  0.00    -0.321 A  
HETATM   22  C   UNL     1     -11.874  13.523  69.551  1.00  0.00    -0.392 A  
HETATM   23  C   UNL     1     -12.001  14.281  70.720  1.00  0.00    -0.390 A  
HETATM   24  C   UNL     1     -11.550  15.611  70.775  1.00  0.00    -0.382 A  
HETATM   25  C   UNL     1     -10.928  16.137  69.644  1.00  0.00    -0.346 A  
BRANCH  24  26
HETATM   26  N   UNL     1     -11.624  16.432  72.054  1.00  0.00    -0.382 N  
HETATM   27  C   UNL     1     -13.014  16.353  72.677  1.00  0.00     0.157 C  
HETATM   28  C   UNL     1     -11.346  17.912  71.764  1.00  0.00     2.970 C  
HETATM   29  C   UNL     1     -10.584  15.879  73.018  1.00  0.00     3.437 C  
ENDBRANCH  24  26
ENDBRANCH  19  20
ENDBRANCH  16  19
ENDBRANCH  14  15
ENDBRANCH  13  14
ENDBRANCH  12  13
ENDBRANCH  11  12
ENDBRANCH  10  11
ENDBRANCH   9  10
ENDBRANCH   8   9
ENDBRANCH   7   8
ENDBRANCH   6   7
ENDBRANCH   5   6
ENDBRANCH   2   5
BRANCH   4  30
HETATM   30  O   UNL     1      -6.981  15.251  69.514  1.00  0.00    -0.163 OA 
BRANCH  30  31
HETATM   31  C   UNL     1      -6.980  16.415  68.726  1.00  0.00    -0.172 A  
HETATM   32  C   UNL     1      -5.852  16.742  67.972  1.00  0.00    -0.128 A  
HETATM   33  C   UNL     1      -8.159  17.162  68.633  1.00  0.00    -0.264 A  
HETATM   34  C   UNL     1      -8.196  18.293  67.799  1.00  0.00    -0.247 A  
HETATM   35  C   UNL     1      -5.877  17.861  67.159  1.00  0.00    -0.156 A  
HETATM   36  C   UNL     1      -7.034  18.634  67.081  1.00  0.00    -0.211 A  
BRANCH  34  37
HETATM   37  N   UNL     1      -9.423  19.197  67.758  1.00  0.00    -0.296 N  
HETATM   38  C   UNL     1      -9.940  19.375  66.330  1.00  0.00    -0.414 C  
HETATM   39  C   UNL     1     -10.568  18.598  68.575  1.00  0.00     0.006 C  
HETATM   40  C   UNL     1      -8.999  20.556  68.316  1.00  0.00     0.290 C  
ENDBRANCH  34  37
ENDBRANCH  30  31
ENDBRANCH   4  30
TORSDOF 17
ENDMDL
MODEL      319
REMARK 921   NORMALIZED FREE ENERGY PREDICTED BY IDOCK:    7.63 KCAL/MOL
REMARK 922        TOTAL FREE ENERGY PREDICTED BY IDOCK:   12.97 KCAL/MOL
REMARK 923 INTER-LIGAND FREE ENERGY PREDICTED BY IDOCK:   -2.15 KCAL/MOL
REMARK 924 INTRA-LIGAND FREE ENERGY PREDICTED BY IDOCK:   15.12 KCAL/MOL
REMARK 927      BINDING AFFINITY PREDICTED BY RF-SCORE:    0.00 PKD
ROOT
HETATM    1  C   UNL     1     -11.012   8.907  72.129  1.00  0.00    -0.279 C  
HETATM    2  N   UNL     1     -12.143   9.645  71.592  1.00  0.00    -0.389 N  
HETATM    3  O   UNL     1     -14.379   9.572  70.990  1.00  0.00     0.063 OA 
HETATM    4  C   UNL     1     -13.405   9.070  71.544  1.00  0.00    -0.339 C  
ENDROOT
BRANCH   2   5
HETATM    5  C   UNL     1     -11.891  10.901  70.889  1.00  0.00    -0.258 C  
BRANCH   5   6
HETATM    6  C   UNL     1     -13.059  11.331  69.992  1.00  0.00     0.398 C  
BRANCH   6   7
HETATM    7  C   UNL     1     -12.631  12.423  69.004  1.00  0.00     0.708 C  
BRANCH   7   8
HETATM    8  C   UNL     1     -11.124  12.698  69.072  1.00  0.00    -0.291 C  
BRANCH   8   9
HETATM    9  C   UNL     1     -10.839  14.185  69.305  1.00  0.00    -0.219 C  
BRANCH   9  10
HETATM   10  C   UNL     1     -10.859  14.977  67.994  1.00  0.00    -0.270 C  
BRANCH  10  11
HETATM   11  C   UNL     1     -10.903  14.086  66.748  1.00  0.00    -0.294 C  
BRANCH  11  12
HETATM   12  C   UNL     1     -10.411  12.664  67.010  1.00  0.00    -0.241 C  
BRANCH  12  13
HETATM   13  C   UNL     1      -9.414  12.619  68.166  1.00  0.00    -0.218 C  
BRANCH  13  14
HETATM   14  C   UNL     1      -8.020  12.972  67.671  1.00  0.00    -0.169 C  
BRANCH  14  15
HETATM   15  N   UNL     1      -7.650  14.334  68.027  1.00  0.00    -0.127 N  
HETATM   16  C   UNL     1      -6.561  14.550  68.852  1.00  0.00    -0.095 C  
HETATM   17  C   UNL     1      -8.409  15.443  67.465  1.00  0.00    -0.174 C  
HETATM   18  O   UNL     1      -5.908  13.659  69.383  1.00  0.00    -0.084 OA 
BRANCH  16  19
HETATM   19  O   UNL     1      -6.378  15.898  69.123  1.00  0.00    -0.130 OA 
BRANCH  19  20
HETATM   20  C   UNL     1      -6.239  16.680  67.971  1.00  0.00    -0.130 A  
HETATM   21  C   UNL     1      -5.275  16.288  67.049  1.00  0.00     0.064 A  
HETATM   22  C   UNL     1      -5.197  16.974  65.842  1.00  0.00     0.539 A  
HETATM   23  C   UNL     1      -6.067  18.035  65.568  1.00  0.00    -0.206 A  
HETATM   24  C   UNL     1      -7.034  18.442  66.503  1.00  0.00    -0.216 A  
HETATM   25  C   UNL     1      -7.132  17.725  67.694  1.00  0.00    -0.194 A  
BRANCH  24  26
HETATM   26  N   UNL     1      -8.028  19.552  66.199  1.00  0.00    -0.325 N  
HETATM   27  C   UNL     1      -9.271  19.002  65.508  1.00  0.00     0.952 C  
HETATM   28  C   UNL     1      -7.409  20.589  65.252  1.00  0.00     0.084 C  
HETATM   29  C   UNL     1      -8.408  20.206  67.520  1.00  0.00    -0.332 C  
ENDBRANCH  24  26
ENDBRANCH  19  20
ENDBRANCH  16  19
ENDBRANCH  14  15
ENDBRANCH  13  14
ENDBRANCH  12  13
ENDBRANCH  11  12
ENDBRANCH  10  11
ENDBRANCH   9  10
ENDBRANCH   8   9
ENDBRANCH   7   8
ENDBRANCH   6   7
ENDBRANCH   5   6
ENDBRANCH   2   5
BRANCH   4  30
HETATM   30  O   UNL     1     -13.441   7.806  72.139  1.00  0.00    -0.211 OA 
BRANCH  30  31
HETATM   31  C   UNL     1     -12.472   6.922  71.635  1.00  0.00    -0.375 A  
HETATM   32  C   UNL     1     -11.949   5.922  72.457  1.00  0.00    -0.173 A  
HETATM   33  C   UNL     1     -12.135   7.000  70.280  1.00  0.00    -0.135 A  
HETATM   34  C   UNL     1     -11.215   6.083  69.743  1.00  0.00    -0.369 A  
HETATM   35  C   UNL     1     -11.033   5.024  71.938  1.00  0.00    -0.044 A  
HETATM   36  C   UNL     1     -10.663   5.110  70.597  1.00  0.00    -0.133 A  
BRANCH  34  37
HETATM   37  N   UNL     1     -10.736   6.206  68.301  1.00  0.00    -0.263 N  
HETATM   38  C   UNL     1     -11.794   6.862  67.413  1.00  0.00     1.711 C  
HETATM   39  C   UNL     1      -9.482   7.076  68.216  1.00  0.00    -0.128 C  
HETATM   40  C   UNL     1     -10.460   4.789  67.796  1.00  0.00     0.150 C  
ENDBRANCH  34  37
ENDBRANCH  30  31
ENDBRANCH   4  30
TORSDOF 17
ENDMDL
MODEL      320
REMARK 921   NORMALIZED FREE ENERGY PREDICTED BY IDOCK:    9.67 KCAL/MOL
REMARK 922        TOTAL FREE ENERGY PREDICTED BY IDOCK:   17.05 KCAL/MOL
REMARK 923 INTER-LIGAND FREE ENERGY PREDICTED BY IDOCK:    5.20 KCAL/MOL
REMARK 924 INTRA-LIGAND FREE ENERGY PREDICTED BY IDOCK:   11.86 KCAL/MOL
REMARK 927      BINDING AFFINITY PREDICTED BY RF-SCORE:    0.00 PKD
ROOT
HETATM    1  C   UNL     1      -8.592   8.959  66.436  1.00  0.00    -0.126 C  
HETATM    2  N   UNL     1      -9.900   8.384  66.700  1.00  0.00    -0.252 N  
HETATM    3  O   UNL     1     -11.098   6.456  67.161  1.00  0.00    -0.377 OA 
HETATM    4  C   UNL     1     -10.029   7.047  67.051  1.00  0.00    -0.210 C  
ENDROOT
BRANCH   2   5
HETATM    5  C   UNL     1     -11.090   9.162  66.361  1.00  0.00     1.135 C  
BRANCH   5   6
HETATM    6  C   UNL     1     -10.774  10.400  65.510  1.00  0.00     0.028 C  
BRANCH   6   7
HETATM    7  C   UNL     1     -10.814  11.681  66.353  1.00  0.00    -0.333 C  
BRANCH   7   8
HETATM    8  C   UNL     1     -11.469  11.447  67.720  1.00  0.00    -0.353 C  
BRANCH   8   9
HETATM    9  C   UNL     1     -12.373  12.620  68.111  1.00  0.00     0.326 C  
BRANCH   9  10
HETATM   10  C   UNL     1     -12.273  12.938  69.606  1.00  0.00    -0.203 C  
BRANCH  10  11
HETATM   11  C   UNL     1     -12.970  14.246  69.994  1.00  0.00     0.116 C  
BRANCH  11  12
HETATM   12  C   UNL     1     -14.203  14.032  70.871  1.00  0.00     0.631 C  
BRANCH  12  13
HETATM   13  C   UNL     1     -14.307  12.585  71.349  1.00  0.00     2.448 C  
BRANCH  13  14
HETATM   14  C   UNL     1     -13.103  12.228  72.208  1.00  0.00    -0.157 C  
BRANCH  14  15
HETATM   15  N   UNL     1     -12.058  11.579  71.430  1.00  0.00     0.035 N  
HETATM   16  C   UNL     1     -12.058  10.201  71.309  1.00  0.00    -0.394 C  
HETATM   17  C   UNL     1     -11.062  12.401  70.758  1.00  0.00     2.230 C  
HETATM   18  O   UNL     1     -12.847   9.456  71.880  1.00  0.00    -0.352 OA 
BRANCH  16  19
HETATM   19  O   UNL     1     -10.972   9.747  70.574  1.00  0.00    -0.271 OA 
BRANCH  19  20
HETATM   20  C   UNL     1      -9.915   9.295  71.371  1.00  0.00    -0.253 A  
HETATM   21  C   UNL     1     -10.176   9.101  72.723  1.00  0.00     1.257 A  
HETATM   22  C   UNL     1      -9.180   8.540  73.514  1.00  0.00     0.179 A  
HETATM   23  C   UNL     1      -7.946   8.183  72.960  1.00  0.00    -0.220 A  
HETATM   24  C   UNL     1      -7.674   8.389  71.597  1.00  0.00    -0.113 A  
HETATM   25  C   UNL     1      -8.691   8.916  70.802  1.00  0.00    -0.245 A  
BRANCH  24  26
HETATM   26  N   UNL     1      -6.363   7.952  70.964  1.00  0.00    -0.037 N  
HETATM   27  C   UNL     1      -5.616   6.976  71.867  1.00  0.00    -0.037 C  
HETATM   28  C   UNL     1      -5.439   9.157  70.746  1.00  0.00    -0.030 C  
HETATM   29  C   UNL     1      -6.689   7.291  69.633  1.00  0.00    -0.045 C  
ENDBRANCH  24  26
ENDBRANCH  19  20
ENDBRANCH  16  19
ENDBRANCH  14  15
ENDBRANCH  13  14
ENDBRANCH  12  13
ENDBRANCH  11  12
ENDBRANCH  10  11
ENDBRANCH   9  10
ENDBRANCH   8   9
ENDBRANCH   7   8
ENDBRANCH   6   7
ENDBRANCH   5   6
ENDBRANCH   2   5
BRANCH   4  30
HETATM   30  O   UNL     1      -8.792   6.412  67.200  1.00  0.00    -0.113 OA 
BRANCH  30  31
HETATM   31  C   UNL     1      -8.770   5.468  68.241  1.00  0.00    -0.098 A  
HETATM   32  C   UNL     1      -7.976   4.326  68.125  1.00  0.00    -0.078 A  
HETATM   33  C   UNL     1      -9.465   5.754  69.420  1.00  0.00    -0.162 A  
HETATM   34  C   UNL     1      -9.402   4.851  70.496  1.00  0.00    -0.154 A  
HETATM   35  C   UNL     1      -7.919   3.426  69.175  1.00  0.00    -0.057 A  
HETATM   36  C   UNL     1      -8.633   3.682  70.345  1.00  0.00    -0.109 A  
BRANCH  34  37
HETATM   37  N   UNL     1     -10.235   5.070  71.754  1.00  0.00    -0.202 N  
HETATM   38  C   UNL     1      -9.808   4.128  72.880  1.00  0.00    -0.137 C  
HETATM   39  C   UNL     1     -10.064   6.496  72.279  1.00  0.00    -0.175 C  
HETATM   40  C   UNL     1     -11.692   4.790  71.383  1.00  0.00     2.108 C  
ENDBRANCH  34  37
ENDBRANCH  30  31
ENDBRANCH   4  30
TORSDOF 17
ENDMDL
MODEL      321
REMARK 921   NORMALIZED FREE ENERGY PREDICTED BY IDOCK:   10.17 KCAL/MOL
REMARK 922        TOTAL FREE ENERGY PREDICTED BY IDOCK:   18.05 KCAL/MOL
REMARK 923 INTER-LIGAND FREE ENERGY PREDICTED BY IDOCK:   10.18 KCAL/MOL
REMARK 924 INTRA-LIGAND FREE ENERGY PREDICTED BY IDOCK:    7.86 KCAL/MOL
REMARK 927      BINDING AFFINITY PREDICTED BY RF-SCORE:    0.00 PKD
ROOT
HETATM    1  C   UNL     1     -13.236   8.785  69.027  1.00  0.00     7.251 C  
HETATM    2  N   UNL     1     -12.248   7.724  68.925  1.00  0.00     2.513 N  
HETATM    3  O   UNL     1     -10.278   6.840  69.764  1.00  0.00    -0.180 OA 
HETATM    4  C   UNL     1     -11.221   7.620  69.853  1.00  0.00    -0.085 C  
ENDROOT
BRANCH   2   5
HETATM    5  C   UNL     1     -12.210   6.917  67.707  1.00  0.00     3.744 C  
BRANCH   5   6
HETATM    6  C   UNL     1     -10.805   6.391  67.380  1.00  0.00    -0.457 C  
BRANCH   6   7
HETATM    7  C   UNL     1     -10.578   6.310  65.866  1.00  0.00     0.840 C  
BRANCH   7   8
HETATM    8  C   UNL     1      -9.529   7.322  65.389  1.00  0.00     0.749 C  
BRANCH   8   9
HETATM    9  C   UNL     1      -8.117   6.892  65.796  1.00  0.00    -0.123 C  
BRANCH   9  10
HETATM   10  C   UNL     1      -7.609   5.730  64.938  1.00  0.00    -0.088 C  
BRANCH  10  11
HETATM   11  C   UNL     1      -6.234   5.212  65.373  1.00  0.00    -0.034 C  
BRANCH  11  12
HETATM   12  C   UNL     1      -5.962   5.408  66.863  1.00  0.00    -0.022 C  
BRANCH  12  13
HETATM   13  C   UNL     1      -7.258   5.458  67.668  1.00  0.00    -0.072 C  
BRANCH  13  14
HETATM   14  C   UNL     1      -7.853   4.063  67.793  1.00  0.00    -0.086 C  
BRANCH  14  15
HETATM   15  N   UNL     1      -7.689   3.525  69.136  1.00  0.00    -0.052 N  
HETATM   16  C   UNL     1      -8.761   2.911  69.758  1.00  0.00    -0.074 C  
HETATM   17  C   UNL     1      -6.383   3.605  69.775  1.00  0.00    -0.028 C  
HETATM   18  O   UNL     1      -9.890   2.845  69.286  1.00  0.00     0.063 OA 
BRANCH  16  19
HETATM   19  O   UNL     1      -8.444   2.497  71.043  1.00  0.00    -0.056 OA 
BRANCH  19  20
HETATM   20  C   UNL     1      -7.654   3.416  71.741  1.00  0.00    -0.053 A  
HETATM   21  C   UNL     1      -6.299   3.129  71.862  1.00  0.00    -0.015 A  
HETATM   22  C   UNL     1      -5.470   4.080  72.445  1.00  0.00     0.000 A  
HETATM   23  C   UNL     1      -5.991   5.296  72.901  1.00  0.00    -0.027 A  
HETATM   24  C   UNL     1      -7.362   5.585  72.792  1.00  0.00    -0.092 A  
HETATM   25  C   UNL     1      -8.181   4.643  72.172  1.00  0.00    -0.110 A  
BRANCH  24  26
HETATM   26  N   UNL     1      -7.937   6.924  73.227  1.00  0.00    -0.098 N  
HETATM   27  C   UNL     1      -7.097   7.548  74.337  1.00  0.00    -0.112 C  
HETATM   28  C   UNL     1      -9.356   6.749  73.782  1.00  0.00    -0.177 C  
HETATM   29  C   UNL     1      -7.956   7.836  72.008  1.00  0.00    -0.105 C  
ENDBRANCH  24  26
ENDBRANCH  19  20
ENDBRANCH  16  19
ENDBRANCH  14  15
ENDBRANCH  13  14
ENDBRANCH  12  13
ENDBRANCH  11  12
ENDBRANCH  10  11
ENDBRANCH   9  10
ENDBRANCH   8   9
ENDBRANCH   7   8
ENDBRANCH   6   7
ENDBRANCH   5   6
ENDBRANCH   2   5
BRANCH   4  30
HETATM   30  O   UNL     1     -11.332   8.561  70.881  1.00  0.00    -0.261 OA 
BRANCH  30  31
HETATM   31  C   UNL     1     -11.398   9.887  70.423  1.00  0.00    -0.307 A  
HETATM   32  C   UNL     1     -12.259  10.795  71.043  1.00  0.00    -0.485 A  
HETATM   33  C   UNL     1     -10.513  10.294  69.420  1.00  0.00    -0.259 A  
HETATM   34  C   UNL     1     -10.520  11.633  68.992  1.00  0.00    -0.128 A  
HETATM   35  C   UNL     1     -12.281  12.111  70.619  1.00  0.00    -0.392 A  
HETATM   36  C   UNL     1     -11.426  12.524  69.597  1.00  0.00    -0.255 A  
BRANCH  34  37
HETATM   37  N   UNL     1      -9.652  12.089  67.825  1.00  0.00    -0.187 N  
HETATM   38  C   UNL     1      -8.258  11.462  67.885  1.00  0.00    -0.132 C  
HETATM   39  C   UNL     1     -10.270  11.670  66.491  1.00  0.00    -0.214 C  
HETATM   40  C   UNL     1      -9.528  13.610  67.923  1.00  0.00    -0.213 C  
ENDBRANCH  34  37
ENDBRANCH  30  31
ENDBRANCH   4  30
TORSDOF 17
ENDMDL
MODEL      322
REMARK 921   NORMALIZED FREE ENERGY PREDICTED BY IDOCK:   11.85 KCAL/MOL
REMARK 922        TOTAL FREE ENERGY PREDICTED BY IDOCK:   21.39 KCAL/MOL
REMARK 923 INTER-LIGAND FREE ENERGY PREDICTED BY IDOCK:   12.97 KCAL/MOL
REMARK 924 INTRA-LIGAND FREE ENERGY PREDICTED BY IDOCK:    8.42 KCAL/MOL
REMARK 927      BINDING AFFINITY PREDICTED BY RF-SCORE:    0.00 PKD
ROOT
HETATM    1  C   UNL     1      -6.875  12.508  67.826  1.00  0.00    -0.120 C  
HETATM    2  N   UNL     1      -7.988  12.456  68.758  1.00  0.00    -0.020 N  
HETATM    3  O   UNL     1     -10.241  12.878  69.092  1.00  0.00     0.044 OA 
HETATM    4  C   UNL     1      -9.275  12.771  68.344  1.00  0.00    -0.136 C  
ENDROOT
BRANCH   2   5
HETATM    5  C   UNL     1      -7.703  12.299  70.183  1.00  0.00     2.550 C  
BRANCH   5   6
HETATM    6  C   UNL     1      -6.210  12.434  70.514  1.00  0.00     0.236 C  
BRANCH   6   7
HETATM    7  C   UNL     1      -5.836  13.890  70.818  1.00  0.00    -0.197 C  
BRANCH   7   8
HETATM    8  C   UNL     1      -6.382  14.350  72.175  1.00  0.00     0.887 C  
BRANCH   8   9
HETATM    9  C   UNL     1      -6.511  13.175  73.150  1.00  0.00     3.460 C  
BRANCH   9  10
HETATM   10  C   UNL     1      -5.151  12.543  73.458  1.00  0.00     0.337 C  
BRANCH  10  11
HETATM   11  C   UNL     1      -5.229  11.036  73.722  1.00  0.00     0.524 C  
BRANCH  11  12
HETATM   12  C   UNL     1      -5.814  10.250  72.550  1.00  0.00     0.775 C  
BRANCH  12  13
HETATM   13  C   UNL     1      -6.847   9.229  73.020  1.00  0.00     0.642 C  
BRANCH  13  14
HETATM   14  C   UNL     1      -7.218   8.294  71.878  1.00  0.00    -0.090 C  
BRANCH  14  15
HETATM   15  N   UNL     1      -7.821   7.062  72.364  1.00  0.00    -0.094 N  
HETATM   16  C   UNL     1      -8.375   7.028  73.631  1.00  0.00    -0.123 C  
HETATM   17  C   UNL     1      -7.869   5.903  71.483  1.00  0.00    -0.112 C  
HETATM   18  O   UNL     1      -8.333   7.958  74.429  1.00  0.00    -0.233 OA 
BRANCH  16  19
HETATM   19  O   UNL     1      -8.864   5.770  73.948  1.00  0.00    -0.126 OA 
BRANCH  19  20
HETATM   20  C   UNL     1      -9.848   5.319  73.061  1.00  0.00    -0.154 A  
HETATM   21  C   UNL     1     -10.822   4.469  73.570  1.00  0.00    -0.360 A  
HETATM   22  C   UNL     1     -11.878   4.102  72.743  1.00  0.00     0.476 A  
HETATM   23  C   UNL     1     -11.953   4.577  71.430  1.00  0.00     3.696 A  
HETATM   24  C   UNL     1     -10.963   5.427  70.907  1.00  0.00    -0.048 A  
HETATM   25  C   UNL     1      -9.928   5.822  71.754  1.00  0.00    -0.209 A  
BRANCH  24  26
HETATM   26  N   UNL     1     -11.058   6.003  69.503  1.00  0.00    -0.403 N  
HETATM   27  C   UNL     1     -10.890   4.912  68.450  1.00  0.00     0.765 C  
HETATM   28  C   UNL     1      -9.946   7.032  69.263  1.00  0.00    -0.162 C  
HETATM   29  C   UNL     1     -12.423   6.661  69.364  1.00  0.00     2.097 C  
ENDBRANCH  24  26
ENDBRANCH  19  20
ENDBRANCH  16  19
ENDBRANCH  14  15
ENDBRANCH  13  14
ENDBRANCH  12  13
ENDBRANCH  11  12
ENDBRANCH  10  11
ENDBRANCH   9  10
ENDBRANCH   8   9
ENDBRANCH   7   8
ENDBRANCH   6   7
ENDBRANCH   5   6
ENDBRANCH   2   5
BRANCH   4  30
HETATM   30  O   UNL     1      -9.346  13.030  66.972  1.00  0.00    -0.221 OA 
BRANCH  30  31
HETATM   31  C   UNL     1      -9.644  11.892  66.202  1.00  0.00    -0.234 A  
HETATM   32  C   UNL     1     -10.358  12.028  65.010  1.00  0.00    -0.318 A  
HETATM   33  C   UNL     1      -9.120  10.659  66.599  1.00  0.00    -0.176 A  
HETATM   34  C   UNL     1      -9.354   9.521  65.807  1.00  0.00    -0.233 A  
HETATM   35  C   UNL     1     -10.604  10.911  64.232  1.00  0.00    -0.336 A  
HETATM   36  C   UNL     1     -10.115   9.668  64.632  1.00  0.00     0.531 A  
BRANCH  34  37
HETATM   37  N   UNL     1      -8.898   8.140  66.264  1.00  0.00    -0.155 N  
HETATM   38  C   UNL     1      -8.631   8.107  67.769  1.00  0.00    -0.131 C  
HETATM   39  C   UNL     1      -9.971   7.090  65.979  1.00  0.00     0.426 C  
HETATM   40  C   UNL     1      -7.603   7.823  65.513  1.00  0.00    -0.083 C  
ENDBRANCH  34  37
ENDBRANCH  30  31
ENDBRANCH   4  30
TORSDOF 17
ENDMDL
MODEL      323
REMARK 921   NORMALIZED FREE ENERGY PREDICTED BY IDOCK:   19.52 KCAL/MOL
REMARK 922        TOTAL FREE ENERGY PREDICTED BY IDOCK:   36.68 KCAL/MOL
REMARK 923 INTER-LIGAND FREE ENERGY PREDICTED BY IDOCK:   17.13 KCAL/MOL
REMARK 924 INTRA-LIGAND FREE ENERGY PREDICTED BY IDOCK:   19.55 KCAL/MOL
REMARK 927      BINDING AFFINITY PREDICTED BY RF-SCORE:    0.00 PKD
ROOT
HETATM    1  C   UNL     1     -10.824   7.469  69.084  1.00  0.00    -0.088 C  
HETATM    2  N   UNL     1     -10.926   6.036  68.871  1.00  0.00    -0.338 N  
HETATM    3  O   UNL     1     -11.481   4.344  67.389  1.00  0.00     3.293 OA 
HETATM    4  C   UNL     1     -11.248   5.526  67.621  1.00  0.00     0.816 C  
ENDROOT
BRANCH   2   5
HETATM    5  C   UNL     1     -10.920   5.152  70.035  1.00  0.00     0.442 C  
BRANCH   5   6
HETATM    6  C   UNL     1      -9.748   5.424  70.988  1.00  0.00    -0.235 C  
BRANCH   6   7
HETATM    7  C   UNL     1      -9.884   6.795  71.662  1.00  0.00    -0.173 C  
BRANCH   7   8
HETATM    8  C   UNL     1      -9.603   7.944  70.685  1.00  0.00    -0.167 C  
BRANCH   8   9
HETATM    9  C   UNL     1      -8.536   7.552  69.659  1.00  0.00    -0.135 C  
BRANCH   9  10
HETATM   10  C   UNL     1      -7.517   8.675  69.445  1.00  0.00    -0.080 C  
BRANCH  10  11
HETATM   11  C   UNL     1      -6.390   8.677  70.483  1.00  0.00    -0.037 C  
BRANCH  11  12
HETATM   12  C   UNL     1      -5.207   9.556  70.083  1.00  0.00    -0.031 C  
BRANCH  12  13
HETATM   13  C   UNL     1      -5.586  10.537  68.977  1.00  0.00    -0.041 C  
BRANCH  13  14
HETATM   14  C   UNL     1      -5.262  11.961  69.403  1.00  0.00    -0.057 C  
BRANCH  14  15
HETATM   15  N   UNL     1      -5.942  12.942  68.571  1.00  0.00    -0.063 N  
HETATM   16  C   UNL     1      -7.296  13.164  68.749  1.00  0.00    -0.068 C  
HETATM   17  C   UNL     1      -5.169  13.702  67.598  1.00  0.00     0.045 C  
HETATM   18  O   UNL     1      -8.005  12.531  69.524  1.00  0.00     0.662 OA 
BRANCH  16  19
HETATM   19  O   UNL     1      -7.790  14.095  67.846  1.00  0.00    -0.126 OA 
BRANCH  19  20
HETATM   20  C   UNL     1      -9.070  14.556  68.173  1.00  0.00    -0.191 A  
HETATM   21  C   UNL     1      -9.376  14.677  69.523  1.00  0.00     0.190 A  
HETATM   22  C   UNL     1     -10.595  15.246  69.877  1.00  0.00    -0.291 A  
HETATM   23  C   UNL     1     -11.490  15.680  68.893  1.00  0.00    -0.367 A  
HETATM   24  C   UNL     1     -11.189  15.548  67.527  1.00  0.00    -0.272 A  
HETATM   25  C   UNL     1      -9.949  15.013  67.181  1.00  0.00    -0.237 A  
BRANCH  24  26
HETATM   26  N   UNL     1     -12.121  16.069  66.444  1.00  0.00     1.251 N  
HETATM   27  C   UNL     1     -11.604  17.379  65.859  1.00  0.00     1.830 C  
HETATM   28  C   UNL     1     -13.514  16.354  67.021  1.00  0.00     7.099 C  
HETATM   29  C   UNL     1     -12.208  15.007  65.358  1.00  0.00     0.097 C  
ENDBRANCH  24  26
ENDBRANCH  19  20
ENDBRANCH  16  19
ENDBRANCH  14  15
ENDBRANCH  13  14
ENDBRANCH  12  13
ENDBRANCH  11  12
ENDBRANCH  10  11
ENDBRANCH   9  10
ENDBRANCH   8   9
ENDBRANCH   7   8
ENDBRANCH   6   7
ENDBRANCH   5   6
ENDBRANCH   2   5
BRANCH   4  30
HETATM   30  O   UNL     1     -11.352   6.524  66.647  1.00  0.00    -0.171 OA 
BRANCH  30  31
HETATM   31  C   UNL     1     -11.429   7.821  67.181  1.00  0.00     1.416 A  
HETATM   32  C   UNL     1     -11.987   8.020  68.445  1.00  0.00     2.764 A  
HETATM   33  C   UNL     1     -10.841   8.874  66.472  1.00  0.00     0.353 A  
HETATM   34  C   UNL     1     -10.853  10.168  67.020  1.00  0.00    -0.151 A  
HETATM   35  C   UNL     1     -12.014   9.293  68.985  1.00  0.00     1.327 A  
HETATM   36  C   UNL     1     -11.460  10.358  68.276  1.00  0.00    -0.218 A  
BRANCH  34  37
HETATM   37  N   UNL     1     -10.325  11.359  66.229  1.00  0.00    -0.235 N  
HETATM   38  C   UNL     1      -8.796  11.372  66.189  1.00  0.00    -0.184 C  
HETATM   39  C   UNL     1     -10.807  11.308  64.780  1.00  0.00    -0.244 C  
HETATM   40  C   UNL     1     -10.823  12.623  66.933  1.00  0.00    -0.254 C  
ENDBRANCH  34  37
ENDBRANCH  30  31
ENDBRANCH   4  30
TORSDOF 17
ENDMDL
MODEL      324
REMARK 921   NORMALIZED FREE ENERGY PREDICTED BY IDOCK:   21.58 KCAL/MOL
REMARK 922        TOTAL FREE ENERGY PREDICTED BY IDOCK:   40.78 KCAL/MOL
REMARK 923 INTER-LIGAND FREE ENERGY PREDICTED BY IDOCK:   11.80 KCAL/MOL
REMARK 924 INTRA-LIGAND FREE ENERGY PREDICTED BY IDOCK:   28.98 KCAL/MOL
REMARK 927      BINDING AFFINITY PREDICTED BY RF-SCORE:    0.00 PKD
ROOT
HETATM    1  C   UNL     1     -11.062  15.363  67.859  1.00  0.00    -0.323 C  
HETATM    2  N   UNL     1     -10.917  16.530  68.713  1.00  0.00    -0.333 N  
HETATM    3  O   UNL     1      -9.666  18.418  69.196  1.00  0.00    -0.248 OA 
HETATM    4  C   UNL     1      -9.938  17.479  68.454  1.00  0.00    -0.335 C  
ENDROOT
BRANCH   2   5
HETATM    5  C   UNL     1     -11.654  16.571  69.974  1.00  0.00     0.200 C  
BRANCH   5   6
HETATM    6  C   UNL     1     -11.243  15.455  70.945  1.00  0.00    -0.397 C  
BRANCH   6   7
HETATM    7  C   UNL     1      -9.764  15.571  71.334  1.00  0.00     2.448 C  
BRANCH   7   8
HETATM    8  C   UNL     1      -9.100  16.801  70.702  1.00  0.00     3.633 C  
BRANCH   8   9
HETATM    9  C   UNL     1      -7.613  16.553  70.431  1.00  0.00     2.159 C  
BRANCH   9  10
HETATM   10  C   UNL     1      -6.739  17.673  71.002  1.00  0.00     2.857 C  
BRANCH  10  11
HETATM   11  C   UNL     1      -5.370  17.779  70.322  1.00  0.00    -0.248 C  
BRANCH  11  12
HETATM   12  C   UNL     1      -5.408  18.563  69.012  1.00  0.00    -0.198 C  
BRANCH  12  13
HETATM   13  C   UNL     1      -6.389  17.946  68.018  1.00  0.00    -0.178 C  
BRANCH  13  14
HETATM   14  C   UNL     1      -6.059  16.477  67.798  1.00  0.00    -0.134 C  
BRANCH  14  15
HETATM   15  N   UNL     1      -7.145  15.774  67.130  1.00  0.00    -0.207 N  
HETATM   16  C   UNL     1      -7.307  14.417  67.338  1.00  0.00    -0.142 C  
HETATM   17  C   UNL     1      -8.067  16.530  66.294  1.00  0.00    -0.306 C  
HETATM   18  O   UNL     1      -6.543  13.723  68.001  1.00  0.00    -0.107 OA 
BRANCH  16  19
HETATM   19  O   UNL     1      -8.358  13.901  66.595  1.00  0.00     0.004 OA 
BRANCH  19  20
HETATM   20  C   UNL     1      -8.857  12.697  67.103  1.00  0.00    -0.204 A  
HETATM   21  C   UNL     1      -9.595  12.760  68.279  1.00  0.00    -0.211 A  
HETATM   22  C   UNL     1     -10.203  11.598  68.742  1.00  0.00    -0.190 A  
HETATM   23  C   UNL     1     -10.069  10.396  68.039  1.00  0.00    -0.189 A  
HETATM   24  C   UNL     1      -9.313  10.326  66.857  1.00  0.00    -0.158 A  
HETATM   25  C   UNL     1      -8.739  11.503  66.378  1.00  0.00    -0.179 A  
BRANCH  24  26
HETATM   26  N   UNL     1      -9.205   9.043  66.047  1.00  0.00    -0.208 N  
HETATM   27  C   UNL     1      -9.961   9.162  64.728  1.00  0.00     1.094 C  
HETATM   28  C   UNL     1      -9.823   7.866  66.813  1.00  0.00    -0.248 C  
HETATM   29  C   UNL     1      -7.729   8.784  65.784  1.00  0.00    -0.094 C  
ENDBRANCH  24  26
ENDBRANCH  19  20
ENDBRANCH  16  19
ENDBRANCH  14  15
ENDBRANCH  13  14
ENDBRANCH  12  13
ENDBRANCH  11  12
ENDBRANCH  10  11
ENDBRANCH   9  10
ENDBRANCH   8   9
ENDBRANCH   7   8
ENDBRANCH   6   7
ENDBRANCH   5   6
ENDBRANCH   2   5
BRANCH   4  30
HETATM   30  O   UNL     1      -9.232  17.213  67.278  1.00  0.00    -0.225 OA 
BRANCH  30  31
HETATM   31  C   UNL     1     -10.016  16.617  66.276  1.00  0.00    -0.320 A  
HETATM   32  C   UNL     1      -9.945  17.091  64.965  1.00  0.00     1.102 A  
HETATM   33  C   UNL     1     -10.771  15.486  66.601  1.00  0.00    -0.306 A  
HETATM   34  C   UNL     1     -11.512  14.838  65.597  1.00  0.00    -0.327 A  
HETATM   35  C   UNL     1     -10.682  16.466  63.975  1.00  0.00     1.932 A  
HETATM   36  C   UNL     1     -11.465  15.357  64.290  1.00  0.00    -0.178 A  
BRANCH  34  37
HETATM   37  N   UNL     1     -12.436  13.673  65.933  1.00  0.00    -0.461 N  
HETATM   38  C   UNL     1     -12.701  12.797  64.708  1.00  0.00    -0.393 C  
HETATM   39  C   UNL     1     -11.811  12.771  66.997  1.00  0.00    -0.361 C  
HETATM   40  C   UNL     1     -13.756  14.271  66.423  1.00  0.00     3.782 C  
ENDBRANCH  34  37
ENDBRANCH  30  31
ENDBRANCH   4  30
TORSDOF 17
ENDMDL
MODEL      325
REMARK 921   NORMALIZED FREE ENERGY PREDICTED BY IDOCK:   24.06 KCAL/MOL
REMARK 922        TOTAL FREE ENERGY PREDICTED BY IDOCK:   45.74 KCAL/MOL
REMARK 923 INTER-LIGAND FREE ENERGY PREDICTED BY IDOCK:   26.78 KCAL/MOL
REMARK 924 INTRA-LIGAND FREE ENERGY PREDICTED BY IDOCK:   18.97 KCAL/MOL
REMARK 927      BINDING AFFINITY PREDICTED BY RF-SCORE:    0.00 PKD
ROOT
HETATM    1  C   UNL     1      -6.945  12.476  67.848  1.00  0.00    -0.105 C  
HETATM    2  N   UNL     1      -8.080  12.398  68.751  1.00  0.00     0.000 N  
HETATM    3  O   UNL     1     -10.339  12.821  69.046  1.00  0.00    -0.093 OA 
HETATM    4  C   UNL     1      -9.356  12.733  68.317  1.00  0.00    -0.194 C  
ENDROOT
BRANCH   2   5
HETATM    5  C   UNL     1      -7.830  12.193  70.176  1.00  0.00     2.742 C  
BRANCH   5   6
HETATM    6  C   UNL     1      -6.348  12.335  70.551  1.00  0.00     0.432 C  
BRANCH   6   7
HETATM    7  C   UNL     1      -5.997  13.787  70.897  1.00  0.00    -0.136 C  
BRANCH   7   8
HETATM    8  C   UNL     1      -6.642  14.234  72.215  1.00  0.00     1.729 C  
BRANCH   8   9
HETATM    9  C   UNL     1      -6.896  13.041  73.142  1.00  0.00     5.893 C  
BRANCH   9  10
HETATM   10  C   UNL     1      -5.591  12.344  73.538  1.00  0.00     1.274 C  
BRANCH  10  11
HETATM   11  C   UNL     1      -5.743  10.830  73.718  1.00  0.00     1.193 C  
BRANCH  11  12
HETATM   12  C   UNL     1      -6.230  10.121  72.456  1.00  0.00     1.209 C  
BRANCH  12  13
HETATM   13  C   UNL     1      -7.339   9.119  72.768  1.00  0.00     0.652 C  
BRANCH  13  14
HETATM   14  C   UNL     1      -7.600   8.232  71.559  1.00  0.00    -0.092 C  
BRANCH  14  15
HETATM   15  N   UNL     1      -8.286   7.004  71.930  1.00  0.00    -0.106 N  
HETATM   16  C   UNL     1      -7.552   5.852  72.145  1.00  0.00    -0.101 C  
HETATM   17  C   UNL     1      -9.731   7.028  72.112  1.00  0.00    -0.147 C  
HETATM   18  O   UNL     1      -6.341   5.761  71.972  1.00  0.00    -0.042 OA 
BRANCH  16  19
HETATM   19  O   UNL     1      -8.365   4.769  72.446  1.00  0.00    -0.112 OA 
BRANCH  19  20
HETATM   20  C   UNL     1      -9.722   5.100  72.520  1.00  0.00    -0.151 A  
HETATM   21  C   UNL     1     -10.522   4.320  73.347  1.00  0.00    -0.260 A  
HETATM   22  C   UNL     1     -11.847   4.699  73.533  1.00  0.00     0.162 A  
HETATM   23  C   UNL     1     -12.359   5.836  72.900  1.00  0.00     0.367 A  
HETATM   24  C   UNL     1     -11.556   6.620  72.054  1.00  0.00    -0.301 A  
HETATM   25  C   UNL     1     -10.219   6.257  71.902  1.00  0.00    -0.227 A  
BRANCH  24  26
HETATM   26  N   UNL     1     -12.077   7.893  71.405  1.00  0.00    -0.302 N  
HETATM   27  C   UNL     1     -12.049   7.784  69.884  1.00  0.00     0.775 C  
HETATM   28  C   UNL     1     -11.199   9.092  71.785  1.00  0.00    -0.381 C  
HETATM   29  C   UNL     1     -13.503   8.110  71.890  1.00  0.00    -0.324 C  
ENDBRANCH  24  26
ENDBRANCH  19  20
ENDBRANCH  16  19
ENDBRANCH  14  15
ENDBRANCH  13  14
ENDBRANCH  12  13
ENDBRANCH  11  12
ENDBRANCH  10  11
ENDBRANCH   9  10
ENDBRANCH   8   9
ENDBRANCH   7   8
ENDBRANCH   6   7
ENDBRANCH   5   6
ENDBRANCH   2   5
BRANCH   4  30
HETATM   30  O   UNL     1      -9.394  13.038  66.953  1.00  0.00    -0.228 OA 
BRANCH  30  31
HETATM   31  C   UNL     1      -9.814  14.351  66.684  1.00  0.00    -0.278 A  
HETATM   32  C   UNL     1      -9.309  15.028  65.573  1.00  0.00     0.086 A  
HETATM   33  C   UNL     1     -10.817  14.911  67.481  1.00  0.00    -0.292 A  
HETATM   34  C   UNL     1     -11.295  16.199  67.188  1.00  0.00     0.166 A  
HETATM   35  C   UNL     1      -9.765  16.302  65.285  1.00  0.00     0.303 A  
HETATM   36  C   UNL     1     -10.742  16.885  66.091  1.00  0.00    -0.109 A  
BRANCH  34  37
HETATM   37  N   UNL     1     -12.305  16.888  68.100  1.00  0.00     1.619 N  
HETATM   38  C   UNL     1     -13.695  16.264  67.969  1.00  0.00     6.866 C  
HETATM   39  C   UNL     1     -11.894  16.754  69.566  1.00  0.00     0.929 C  
HETATM   40  C   UNL     1     -12.366  18.356  67.676  1.00  0.00     4.361 C  
ENDBRANCH  34  37
ENDBRANCH  30  31
ENDBRANCH   4  30
TORSDOF 17
ENDMDL
MODEL      326
REMARK 921   NORMALIZED FREE ENERGY PREDICTED BY IDOCK:   25.61 KCAL/MOL
REMARK 922        TOTAL FREE ENERGY PREDICTED BY IDOCK:   48.83 KCAL/MOL
REMARK 923 INTER-LIGAND FREE ENERGY PREDICTED BY IDOCK:   38.09 KCAL/MOL
REMARK 924 INTRA-LIGAND FREE ENERGY PREDICTED BY IDOCK:   10.74 KCAL/MOL
REMARK 927      BINDING AFFINITY PREDICTED BY RF-SCORE:    0.00 PKD
ROOT
HETATM    1  C   UNL     1     -13.334   8.786  68.957  1.00  0.00     7.880 C  
HETATM    2  N   UNL     1     -12.532   7.635  68.577  1.00  0.00     4.180 N  
HETATM    3  O   UNL     1     -10.614   6.403  68.990  1.00  0.00    -0.205 OA 
HETATM    4  C   UNL     1     -11.414   7.275  69.316  1.00  0.00     0.268 C  
ENDROOT
BRANCH   2   5
HETATM    5  C   UNL     1     -12.778   7.006  67.281  1.00  0.00     8.936 C  
BRANCH   5   6
HETATM    6  C   UNL     1     -11.513   6.395  66.662  1.00  0.00     0.554 C  
BRANCH   6   7
HETATM    7  C   UNL     1     -11.541   6.485  65.131  1.00  0.00     6.916 C  
BRANCH   7   8
HETATM    8  C   UNL     1     -10.474   7.447  64.595  1.00  0.00     6.830 C  
BRANCH   8   9
HETATM    9  C   UNL     1      -9.070   6.853  64.732  1.00  0.00     0.853 C  
BRANCH   9  10
HETATM   10  C   UNL     1      -8.813   5.759  63.691  1.00  0.00     0.382 C  
BRANCH  10  11
HETATM   11  C   UNL     1      -7.468   5.050  63.876  1.00  0.00    -0.061 C  
BRANCH  11  12
HETATM   12  C   UNL     1      -6.989   5.041  65.327  1.00  0.00    -0.062 C  
BRANCH  12  13
HETATM   13  C   UNL     1      -8.155   5.171  66.303  1.00  0.00    -0.108 C  
BRANCH  13  14
HETATM   14  C   UNL     1      -8.922   3.860  66.384  1.00  0.00    -0.133 C  
BRANCH  14  15
HETATM   15  N   UNL     1      -8.705   3.185  67.655  1.00  0.00    -0.108 N  
HETATM   16  C   UNL     1      -9.782   2.642  68.330  1.00  0.00     0.140 C  
HETATM   17  C   UNL     1      -7.346   3.057  68.164  1.00  0.00    -0.050 C  
HETATM   18  O   UNL     1     -10.950   2.749  67.971  1.00  0.00     4.539 OA 
BRANCH  16  19
HETATM   19  O   UNL     1      -9.403   2.077  69.539  1.00  0.00    -0.112 OA 
BRANCH  19  20
HETATM   20  C   UNL     1      -8.415   2.809  70.206  1.00  0.00    -0.049 A  
HETATM   21  C   UNL     1      -7.964   3.973  69.594  1.00  0.00    -0.057 A  
HETATM   22  C   UNL     1      -7.071   4.782  70.287  1.00  0.00    -0.049 A  
HETATM   23  C   UNL     1      -6.637   4.429  71.569  1.00  0.00    -0.026 A  
HETATM   24  C   UNL     1      -7.081   3.247  72.186  1.00  0.00    -0.038 A  
HETATM   25  C   UNL     1      -8.006   2.460  71.501  1.00  0.00    -0.047 A  
BRANCH  24  26
HETATM   26  N   UNL     1      -6.669   2.876  73.602  1.00  0.00    -0.029 N  
HETATM   27  C   UNL     1      -6.380   4.121  74.434  1.00  0.00    -0.046 C  
HETATM   28  C   UNL     1      -5.384   2.037  73.590  1.00  0.00     0.000 C  
HETATM   29  C   UNL     1      -7.809   2.082  74.224  1.00  0.00    -0.048 C  
ENDBRANCH  24  26
ENDBRANCH  19  20
ENDBRANCH  16  19
ENDBRANCH  14  15
ENDBRANCH  13  14
ENDBRANCH  12  13
ENDBRANCH  11  12
ENDBRANCH  10  11
ENDBRANCH   9  10
ENDBRANCH   8   9
ENDBRANCH   7   8
ENDBRANCH   6   7
ENDBRANCH   5   6
ENDBRANCH   2   5
BRANCH   4  30
HETATM   30  O   UNL     1     -11.246   8.070  70.454  1.00  0.00    -0.268 OA 
BRANCH  30  31
HETATM   31  C   UNL     1     -11.170   9.444  70.172  1.00  0.00    -0.219 A  
HETATM   32  C   UNL     1     -11.997  10.340  70.852  1.00  0.00    -0.473 A  
HETATM   33  C   UNL     1     -10.185   9.893  69.287  1.00  0.00    -0.222 A  
HETATM   34  C   UNL     1     -10.052  11.270  69.041  1.00  0.00    -0.128 A  
HETATM   35  C   UNL     1     -11.882  11.696  70.605  1.00  0.00    -0.238 A  
HETATM   36  C   UNL     1     -10.925  12.156  69.702  1.00  0.00     0.057 A  
BRANCH  34  37
HETATM   37  N   UNL     1      -9.068  11.790  68.000  1.00  0.00    -0.174 N  
HETATM   38  C   UNL     1      -8.827  13.292  68.156  1.00  0.00    -0.187 C  
HETATM   39  C   UNL     1      -7.709  11.105  68.145  1.00  0.00    -0.107 C  
HETATM   40  C   UNL     1      -9.680  11.516  66.625  1.00  0.00    -0.199 C  
ENDBRANCH  34  37
ENDBRANCH  30  31
ENDBRANCH   4  30
TORSDOF 17
ENDMDL
