MODEL        1
REMARK 921   NORMALIZED FREE ENERGY PREDICTED BY IDOCK:   -8.69 KCAL/MOL
REMARK 922        TOTAL FREE ENERGY PREDICTED BY IDOCK:   -9.84 KCAL/MOL
REMARK 923 INTER-LIGAND FREE ENERGY PREDICTED BY IDOCK:   -9.71 KCAL/MOL
REMARK 924 INTRA-LIGAND FREE ENERGY PREDICTED BY IDOCK:   -0.14 KCAL/MOL
REMARK 927      BINDING AFFINITY PREDICTED BY RF-SCORE:    0.00 PKD
ROOT
HETATM    1  C   UNL     1     -10.538  10.569  68.684  1.00  0.00    -0.226 C  
HETATM    2  C   UNL     1      -9.383  11.359  68.086  1.00  0.00    -0.181 C  
HETATM    3  C   UNL     1      -9.866  12.601  67.365  1.00  0.00    -0.205 C  
HETATM    4  C   UNL     1     -10.162  12.466  65.851  1.00  0.00    -0.251 C  
HETATM    5  H   UNL     1     -14.481   8.564  72.782  1.00  0.00     0.000 HD 
HETATM    6  C   UNL     1     -10.179  13.955  65.398  1.00  0.00    -0.337 C  
HETATM    7  C   UNL     1     -11.258  14.664  65.809  1.00  0.00    -0.336 C  
HETATM    8  O   UNL     1      -8.915  14.553  65.485  1.00  0.00    -0.120 OA 
HETATM    9  O   UNL     1     -13.886   9.066  72.237  1.00  0.00    -0.445 OA 
HETATM   10  C   UNL     1     -12.818   8.475  71.622  1.00  0.00    -0.338 A  
HETATM   11  C   UNL     1     -11.293  14.649  67.352  1.00  0.00    -0.356 C  
HETATM   12  H   UNL     1      -9.124   7.682  68.541  1.00  0.00     0.000 HD 
HETATM   13  H   UNL     1      -8.925  15.462  65.209  1.00  0.00     0.000 HD 
HETATM   14  O   UNL     1     -11.431  15.689  67.991  1.00  0.00    -0.345 OA 
HETATM   15  C   UNL     1     -11.145  13.235  68.009  1.00  0.00    -0.256 C  
HETATM   16  C   UNL     1     -12.642   7.105  71.830  1.00  0.00    -0.381 A  
HETATM   17  C   UNL     1     -11.560   6.456  71.257  1.00  0.00    -0.370 A  
HETATM   18 CL   UNL     1      -9.290   6.255  69.921  1.00  0.00    -0.154 Cl 
HETATM   19  O   UNL     1      -9.502   8.474  68.177  1.00  0.00    -0.139 OA 
HETATM   20  O   UNL     1     -12.401  12.696  67.475  1.00  0.00    -0.304 OA 
HETATM   21  C   UNL     1     -11.323  12.801  69.460  1.00  0.00    -0.154 C  
HETATM   22  H   UNL     1     -13.177  13.080  67.866  1.00  0.00     0.000 HD 
HETATM   23  O   UNL     1     -11.939  13.673  70.333  1.00  0.00    -0.362 OA 
HETATM   24  C   UNL     1     -11.256  11.451  69.672  1.00  0.00    -0.301 C  
HETATM   25  C   UNL     1     -12.139  10.717  70.641  1.00  0.00    -0.370 C  
HETATM   26  H   UNL     1     -12.050  13.404  71.237  1.00  0.00     0.000 HD 
HETATM   27  O   UNL     1     -13.085  11.300  71.159  1.00  0.00    -0.310 OA 
HETATM   28  C   UNL     1     -11.934   9.221  70.811  1.00  0.00    -0.269 A  
HETATM   29  C   UNL     1     -10.867   8.537  70.174  1.00  0.00    -0.238 A  
HETATM   30  C   UNL     1     -10.666   7.164  70.459  1.00  0.00    -0.238 A  
HETATM   31  C   UNL     1      -9.929   9.293  69.272  1.00  0.00    -0.180 C  
ENDROOT
BRANCH   4  32
HETATM   32  N   UNL     1      -9.454  11.472  65.041  1.00  0.00    -0.196 NA 
HETATM   33  C   UNL     1     -10.038  10.140  65.252  1.00  0.00    -0.274 C  
HETATM   34  C   UNL     1      -9.299  11.765  63.626  1.00  0.00     0.020 C  
ENDBRANCH   4  32
BRANCH   7  35
HETATM   35  C   UNL     1     -12.465  14.258  65.015  1.00  0.00    -0.400 C  
HETATM   36  N   UNL     1     -12.326  14.128  63.671  1.00  0.00    -1.092 N  
HETATM   37  O   UNL     1     -13.557  13.986  65.527  1.00  0.00    -0.596 OA 
HETATM   38  H1  UNL     1     -13.147  13.852  63.132  1.00  0.00     0.000 HD 
HETATM   39  H2  UNL     1     -11.430  14.300  63.215  1.00  0.00     0.000 HD 
ENDBRANCH   7  35
TORSDOF 2
ENDMDL
MODEL        2
REMARK 921   NORMALIZED FREE ENERGY PREDICTED BY IDOCK:   -8.64 KCAL/MOL
REMARK 922        TOTAL FREE ENERGY PREDICTED BY IDOCK:   -9.79 KCAL/MOL
REMARK 923 INTER-LIGAND FREE ENERGY PREDICTED BY IDOCK:   -9.58 KCAL/MOL
REMARK 924 INTRA-LIGAND FREE ENERGY PREDICTED BY IDOCK:   -0.20 KCAL/MOL
REMARK 927      BINDING AFFINITY PREDICTED BY RF-SCORE:    0.00 PKD
ROOT
HETATM    1  C   UNL     1     -10.733  10.519  68.903  1.00  0.00    -0.253 C  
HETATM    2  C   UNL     1      -9.548  11.308  68.365  1.00  0.00    -0.195 C  
HETATM    3  C   UNL     1      -9.992  12.547  67.616  1.00  0.00    -0.201 C  
HETATM    4  C   UNL     1     -10.208  12.408  66.089  1.00  0.00    -0.242 C  
HETATM    5  H   UNL     1     -14.886   8.525  72.794  1.00  0.00     0.000 HD 
HETATM    6  C   UNL     1     -10.200  13.896  65.632  1.00  0.00    -0.328 C  
HETATM    7  C   UNL     1     -11.300  14.606  65.984  1.00  0.00    -0.344 C  
HETATM    8  O   UNL     1      -8.943  14.495  65.784  1.00  0.00    -0.410 OA 
HETATM    9  O   UNL     1     -14.263   9.025  72.279  1.00  0.00    -0.436 OA 
HETATM   10  C   UNL     1     -13.165   8.433  71.723  1.00  0.00    -0.355 A  
HETATM   11  C   UNL     1     -11.416  14.596  67.523  1.00  0.00    -0.361 C  
HETATM   12  H   UNL     1      -9.314   7.631  68.842  1.00  0.00     0.000 HD 
HETATM   13  H   UNL     1      -8.939  15.403  65.505  1.00  0.00     0.000 HD 
HETATM   14  O   UNL     1     -11.587  15.637  68.151  1.00  0.00    -0.353 OA 
HETATM   15  C   UNL     1     -11.303  13.183  68.190  1.00  0.00    -0.292 C  
HETATM   16  C   UNL     1     -13.000   7.063  71.943  1.00  0.00    -0.283 A  
HETATM   17  C   UNL     1     -11.890   6.413  71.430  1.00  0.00    -0.340 A  
HETATM   18 CL   UNL     1      -9.552   6.208  70.215  1.00  0.00    -0.180 Cl 
HETATM   19  O   UNL     1      -9.672   8.422  68.456  1.00  0.00    -0.154 OA 
HETATM   20  O   UNL     1     -12.529  12.643  67.593  1.00  0.00    -0.114 OA 
HETATM   21  C   UNL     1     -11.557  12.753  69.632  1.00  0.00    -0.252 C  
HETATM   22  H   UNL     1     -13.325  13.028  67.941  1.00  0.00     0.000 HD 
HETATM   23  O   UNL     1     -12.219  13.627  70.468  1.00  0.00    -0.339 OA 
HETATM   24  C   UNL     1     -11.502  11.404  69.850  1.00  0.00    -0.353 C  
HETATM   25  C   UNL     1     -12.434  10.672  70.773  1.00  0.00    -0.385 C  
HETATM   26  H   UNL     1     -12.376  13.360  71.366  1.00  0.00     0.000 HD 
HETATM   27  O   UNL     1     -13.407  11.256  71.239  1.00  0.00    -0.182 OA 
HETATM   28  C   UNL     1     -12.239   9.177  70.957  1.00  0.00    -0.302 A  
HETATM   29  C   UNL     1     -11.140   8.491  70.379  1.00  0.00    -0.246 A  
HETATM   30  C   UNL     1     -10.955   7.119  70.678  1.00  0.00    -0.258 A  
HETATM   31  C   UNL     1     -10.156   9.244  69.525  1.00  0.00    -0.198 C  
ENDROOT
BRANCH   4  32
HETATM   32  N   UNL     1      -9.459  11.413  65.320  1.00  0.00    -0.225 NA 
HETATM   33  C   UNL     1      -9.725  11.577  63.885  1.00  0.00    -0.255 C  
HETATM   34  C   UNL     1      -8.034  11.311  65.586  1.00  0.00     0.223 C  
ENDBRANCH   4  32
BRANCH   7  35
HETATM   35  C   UNL     1     -12.464  14.199  65.129  1.00  0.00    -0.439 C  
HETATM   36  N   UNL     1     -12.232  13.968  63.811  1.00  0.00    -0.939 N  
HETATM   37  O   UNL     1     -13.602  14.012  65.573  1.00  0.00    -0.596 OA 
HETATM   38  H1  UNL     1     -13.023  13.690  63.230  1.00  0.00     0.000 HD 
HETATM   39  H2  UNL     1     -11.298  14.067  63.415  1.00  0.00     0.000 HD 
ENDBRANCH   7  35
TORSDOF 2
ENDMDL
MODEL        3
REMARK 921   NORMALIZED FREE ENERGY PREDICTED BY IDOCK:   -8.22 KCAL/MOL
REMARK 922        TOTAL FREE ENERGY PREDICTED BY IDOCK:   -9.32 KCAL/MOL
REMARK 923 INTER-LIGAND FREE ENERGY PREDICTED BY IDOCK:   -9.21 KCAL/MOL
REMARK 924 INTRA-LIGAND FREE ENERGY PREDICTED BY IDOCK:   -0.11 KCAL/MOL
REMARK 927      BINDING AFFINITY PREDICTED BY RF-SCORE:    0.00 PKD
ROOT
HETATM    1  C   UNL     1      -9.709  15.683  67.076  1.00  0.00    -0.234 C  
HETATM    2  C   UNL     1      -9.392  16.441  68.356  1.00  0.00    -0.217 C  
HETATM    3  C   UNL     1      -8.580  17.690  68.083  1.00  0.00    -0.261 C  
HETATM    4  C   UNL     1      -7.039  17.555  68.137  1.00  0.00    -0.206 C  
HETATM    5  H   UNL     1     -12.796  13.798  62.250  1.00  0.00     0.000 HD 
HETATM    6  C   UNL     1      -6.595  19.042  68.263  1.00  0.00    -0.243 C  
HETATM    7  C   UNL     1      -6.749  19.780  67.137  1.00  0.00    -0.230 C  
HETATM    8  O   UNL     1      -6.970  19.609  69.488  1.00  0.00    -0.347 OA 
HETATM    9  O   UNL     1     -12.402  14.282  62.967  1.00  0.00    -0.380 OA 
HETATM   10  C   UNL     1     -12.046  13.662  64.131  1.00  0.00    -0.435 A  
HETATM   11  C   UNL     1      -8.244  19.774  66.750  1.00  0.00    -0.312 C  
HETATM   12  H   UNL     1      -9.890  12.760  68.409  1.00  0.00     0.000 HD 
HETATM   13  H   UNL     1      -6.699  20.516  69.564  1.00  0.00     0.000 HD 
HETATM   14  O   UNL     1      -8.836  20.820  66.496  1.00  0.00     0.038 OA 
HETATM   15  C   UNL     1      -8.916  18.359  66.707  1.00  0.00    -0.288 C  
HETATM   16  C   UNL     1     -12.287  12.289  64.220  1.00  0.00    -0.519 A  
HETATM   17  C   UNL     1     -11.977  11.610  65.387  1.00  0.00     0.285 A  
HETATM   18 CL   UNL     1     -11.195  11.345  67.897  1.00  0.00    -0.324 Cl 
HETATM   19  O   UNL     1      -9.450  13.559  68.145  1.00  0.00    -0.204 OA 
HETATM   20  O   UNL     1      -8.108  17.850  65.593  1.00  0.00    -0.514 OA 
HETATM   21  C   UNL     1     -10.288  17.938  66.192  1.00  0.00    -0.352 C  
HETATM   22  H   UNL     1      -8.312  18.256  64.758  1.00  0.00     0.000 HD 
HETATM   23  O   UNL     1     -10.997  18.829  65.414  1.00  0.00    -0.490 OA 
HETATM   24  C   UNL     1     -10.508  16.588  66.173  1.00  0.00    -0.301 C  
HETATM   25  C   UNL     1     -11.249  15.881  65.074  1.00  0.00    -0.290 C  
HETATM   26  H   UNL     1     -11.852  18.567  65.094  1.00  0.00     0.000 HD 
HETATM   27  O   UNL     1     -11.537  16.490  64.050  1.00  0.00    -1.154 OA 
HETATM   28  C   UNL     1     -11.459  14.381  65.196  1.00  0.00    -0.362 A  
HETATM   29  C   UNL     1     -11.083  13.668  66.363  1.00  0.00    -0.307 A  
HETATM   30  C   UNL     1     -11.405  12.291  66.458  1.00  0.00    -0.351 A  
HETATM   31  C   UNL     1     -10.419  14.394  67.501  1.00  0.00    -0.252 C  
ENDROOT
BRANCH   4  32
HETATM   32  N   UNL     1      -6.411  16.540  68.986  1.00  0.00    -0.170 NA 
HETATM   33  C   UNL     1      -5.926  15.424  68.163  1.00  0.00    -0.134 C  
HETATM   34  C   UNL     1      -5.391  16.997  69.914  1.00  0.00    -0.190 C  
ENDBRANCH   4  32
BRANCH   7  35
HETATM   35  C   UNL     1      -5.700  19.402  66.133  1.00  0.00    -0.162 C  
HETATM   36  N   UNL     1      -5.276  20.358  65.267  1.00  0.00    -0.162 N  
HETATM   37  O   UNL     1      -5.168  18.287  66.091  1.00  0.00    -0.138 OA 
HETATM   38  H1  UNL     1      -4.563  20.101  64.585  1.00  0.00     0.000 HD 
HETATM   39  H2  UNL     1      -5.658  21.303  65.299  1.00  0.00     0.000 HD 
ENDBRANCH   7  35
TORSDOF 2
ENDMDL
MODEL        4
REMARK 921   NORMALIZED FREE ENERGY PREDICTED BY IDOCK:   -8.09 KCAL/MOL
REMARK 922        TOTAL FREE ENERGY PREDICTED BY IDOCK:   -9.18 KCAL/MOL
REMARK 923 INTER-LIGAND FREE ENERGY PREDICTED BY IDOCK:   -8.70 KCAL/MOL
REMARK 924 INTRA-LIGAND FREE ENERGY PREDICTED BY IDOCK:   -0.48 KCAL/MOL
REMARK 927      BINDING AFFINITY PREDICTED BY RF-SCORE:    0.00 PKD
ROOT
HETATM    1  C   UNL     1     -11.200  10.807  70.034  1.00  0.00    -0.366 C  
HETATM    2  C   UNL     1     -10.984   9.581  69.159  1.00  0.00    -0.148 C  
HETATM    3  C   UNL     1     -10.724   8.339  69.986  1.00  0.00    -0.239 C  
HETATM    4  C   UNL     1      -9.247   8.001  70.304  1.00  0.00    -0.155 C  
HETATM    5  H   UNL     1     -14.105  15.102  73.114  1.00  0.00     0.000 HD 
HETATM    6  C   UNL     1      -9.350   6.509  70.736  1.00  0.00    -0.158 C  
HETATM    7  C   UNL     1      -9.926   6.304  71.945  1.00  0.00    -0.193 C  
HETATM    8  O   UNL     1      -9.712   5.670  69.674  1.00  0.00    -0.152 OA 
HETATM    9  O   UNL     1     -13.805  14.301  72.699  1.00  0.00    -0.558 OA 
HETATM   10  C   UNL     1     -13.080  14.330  71.542  1.00  0.00    -0.343 A  
HETATM   11  C   UNL     1     -11.360   6.875  71.905  1.00  0.00    -0.263 C  
HETATM   12  H   UNL     1     -10.121  12.972  67.913  1.00  0.00     0.000 HD 
HETATM   13  H   UNL     1      -9.774   4.760  69.938  1.00  0.00     0.000 HD 
HETATM   14  O   UNL     1     -12.318   6.206  72.286  1.00  0.00    -0.271 OA 
HETATM   15  C   UNL     1     -11.481   8.337  71.358  1.00  0.00    -0.269 C  
HETATM   16  C   UNL     1     -12.798  15.586  70.998  1.00  0.00    -0.543 A  
HETATM   17  C   UNL     1     -12.092  15.679  69.811  1.00  0.00    -0.346 A  
HETATM   18 CL   UNL     1     -10.895  14.786  67.631  1.00  0.00    -0.278 Cl 
HETATM   19  O   UNL     1     -10.041  12.233  68.503  1.00  0.00    -0.216 OA 
HETATM   20  O   UNL     1     -10.724   8.962  72.448  1.00  0.00    -0.258 OA 
HETATM   21  C   UNL     1     -12.673   9.288  71.348  1.00  0.00    -0.330 C  
HETATM   22  H   UNL     1     -11.183   8.961  73.280  1.00  0.00     0.000 HD 
HETATM   23  O   UNL     1     -13.763   8.979  72.134  1.00  0.00    -0.422 OA 
HETATM   24  C   UNL     1     -12.397  10.557  70.916  1.00  0.00    -0.490 C  
HETATM   25  C   UNL     1     -12.994  11.792  71.527  1.00  0.00    -0.341 C  
HETATM   26  H   UNL     1     -14.506   9.571  72.128  1.00  0.00     0.000 HD 
HETATM   27  O   UNL     1     -13.632  11.703  72.570  1.00  0.00    -0.060 OA 
HETATM   28  C   UNL     1     -12.634  13.140  70.925  1.00  0.00    -0.377 A  
HETATM   29  C   UNL     1     -11.855  13.245  69.744  1.00  0.00    -0.394 A  
HETATM   30  C   UNL     1     -11.646  14.525  69.173  1.00  0.00    -0.298 A  
HETATM   31  C   UNL     1     -11.330  12.000  69.083  1.00  0.00    -0.281 C  
ENDROOT
BRANCH   4  32
HETATM   32  N   UNL     1      -8.177   8.417  69.395  1.00  0.00    -0.114 NA 
HETATM   33  C   UNL     1      -7.571   9.669  69.868  1.00  0.00    -0.138 C  
HETATM   34  C   UNL     1      -7.164   7.427  69.072  1.00  0.00    -0.085 C  
ENDBRANCH   4  32
BRANCH   7  35
HETATM   35  C   UNL     1      -8.977   6.704  73.036  1.00  0.00    -0.127 C  
HETATM   36  N   UNL     1      -9.505   7.135  74.210  1.00  0.00    -0.391 N  
HETATM   37  O   UNL     1      -7.748   6.609  72.938  1.00  0.00    -0.095 OA 
HETATM   38  H1  UNL     1      -8.860   7.406  74.952  1.00  0.00     0.000 HD 
HETATM   39  H2  UNL     1     -10.515   7.184  74.346  1.00  0.00     0.000 HD 
ENDBRANCH   7  35
TORSDOF 2
ENDMDL
MODEL        5
REMARK 921   NORMALIZED FREE ENERGY PREDICTED BY IDOCK:   -8.04 KCAL/MOL
REMARK 922        TOTAL FREE ENERGY PREDICTED BY IDOCK:   -9.11 KCAL/MOL
REMARK 923 INTER-LIGAND FREE ENERGY PREDICTED BY IDOCK:   -8.65 KCAL/MOL
REMARK 924 INTRA-LIGAND FREE ENERGY PREDICTED BY IDOCK:   -0.46 KCAL/MOL
REMARK 927      BINDING AFFINITY PREDICTED BY RF-SCORE:    0.00 PKD
ROOT
HETATM    1  C   UNL     1     -11.211  10.882  69.947  1.00  0.00    -0.355 C  
HETATM    2  C   UNL     1     -11.025   9.685  69.027  1.00  0.00    -0.161 C  
HETATM    3  C   UNL     1     -10.779   8.409  69.807  1.00  0.00    -0.211 C  
HETATM    4  C   UNL     1      -9.305   8.034  70.098  1.00  0.00    -0.156 C  
HETATM    5  H   UNL     1     -14.012  15.113  73.206  1.00  0.00     0.000 HD 
HETATM    6  C   UNL     1      -9.431   6.530  70.477  1.00  0.00    -0.166 C  
HETATM    7  C   UNL     1     -10.000   6.292  71.684  1.00  0.00    -0.202 C  
HETATM    8  O   UNL     1      -9.817   5.736  69.390  1.00  0.00    -0.149 OA 
HETATM    9  O   UNL     1     -13.730  14.323  72.760  1.00  0.00    -0.596 OA 
HETATM   10  C   UNL     1     -13.014  14.381  71.598  1.00  0.00    -0.341 A  
HETATM   11  C   UNL     1     -11.423   6.888  71.678  1.00  0.00    -0.275 C  
HETATM   12  H   UNL     1     -10.113  13.103  67.894  1.00  0.00     0.000 HD 
HETATM   13  H   UNL     1      -9.893   4.818  69.621  1.00  0.00     0.000 HD 
HETATM   14  O   UNL     1     -12.389   6.223  72.044  1.00  0.00    -0.328 OA 
HETATM   15  C   UNL     1     -11.523   8.371  71.184  1.00  0.00    -0.274 C  
HETATM   16  C   UNL     1     -12.715  15.650  71.097  1.00  0.00    -0.525 A  
HETATM   17  C   UNL     1     -12.019  15.774  69.906  1.00  0.00    -0.346 A  
HETATM   18 CL   UNL     1     -10.858  14.938  67.684  1.00  0.00    -0.278 Cl 
HETATM   19  O   UNL     1     -10.041  12.341  68.457  1.00  0.00    -0.216 OA 
HETATM   20  O   UNL     1     -10.746   8.944  72.289  1.00  0.00    -0.320 OA 
HETATM   21  C   UNL     1     -12.699   9.343  71.220  1.00  0.00    -0.314 C  
HETATM   22  H   UNL     1     -11.198   8.921  73.125  1.00  0.00     0.000 HD 
HETATM   23  O   UNL     1     -13.787   9.025  72.005  1.00  0.00    -0.412 OA 
HETATM   24  C   UNL     1     -12.404  10.621  70.831  1.00  0.00    -0.502 C  
HETATM   25  C   UNL     1     -12.974  11.844  71.491  1.00  0.00    -0.323 C  
HETATM   26  H   UNL     1     -14.519   9.629  72.027  1.00  0.00     0.000 HD 
HETATM   27  O   UNL     1     -13.604  11.728  72.536  1.00  0.00    -0.111 OA 
HETATM   28  C   UNL     1     -12.595  13.205  70.934  1.00  0.00    -0.377 A  
HETATM   29  C   UNL     1     -11.825  13.339  69.750  1.00  0.00    -0.394 A  
HETATM   30  C   UNL     1     -11.599  14.635  69.224  1.00  0.00    -0.302 A  
HETATM   31  C   UNL     1     -11.328  12.110  69.040  1.00  0.00    -0.276 C  
ENDROOT
BRANCH   4  32
HETATM   32  N   UNL     1      -8.237   8.464  69.194  1.00  0.00    -0.119 NA 
HETATM   33  C   UNL     1      -7.624   9.704  69.690  1.00  0.00    -0.114 C  
HETATM   34  C   UNL     1      -7.229   7.477  68.848  1.00  0.00    -0.082 C  
ENDBRANCH   4  32
BRANCH   7  35
HETATM   35  C   UNL     1      -9.034   6.636  72.779  1.00  0.00    -0.122 C  
HETATM   36  N   UNL     1      -7.718   6.376  72.569  1.00  0.00    -0.100 N  
HETATM   37  O   UNL     1      -9.367   7.191  73.832  1.00  0.00    -0.203 OA 
HETATM   38  H1  UNL     1      -7.061   6.610  73.313  1.00  0.00     0.000 HD 
HETATM   39  H2  UNL     1      -7.396   5.960  71.695  1.00  0.00     0.000 HD 
ENDBRANCH   7  35
TORSDOF 2
ENDMDL
MODEL        6
REMARK 921   NORMALIZED FREE ENERGY PREDICTED BY IDOCK:   -7.80 KCAL/MOL
REMARK 922        TOTAL FREE ENERGY PREDICTED BY IDOCK:   -8.85 KCAL/MOL
REMARK 923 INTER-LIGAND FREE ENERGY PREDICTED BY IDOCK:   -8.51 KCAL/MOL
REMARK 924 INTRA-LIGAND FREE ENERGY PREDICTED BY IDOCK:   -0.34 KCAL/MOL
REMARK 927      BINDING AFFINITY PREDICTED BY RF-SCORE:    0.00 PKD
ROOT
HETATM    1  C   UNL     1      -9.297  15.978  67.445  1.00  0.00    -0.220 C  
HETATM    2  C   UNL     1     -10.535  15.112  67.628  1.00  0.00    -0.253 C  
HETATM    3  C   UNL     1     -10.217  13.638  67.484  1.00  0.00    -0.241 C  
HETATM    4  C   UNL     1     -10.363  13.021  66.071  1.00  0.00    -0.285 C  
HETATM    5  H   UNL     1      -4.461  19.284  68.873  1.00  0.00     0.000 HD 
HETATM    6  C   UNL     1     -10.405  11.499  66.394  1.00  0.00    -0.237 C  
HETATM    7  C   UNL     1      -9.223  10.966  66.786  1.00  0.00    -0.174 C  
HETATM    8  O   UNL     1     -11.565  11.133  67.090  1.00  0.00    -0.495 OA 
HETATM    9  O   UNL     1      -5.161  18.644  68.814  1.00  0.00    -0.182 OA 
HETATM   10  C   UNL     1      -6.384  18.976  68.303  1.00  0.00    -0.225 A  
HETATM   11  C   UNL     1      -8.758  11.697  68.063  1.00  0.00    -0.157 C  
HETATM   12  H   UNL     1     -10.825  18.581  66.332  1.00  0.00     0.000 HD 
HETATM   13  H   UNL     1     -11.591  10.204  67.286  1.00  0.00     0.000 HD 
HETATM   14  O   UNL     1      -8.398  11.070  69.056  1.00  0.00    -0.147 OA 
HETATM   15  C   UNL     1      -8.781  13.262  67.982  1.00  0.00    -0.186 C  
HETATM   16  C   UNL     1      -6.558  20.294  67.874  1.00  0.00    -0.311 A  
HETATM   17  C   UNL     1      -7.785  20.699  67.376  1.00  0.00    -0.355 A  
HETATM   18 CL   UNL     1     -10.346  20.465  66.768  1.00  0.00    -0.421 Cl 
HETATM   19  O   UNL     1     -10.529  17.679  66.302  1.00  0.00    -0.349 OA 
HETATM   20  O   UNL     1      -7.751  13.367  66.943  1.00  0.00    -0.373 OA 
HETATM   21  C   UNL     1      -8.224  14.305  68.946  1.00  0.00    -0.053 C  
HETATM   22  H   UNL     1      -6.879  13.139  67.245  1.00  0.00     0.000 HD 
HETATM   23  O   UNL     1      -7.348  13.888  69.926  1.00  0.00    -0.321 OA 
HETATM   24  C   UNL     1      -8.290  15.596  68.500  1.00  0.00    -0.166 C  
HETATM   25  C   UNL     1      -7.207  16.611  68.728  1.00  0.00    -0.206 C  
HETATM   26  H   UNL     1      -7.001  14.538  70.527  1.00  0.00     0.000 HD 
HETATM   27  O   UNL     1      -6.128  16.252  69.185  1.00  0.00    -0.138 OA 
HETATM   28  C   UNL     1      -7.424  18.025  68.214  1.00  0.00    -0.267 A  
HETATM   29  C   UNL     1      -8.658  18.429  67.641  1.00  0.00    -0.268 A  
HETATM   30  C   UNL     1      -8.834  19.788  67.282  1.00  0.00    -0.326 A  
HETATM   31  C   UNL     1      -9.775  17.431  67.494  1.00  0.00    -0.266 C  
ENDROOT
BRANCH   4  32
HETATM   32  N   UNL     1     -11.315  13.582  65.110  1.00  0.00    -0.296 NA 
HETATM   33  C   UNL     1     -11.264  12.828  63.850  1.00  0.00    -0.440 C  
HETATM   34  C   UNL     1     -12.682  13.763  65.565  1.00  0.00    -0.488 C  
ENDBRANCH   4  32
BRANCH   7  35
HETATM   35  C   UNL     1      -8.306  10.837  65.605  1.00  0.00    -0.144 C  
HETATM   36  N   UNL     1      -6.969  10.921  65.828  1.00  0.00    -0.341 N  
HETATM   37  O   UNL     1      -8.702  10.605  64.458  1.00  0.00    -0.183 OA 
HETATM   38  H1  UNL     1      -6.346  10.833  65.025  1.00  0.00     0.000 HD 
HETATM   39  H2  UNL     1      -6.600  11.067  66.768  1.00  0.00     0.000 HD 
ENDBRANCH   7  35
TORSDOF 2
ENDMDL
MODEL        7
REMARK 921   NORMALIZED FREE ENERGY PREDICTED BY IDOCK:   -7.74 KCAL/MOL
REMARK 922        TOTAL FREE ENERGY PREDICTED BY IDOCK:   -8.78 KCAL/MOL
REMARK 923 INTER-LIGAND FREE ENERGY PREDICTED BY IDOCK:   -8.39 KCAL/MOL
REMARK 924 INTRA-LIGAND FREE ENERGY PREDICTED BY IDOCK:   -0.39 KCAL/MOL
REMARK 927      BINDING AFFINITY PREDICTED BY RF-SCORE:    0.00 PKD
ROOT
HETATM    1  C   UNL     1     -10.790  12.108  68.158  1.00  0.00    -0.256 C  
HETATM    2  C   UNL     1     -11.226  10.843  67.433  1.00  0.00    -0.345 C  
HETATM    3  C   UNL     1     -11.104   9.619  68.317  1.00  0.00    -0.102 C  
HETATM    4  C   UNL     1      -9.770   8.835  68.254  1.00  0.00    -0.158 C  
HETATM    5  H   UNL     1     -11.201  17.234  71.308  1.00  0.00     0.000 HD 
HETATM    6  C   UNL     1     -10.171   7.475  68.897  1.00  0.00    -0.208 C  
HETATM    7  C   UNL     1     -10.381   7.518  70.234  1.00  0.00    -0.215 C  
HETATM    8  O   UNL     1     -11.073   6.755  68.103  1.00  0.00    -0.463 OA 
HETATM    9  O   UNL     1     -11.294  16.363  70.939  1.00  0.00    -0.373 OA 
HETATM   10  C   UNL     1     -10.985  16.108  69.633  1.00  0.00    -0.346 A  
HETATM   11  C   UNL     1     -11.522   8.519  70.518  1.00  0.00    -0.182 C  
HETATM   12  H   UNL     1      -9.826  13.719  65.545  1.00  0.00     0.000 HD 
HETATM   13  H   UNL     1     -11.317   5.926  68.495  1.00  0.00     0.000 HD 
HETATM   14  O   UNL     1     -12.469   8.211  71.238  1.00  0.00    -0.307 OA 
HETATM   15  C   UNL     1     -11.367   9.918  69.831  1.00  0.00    -0.222 C  
HETATM   16  C   UNL     1     -10.526  17.182  68.867  1.00  0.00    -0.346 A  
HETATM   17  C   UNL     1     -10.225  16.994  67.528  1.00  0.00    -0.323 A  
HETATM   18 CL   UNL     1     -10.077  15.673  65.244  1.00  0.00    -0.356 Cl 
HETATM   19  O   UNL     1      -9.790  13.018  66.185  1.00  0.00    -0.273 OA 
HETATM   20  O   UNL     1     -10.163  10.310  70.572  1.00  0.00    -0.396 OA 
HETATM   21  C   UNL     1     -12.168  11.202  70.024  1.00  0.00    -0.326 C  
HETATM   22  H   UNL     1     -10.323  10.491  71.491  1.00  0.00     0.000 HD 
HETATM   23  O   UNL     1     -13.003  11.294  71.117  1.00  0.00    -0.354 OA 
HETATM   24  C   UNL     1     -11.675  12.294  69.364  1.00  0.00    -0.392 C  
HETATM   25  C   UNL     1     -11.662  13.680  69.942  1.00  0.00    -0.276 C  
HETATM   26  H   UNL     1     -13.502  12.094  71.238  1.00  0.00     0.000 HD 
HETATM   27  O   UNL     1     -11.946  13.845  71.123  1.00  0.00    -0.297 OA 
HETATM   28  C   UNL     1     -11.123  14.813  69.085  1.00  0.00    -0.278 A  
HETATM   29  C   UNL     1     -10.751  14.612  67.731  1.00  0.00    -0.265 A  
HETATM   30  C   UNL     1     -10.359  15.731  66.956  1.00  0.00    -0.292 A  
HETATM   31  C   UNL     1     -10.847  13.238  67.127  1.00  0.00    -0.258 C  
ENDROOT
BRANCH   4  32
HETATM   32  N   UNL     1      -8.958   8.846  67.034  1.00  0.00    -0.125 NA 
HETATM   33  C   UNL     1      -7.667   9.496  67.293  1.00  0.00    -0.091 C  
HETATM   34  C   UNL     1      -8.785   7.577  66.347  1.00  0.00    -0.145 C  
ENDBRANCH   4  32
BRANCH   7  35
HETATM   35  C   UNL     1      -9.069   7.634  70.953  1.00  0.00    -0.149 C  
HETATM   36  N   UNL     1      -9.073   8.181  72.195  1.00  0.00    -0.165 N  
HETATM   37  O   UNL     1      -8.002   7.210  70.495  1.00  0.00    -0.102 OA 
HETATM   38  H1  UNL     1      -8.181   8.260  72.684  1.00  0.00     0.000 HD 
HETATM   39  H2  UNL     1      -9.939   8.502  72.627  1.00  0.00     0.000 HD 
ENDBRANCH   7  35
TORSDOF 2
ENDMDL
MODEL        8
REMARK 921   NORMALIZED FREE ENERGY PREDICTED BY IDOCK:   -7.68 KCAL/MOL
REMARK 922        TOTAL FREE ENERGY PREDICTED BY IDOCK:   -8.71 KCAL/MOL
REMARK 923 INTER-LIGAND FREE ENERGY PREDICTED BY IDOCK:   -8.38 KCAL/MOL
REMARK 924 INTRA-LIGAND FREE ENERGY PREDICTED BY IDOCK:   -0.33 KCAL/MOL
REMARK 927      BINDING AFFINITY PREDICTED BY RF-SCORE:    0.00 PKD
ROOT
HETATM    1  C   UNL     1     -11.058  10.321  70.087  1.00  0.00    -0.385 C  
HETATM    2  C   UNL     1     -10.762   9.075  69.265  1.00  0.00    -0.189 C  
HETATM    3  C   UNL     1     -10.429   7.888  70.146  1.00  0.00    -0.231 C  
HETATM    4  C   UNL     1      -8.935   7.656  70.481  1.00  0.00    -0.151 C  
HETATM    5  H   UNL     1     -14.239  14.553  72.973  1.00  0.00     0.000 HD 
HETATM    6  C   UNL     1      -8.947   6.180  70.976  1.00  0.00    -0.143 C  
HETATM    7  C   UNL     1      -9.516   5.991  72.191  1.00  0.00    -0.158 C  
HETATM    8  O   UNL     1      -9.251   5.276  69.950  1.00  0.00    -0.129 OA 
HETATM    9  O   UNL     1     -13.889  13.756  72.594  1.00  0.00    -0.691 OA 
HETATM   10  C   UNL     1     -13.160  13.781  71.438  1.00  0.00    -0.337 A  
HETATM   11  C   UNL     1     -10.982   6.469  72.124  1.00  0.00    -0.249 C  
HETATM   12  H   UNL     1     -10.105  12.457  67.878  1.00  0.00     0.000 HD 
HETATM   13  H   UNL     1      -9.258   4.375  70.252  1.00  0.00     0.000 HD 
HETATM   14  O   UNL     1     -11.898   5.759  72.530  1.00  0.00    -0.297 OA 
HETATM   15  C   UNL     1     -11.191   7.897  71.514  1.00  0.00    -0.249 C  
HETATM   16  C   UNL     1     -12.955  15.027  70.842  1.00  0.00    -0.463 A  
HETATM   17  C   UNL     1     -12.250  15.114  69.653  1.00  0.00    -0.292 A  
HETATM   18 CL   UNL     1     -10.989  14.205  67.516  1.00  0.00    -0.283 Cl 
HETATM   19  O   UNL     1      -9.982  11.750  68.499  1.00  0.00    -0.205 OA 
HETATM   20  O   UNL     1     -10.480   8.614  72.579  1.00  0.00    -0.299 OA 
HETATM   21  C   UNL     1     -12.440   8.770  71.461  1.00  0.00    -0.326 C  
HETATM   22  H   UNL     1     -10.942   8.619  73.409  1.00  0.00     0.000 HD 
HETATM   23  O   UNL     1     -13.513   8.428  72.257  1.00  0.00    -0.468 OA 
HETATM   24  C   UNL     1     -12.241  10.034  70.976  1.00  0.00    -0.462 C  
HETATM   25  C   UNL     1     -12.917  11.255  71.532  1.00  0.00    -0.415 C  
HETATM   26  H   UNL     1     -14.291   8.971  72.224  1.00  0.00     0.000 HD 
HETATM   27  O   UNL     1     -13.554  11.170  72.576  1.00  0.00     0.033 OA 
HETATM   28  C   UNL     1     -12.638  12.595  70.874  1.00  0.00    -0.338 A  
HETATM   29  C   UNL     1     -11.861  12.699  69.691  1.00  0.00    -0.379 A  
HETATM   30  C   UNL     1     -11.729  13.963  69.067  1.00  0.00    -0.338 A  
HETATM   31  C   UNL     1     -11.257  11.462  69.085  1.00  0.00    -0.272 C  
ENDROOT
BRANCH   4  32
HETATM   32  N   UNL     1      -7.889   8.099  69.557  1.00  0.00    -0.102 NA 
HETATM   33  C   UNL     1      -6.625   8.291  70.281  1.00  0.00    -0.036 C  
HETATM   34  C   UNL     1      -7.696   7.310  68.353  1.00  0.00    -0.120 C  
ENDBRANCH   4  32
BRANCH   7  35
HETATM   35  C   UNL     1      -8.599   6.496  73.267  1.00  0.00    -0.120 C  
HETATM   36  N   UNL     1      -7.266   6.289  73.112  1.00  0.00    -0.087 N  
HETATM   37  O   UNL     1      -8.989   7.134  74.250  1.00  0.00    -0.196 OA 
HETATM   38  H1  UNL     1      -6.642   6.632  73.842  1.00  0.00     0.000 HD 
HETATM   39  H2  UNL     1      -6.900   5.806  72.291  1.00  0.00     0.000 HD 
ENDBRANCH   7  35
TORSDOF 2
ENDMDL
MODEL        9
REMARK 921   NORMALIZED FREE ENERGY PREDICTED BY IDOCK:   -7.52 KCAL/MOL
REMARK 922        TOTAL FREE ENERGY PREDICTED BY IDOCK:   -8.53 KCAL/MOL
REMARK 923 INTER-LIGAND FREE ENERGY PREDICTED BY IDOCK:   -8.07 KCAL/MOL
REMARK 924 INTRA-LIGAND FREE ENERGY PREDICTED BY IDOCK:   -0.46 KCAL/MOL
REMARK 927      BINDING AFFINITY PREDICTED BY RF-SCORE:    0.00 PKD
ROOT
HETATM    1  C   UNL     1     -10.574   9.707  68.712  1.00  0.00    -0.242 C  
HETATM    2  C   UNL     1     -10.589   8.185  68.703  1.00  0.00    -0.144 C  
HETATM    3  C   UNL     1     -10.064   7.610  70.003  1.00  0.00    -0.204 C  
HETATM    4  C   UNL     1      -8.549   7.295  70.072  1.00  0.00    -0.140 C  
HETATM    5  H   UNL     1     -12.568  15.368  69.298  1.00  0.00     0.000 HD 
HETATM    6  C   UNL     1      -8.480   6.348  71.306  1.00  0.00    -0.123 C  
HETATM    7  C   UNL     1      -8.672   6.955  72.502  1.00  0.00    -0.135 C  
HETATM    8  O   UNL     1      -9.113   5.120  71.072  1.00  0.00    -0.139 OA 
HETATM    9  O   UNL     1     -12.381  14.439  69.372  1.00  0.00    -0.294 OA 
HETATM   10  C   UNL     1     -12.027  13.697  68.282  1.00  0.00    -0.350 A  
HETATM   11  C   UNL     1     -10.069   7.609  72.499  1.00  0.00    -0.229 C  
HETATM   12  H   UNL     1     -10.223  10.094  65.537  1.00  0.00     0.000 HD 
HETATM   13  H   UNL     1      -9.071   4.542  71.824  1.00  0.00     0.000 HD 
HETATM   14  O   UNL     1     -10.855   7.428  73.426  1.00  0.00    -0.388 OA 
HETATM   15  C   UNL     1     -10.386   8.501  71.250  1.00  0.00    -0.224 C  
HETATM   16  C   UNL     1     -11.951  14.363  67.056  1.00  0.00    -0.424 A  
HETATM   17  C   UNL     1     -11.627  13.658  65.909  1.00  0.00    -0.346 A  
HETATM   18 CL   UNL     1     -11.096  11.518  64.452  1.00  0.00    -0.383 Cl 
HETATM   19  O   UNL     1      -9.953   9.818  66.405  1.00  0.00    -0.217 OA 
HETATM   20  O   UNL     1      -9.361   9.512  71.532  1.00  0.00    -0.285 OA 
HETATM   21  C   UNL     1     -11.555   9.444  70.986  1.00  0.00    -0.330 C  
HETATM   22  H   UNL     1      -9.556  10.052  72.289  1.00  0.00     0.000 HD 
HETATM   23  O   UNL     1     -12.358   9.804  72.048  1.00  0.00    -0.354 OA 
HETATM   24  C   UNL     1     -11.452  10.184  69.840  1.00  0.00    -0.317 C  
HETATM   25  C   UNL     1     -11.879  11.621  69.737  1.00  0.00    -0.357 C  
HETATM   26  H   UNL     1     -13.086  10.391  71.884  1.00  0.00     0.000 HD 
HETATM   27  O   UNL     1     -12.181  12.237  70.753  1.00  0.00    -0.378 OA 
HETATM   28  C   UNL     1     -11.748  12.316  68.392  1.00  0.00    -0.390 A  
HETATM   29  C   UNL     1     -11.352  11.614  67.225  1.00  0.00    -0.372 A  
HETATM   30  C   UNL     1     -11.355  12.295  65.983  1.00  0.00    -0.350 A  
HETATM   31  C   UNL     1     -11.009  10.152  67.314  1.00  0.00    -0.183 C  
ENDROOT
BRANCH   4  32
HETATM   32  N   UNL     1      -7.805   6.955  68.858  1.00  0.00    -0.110 NA 
HETATM   33  C   UNL     1      -7.071   8.131  68.370  1.00  0.00    -0.077 C  
HETATM   34  C   UNL     1      -6.948   5.783  68.917  1.00  0.00    -0.068 C  
ENDBRANCH   4  32
BRANCH   7  35
HETATM   35  C   UNL     1      -7.456   7.755  72.867  1.00  0.00    -0.104 C  
HETATM   36  N   UNL     1      -6.240   7.243  72.548  1.00  0.00    -0.050 N  
HETATM   37  O   UNL     1      -7.509   8.874  73.389  1.00  0.00    -0.368 OA 
HETATM   38  H1  UNL     1      -5.414   7.787  72.795  1.00  0.00     0.000 HD 
HETATM   39  H2  UNL     1      -6.155   6.343  72.075  1.00  0.00     0.000 HD 
ENDBRANCH   7  35
TORSDOF 2
ENDMDL
MODEL       10
REMARK 921   NORMALIZED FREE ENERGY PREDICTED BY IDOCK:   -7.49 KCAL/MOL
REMARK 922        TOTAL FREE ENERGY PREDICTED BY IDOCK:   -8.50 KCAL/MOL
REMARK 923 INTER-LIGAND FREE ENERGY PREDICTED BY IDOCK:   -8.02 KCAL/MOL
REMARK 924 INTRA-LIGAND FREE ENERGY PREDICTED BY IDOCK:   -0.48 KCAL/MOL
REMARK 927      BINDING AFFINITY PREDICTED BY RF-SCORE:    0.00 PKD
ROOT
HETATM    1  C   UNL     1     -10.721  11.367  68.447  1.00  0.00    -0.237 C  
HETATM    2  C   UNL     1     -10.891   9.989  67.824  1.00  0.00    -0.337 C  
HETATM    3  C   UNL     1     -10.724   8.885  68.848  1.00  0.00    -0.132 C  
HETATM    4  C   UNL     1      -9.301   8.299  69.027  1.00  0.00    -0.147 C  
HETATM    5  H   UNL     1     -12.204  16.657  70.934  1.00  0.00     0.000 HD 
HETATM    6  C   UNL     1      -9.601   6.963  69.768  1.00  0.00    -0.154 C  
HETATM    7  C   UNL     1      -9.985   7.102  71.060  1.00  0.00    -0.192 C  
HETATM    8  O   UNL     1     -10.290   6.048  68.962  1.00  0.00    -0.182 OA 
HETATM    9  O   UNL     1     -12.134  15.750  70.657  1.00  0.00    -0.370 OA 
HETATM   10  C   UNL     1     -11.628  15.420  69.432  1.00  0.00    -0.340 A  
HETATM   11  C   UNL     1     -11.274   7.951  71.097  1.00  0.00    -0.261 C  
HETATM   12  H   UNL     1      -9.649  12.843  65.797  1.00  0.00     0.000 HD 
HETATM   13  H   UNL     1     -10.472   5.234  69.414  1.00  0.00     0.000 HD 
HETATM   14  O   UNL     1     -12.257   7.581  71.733  1.00  0.00    -0.292 OA 
HETATM   15  C   UNL     1     -11.217   9.286  70.279  1.00  0.00    -0.231 C  
HETATM   16  C   UNL     1     -11.219  16.470  68.607  1.00  0.00    -0.297 A  
HETATM   17  C   UNL     1     -10.726  16.200  67.342  1.00  0.00    -0.291 A  
HETATM   18 CL   UNL     1     -10.113  14.702  65.253  1.00  0.00    -0.411 Cl 
HETATM   19  O   UNL     1      -9.604  12.219  66.512  1.00  0.00    -0.226 OA 
HETATM   20  O   UNL     1     -10.180   9.916  71.104  1.00  0.00    -0.270 OA 
HETATM   21  C   UNL     1     -12.197  10.454  70.234  1.00  0.00    -0.269 C  
HETATM   22  H   UNL     1     -10.479  10.160  71.972  1.00  0.00     0.000 HD 
HETATM   23  O   UNL     1     -13.171  10.529  71.207  1.00  0.00    -0.365 OA 
HETATM   24  C   UNL     1     -11.771  11.538  69.515  1.00  0.00    -0.413 C  
HETATM   25  C   UNL     1     -12.015  12.960  69.932  1.00  0.00    -0.307 C  
HETATM   26  H   UNL     1     -13.782  11.256  71.179  1.00  0.00     0.000 HD 
HETATM   27  O   UNL     1     -12.468  13.195  71.047  1.00  0.00    -0.370 OA 
HETATM   28  C   UNL     1     -11.524  14.072  69.021  1.00  0.00    -0.337 A  
HETATM   29  C   UNL     1     -10.956  13.799  67.749  1.00  0.00    -0.272 A  
HETATM   30  C   UNL     1     -10.618  14.883  66.903  1.00  0.00    -0.300 A  
HETATM   31  C   UNL     1     -10.793  12.374  67.296  1.00  0.00    -0.243 C  
ENDROOT
BRANCH   4  32
HETATM   32  N   UNL     1      -8.348   8.310  67.915  1.00  0.00    -0.127 NA 
HETATM   33  C   UNL     1      -7.468   9.482  68.016  1.00  0.00    -0.083 C  
HETATM   34  C   UNL     1      -7.587   7.094  67.687  1.00  0.00    -0.110 C  
ENDBRANCH   4  32
BRANCH   7  35
HETATM   35  C   UNL     1      -8.803   7.475  71.906  1.00  0.00    -0.114 C  
HETATM   36  N   UNL     1      -9.033   8.185  73.040  1.00  0.00    -0.252 N  
HETATM   37  O   UNL     1      -7.646   7.123  71.652  1.00  0.00    -0.086 OA 
HETATM   38  H1  UNL     1      -8.230   8.438  73.615  1.00  0.00     0.000 HD 
HETATM   39  H2  UNL     1      -9.979   8.456  73.308  1.00  0.00     0.000 HD 
ENDBRANCH   7  35
TORSDOF 2
ENDMDL
MODEL       11
REMARK 921   NORMALIZED FREE ENERGY PREDICTED BY IDOCK:   -7.49 KCAL/MOL
REMARK 922        TOTAL FREE ENERGY PREDICTED BY IDOCK:   -8.50 KCAL/MOL
REMARK 923 INTER-LIGAND FREE ENERGY PREDICTED BY IDOCK:   -8.32 KCAL/MOL
REMARK 924 INTRA-LIGAND FREE ENERGY PREDICTED BY IDOCK:   -0.17 KCAL/MOL
REMARK 927      BINDING AFFINITY PREDICTED BY RF-SCORE:    0.00 PKD
ROOT
HETATM    1  C   UNL     1      -9.151  14.373  67.327  1.00  0.00    -0.221 C  
HETATM    2  C   UNL     1      -9.364  15.354  68.470  1.00  0.00    -0.198 C  
HETATM    3  C   UNL     1      -9.121  16.785  68.036  1.00  0.00    -0.228 C  
HETATM    4  C   UNL     1      -7.689  17.344  68.220  1.00  0.00    -0.241 C  
HETATM    5  H   UNL     1     -10.455  10.717  62.712  1.00  0.00     0.000 HD 
HETATM    6  C   UNL     1      -7.932  18.877  68.109  1.00  0.00    -0.300 C  
HETATM    7  C   UNL     1      -8.221  19.320  66.862  1.00  0.00    -0.296 C  
HETATM    8  O   UNL     1      -8.677  19.379  69.184  1.00  0.00    -0.299 OA 
HETATM    9  O   UNL     1     -10.404  11.413  63.356  1.00  0.00    -0.357 OA 
HETATM   10  C   UNL     1      -9.989  11.169  64.634  1.00  0.00    -0.292 A  
HETATM   11  C   UNL     1      -9.505  18.612  66.378  1.00  0.00    -0.311 C  
HETATM   12  H   UNL     1      -8.276  11.867  69.145  1.00  0.00     0.000 HD 
HETATM   13  H   UNL     1      -8.825  20.315  69.116  1.00  0.00     0.000 HD 
HETATM   14  O   UNL     1     -10.439  19.251  65.901  1.00  0.00    -0.482 OA 
HETATM   15  C   UNL     1      -9.509  17.054  66.542  1.00  0.00    -0.276 C  
HETATM   16  C   UNL     1      -9.642   9.853  64.950  1.00  0.00    -0.356 A  
HETATM   17  C   UNL     1      -9.243   9.537  66.238  1.00  0.00    -0.219 A  
HETATM   18 CL   UNL     1      -8.782   9.970  68.804  1.00  0.00    -0.129 Cl 
HETATM   19  O   UNL     1      -8.179  12.736  68.774  1.00  0.00    -0.034 OA 
HETATM   20  O   UNL     1      -8.416  16.806  65.596  1.00  0.00    -0.387 OA 
HETATM   21  C   UNL     1     -10.492  16.013  66.016  1.00  0.00    -0.345 C  
HETATM   22  H   UNL     1      -8.651  16.970  64.690  1.00  0.00     0.000 HD 
HETATM   23  O   UNL     1     -11.392  16.395  65.044  1.00  0.00    -0.183 OA 
HETATM   24  C   UNL     1     -10.121  14.712  66.223  1.00  0.00    -0.307 C  
HETATM   25  C   UNL     1     -10.335  13.616  65.219  1.00  0.00    -0.348 C  
HETATM   26  H   UNL     1     -12.004  15.747  64.716  1.00  0.00     0.000 HD 
HETATM   27  O   UNL     1     -10.705  13.898  64.085  1.00  0.00    -0.235 OA 
HETATM   28  C   UNL     1      -9.913  12.205  65.592  1.00  0.00    -0.271 A  
HETATM   29  C   UNL     1      -9.439  11.886  66.891  1.00  0.00    -0.205 A  
HETATM   30  C   UNL     1      -9.165  10.533  67.208  1.00  0.00    -0.143 A  
HETATM   31  C   UNL     1      -9.308  12.972  67.924  1.00  0.00    -0.212 C  
ENDROOT
BRANCH   4  32
HETATM   32  N   UNL     1      -6.820  16.825  69.279  1.00  0.00    -0.227 NA 
HETATM   33  C   UNL     1      -5.981  15.739  68.755  1.00  0.00    -0.100 C  
HETATM   34  C   UNL     1      -6.030  17.795  70.018  1.00  0.00    -0.184 C  
ENDBRANCH   4  32
BRANCH   7  35
HETATM   35  C   UNL     1      -6.981  19.309  66.017  1.00  0.00    -0.261 C  
HETATM   36  N   UNL     1      -5.911  20.023  66.452  1.00  0.00    -0.168 N  
HETATM   37  O   UNL     1      -6.868  18.642  64.983  1.00  0.00    -0.511 OA 
HETATM   38  H1  UNL     1      -5.068  20.016  65.878  1.00  0.00     0.000 HD 
HETATM   39  H2  UNL     1      -5.950  20.550  67.324  1.00  0.00     0.000 HD 
ENDBRANCH   7  35
TORSDOF 2
ENDMDL
MODEL       12
REMARK 921   NORMALIZED FREE ENERGY PREDICTED BY IDOCK:   -7.42 KCAL/MOL
REMARK 922        TOTAL FREE ENERGY PREDICTED BY IDOCK:   -8.43 KCAL/MOL
REMARK 923 INTER-LIGAND FREE ENERGY PREDICTED BY IDOCK:   -8.13 KCAL/MOL
REMARK 924 INTRA-LIGAND FREE ENERGY PREDICTED BY IDOCK:   -0.30 KCAL/MOL
REMARK 927      BINDING AFFINITY PREDICTED BY RF-SCORE:    0.00 PKD
ROOT
HETATM    1  C   UNL     1     -10.395  12.477  66.990  1.00  0.00    -0.236 C  
HETATM    2  C   UNL     1     -11.361  13.429  67.679  1.00  0.00    -0.321 C  
HETATM    3  C   UNL     1     -11.125  14.867  67.265  1.00  0.00    -0.336 C  
HETATM    4  C   UNL     1     -10.154  15.701  68.137  1.00  0.00    -0.222 C  
HETATM    5  H   UNL     1      -8.286   8.510  62.967  1.00  0.00     0.000 HD 
HETATM    6  C   UNL     1     -10.510  17.153  67.706  1.00  0.00    -0.362 C  
HETATM    7  C   UNL     1     -10.096  17.496  66.462  1.00  0.00    -0.331 C  
HETATM    8  O   UNL     1     -11.798  17.529  68.107  1.00  0.00     0.734 OA 
HETATM    9  O   UNL     1      -8.714   9.221  63.431  1.00  0.00    -0.217 OA 
HETATM   10  C   UNL     1      -9.071   9.098  64.744  1.00  0.00    -0.099 A  
HETATM   11  C   UNL     1     -10.756  16.537  65.447  1.00  0.00    -0.259 C  
HETATM   12  H   UNL     1     -10.360  10.242  69.304  1.00  0.00     0.000 HD 
HETATM   13  H   UNL     1     -12.015  18.415  67.844  1.00  0.00     0.000 HD 
HETATM   14  O   UNL     1     -11.331  16.968  64.451  1.00  0.00    -1.140 OA 
HETATM   15  C   UNL     1     -10.626  15.013  65.788  1.00  0.00    -0.339 C  
HETATM   16  C   UNL     1      -8.780   7.884  65.372  1.00  0.00    -0.078 A  
HETATM   17  C   UNL     1      -9.145   7.688  66.693  1.00  0.00    -0.198 A  
HETATM   18 CL   UNL     1     -10.299   8.275  68.997  1.00  0.00    -0.230 Cl 
HETATM   19  O   UNL     1     -10.196  11.103  68.937  1.00  0.00    -0.198 OA 
HETATM   20  O   UNL     1      -9.167  14.959  65.651  1.00  0.00    -0.479 OA 
HETATM   21  C   UNL     1     -10.969  13.786  64.950  1.00  0.00    -0.375 C  
HETATM   22  H   UNL     1      -8.864  15.048  64.755  1.00  0.00     0.000 HD 
HETATM   23  O   UNL     1     -11.199  13.958  63.601  1.00  0.00    -0.421 OA 
HETATM   24  C   UNL     1     -10.599  12.589  65.500  1.00  0.00    -0.304 C  
HETATM   25  C   UNL     1     -10.040  11.445  64.704  1.00  0.00    -0.280 C  
HETATM   26  H   UNL     1     -11.412  13.193  63.079  1.00  0.00     0.000 HD 
HETATM   27  O   UNL     1      -9.734  11.618  63.529  1.00  0.00    -0.319 OA 
HETATM   28  C   UNL     1      -9.706  10.155  65.433  1.00  0.00    -0.355 A  
HETATM   29  C   UNL     1     -10.018   9.971  66.805  1.00  0.00    -0.267 A  
HETATM   30  C   UNL     1      -9.780   8.707  67.398  1.00  0.00    -0.175 A  
HETATM   31  C   UNL     1     -10.659  11.090  67.581  1.00  0.00    -0.217 C  
ENDROOT
BRANCH   4  32
HETATM   32  N   UNL     1      -9.979  15.391  69.558  1.00  0.00    -0.255 NA 
HETATM   33  C   UNL     1      -8.568  15.543  69.938  1.00  0.00     0.193 C  
HETATM   34  C   UNL     1     -10.856  16.074  70.493  1.00  0.00    -0.222 C  
ENDBRANCH   4  32
BRANCH   7  35
HETATM   35  C   UNL     1      -8.610  17.704  66.458  1.00  0.00    -0.259 C  
HETATM   36  N   UNL     1      -8.041  18.232  67.572  1.00  0.00    -0.238 N  
HETATM   37  O   UNL     1      -7.878  17.370  65.520  1.00  0.00    -0.326 OA 
HETATM   38  H1  UNL     1      -7.031  18.373  67.570  1.00  0.00     0.000 HD 
HETATM   39  H2  UNL     1      -8.606  18.479  68.385  1.00  0.00     0.000 HD 
ENDBRANCH   7  35
TORSDOF 2
ENDMDL
MODEL       13
REMARK 921   NORMALIZED FREE ENERGY PREDICTED BY IDOCK:   -7.32 KCAL/MOL
REMARK 922        TOTAL FREE ENERGY PREDICTED BY IDOCK:   -8.31 KCAL/MOL
REMARK 923 INTER-LIGAND FREE ENERGY PREDICTED BY IDOCK:   -8.37 KCAL/MOL
REMARK 924 INTRA-LIGAND FREE ENERGY PREDICTED BY IDOCK:    0.06 KCAL/MOL
REMARK 927      BINDING AFFINITY PREDICTED BY RF-SCORE:    0.00 PKD
ROOT
HETATM    1  C   UNL     1     -10.490  11.364  67.014  1.00  0.00    -0.271 C  
HETATM    2  C   UNL     1     -11.649  12.272  67.400  1.00  0.00    -0.425 C  
HETATM    3  C   UNL     1     -11.317  13.733  67.176  1.00  0.00    -0.344 C  
HETATM    4  C   UNL     1     -10.705  14.508  68.369  1.00  0.00    -0.243 C  
HETATM    5  H   UNL     1      -7.092   7.655  63.688  1.00  0.00     0.000 HD 
HETATM    6  C   UNL     1     -10.926  15.985  67.932  1.00  0.00    -0.327 C  
HETATM    7  C   UNL     1     -10.131  16.405  66.919  1.00  0.00    -0.281 C  
HETATM    8  O   UNL     1     -12.282  16.337  67.905  1.00  0.00     0.261 OA 
HETATM    9  O   UNL     1      -7.663   8.336  64.026  1.00  0.00    -0.124 OA 
HETATM   10  C   UNL     1      -8.433   8.131  65.136  1.00  0.00    -0.116 A  
HETATM   11  C   UNL     1     -10.398  15.514  65.687  1.00  0.00    -0.384 C  
HETATM   12  H   UNL     1     -11.181   8.987  69.070  1.00  0.00     0.000 HD 
HETATM   13  H   UNL     1     -12.416  17.239  67.639  1.00  0.00     0.000 HD 
HETATM   14  O   UNL     1     -10.620  16.008  64.585  1.00  0.00    -0.564 OA 
HETATM   15  C   UNL     1     -10.360  13.971  65.959  1.00  0.00    -0.306 C  
HETATM   16  C   UNL     1      -8.343   6.880  65.750  1.00  0.00    -0.142 A  
HETATM   17  C   UNL     1      -9.121   6.601  66.861  1.00  0.00    -0.144 A  
HETATM   18 CL   UNL     1     -10.984   7.043  68.683  1.00  0.00    -0.178 Cl 
HETATM   19  O   UNL     1     -10.922   9.869  68.830  1.00  0.00    -0.220 OA 
HETATM   20  O   UNL     1      -8.936  13.923  66.311  1.00  0.00    -0.470 OA 
HETATM   21  C   UNL     1     -10.382  12.800  64.982  1.00  0.00    -0.303 C  
HETATM   22  H   UNL     1      -8.356  14.068  65.573  1.00  0.00     0.000 HD 
HETATM   23  O   UNL     1     -10.155  13.057  63.647  1.00  0.00    -0.699 OA 
HETATM   24  C   UNL     1     -10.192  11.570  65.551  1.00  0.00    -0.303 C  
HETATM   25  C   UNL     1      -9.379  10.477  64.918  1.00  0.00    -0.232 C  
HETATM   26  H   UNL     1     -10.169  12.328  63.038  1.00  0.00     0.000 HD 
HETATM   27  O   UNL     1      -8.704  10.724  63.924  1.00  0.00    -0.158 OA 
HETATM   28  C   UNL     1      -9.281   9.143  65.638  1.00  0.00    -0.296 A  
HETATM   29  C   UNL     1     -10.026   8.874  66.815  1.00  0.00    -0.338 A  
HETATM   30  C   UNL     1      -9.973   7.574  67.376  1.00  0.00    -0.187 A  
HETATM   31  C   UNL     1     -10.909   9.942  67.400  1.00  0.00    -0.227 C  
ENDROOT
BRANCH   4  32
HETATM   32  N   UNL     1     -11.005  14.109  69.746  1.00  0.00    -0.096 NA 
HETATM   33  C   UNL     1     -10.847  15.256  70.649  1.00  0.00    -0.242 C  
HETATM   34  C   UNL     1     -12.266  13.425  69.973  1.00  0.00    -0.298 C  
ENDBRANCH   4  32
BRANCH   7  35
HETATM   35  C   UNL     1      -8.732  16.611  67.421  1.00  0.00    -0.190 C  
HETATM   36  N   UNL     1      -7.722  16.581  66.514  1.00  0.00    -0.282 N  
HETATM   37  O   UNL     1      -8.462  16.859  68.601  1.00  0.00    -0.243 OA 
HETATM   38  H1  UNL     1      -6.771  16.721  66.855  1.00  0.00     0.000 HD 
HETATM   39  H2  UNL     1      -7.908  16.424  65.524  1.00  0.00     0.000 HD 
ENDBRANCH   7  35
TORSDOF 2
ENDMDL
MODEL       14
REMARK 921   NORMALIZED FREE ENERGY PREDICTED BY IDOCK:   -7.29 KCAL/MOL
REMARK 922        TOTAL FREE ENERGY PREDICTED BY IDOCK:   -8.28 KCAL/MOL
REMARK 923 INTER-LIGAND FREE ENERGY PREDICTED BY IDOCK:   -7.82 KCAL/MOL
REMARK 924 INTRA-LIGAND FREE ENERGY PREDICTED BY IDOCK:   -0.47 KCAL/MOL
REMARK 927      BINDING AFFINITY PREDICTED BY RF-SCORE:    0.00 PKD
ROOT
HETATM    1  C   UNL     1      -9.196  11.137  66.589  1.00  0.00    -0.188 C  
HETATM    2  C   UNL     1      -7.945  10.471  67.141  1.00  0.00    -0.116 C  
HETATM    3  C   UNL     1      -8.035   8.960  67.070  1.00  0.00    -0.102 C  
HETATM    4  C   UNL     1      -8.607   8.229  68.310  1.00  0.00    -0.133 C  
HETATM    5  H   UNL     1     -12.866  13.884  62.670  1.00  0.00     0.000 HD 
HETATM    6  C   UNL     1      -8.134   6.767  68.062  1.00  0.00    -0.114 C  
HETATM    7  C   UNL     1      -8.781   6.121  67.062  1.00  0.00    -0.107 C  
HETATM    8  O   UNL     1      -6.743   6.634  68.151  1.00  0.00    -0.062 OA 
HETATM    9  O   UNL     1     -12.224  13.342  63.116  1.00  0.00    -0.628 OA 
HETATM   10  C   UNL     1     -11.578  13.784  64.235  1.00  0.00    -0.369 A  
HETATM   11  C   UNL     1      -8.563   6.907  65.751  1.00  0.00    -0.131 C  
HETATM   12  H   UNL     1      -9.024  13.799  68.388  1.00  0.00     0.000 HD 
HETATM   13  H   UNL     1      -6.454   5.742  68.000  1.00  0.00     0.000 HD 
HETATM   14  O   UNL     1      -8.190   6.340  64.728  1.00  0.00    -0.137 OA 
HETATM   15  C   UNL     1      -8.854   8.444  65.839  1.00  0.00    -0.175 C  
HETATM   16  C   UNL     1     -11.900  15.063  64.693  1.00  0.00    -0.378 A  
HETATM   17  C   UNL     1     -11.256  15.578  65.805  1.00  0.00    -0.133 A  
HETATM   18 CL   UNL     1      -9.485  15.635  67.766  1.00  0.00    -0.207 Cl 
HETATM   19  O   UNL     1      -9.129  12.867  68.239  1.00  0.00    -0.199 OA 
HETATM   20  O   UNL     1     -10.290   8.304  66.104  1.00  0.00    -0.393 OA 
HETATM   21  C   UNL     1      -8.938   9.493  64.735  1.00  0.00    -0.218 C  
HETATM   22  H   UNL     1     -10.787   7.991  65.357  1.00  0.00     0.000 HD 
HETATM   23  O   UNL     1      -9.026   9.063  63.428  1.00  0.00    -0.432 OA 
HETATM   24  C   UNL     1      -9.353  10.731  65.145  1.00  0.00    -0.254 C  
HETATM   25  C   UNL     1     -10.274  11.607  64.345  1.00  0.00    -0.300 C  
HETATM   26  H   UNL     1      -9.078   9.716  62.741  1.00  0.00     0.000 HD 
HETATM   27  O   UNL     1     -10.830  11.152  63.351  1.00  0.00    -0.335 OA 
HETATM   28  C   UNL     1     -10.625  12.978  64.898  1.00  0.00    -0.355 A  
HETATM   29  C   UNL     1     -10.017  13.486  66.074  1.00  0.00    -0.308 A  
HETATM   30  C   UNL     1     -10.306  14.813  66.477  1.00  0.00    -0.286 A  
HETATM   31  C   UNL     1      -9.027  12.640  66.828  1.00  0.00    -0.197 C  
ENDROOT
BRANCH   4  32
HETATM   32  N   UNL     1      -8.472   8.815  69.646  1.00  0.00    -0.125 NA 
HETATM   33  C   UNL     1      -9.646   9.642  69.955  1.00  0.00    -0.230 C  
HETATM   34  C   UNL     1      -8.162   7.906  70.736  1.00  0.00    -0.110 C  
ENDBRANCH   4  32
BRANCH   7  35
HETATM   35  C   UNL     1     -10.166   5.751  67.507  1.00  0.00    -0.196 C  
HETATM   36  N   UNL     1     -11.118   5.593  66.551  1.00  0.00    -0.707 N  
HETATM   37  O   UNL     1     -10.466   5.531  68.685  1.00  0.00    -0.195 OA 
HETATM   38  H1  UNL     1     -12.058   5.341  66.854  1.00  0.00     0.000 HD 
HETATM   39  H2  UNL     1     -10.898   5.721  65.564  1.00  0.00     0.000 HD 
ENDBRANCH   7  35
TORSDOF 2
ENDMDL
MODEL       15
REMARK 921   NORMALIZED FREE ENERGY PREDICTED BY IDOCK:   -7.17 KCAL/MOL
REMARK 922        TOTAL FREE ENERGY PREDICTED BY IDOCK:   -8.14 KCAL/MOL
REMARK 923 INTER-LIGAND FREE ENERGY PREDICTED BY IDOCK:   -8.56 KCAL/MOL
REMARK 924 INTRA-LIGAND FREE ENERGY PREDICTED BY IDOCK:    0.42 KCAL/MOL
REMARK 927      BINDING AFFINITY PREDICTED BY RF-SCORE:    0.00 PKD
ROOT
HETATM    1  C   UNL     1     -10.058   9.576  69.350  1.00  0.00    -0.206 C  
HETATM    2  C   UNL     1      -9.018  10.632  69.003  1.00  0.00    -0.165 C  
HETATM    3  C   UNL     1      -9.595  11.718  68.117  1.00  0.00    -0.193 C  
HETATM    4  C   UNL     1      -9.469  11.521  66.587  1.00  0.00    -0.193 C  
HETATM    5  H   UNL     1     -14.280   6.633  72.493  1.00  0.00     0.000 HD 
HETATM    6  C   UNL     1      -9.733  12.961  66.060  1.00  0.00    -0.223 C  
HETATM    7  C   UNL     1     -11.019  13.377  66.159  1.00  0.00    -0.285 C  
HETATM    8  O   UNL     1      -8.714  13.855  66.413  1.00  0.00    -0.451 OA 
HETATM    9  O   UNL     1     -13.709   7.270  72.078  1.00  0.00    -0.233 OA 
HETATM   10  C   UNL     1     -12.413   6.967  71.771  1.00  0.00    -0.356 A  
HETATM   11  C   UNL     1     -11.428  13.347  67.648  1.00  0.00    -0.319 C  
HETATM   12  H   UNL     1      -7.996   7.132  69.713  1.00  0.00     0.000 HD 
HETATM   13  H   UNL     1      -8.876  14.733  66.091  1.00  0.00     0.000 HD 
HETATM   14  O   UNL     1     -11.967  14.316  68.176  1.00  0.00    -0.339 OA 
HETATM   15  C   UNL     1     -11.108  12.010  68.400  1.00  0.00    -0.245 C  
HETATM   16  C   UNL     1     -11.966   5.683  72.092  1.00  0.00     0.013 A  
HETATM   17  C   UNL     1     -10.653   5.326  71.833  1.00  0.00    -0.274 A  
HETATM   18 CL   UNL     1      -8.145   5.702  71.092  1.00  0.00    -0.114 Cl 
HETATM   19  O   UNL     1      -8.453   7.807  69.225  1.00  0.00    -0.134 OA 
HETATM   20  O   UNL     1     -12.025  11.179  67.612  1.00  0.00    -0.613 OA 
HETATM   21  C   UNL     1     -11.526  11.539  69.789  1.00  0.00    -0.286 C  
HETATM   22  H   UNL     1     -12.942  11.356  67.784  1.00  0.00     0.000 HD 
HETATM   23  O   UNL     1     -12.531  12.226  70.438  1.00  0.00    -0.241 OA 
HETATM   24  C   UNL     1     -11.189  10.247  70.087  1.00  0.00    -0.387 C  
HETATM   25  C   UNL     1     -12.077   9.312  70.856  1.00  0.00    -0.233 C  
HETATM   26  H   UNL     1     -12.791  11.933  71.303  1.00  0.00     0.000 HD 
HETATM   27  O   UNL     1     -13.234   9.638  71.098  1.00  0.00    -0.356 OA 
HETATM   28  C   UNL     1     -11.564   7.913  71.154  1.00  0.00    -0.302 A  
HETATM   29  C   UNL     1     -10.240   7.520  70.831  1.00  0.00    -0.193 A  
HETATM   30  C   UNL     1      -9.789   6.238  71.233  1.00  0.00    -0.175 A  
HETATM   31  C   UNL     1      -9.322   8.489  70.138  1.00  0.00    -0.161 C  
ENDROOT
BRANCH   4  32
HETATM   32  N   UNL     1      -8.364  10.738  66.027  1.00  0.00    -0.161 NA 
HETATM   33  C   UNL     1      -7.179  10.852  66.888  1.00  0.00    -0.124 C  
HETATM   34  C   UNL     1      -8.643   9.353  65.690  1.00  0.00    -0.142 C  
ENDBRANCH   4  32
BRANCH   7  35
HETATM   35  C   UNL     1     -11.859  12.688  65.124  1.00  0.00    -0.396 C  
HETATM   36  N   UNL     1     -11.220  11.979  64.158  1.00  0.00    -0.347 N  
HETATM   37  O   UNL     1     -13.095  12.688  65.140  1.00  0.00    -0.726 OA 
HETATM   38  H1  UNL     1     -11.791  11.511  63.455  1.00  0.00     0.000 HD 
HETATM   39  H2  UNL     1     -10.202  11.917  64.137  1.00  0.00     0.000 HD 
ENDBRANCH   7  35
TORSDOF 2
ENDMDL
MODEL       16
REMARK 921   NORMALIZED FREE ENERGY PREDICTED BY IDOCK:   -7.08 KCAL/MOL
REMARK 922        TOTAL FREE ENERGY PREDICTED BY IDOCK:   -8.05 KCAL/MOL
REMARK 923 INTER-LIGAND FREE ENERGY PREDICTED BY IDOCK:   -8.20 KCAL/MOL
REMARK 924 INTRA-LIGAND FREE ENERGY PREDICTED BY IDOCK:    0.15 KCAL/MOL
REMARK 927      BINDING AFFINITY PREDICTED BY RF-SCORE:    0.00 PKD
ROOT
HETATM    1  C   UNL     1     -11.482  10.713  69.983  1.00  0.00    -0.404 C  
HETATM    2  C   UNL     1     -12.703  11.590  70.215  1.00  0.00    -0.085 C  
HETATM    3  C   UNL     1     -12.485  13.002  69.712  1.00  0.00    -0.002 C  
HETATM    4  C   UNL     1     -11.926  14.032  70.724  1.00  0.00    -0.291 C  
HETATM    5  H   UNL     1      -7.833   6.700  67.346  1.00  0.00     0.000 HD 
HETATM    6  C   UNL     1     -12.262  15.380  70.021  1.00  0.00    -0.361 C  
HETATM    7  C   UNL     1     -11.508  15.657  68.930  1.00  0.00    -0.367 C  
HETATM    8  O   UNL     1     -13.640  15.620  69.957  1.00  0.00    -0.385 OA 
HETATM    9  O   UNL     1      -8.452   7.389  67.561  1.00  0.00    -0.115 OA 
HETATM   10  C   UNL     1      -9.196   7.342  68.706  1.00  0.00    -0.144 A  
HETATM   11  C   UNL     1     -11.715  14.531  67.895  1.00  0.00    -0.351 C  
HETATM   12  H   UNL     1     -11.976   8.725  72.465  1.00  0.00     0.000 HD 
HETATM   13  H   UNL     1     -13.845  16.442  69.528  1.00  0.00     0.000 HD 
HETATM   14  O   UNL     1     -11.981  14.789  66.724  1.00  0.00    -0.327 OA 
HETATM   15  C   UNL     1     -11.557  13.075  68.452  1.00  0.00    -0.335 C  
HETATM   16  C   UNL     1      -9.007   6.241  69.544  1.00  0.00    -0.134 A  
HETATM   17  C   UNL     1      -9.754   6.121  70.703  1.00  0.00    -0.203 A  
HETATM   18 CL   UNL     1     -11.633   6.763  72.448  1.00  0.00    -0.299 Cl 
HETATM   19  O   UNL     1     -11.786   9.562  72.058  1.00  0.00    -0.331 OA 
HETATM   20  O   UNL     1     -10.132  13.199  68.777  1.00  0.00    -0.385 OA 
HETATM   21  C   UNL     1     -11.496  11.741  67.715  1.00  0.00    -0.311 C  
HETATM   22  H   UNL     1      -9.569  13.243  68.013  1.00  0.00     0.000 HD 
HETATM   23  O   UNL     1     -11.299  11.756  66.350  1.00  0.00    -0.329 OA 
HETATM   24  C   UNL     1     -11.209  10.659  68.502  1.00  0.00    -0.342 C  
HETATM   25  C   UNL     1     -10.320   9.529  68.069  1.00  0.00    -0.214 C  
HETATM   26  H   UNL     1     -11.261  10.925  65.891  1.00  0.00     0.000 HD 
HETATM   27  O   UNL     1      -9.672   9.631  67.033  1.00  0.00    -0.165 OA 
HETATM   28  C   UNL     1     -10.115   8.366  69.025  1.00  0.00    -0.209 A  
HETATM   29  C   UNL     1     -10.830   8.271  70.248  1.00  0.00    -0.241 A  
HETATM   30  C   UNL     1     -10.675   7.110  71.043  1.00  0.00    -0.232 A  
HETATM   31  C   UNL     1     -11.788   9.363  70.639  1.00  0.00    -0.207 C  
ENDROOT
BRANCH   4  32
HETATM   32  N   UNL     1     -12.186  13.881  72.157  1.00  0.00     0.052 NA 
HETATM   33  C   UNL     1     -11.770  15.093  72.876  1.00  0.00    -0.314 C  
HETATM   34  C   UNL     1     -13.523  13.467  72.545  1.00  0.00    -0.556 C  
ENDBRANCH   4  32
BRANCH   7  35
HETATM   35  C   UNL     1     -10.125  16.056  69.355  1.00  0.00    -0.271 C  
HETATM   36  N   UNL     1      -9.621  17.217  68.863  1.00  0.00    -0.258 N  
HETATM   37  O   UNL     1      -9.450  15.414  70.167  1.00  0.00    -0.089 OA 
HETATM   38  H1  UNL     1      -8.682  17.489  69.152  1.00  0.00     0.000 HD 
HETATM   39  H2  UNL     1     -10.165  17.799  68.226  1.00  0.00     0.000 HD 
ENDBRANCH   7  35
TORSDOF 2
ENDMDL
MODEL       17
REMARK 921   NORMALIZED FREE ENERGY PREDICTED BY IDOCK:   -7.05 KCAL/MOL
REMARK 922        TOTAL FREE ENERGY PREDICTED BY IDOCK:   -8.01 KCAL/MOL
REMARK 923 INTER-LIGAND FREE ENERGY PREDICTED BY IDOCK:   -8.80 KCAL/MOL
REMARK 924 INTRA-LIGAND FREE ENERGY PREDICTED BY IDOCK:    0.79 KCAL/MOL
REMARK 927      BINDING AFFINITY PREDICTED BY RF-SCORE:    0.00 PKD
ROOT
HETATM    1  C   UNL     1      -9.339  10.425  66.104  1.00  0.00    -0.210 C  
HETATM    2  C   UNL     1     -10.668  10.771  66.759  1.00  0.00    -0.291 C  
HETATM    3  C   UNL     1     -11.254  12.051  66.198  1.00  0.00    -0.394 C  
HETATM    4  C   UNL     1     -10.895  13.369  66.927  1.00  0.00    -0.277 C  
HETATM    5  H   UNL     1      -5.406   7.813  62.352  1.00  0.00     0.000 HD 
HETATM    6  C   UNL     1     -11.985  14.338  66.383  1.00  0.00    -0.419 C  
HETATM    7  C   UNL     1     -11.825  14.708  65.089  1.00  0.00    -0.351 C  
HETATM    8  O   UNL     1     -13.270  13.998  66.825  1.00  0.00     0.047 OA 
HETATM    9  O   UNL     1      -6.153   8.225  62.773  1.00  0.00    -0.080 OA 
HETATM   10  C   UNL     1      -6.386   8.076  64.110  1.00  0.00    -0.062 A  
HETATM   11  C   UNL     1     -11.854  13.439  64.211  1.00  0.00    -0.423 C  
HETATM   12  H   UNL     1      -8.092   8.841  68.612  1.00  0.00     0.000 HD 
HETATM   13  H   UNL     1     -13.935  14.590  66.493  1.00  0.00     0.000 HD 
HETATM   14  O   UNL     1     -12.571  13.374  63.216  1.00  0.00    -0.715 OA 
HETATM   15  C   UNL     1     -10.915  12.278  64.686  1.00  0.00    -0.306 C  
HETATM   16  C   UNL     1      -5.480   7.293  64.831  1.00  0.00    -0.033 A  
HETATM   17  C   UNL     1      -5.680   7.080  66.184  1.00  0.00    -0.031 A  
HETATM   18 CL   UNL     1      -6.968   7.201  68.489  1.00  0.00    -0.076 Cl 
HETATM   19  O   UNL     1      -8.424   9.606  68.156  1.00  0.00    -0.117 OA 
HETATM   20  O   UNL     1      -9.662  13.008  64.466  1.00  0.00    -0.574 OA 
HETATM   21  C   UNL     1     -10.533  10.976  63.989  1.00  0.00    -0.366 C  
HETATM   22  H   UNL     1      -9.456  13.145  63.549  1.00  0.00     0.000 HD 
HETATM   23  O   UNL     1     -10.818  10.843  62.647  1.00  0.00    -0.667 OA 
HETATM   24  C   UNL     1      -9.570  10.241  64.626  1.00  0.00    -0.374 C  
HETATM   25  C   UNL     1      -8.478   9.502  63.909  1.00  0.00    -0.190 C  
HETATM   26  H   UNL     1     -10.581  10.033  62.213  1.00  0.00     0.000 HD 
HETATM   27  O   UNL     1      -8.315   9.680  62.707  1.00  0.00    -0.139 OA 
HETATM   28  C   UNL     1      -7.495   8.690  64.735  1.00  0.00    -0.097 A  
HETATM   29  C   UNL     1      -7.657   8.521  66.134  1.00  0.00    -0.089 A  
HETATM   30  C   UNL     1      -6.768   7.664  66.828  1.00  0.00    -0.066 A  
HETATM   31  C   UNL     1      -8.804   9.193  66.838  1.00  0.00    -0.123 C  
ENDROOT
BRANCH   4  32
HETATM   32  N   UNL     1     -10.580  13.365  68.357  1.00  0.00    -0.243 NA 
HETATM   33  C   UNL     1     -10.116  14.695  68.775  1.00  0.00    -0.235 C  
HETATM   34  C   UNL     1     -11.602  12.854  69.255  1.00  0.00    -0.310 C  
ENDBRANCH   4  32
BRANCH   7  35
HETATM   35  C   UNL     1     -10.693  15.687  64.976  1.00  0.00    -0.436 C  
HETATM   36  N   UNL     1      -9.475  15.304  65.440  1.00  0.00    -0.337 N  
HETATM   37  O   UNL     1     -10.800  16.793  64.435  1.00  0.00    -0.812 OA 
HETATM   38  H1  UNL     1      -8.706  15.969  65.363  1.00  0.00     0.000 HD 
HETATM   39  H2  UNL     1      -9.335  14.382  65.852  1.00  0.00     0.000 HD 
ENDBRANCH   7  35
TORSDOF 2
ENDMDL
MODEL       18
REMARK 921   NORMALIZED FREE ENERGY PREDICTED BY IDOCK:   -6.95 KCAL/MOL
REMARK 922        TOTAL FREE ENERGY PREDICTED BY IDOCK:   -7.90 KCAL/MOL
REMARK 923 INTER-LIGAND FREE ENERGY PREDICTED BY IDOCK:   -7.43 KCAL/MOL
REMARK 924 INTRA-LIGAND FREE ENERGY PREDICTED BY IDOCK:   -0.47 KCAL/MOL
REMARK 927      BINDING AFFINITY PREDICTED BY RF-SCORE:    0.00 PKD
ROOT
HETATM    1  C   UNL     1      -9.622  10.352  67.065  1.00  0.00    -0.197 C  
HETATM    2  C   UNL     1      -8.351   9.750  67.647  1.00  0.00    -0.114 C  
HETATM    3  C   UNL     1      -8.219   8.279  67.307  1.00  0.00    -0.120 C  
HETATM    4  C   UNL     1      -8.805   7.266  68.320  1.00  0.00    -0.127 C  
HETATM    5  H   UNL     1     -13.225  13.321  63.248  1.00  0.00     0.000 HD 
HETATM    6  C   UNL     1      -8.107   5.944  67.885  1.00  0.00    -0.105 C  
HETATM    7  C   UNL     1      -8.551   5.424  66.715  1.00  0.00    -0.110 C  
HETATM    8  O   UNL     1      -6.727   5.966  68.124  1.00  0.00    -0.053 OA 
HETATM    9  O   UNL     1     -12.562  12.786  63.671  1.00  0.00    -0.685 OA 
HETATM   10  C   UNL     1     -12.102  13.085  64.922  1.00  0.00    -0.413 A  
HETATM   11  C   UNL     1      -8.314   6.462  65.598  1.00  0.00    -0.147 C  
HETATM   12  H   UNL     1     -10.013  12.630  69.303  1.00  0.00     0.000 HD 
HETATM   13  H   UNL     1      -6.301   5.159  67.859  1.00  0.00     0.000 HD 
HETATM   14  O   UNL     1      -7.762   6.146  64.547  1.00  0.00    -0.091 OA 
HETATM   15  C   UNL     1      -8.827   7.909  65.912  1.00  0.00    -0.148 C  
HETATM   16  C   UNL     1     -12.647  14.208  65.550  1.00  0.00    -0.501 A  
HETATM   17  C   UNL     1     -12.199  14.579  66.806  1.00  0.00    -0.232 A  
HETATM   18 CL   UNL     1     -10.663  14.480  68.954  1.00  0.00    -0.249 Cl 
HETATM   19  O   UNL     1      -9.969  11.736  68.984  1.00  0.00    -0.096 OA 
HETATM   20  O   UNL     1     -10.248   7.548  65.966  1.00  0.00    -0.323 OA 
HETATM   21  C   UNL     1      -8.946   9.128  65.003  1.00  0.00    -0.171 C  
HETATM   22  H   UNL     1     -10.617   7.324  65.119  1.00  0.00     0.000 HD 
HETATM   23  O   UNL     1      -8.839   8.943  63.641  1.00  0.00    -0.427 OA 
HETATM   24  C   UNL     1      -9.572  10.207  65.565  1.00  0.00    -0.310 C  
HETATM   25  C   UNL     1     -10.521  11.101  64.819  1.00  0.00    -0.323 C  
HETATM   26  H   UNL     1      -8.913   9.702  63.075  1.00  0.00     0.000 HD 
HETATM   27  O   UNL     1     -10.903  10.777  63.699  1.00  0.00    -0.110 OA 
HETATM   28  C   UNL     1     -11.117  12.291  65.551  1.00  0.00    -0.348 A  
HETATM   29  C   UNL     1     -10.710  12.639  66.864  1.00  0.00    -0.264 A  
HETATM   30  C   UNL     1     -11.224  13.822  67.450  1.00  0.00    -0.310 A  
HETATM   31  C   UNL     1      -9.693  11.792  67.579  1.00  0.00    -0.180 C  
ENDROOT
BRANCH   4  32
HETATM   32  N   UNL     1      -8.891   7.603  69.743  1.00  0.00    -0.140 NA 
HETATM   33  C   UNL     1     -10.211   8.172  70.047  1.00  0.00    -0.202 C  
HETATM   34  C   UNL     1      -8.532   6.561  70.689  1.00  0.00    -0.134 C  
ENDBRANCH   4  32
BRANCH   7  35
HETATM   35  C   UNL     1      -9.907   4.812  66.912  1.00  0.00    -0.205 C  
HETATM   36  N   UNL     1     -10.755   4.796  65.851  1.00  0.00    -0.640 N  
HETATM   37  O   UNL     1     -10.266   4.277  67.966  1.00  0.00     0.046 OA 
HETATM   38  H1  UNL     1     -11.677   4.380  65.985  1.00  0.00     0.000 HD 
HETATM   39  H2  UNL     1     -10.479   5.187  64.951  1.00  0.00     0.000 HD 
ENDBRANCH   7  35
TORSDOF 2
ENDMDL
MODEL       19
REMARK 921   NORMALIZED FREE ENERGY PREDICTED BY IDOCK:   -6.89 KCAL/MOL
REMARK 922        TOTAL FREE ENERGY PREDICTED BY IDOCK:   -7.83 KCAL/MOL
REMARK 923 INTER-LIGAND FREE ENERGY PREDICTED BY IDOCK:   -7.35 KCAL/MOL
REMARK 924 INTRA-LIGAND FREE ENERGY PREDICTED BY IDOCK:   -0.47 KCAL/MOL
REMARK 927      BINDING AFFINITY PREDICTED BY RF-SCORE:    0.00 PKD
ROOT
HETATM    1  C   UNL     1     -10.067  10.658  68.187  1.00  0.00    -0.179 C  
HETATM    2  C   UNL     1      -9.098  10.443  69.341  1.00  0.00    -0.170 C  
HETATM    3  C   UNL     1      -8.719   8.984  69.491  1.00  0.00    -0.144 C  
HETATM    4  C   UNL     1      -9.581   8.127  70.450  1.00  0.00    -0.170 C  
HETATM    5  H   UNL     1     -12.037  12.002  62.649  1.00  0.00     0.000 HD 
HETATM    6  C   UNL     1      -8.661   6.894  70.686  1.00  0.00    -0.149 C  
HETATM    7  C   UNL     1      -8.547   6.057  69.627  1.00  0.00    -0.126 C  
HETATM    8  O   UNL     1      -7.504   7.221  71.406  1.00  0.00    -0.080 OA 
HETATM    9  O   UNL     1     -11.562  11.705  63.416  1.00  0.00    -0.395 OA 
HETATM   10  C   UNL     1     -11.676  12.351  64.615  1.00  0.00    -0.365 A  
HETATM   11  C   UNL     1      -7.962   6.850  68.439  1.00  0.00    -0.122 C  
HETATM   12  H   UNL     1     -11.518  13.260  69.402  1.00  0.00     0.000 HD 
HETATM   13  H   UNL     1      -6.943   6.468  71.550  1.00  0.00     0.000 HD 
HETATM   14  O   UNL     1      -7.007   6.418  67.799  1.00  0.00    -0.070 OA 
HETATM   15  C   UNL     1      -8.675   8.211  68.130  1.00  0.00    -0.136 C  
HETATM   16  C   UNL     1     -12.519  13.463  64.661  1.00  0.00    -0.385 A  
HETATM   17  C   UNL     1     -12.652  14.178  65.840  1.00  0.00    -0.447 A  
HETATM   18 CL   UNL     1     -12.120  14.837  68.343  1.00  0.00    -0.263 Cl 
HETATM   19  O   UNL     1     -11.275  12.342  69.380  1.00  0.00    -0.239 OA 
HETATM   20  O   UNL     1      -9.961   7.616  67.749  1.00  0.00    -0.157 OA 
HETATM   21  C   UNL     1      -8.514   9.158  66.945  1.00  0.00    -0.123 C  
HETATM   22  H   UNL     1      -9.934   7.147  66.923  1.00  0.00     0.000 HD 
HETATM   23  O   UNL     1      -7.847   8.701  65.828  1.00  0.00    -0.094 OA 
HETATM   24  C   UNL     1      -9.400  10.200  66.915  1.00  0.00    -0.185 C  
HETATM   25  C   UNL     1     -10.033  10.717  65.655  1.00  0.00    -0.260 C  
HETATM   26  H   UNL     1      -7.747   9.291  65.090  1.00  0.00     0.000 HD 
HETATM   27  O   UNL     1      -9.899  10.091  64.609  1.00  0.00    -0.318 OA 
HETATM   28  C   UNL     1     -10.970  11.908  65.756  1.00  0.00    -0.359 A  
HETATM   29  C   UNL     1     -11.162  12.605  66.977  1.00  0.00    -0.348 A  
HETATM   30  C   UNL     1     -11.964  13.773  66.981  1.00  0.00    -0.413 A  
HETATM   31  C   UNL     1     -10.458  12.138  68.221  1.00  0.00    -0.213 C  
ENDROOT
BRANCH   4  32
HETATM   32  N   UNL     1     -10.265   8.746  71.588  1.00  0.00    -0.295 NA 
HETATM   33  C   UNL     1     -11.644   9.095  71.219  1.00  0.00    -0.331 C  
HETATM   34  C   UNL     1     -10.219   8.032  72.852  1.00  0.00    -0.314 C  
ENDBRANCH   4  32
BRANCH   7  35
HETATM   35  C   UNL     1      -9.811   5.265  69.466  1.00  0.00    -0.200 C  
HETATM   36  N   UNL     1     -10.086   4.753  68.238  1.00  0.00    -0.087 N  
HETATM   37  O   UNL     1     -10.579   5.010  70.400  1.00  0.00    -0.215 OA 
HETATM   38  H1  UNL     1     -10.945   4.215  68.128  1.00  0.00     0.000 HD 
HETATM   39  H2  UNL     1      -9.454   4.903  67.452  1.00  0.00     0.000 HD 
ENDBRANCH   7  35
TORSDOF 2
ENDMDL
MODEL       20
REMARK 921   NORMALIZED FREE ENERGY PREDICTED BY IDOCK:   -6.88 KCAL/MOL
REMARK 922        TOTAL FREE ENERGY PREDICTED BY IDOCK:   -7.83 KCAL/MOL
REMARK 923 INTER-LIGAND FREE ENERGY PREDICTED BY IDOCK:   -7.52 KCAL/MOL
REMARK 924 INTRA-LIGAND FREE ENERGY PREDICTED BY IDOCK:   -0.31 KCAL/MOL
REMARK 927      BINDING AFFINITY PREDICTED BY RF-SCORE:    0.00 PKD
ROOT
HETATM    1  C   UNL     1      -9.619   9.516  67.891  1.00  0.00    -0.154 C  
HETATM    2  C   UNL     1      -9.227  10.318  66.659  1.00  0.00    -0.179 C  
HETATM    3  C   UNL     1      -9.271  11.809  66.921  1.00  0.00    -0.189 C  
HETATM    4  C   UNL     1     -10.598  12.542  66.606  1.00  0.00    -0.237 C  
HETATM    5  H   UNL     1      -9.019   6.271  72.938  1.00  0.00     0.000 HD 
HETATM    6  C   UNL     1     -10.135  14.028  66.560  1.00  0.00    -0.285 C  
HETATM    7  C   UNL     1      -9.824  14.566  67.764  1.00  0.00    -0.220 C  
HETATM    8  O   UNL     1      -9.290  14.290  65.474  1.00  0.00    -0.516 OA 
HETATM    9  O   UNL     1      -8.945   6.888  72.219  1.00  0.00    -0.135 OA 
HETATM   10  C   UNL     1      -9.351   6.559  70.957  1.00  0.00    -0.160 A  
HETATM   11  C   UNL     1      -8.675  13.742  68.384  1.00  0.00    -0.162 C  
HETATM   12  H   UNL     1     -10.795   6.968  66.319  1.00  0.00     0.000 HD 
HETATM   13  H   UNL     1      -9.008  15.196  65.446  1.00  0.00     0.000 HD 
HETATM   14  O   UNL     1      -7.673  14.293  68.833  1.00  0.00    -0.136 OA 
HETATM   15  C   UNL     1      -8.895  12.191  68.393  1.00  0.00    -0.143 C  
HETATM   16  C   UNL     1      -9.877   5.279  70.771  1.00  0.00    -0.261 A  
HETATM   17  C   UNL     1     -10.277   4.876  69.508  1.00  0.00    -0.247 A  
HETATM   18 CL   UNL     1     -10.586   5.071  66.891  1.00  0.00    -0.245 Cl 
HETATM   19  O   UNL     1     -10.775   7.879  66.587  1.00  0.00    -0.223 OA 
HETATM   20  O   UNL     1     -10.044  12.214  69.306  1.00  0.00    -0.403 OA 
HETATM   21  C   UNL     1      -8.095  11.088  69.078  1.00  0.00    -0.104 C  
HETATM   22  H   UNL     1      -9.816  12.446  70.199  1.00  0.00     0.000 HD 
HETATM   23  O   UNL     1      -7.180  11.448  70.045  1.00  0.00    -0.385 OA 
HETATM   24  C   UNL     1      -8.647   9.839  68.997  1.00  0.00    -0.146 C  
HETATM   25  C   UNL     1      -8.629   8.847  70.124  1.00  0.00    -0.155 C  
HETATM   26  H   UNL     1      -6.681  10.761  70.471  1.00  0.00     0.000 HD 
HETATM   27  O   UNL     1      -8.258   9.203  71.237  1.00  0.00    -0.290 OA 
HETATM   28  C   UNL     1      -9.242   7.477  69.889  1.00  0.00    -0.147 A  
HETATM   29  C   UNL     1      -9.715   7.082  68.611  1.00  0.00    -0.139 A  
HETATM   30  C   UNL     1     -10.176   5.754  68.432  1.00  0.00    -0.191 A  
HETATM   31  C   UNL     1      -9.652   8.048  67.460  1.00  0.00    -0.153 C  
ENDROOT
BRANCH   4  32
HETATM   32  N   UNL     1     -11.500  12.034  65.570  1.00  0.00    -0.338 NA 
HETATM   33  C   UNL     1     -12.640  12.944  65.403  1.00  0.00    -0.378 C  
HETATM   34  C   UNL     1     -10.904  11.688  64.291  1.00  0.00    -0.359 C  
ENDBRANCH   4  32
BRANCH   7  35
HETATM   35  C   UNL     1     -11.079  14.830  68.543  1.00  0.00    -0.264 C  
HETATM   36  N   UNL     1     -11.003  14.797  69.898  1.00  0.00    -0.380 N  
HETATM   37  O   UNL     1     -12.157  15.129  68.017  1.00  0.00    -0.192 OA 
HETATM   38  H1  UNL     1     -11.856  14.977  70.428  1.00  0.00     0.000 HD 
HETATM   39  H2  UNL     1     -10.121  14.599  70.371  1.00  0.00     0.000 HD 
ENDBRANCH   7  35
TORSDOF 2
ENDMDL
MODEL       21
REMARK 921   NORMALIZED FREE ENERGY PREDICTED BY IDOCK:   -6.78 KCAL/MOL
REMARK 922        TOTAL FREE ENERGY PREDICTED BY IDOCK:   -7.71 KCAL/MOL
REMARK 923 INTER-LIGAND FREE ENERGY PREDICTED BY IDOCK:   -7.50 KCAL/MOL
REMARK 924 INTRA-LIGAND FREE ENERGY PREDICTED BY IDOCK:   -0.21 KCAL/MOL
REMARK 927      BINDING AFFINITY PREDICTED BY RF-SCORE:    0.00 PKD
ROOT
HETATM    1  C   UNL     1     -10.568  10.366  67.960  1.00  0.00    -0.259 C  
HETATM    2  C   UNL     1     -10.438  10.649  69.449  1.00  0.00    -0.252 C  
HETATM    3  C   UNL     1     -10.090   9.398  70.230  1.00  0.00    -0.288 C  
HETATM    4  C   UNL     1     -11.270   8.570  70.797  1.00  0.00    -0.257 C  
HETATM    5  H   UNL     1      -9.056   9.982  62.135  1.00  0.00     0.000 HD 
HETATM    6  C   UNL     1     -10.555   7.687  71.861  1.00  0.00    -0.218 C  
HETATM    7  C   UNL     1      -9.772   6.705  71.353  1.00  0.00    -0.181 C  
HETATM    8  O   UNL     1     -10.067   8.439  72.937  1.00  0.00    -0.262 OA 
HETATM    9  O   UNL     1      -9.093   9.981  63.085  1.00  0.00    -0.237 OA 
HETATM   10  C   UNL     1      -9.939  10.812  63.762  1.00  0.00    -0.351 A  
HETATM   11  C   UNL     1      -8.678   7.355  70.480  1.00  0.00    -0.147 C  
HETATM   12  H   UNL     1     -12.678  12.710  67.321  1.00  0.00     0.000 HD 
HETATM   13  H   UNL     1      -9.631   7.901  73.586  1.00  0.00     0.000 HD 
HETATM   14  O   UNL     1      -7.495   7.055  70.621  1.00  0.00    -0.081 OA 
HETATM   15  C   UNL     1      -9.194   8.395  69.428  1.00  0.00    -0.154 C  
HETATM   16  C   UNL     1     -10.746  11.659  62.999  1.00  0.00    -0.181 A  
HETATM   17  C   UNL     1     -11.603  12.546  63.629  1.00  0.00    -0.580 A  
HETATM   18 CL   UNL     1     -12.687  13.826  65.671  1.00  0.00    -0.548 Cl 
HETATM   19  O   UNL     1     -12.388  11.899  67.723  1.00  0.00    -0.365 OA 
HETATM   20  O   UNL     1      -9.960   7.428  68.633  1.00  0.00    -0.160 OA 
HETATM   21  C   UNL     1      -8.458   9.083  68.283  1.00  0.00    -0.129 C  
HETATM   22  H   UNL     1      -9.416   6.819  68.146  1.00  0.00     0.000 HD 
HETATM   23  O   UNL     1      -7.229   8.587  67.903  1.00  0.00    -0.084 OA 
HETATM   24  C   UNL     1      -9.249   9.837  67.459  1.00  0.00    -0.145 C  
HETATM   25  C   UNL     1      -9.073   9.902  65.969  1.00  0.00    -0.158 C  
HETATM   26  H   UNL     1      -6.770   9.016  67.191  1.00  0.00     0.000 HD 
HETATM   27  O   UNL     1      -8.301   9.127  65.416  1.00  0.00    -0.126 OA 
HETATM   28  C   UNL     1      -9.994  10.811  65.174  1.00  0.00    -0.351 A  
HETATM   29  C   UNL     1     -10.922  11.676  65.811  1.00  0.00    -0.329 A  
HETATM   30  C   UNL     1     -11.675  12.576  65.019  1.00  0.00    -0.362 A  
HETATM   31  C   UNL     1     -11.035  11.672  67.311  1.00  0.00    -0.267 C  
ENDROOT
BRANCH   4  32
HETATM   32  N   UNL     1     -12.540   9.219  71.131  1.00  0.00    -0.290 NA 
HETATM   33  C   UNL     1     -13.394   8.296  71.891  1.00  0.00    -0.342 C  
HETATM   34  C   UNL     1     -12.465  10.521  71.772  1.00  0.00    -0.262 C  
ENDBRANCH   4  32
BRANCH   7  35
HETATM   35  C   UNL     1     -10.630   5.603  70.805  1.00  0.00    -0.265 C  
HETATM   36  N   UNL     1     -10.096   4.798  69.851  1.00  0.00    -0.246 N  
HETATM   37  O   UNL     1     -11.770   5.359  71.215  1.00  0.00     0.378 OA 
HETATM   38  H1  UNL     1     -10.678   4.048  69.478  1.00  0.00     0.000 HD 
HETATM   39  H2  UNL     1      -9.142   4.938  69.518  1.00  0.00     0.000 HD 
ENDBRANCH   7  35
TORSDOF 2
ENDMDL
MODEL       22
REMARK 921   NORMALIZED FREE ENERGY PREDICTED BY IDOCK:   -6.76 KCAL/MOL
REMARK 922        TOTAL FREE ENERGY PREDICTED BY IDOCK:   -7.69 KCAL/MOL
REMARK 923 INTER-LIGAND FREE ENERGY PREDICTED BY IDOCK:   -7.48 KCAL/MOL
REMARK 924 INTRA-LIGAND FREE ENERGY PREDICTED BY IDOCK:   -0.21 KCAL/MOL
REMARK 927      BINDING AFFINITY PREDICTED BY RF-SCORE:    0.00 PKD
ROOT
HETATM    1  C   UNL     1     -10.795  10.294  69.279  1.00  0.00    -0.275 C  
HETATM    2  C   UNL     1     -11.946  11.271  69.088  1.00  0.00    -0.405 C  
HETATM    3  C   UNL     1     -11.543  12.452  68.228  1.00  0.00    -0.384 C  
HETATM    4  C   UNL     1     -10.998  13.703  68.960  1.00  0.00    -0.234 C  
HETATM    5  H   UNL     1      -7.289   5.465  68.410  1.00  0.00     0.000 HD 
HETATM    6  C   UNL     1     -11.129  14.795  67.859  1.00  0.00    -0.293 C  
HETATM    7  C   UNL     1     -10.242  14.687  66.841  1.00  0.00    -0.262 C  
HETATM    8  O   UNL     1     -12.464  15.087  67.553  1.00  0.00    -0.310 OA 
HETATM    9  O   UNL     1      -7.858   6.222  68.334  1.00  0.00    -0.102 OA 
HETATM   10  C   UNL     1      -8.719   6.565  69.338  1.00  0.00    -0.134 A  
HETATM   11  C   UNL     1     -10.446  13.317  66.160  1.00  0.00    -0.293 C  
HETATM   12  H   UNL     1     -11.732   9.174  72.146  1.00  0.00     0.000 HD 
HETATM   13  H   UNL     1     -12.544  15.754  66.881  1.00  0.00     0.000 HD 
HETATM   14  O   UNL     1     -10.562  13.228  64.940  1.00  0.00    -0.325 OA 
HETATM   15  C   UNL     1     -10.486  12.089  67.131  1.00  0.00    -0.220 C  
HETATM   16  C   UNL     1      -8.724   5.756  70.477  1.00  0.00    -0.140 A  
HETATM   17  C   UNL     1      -9.596   6.034  71.515  1.00  0.00    -0.175 A  
HETATM   18 CL   UNL     1     -11.577   7.280  72.743  1.00  0.00    -0.256 Cl 
HETATM   19  O   UNL     1     -11.422   9.837  71.541  1.00  0.00    -0.378 OA 
HETATM   20  O   UNL     1      -9.097  12.219  67.586  1.00  0.00    -0.170 OA 
HETATM   21  C   UNL     1     -10.475  10.594  66.827  1.00  0.00    -0.247 C  
HETATM   22  H   UNL     1      -8.456  11.999  66.920  1.00  0.00     0.000 HD 
HETATM   23  O   UNL     1     -10.136  10.188  65.554  1.00  0.00    -0.289 OA 
HETATM   24  C   UNL     1     -10.376   9.783  67.924  1.00  0.00    -0.258 C  
HETATM   25  C   UNL     1      -9.558   8.523  67.956  1.00  0.00    -0.149 C  
HETATM   26  H   UNL     1     -10.130   9.257  65.364  1.00  0.00     0.000 HD 
HETATM   27  O   UNL     1      -8.799   8.272  67.026  1.00  0.00    -0.130 OA 
HETATM   28  C   UNL     1      -9.565   7.691  69.226  1.00  0.00    -0.159 A  
HETATM   29  C   UNL     1     -10.409   8.009  70.322  1.00  0.00    -0.212 A  
HETATM   30  C   UNL     1     -10.449   7.132  71.433  1.00  0.00    -0.204 A  
HETATM   31  C   UNL     1     -11.295   9.224  70.253  1.00  0.00    -0.203 C  
ENDROOT
BRANCH   4  32
HETATM   32  N   UNL     1     -11.419  14.004  70.331  1.00  0.00    -0.123 NA 
HETATM   33  C   UNL     1     -10.995  15.361  70.702  1.00  0.00    -0.319 C  
HETATM   34  C   UNL     1     -12.816  13.777  70.655  1.00  0.00    -0.192 C  
ENDBRANCH   4  32
BRANCH   7  35
HETATM   35  C   UNL     1      -8.880  15.113  67.305  1.00  0.00    -0.200 C  
HETATM   36  N   UNL     1      -7.801  14.523  66.728  1.00  0.00    -0.271 N  
HETATM   37  O   UNL     1      -8.692  16.005  68.139  1.00  0.00    -0.169 OA 
HETATM   38  H1  UNL     1      -6.875  14.812  67.043  1.00  0.00     0.000 HD 
HETATM   39  H2  UNL     1      -7.913  13.814  66.003  1.00  0.00     0.000 HD 
ENDBRANCH   7  35
TORSDOF 2
ENDMDL
MODEL       23
REMARK 921   NORMALIZED FREE ENERGY PREDICTED BY IDOCK:   -6.75 KCAL/MOL
REMARK 922        TOTAL FREE ENERGY PREDICTED BY IDOCK:   -7.67 KCAL/MOL
REMARK 923 INTER-LIGAND FREE ENERGY PREDICTED BY IDOCK:   -7.29 KCAL/MOL
REMARK 924 INTRA-LIGAND FREE ENERGY PREDICTED BY IDOCK:   -0.38 KCAL/MOL
REMARK 927      BINDING AFFINITY PREDICTED BY RF-SCORE:    0.00 PKD
ROOT
HETATM    1  C   UNL     1      -9.962  10.838  69.451  1.00  0.00    -0.137 C  
HETATM    2  C   UNL     1     -10.245  11.322  68.036  1.00  0.00    -0.201 C  
HETATM    3  C   UNL     1      -9.318  12.450  67.633  1.00  0.00    -0.188 C  
HETATM    4  C   UNL     1      -9.807  13.895  67.902  1.00  0.00    -0.228 C  
HETATM    5  H   UNL     1      -7.727   7.461  73.919  1.00  0.00     0.000 HD 
HETATM    6  C   UNL     1      -8.860  14.725  66.987  1.00  0.00    -0.237 C  
HETATM    7  C   UNL     1      -7.577  14.804  67.416  1.00  0.00    -0.228 C  
HETATM    8  O   UNL     1      -9.095  14.493  65.626  1.00  0.00    -0.434 OA 
HETATM    9  O   UNL     1      -7.890   7.957  73.125  1.00  0.00    -0.118 OA 
HETATM   10  C   UNL     1      -9.153   8.103  72.626  1.00  0.00    -0.250 A  
HETATM   11  C   UNL     1      -7.002  13.374  67.501  1.00  0.00    -0.142 C  
HETATM   12  H   UNL     1     -12.949   9.835  70.104  1.00  0.00     0.000 HD 
HETATM   13  H   UNL     1      -8.518  14.999  65.068  1.00  0.00     0.000 HD 
HETATM   14  O   UNL     1      -5.919  13.096  66.991  1.00  0.00    -0.235 OA 
HETATM   15  C   UNL     1      -7.892  12.341  68.273  1.00  0.00    -0.153 C  
HETATM   16  C   UNL     1     -10.191   7.494  73.334  1.00  0.00    -0.399 A  
HETATM   17  C   UNL     1     -11.490   7.581  72.862  1.00  0.00    -0.311 A  
HETATM   18 CL   UNL     1     -13.407   8.205  71.153  1.00  0.00    -0.119 Cl 
HETATM   19  O   UNL     1     -12.283  10.483  69.905  1.00  0.00    -0.281 OA 
HETATM   20  O   UNL     1      -7.781  13.003  69.578  1.00  0.00    -0.102 OA 
HETATM   21  C   UNL     1      -7.581  10.918  68.723  1.00  0.00    -0.121 C  
HETATM   22  H   UNL     1      -6.916  12.937  69.966  1.00  0.00     0.000 HD 
HETATM   23  O   UNL     1      -6.268  10.497  68.702  1.00  0.00    -0.046 OA 
HETATM   24  C   UNL     1      -8.541  10.337  69.507  1.00  0.00    -0.153 C  
HETATM   25  C   UNL     1      -8.234   9.456  70.683  1.00  0.00    -0.168 C  
HETATM   26  H   UNL     1      -6.074   9.610  68.983  1.00  0.00     0.000 HD 
HETATM   27  O   UNL     1      -7.080   9.368  71.088  1.00  0.00    -0.244 OA 
HETATM   28  C   UNL     1      -9.395   8.841  71.445  1.00  0.00    -0.328 A  
HETATM   29  C   UNL     1     -10.736   8.982  71.003  1.00  0.00    -0.339 A  
HETATM   30  C   UNL     1     -11.761   8.294  71.697  1.00  0.00    -0.292 A  
HETATM   31  C   UNL     1     -11.034   9.794  69.773  1.00  0.00    -0.256 C  
ENDROOT
BRANCH   4  32
HETATM   32  N   UNL     1     -11.238  14.202  67.929  1.00  0.00    -0.268 NA 
HETATM   33  C   UNL     1     -11.480  15.413  68.724  1.00  0.00    -0.341 C  
HETATM   34  C   UNL     1     -11.923  14.263  66.648  1.00  0.00    -0.430 C  
ENDBRANCH   4  32
BRANCH   7  35
HETATM   35  C   UNL     1      -7.490  15.731  68.593  1.00  0.00    -0.151 C  
HETATM   36  N   UNL     1      -6.521  15.496  69.514  1.00  0.00    -0.154 N  
HETATM   37  O   UNL     1      -8.215  16.722  68.734  1.00  0.00    -0.238 OA 
HETATM   38  H1  UNL     1      -6.461  16.127  70.314  1.00  0.00     0.000 HD 
HETATM   39  H2  UNL     1      -5.873  14.715  69.410  1.00  0.00     0.000 HD 
ENDBRANCH   7  35
TORSDOF 2
ENDMDL
MODEL       24
REMARK 921   NORMALIZED FREE ENERGY PREDICTED BY IDOCK:   -6.60 KCAL/MOL
REMARK 922        TOTAL FREE ENERGY PREDICTED BY IDOCK:   -7.51 KCAL/MOL
REMARK 923 INTER-LIGAND FREE ENERGY PREDICTED BY IDOCK:   -7.18 KCAL/MOL
REMARK 924 INTRA-LIGAND FREE ENERGY PREDICTED BY IDOCK:   -0.33 KCAL/MOL
REMARK 927      BINDING AFFINITY PREDICTED BY RF-SCORE:    0.00 PKD
ROOT
HETATM    1  C   UNL     1     -10.588  11.827  67.651  1.00  0.00    -0.237 C  
HETATM    2  C   UNL     1     -10.749  10.697  66.644  1.00  0.00    -0.246 C  
HETATM    3  C   UNL     1     -10.384   9.354  67.244  1.00  0.00    -0.325 C  
HETATM    4  C   UNL     1      -8.917   8.886  67.083  1.00  0.00    -0.127 C  
HETATM    5  H   UNL     1     -12.070  15.924  71.820  1.00  0.00     0.000 HD 
HETATM    6  C   UNL     1      -9.036   7.364  67.390  1.00  0.00    -0.123 C  
HETATM    7  C   UNL     1      -9.261   7.061  68.691  1.00  0.00    -0.131 C  
HETATM    8  O   UNL     1      -9.764   6.677  66.410  1.00  0.00    -0.295 OA 
HETATM    9  O   UNL     1     -11.979  15.158  71.265  1.00  0.00    -0.293 OA 
HETATM   10  C   UNL     1     -11.613  15.271  69.954  1.00  0.00    -0.311 A  
HETATM   11  C   UNL     1     -10.585   7.726  69.125  1.00  0.00    -0.183 C  
HETATM   12  H   UNL     1      -9.954  14.144  65.510  1.00  0.00     0.000 HD 
HETATM   13  H   UNL     1      -9.836   5.749  66.597  1.00  0.00     0.000 HD 
HETATM   14  O   UNL     1     -11.455   7.083  69.708  1.00  0.00    -0.217 OA 
HETATM   15  C   UNL     1     -10.716   9.246  68.771  1.00  0.00    -0.154 C  
HETATM   16  C   UNL     1     -11.379  16.559  69.467  1.00  0.00    -0.088 A  
HETATM   17  C   UNL     1     -11.035  16.741  68.138  1.00  0.00    -0.309 A  
HETATM   18 CL   UNL     1     -10.600  16.025  65.631  1.00  0.00    -0.386 Cl 
HETATM   19  O   UNL     1      -9.781  13.338  65.982  1.00  0.00    -0.276 OA 
HETATM   20  O   UNL     1      -9.624   9.692  69.643  1.00  0.00    -0.181 OA 
HETATM   21  C   UNL     1     -11.765  10.268  69.196  1.00  0.00    -0.037 C  
HETATM   22  H   UNL     1      -9.825   9.626  70.569  1.00  0.00     0.000 HD 
HETATM   23  O   UNL     1     -12.610   9.944  70.236  1.00  0.00    -0.510 OA 
HETATM   24  C   UNL     1     -11.502  11.557  68.818  1.00  0.00    -0.349 C  
HETATM   25  C   UNL     1     -11.779  12.751  69.686  1.00  0.00    -0.302 C  
HETATM   26  H   UNL     1     -13.264  10.581  70.502  1.00  0.00     0.000 HD 
HETATM   27  O   UNL     1     -12.100  12.586  70.858  1.00  0.00    -0.285 OA 
HETATM   28  C   UNL     1     -11.478  14.132  69.129  1.00  0.00    -0.338 A  
HETATM   29  C   UNL     1     -11.061  14.320  67.786  1.00  0.00    -0.294 A  
HETATM   30  C   UNL     1     -10.901  15.639  67.296  1.00  0.00    -0.298 A  
HETATM   31  C   UNL     1     -10.868  13.126  66.891  1.00  0.00    -0.265 C  
ENDROOT
BRANCH   4  32
HETATM   32  N   UNL     1      -8.116   9.332  65.941  1.00  0.00    -0.109 NA 
HETATM   33  C   UNL     1      -6.688   9.109  66.208  1.00  0.00    -0.071 C  
HETATM   34  C   UNL     1      -8.495   8.827  64.633  1.00  0.00    -0.151 C  
ENDBRANCH   4  32
BRANCH   7  35
HETATM   35  C   UNL     1      -8.007   7.272  69.487  1.00  0.00    -0.127 C  
HETATM   36  N   UNL     1      -6.828   6.903  68.923  1.00  0.00    -0.070 N  
HETATM   37  O   UNL     1      -7.988   7.810  70.600  1.00  0.00    -0.094 OA 
HETATM   38  H1  UNL     1      -5.975   7.046  69.464  1.00  0.00     0.000 HD 
HETATM   39  H2  UNL     1      -6.796   6.496  67.988  1.00  0.00     0.000 HD 
ENDBRANCH   7  35
TORSDOF 2
ENDMDL
MODEL       25
REMARK 921   NORMALIZED FREE ENERGY PREDICTED BY IDOCK:   -6.55 KCAL/MOL
REMARK 922        TOTAL FREE ENERGY PREDICTED BY IDOCK:   -7.45 KCAL/MOL
REMARK 923 INTER-LIGAND FREE ENERGY PREDICTED BY IDOCK:   -7.14 KCAL/MOL
REMARK 924 INTRA-LIGAND FREE ENERGY PREDICTED BY IDOCK:   -0.31 KCAL/MOL
REMARK 927      BINDING AFFINITY PREDICTED BY RF-SCORE:    0.00 PKD
ROOT
HETATM    1  C   UNL     1     -11.582  11.067  69.994  1.00  0.00    -0.427 C  
HETATM    2  C   UNL     1     -12.488  12.193  69.517  1.00  0.00     0.147 C  
HETATM    3  C   UNL     1     -11.714  13.258  68.768  1.00  0.00    -0.366 C  
HETATM    4  C   UNL     1     -11.173  14.450  69.596  1.00  0.00    -0.232 C  
HETATM    5  H   UNL     1      -8.759   5.739  70.060  1.00  0.00     0.000 HD 
HETATM    6  C   UNL     1     -10.867  15.494  68.484  1.00  0.00    -0.272 C  
HETATM    7  C   UNL     1      -9.790  15.208  67.713  1.00  0.00    -0.223 C  
HETATM    8  O   UNL     1     -12.028  15.964  67.858  1.00  0.00    -0.162 OA 
HETATM    9  O   UNL     1      -9.170   6.567  69.840  1.00  0.00    -0.148 OA 
HETATM   10  C   UNL     1     -10.182   7.081  70.600  1.00  0.00    -0.191 A  
HETATM   11  C   UNL     1     -10.034  13.851  67.019  1.00  0.00    -0.258 C  
HETATM   12  H   UNL     1     -13.337  10.239  72.559  1.00  0.00     0.000 HD 
HETATM   13  H   UNL     1     -11.841  16.602  67.179  1.00  0.00     0.000 HD 
HETATM   14  O   UNL     1      -9.868  13.720  65.808  1.00  0.00    -0.280 OA 
HETATM   15  C   UNL     1     -10.495  12.690  67.965  1.00  0.00    -0.224 C  
HETATM   16  C   UNL     1     -10.583   6.338  71.712  1.00  0.00    -0.266 A  
HETATM   17  C   UNL     1     -11.625   6.792  72.504  1.00  0.00    -0.236 A  
HETATM   18 CL   UNL     1     -13.625   8.374  73.198  1.00  0.00     0.364 Cl 
HETATM   19  O   UNL     1     -12.793  10.819  72.041  1.00  0.00    -0.411 OA 
HETATM   20  O   UNL     1      -9.252  12.637  68.743  1.00  0.00    -0.397 OA 
HETATM   21  C   UNL     1     -10.643  11.198  67.690  1.00  0.00    -0.211 C  
HETATM   22  H   UNL     1      -8.512  12.293  68.256  1.00  0.00     0.000 HD 
HETATM   23  O   UNL     1     -10.076  10.684  66.543  1.00  0.00    -0.208 OA 
HETATM   24  C   UNL     1     -10.935  10.435  68.788  1.00  0.00    -0.287 C  
HETATM   25  C   UNL     1     -10.353   9.072  69.032  1.00  0.00    -0.219 C  
HETATM   26  H   UNL     1     -10.169   9.754  66.371  1.00  0.00     0.000 HD 
HETATM   27  O   UNL     1      -9.442   8.666  68.318  1.00  0.00    -0.140 OA 
HETATM   28  C   UNL     1     -10.792   8.312  70.272  1.00  0.00    -0.241 A  
HETATM   29  C   UNL     1     -11.814   8.805  71.125  1.00  0.00    -0.345 A  
HETATM   30  C   UNL     1     -12.253   7.998  72.204  1.00  0.00    -0.331 A  
HETATM   31  C   UNL     1     -12.458  10.131  70.829  1.00  0.00    -0.326 C  
ENDROOT
BRANCH   4  32
HETATM   32  N   UNL     1     -11.857  14.876  70.819  1.00  0.00    -0.293 NA 
HETATM   33  C   UNL     1     -11.183  16.049  71.391  1.00  0.00    -0.170 C  
HETATM   34  C   UNL     1     -13.293  15.078  70.734  1.00  0.00    -0.315 C  
ENDBRANCH   4  32
BRANCH   7  35
HETATM   35  C   UNL     1      -8.529  15.450  68.489  1.00  0.00    -0.163 C  
HETATM   36  N   UNL     1      -7.426  14.734  68.148  1.00  0.00    -0.108 N  
HETATM   37  O   UNL     1      -8.430  16.301  69.380  1.00  0.00    -0.200 OA 
HETATM   38  H1  UNL     1      -6.569  14.899  68.675  1.00  0.00     0.000 HD 
HETATM   39  H2  UNL     1      -7.455  14.055  67.388  1.00  0.00     0.000 HD 
ENDBRANCH   7  35
TORSDOF 2
ENDMDL
MODEL       26
REMARK 921   NORMALIZED FREE ENERGY PREDICTED BY IDOCK:   -6.51 KCAL/MOL
REMARK 922        TOTAL FREE ENERGY PREDICTED BY IDOCK:   -7.41 KCAL/MOL
REMARK 923 INTER-LIGAND FREE ENERGY PREDICTED BY IDOCK:   -7.05 KCAL/MOL
REMARK 924 INTRA-LIGAND FREE ENERGY PREDICTED BY IDOCK:   -0.36 KCAL/MOL
REMARK 927      BINDING AFFINITY PREDICTED BY RF-SCORE:    0.00 PKD
ROOT
HETATM    1  C   UNL     1      -9.031  14.677  67.640  1.00  0.00    -0.187 C  
HETATM    2  C   UNL     1     -10.119  13.616  67.717  1.00  0.00    -0.242 C  
HETATM    3  C   UNL     1      -9.608  12.254  67.294  1.00  0.00    -0.187 C  
HETATM    4  C   UNL     1      -9.763  11.875  65.801  1.00  0.00    -0.237 C  
HETATM    5  H   UNL     1      -4.621  18.378  69.434  1.00  0.00     0.000 HD 
HETATM    6  C   UNL     1      -9.568  10.332  65.845  1.00  0.00    -0.209 C  
HETATM    7  C   UNL     1      -8.298   9.924  66.083  1.00  0.00    -0.123 C  
HETATM    8  O   UNL     1     -10.614   9.681  66.512  1.00  0.00    -0.174 OA 
HETATM    9  O   UNL     1      -5.227  17.660  69.289  1.00  0.00    -0.169 OA 
HETATM   10  C   UNL     1      -6.516  17.887  68.901  1.00  0.00    -0.228 A  
HETATM   11  C   UNL     1      -7.853  10.485  67.450  1.00  0.00    -0.106 C  
HETATM   12  H   UNL     1     -10.983  17.173  67.083  1.00  0.00     0.000 HD 
HETATM   13  H   UNL     1     -10.495   8.739  66.538  1.00  0.00     0.000 HD 
HETATM   14  O   UNL     1      -7.341   9.757  68.297  1.00  0.00    -0.078 OA 
HETATM   15  C   UNL     1      -8.102  12.019  67.654  1.00  0.00    -0.155 C  
HETATM   16  C   UNL     1      -6.904  19.217  68.725  1.00  0.00    -0.350 A  
HETATM   17  C   UNL     1      -8.207  19.513  68.361  1.00  0.00    -0.379 A  
HETATM   18 CL   UNL     1     -10.745  19.004  67.831  1.00  0.00    -0.424 Cl 
HETATM   19  O   UNL     1     -10.566  16.345  66.877  1.00  0.00    -0.305 OA 
HETATM   20  O   UNL     1      -7.171  12.456  66.608  1.00  0.00    -0.368 OA 
HETATM   21  C   UNL     1      -7.632  12.951  68.766  1.00  0.00    -0.025 C  
HETATM   22  H   UNL     1      -6.257  12.313  66.826  1.00  0.00     0.000 HD 
HETATM   23  O   UNL     1      -6.641  12.509  69.616  1.00  0.00    -0.274 OA 
HETATM   24  C   UNL     1      -7.910  14.276  68.564  1.00  0.00    -0.143 C  
HETATM   25  C   UNL     1      -6.967  15.388  68.925  1.00  0.00    -0.127 C  
HETATM   26  H   UNL     1      -6.348  13.089  70.309  1.00  0.00     0.000 HD 
HETATM   27  O   UNL     1      -5.819  15.122  69.263  1.00  0.00    -0.095 OA 
HETATM   28  C   UNL     1      -7.416  16.819  68.685  1.00  0.00    -0.219 A  
HETATM   29  C   UNL     1      -8.731  17.125  68.249  1.00  0.00    -0.241 A  
HETATM   30  C   UNL     1      -9.121  18.483  68.149  1.00  0.00    -0.309 A  
HETATM   31  C   UNL     1      -9.704  16.012  67.972  1.00  0.00    -0.217 C  
ENDROOT
BRANCH   4  32
HETATM   32  N   UNL     1     -10.848  12.444  64.999  1.00  0.00    -0.285 NA 
HETATM   33  C   UNL     1     -10.466  13.773  64.503  1.00  0.00    -0.356 C  
HETATM   34  C   UNL     1     -11.384  11.615  63.933  1.00  0.00    -0.371 C  
ENDBRANCH   4  32
BRANCH   7  35
HETATM   35  C   UNL     1      -7.456  10.140  64.860  1.00  0.00    -0.137 C  
HETATM   36  N   UNL     1      -6.127  10.359  65.035  1.00  0.00    -0.188 N  
HETATM   37  O   UNL     1      -7.899  10.075  63.708  1.00  0.00    -0.144 OA 
HETATM   38  H1  UNL     1      -5.555  10.505  64.204  1.00  0.00     0.000 HD 
HETATM   39  H2  UNL     1      -5.715  10.375  65.968  1.00  0.00     0.000 HD 
ENDBRANCH   7  35
TORSDOF 2
ENDMDL
MODEL       27
REMARK 921   NORMALIZED FREE ENERGY PREDICTED BY IDOCK:   -6.46 KCAL/MOL
REMARK 922        TOTAL FREE ENERGY PREDICTED BY IDOCK:   -7.35 KCAL/MOL
REMARK 923 INTER-LIGAND FREE ENERGY PREDICTED BY IDOCK:   -7.21 KCAL/MOL
REMARK 924 INTRA-LIGAND FREE ENERGY PREDICTED BY IDOCK:   -0.14 KCAL/MOL
REMARK 927      BINDING AFFINITY PREDICTED BY RF-SCORE:    0.00 PKD
ROOT
HETATM    1  C   UNL     1      -9.441  10.495  68.002  1.00  0.00    -0.157 C  
HETATM    2  C   UNL     1      -9.503  10.989  66.564  1.00  0.00    -0.211 C  
HETATM    3  C   UNL     1      -9.320  12.490  66.476  1.00  0.00    -0.233 C  
HETATM    4  C   UNL     1     -10.601  13.359  66.513  1.00  0.00    -0.287 C  
HETATM    5  H   UNL     1      -7.163   8.154  73.071  1.00  0.00     0.000 HD 
HETATM    6  C   UNL     1     -10.077  14.718  65.963  1.00  0.00    -0.308 C  
HETATM    7  C   UNL     1      -9.275  15.405  66.811  1.00  0.00    -0.273 C  
HETATM    8  O   UNL     1      -9.709  14.641  64.613  1.00  0.00    -0.450 OA 
HETATM    9  O   UNL     1      -7.330   8.612  72.255  1.00  0.00    -0.241 OA 
HETATM   10  C   UNL     1      -8.224   8.132  71.342  1.00  0.00    -0.120 A  
HETATM   11  C   UNL     1      -8.044  14.532  67.136  1.00  0.00    -0.168 C  
HETATM   12  H   UNL     1     -11.341   7.930  67.598  1.00  0.00     0.000 HD 
HETATM   13  H   UNL     1      -9.390  15.470  64.278  1.00  0.00     0.000 HD 
HETATM   14  O   UNL     1      -6.906  14.985  67.047  1.00  0.00    -0.213 OA 
HETATM   15  C   UNL     1      -8.367  13.064  67.578  1.00  0.00    -0.184 C  
HETATM   16  C   UNL     1      -8.882   6.941  71.659  1.00  0.00    -0.128 A  
HETATM   17  C   UNL     1      -9.778   6.389  70.760  1.00  0.00    -0.197 A  
HETATM   18 CL   UNL     1     -11.076   6.158  68.469  1.00  0.00    -0.406 Cl 
HETATM   19  O   UNL     1     -11.144   8.859  67.624  1.00  0.00    -0.014 OA 
HETATM   20  O   UNL     1      -9.057  13.436  68.819  1.00  0.00    -0.382 OA 
HETATM   21  C   UNL     1      -7.452  11.987  68.153  1.00  0.00    -0.112 C  
HETATM   22  H   UNL     1      -8.478  13.784  69.487  1.00  0.00     0.000 HD 
HETATM   23  O   UNL     1      -6.204  12.361  68.606  1.00  0.00    -0.062 OA 
HETATM   24  C   UNL     1      -8.089  10.849  68.568  1.00  0.00    -0.137 C  
HETATM   25  C   UNL     1      -7.708  10.086  69.804  1.00  0.00    -0.168 C  
HETATM   26  H   UNL     1      -5.635  11.691  68.964  1.00  0.00     0.000 HD 
HETATM   27  O   UNL     1      -6.902  10.571  70.590  1.00  0.00    -0.330 OA 
HETATM   28  C   UNL     1      -8.472   8.814  70.129  1.00  0.00    -0.139 A  
HETATM   29  C   UNL     1      -9.440   8.278  69.241  1.00  0.00    -0.155 A  
HETATM   30  C   UNL     1     -10.038   7.032  69.552  1.00  0.00    -0.173 A  
HETATM   31  C   UNL     1      -9.758   8.998  67.960  1.00  0.00    -0.155 C  
ENDROOT
BRANCH   4  32
HETATM   32  N   UNL     1     -11.875  12.826  66.027  1.00  0.00    -0.420 NA 
HETATM   33  C   UNL     1     -12.870  13.903  65.933  1.00  0.00    -0.339 C  
HETATM   34  C   UNL     1     -11.836  12.033  64.810  1.00  0.00    -0.254 C  
ENDBRANCH   4  32
BRANCH   7  35
HETATM   35  C   UNL     1     -10.096  16.005  67.915  1.00  0.00    -0.241 C  
HETATM   36  N   UNL     1      -9.445  16.456  69.018  1.00  0.00    -0.258 N  
HETATM   37  O   UNL     1     -11.321  16.157  67.847  1.00  0.00    -0.294 OA 
HETATM   38  H1  UNL     1     -10.003  16.863  69.767  1.00  0.00     0.000 HD 
HETATM   39  H2  UNL     1      -8.430  16.389  69.093  1.00  0.00     0.000 HD 
ENDBRANCH   7  35
TORSDOF 2
ENDMDL
MODEL       28
REMARK 921   NORMALIZED FREE ENERGY PREDICTED BY IDOCK:   -6.43 KCAL/MOL
REMARK 922        TOTAL FREE ENERGY PREDICTED BY IDOCK:   -7.32 KCAL/MOL
REMARK 923 INTER-LIGAND FREE ENERGY PREDICTED BY IDOCK:   -7.25 KCAL/MOL
REMARK 924 INTRA-LIGAND FREE ENERGY PREDICTED BY IDOCK:   -0.06 KCAL/MOL
REMARK 927      BINDING AFFINITY PREDICTED BY RF-SCORE:    0.00 PKD
ROOT
HETATM    1  C   UNL     1     -10.621  10.503  69.157  1.00  0.00    -0.258 C  
HETATM    2  C   UNL     1     -11.909  11.096  68.605  1.00  0.00    -0.357 C  
HETATM    3  C   UNL     1     -11.635  12.225  67.632  1.00  0.00    -0.421 C  
HETATM    4  C   UNL     1     -11.577  13.659  68.213  1.00  0.00    -0.339 C  
HETATM    5  H   UNL     1      -5.942   6.747  69.758  1.00  0.00     0.000 HD 
HETATM    6  C   UNL     1     -11.737  14.526  66.931  1.00  0.00    -0.382 C  
HETATM    7  C   UNL     1     -10.657  14.537  66.112  1.00  0.00    -0.308 C  
HETATM    8  O   UNL     1     -13.008  14.401  66.356  1.00  0.00    -0.341 OA 
HETATM    9  O   UNL     1      -6.650   7.303  69.456  1.00  0.00    -0.039 OA 
HETATM   10  C   UNL     1      -7.759   7.521  70.223  1.00  0.00    -0.092 A  
HETATM   11  C   UNL     1     -10.374  13.089  65.658  1.00  0.00    -0.285 C  
HETATM   12  H   UNL     1     -11.835   9.540  71.977  1.00  0.00     0.000 HD 
HETATM   13  H   UNL     1     -13.105  14.931  65.574  1.00  0.00     0.000 HD 
HETATM   14  O   UNL     1     -10.207  12.819  64.472  1.00  0.00    -0.334 OA 
HETATM   15  C   UNL     1     -10.316  12.029  66.810  1.00  0.00    -0.207 C  
HETATM   16  C   UNL     1      -7.805   6.892  71.469  1.00  0.00    -0.100 A  
HETATM   17  C   UNL     1      -8.916   7.050  72.280  1.00  0.00    -0.144 A  
HETATM   18 CL   UNL     1     -11.352   7.851  72.916  1.00  0.00    -0.459 Cl 
HETATM   19  O   UNL     1     -11.577  10.181  71.326  1.00  0.00    -0.364 OA 
HETATM   20  O   UNL     1      -9.127  12.590  67.463  1.00  0.00    -0.172 OA 
HETATM   21  C   UNL     1      -9.878  10.568  66.781  1.00  0.00    -0.193 C  
HETATM   22  H   UNL     1      -8.327  12.471  66.964  1.00  0.00     0.000 HD 
HETATM   23  O   UNL     1      -9.191  10.113  65.675  1.00  0.00    -0.166 OA 
HETATM   24  C   UNL     1      -9.816   9.959  68.004  1.00  0.00    -0.170 C  
HETATM   25  C   UNL     1      -8.741   8.986  68.396  1.00  0.00    -0.130 C  
HETATM   26  H   UNL     1      -8.919   9.203  65.657  1.00  0.00     0.000 HD 
HETATM   27  O   UNL     1      -7.766   8.836  67.667  1.00  0.00    -0.099 OA 
HETATM   28  C   UNL     1      -8.811   8.350  69.773  1.00  0.00    -0.134 A  
HETATM   29  C   UNL     1      -9.917   8.561  70.637  1.00  0.00    -0.222 A  
HETATM   30  C   UNL     1      -9.974   7.853  71.862  1.00  0.00    -0.179 A  
HETATM   31  C   UNL     1     -11.037   9.468  70.206  1.00  0.00    -0.271 C  
ENDROOT
BRANCH   4  32
HETATM   32  N   UNL     1     -12.335  14.003  69.418  1.00  0.00    -0.287 NA 
HETATM   33  C   UNL     1     -11.704  13.403  70.600  1.00  0.00     0.080 C  
HETATM   34  C   UNL     1     -12.630  15.410  69.631  1.00  0.00    -0.036 C  
ENDBRANCH   4  32
BRANCH   7  35
HETATM   35  C   UNL     1      -9.568  15.373  66.717  1.00  0.00    -0.241 C  
HETATM   36  N   UNL     1      -8.288  15.110  66.348  1.00  0.00    -0.376 N  
HETATM   37  O   UNL     1      -9.781  16.318  67.485  1.00  0.00    -0.230 OA 
HETATM   38  H1  UNL     1      -7.547  15.679  66.758  1.00  0.00     0.000 HD 
HETATM   39  H2  UNL     1      -8.074  14.369  65.681  1.00  0.00     0.000 HD 
ENDBRANCH   7  35
TORSDOF 2
ENDMDL
MODEL       29
REMARK 921   NORMALIZED FREE ENERGY PREDICTED BY IDOCK:   -6.39 KCAL/MOL
REMARK 922        TOTAL FREE ENERGY PREDICTED BY IDOCK:   -7.27 KCAL/MOL
REMARK 923 INTER-LIGAND FREE ENERGY PREDICTED BY IDOCK:   -6.96 KCAL/MOL
REMARK 924 INTRA-LIGAND FREE ENERGY PREDICTED BY IDOCK:   -0.32 KCAL/MOL
REMARK 927      BINDING AFFINITY PREDICTED BY RF-SCORE:    0.00 PKD
ROOT
HETATM    1  C   UNL     1     -10.426  11.686  68.969  1.00  0.00    -0.159 C  
HETATM    2  C   UNL     1      -9.967  11.052  67.665  1.00  0.00    -0.196 C  
HETATM    3  C   UNL     1      -9.199   9.767  67.904  1.00  0.00    -0.133 C  
HETATM    4  C   UNL     1      -7.661   9.880  68.041  1.00  0.00    -0.086 C  
HETATM    5  H   UNL     1     -14.041  13.143  73.571  1.00  0.00     0.000 HD 
HETATM    6  C   UNL     1      -7.215   8.406  67.821  1.00  0.00    -0.088 C  
HETATM    7  C   UNL     1      -7.502   7.564  68.843  1.00  0.00    -0.096 C  
HETATM    8  O   UNL     1      -7.448   7.968  66.511  1.00  0.00    -0.085 OA 
HETATM    9  O   UNL     1     -13.568  12.725  72.860  1.00  0.00    -0.356 OA 
HETATM   10  C   UNL     1     -13.077  13.450  71.812  1.00  0.00    -0.388 A  
HETATM   11  C   UNL     1      -9.032   7.558  69.055  1.00  0.00    -0.131 C  
HETATM   12  H   UNL     1     -10.434  14.728  67.920  1.00  0.00     0.000 HD 
HETATM   13  H   UNL     1      -7.175   7.068  66.376  1.00  0.00     0.000 HD 
HETATM   14  O   UNL     1      -9.655   6.503  69.134  1.00  0.00    -0.135 OA 
HETATM   15  C   UNL     1      -9.696   8.973  69.159  1.00  0.00    -0.167 C  
HETATM   16  C   UNL     1     -13.298  14.829  71.832  1.00  0.00    -0.452 A  
HETATM   17  C   UNL     1     -12.850  15.613  70.782  1.00  0.00    -0.457 A  
HETATM   18 CL   UNL     1     -11.781  16.109  68.417  1.00  0.00    -0.246 Cl 
HETATM   19  O   UNL     1     -10.032  13.899  68.152  1.00  0.00    -0.226 OA 
HETATM   20  O   UNL     1      -9.020   9.357  70.404  1.00  0.00    -0.218 OA 
HETATM   21  C   UNL     1     -11.116   9.366  69.553  1.00  0.00    -0.112 C  
HETATM   22  H   UNL     1      -9.322   8.875  71.165  1.00  0.00     0.000 HD 
HETATM   23  O   UNL     1     -11.916   8.415  70.152  1.00  0.00    -0.420 OA 
HETATM   24  C   UNL     1     -11.329  10.711  69.680  1.00  0.00    -0.360 C  
HETATM   25  C   UNL     1     -12.188  11.320  70.751  1.00  0.00    -0.380 C  
HETATM   26  H   UNL     1     -12.800   8.659  70.397  1.00  0.00     0.000 HD 
HETATM   27  O   UNL     1     -12.597  10.619  71.670  1.00  0.00    -0.395 OA 
HETATM   28  C   UNL     1     -12.374  12.828  70.755  1.00  0.00    -0.375 A  
HETATM   29  C   UNL     1     -11.861  13.645  69.716  1.00  0.00    -0.392 A  
HETATM   30  C   UNL     1     -12.162  15.030  69.721  1.00  0.00    -0.285 A  
HETATM   31  C   UNL     1     -11.074  13.022  68.595  1.00  0.00    -0.269 C  
ENDROOT
BRANCH   4  32
HETATM   32  N   UNL     1      -6.934  10.963  67.375  1.00  0.00    -0.081 NA 
HETATM   33  C   UNL     1      -6.143  11.719  68.356  1.00  0.00    -0.049 C  
HETATM   34  C   UNL     1      -6.136  10.604  66.215  1.00  0.00    -0.111 C  
ENDBRANCH   4  32
BRANCH   7  35
HETATM   35  C   UNL     1      -6.575   7.825  69.993  1.00  0.00    -0.037 C  
HETATM   36  N   UNL     1      -5.302   8.203  69.709  1.00  0.00    -0.023 N  
HETATM   37  O   UNL     1      -6.925   7.766  71.177  1.00  0.00    -0.048 OA 
HETATM   38  H1  UNL     1      -4.672   8.381  70.491  1.00  0.00     0.000 HD 
HETATM   39  H2  UNL     1      -4.987   8.307  68.744  1.00  0.00     0.000 HD 
ENDBRANCH   7  35
TORSDOF 2
ENDMDL
MODEL       30
REMARK 921   NORMALIZED FREE ENERGY PREDICTED BY IDOCK:   -6.35 KCAL/MOL
REMARK 922        TOTAL FREE ENERGY PREDICTED BY IDOCK:   -7.23 KCAL/MOL
REMARK 923 INTER-LIGAND FREE ENERGY PREDICTED BY IDOCK:   -6.79 KCAL/MOL
REMARK 924 INTRA-LIGAND FREE ENERGY PREDICTED BY IDOCK:   -0.44 KCAL/MOL
REMARK 927      BINDING AFFINITY PREDICTED BY RF-SCORE:    0.00 PKD
ROOT
HETATM    1  C   UNL     1      -9.841   6.683  68.102  1.00  0.00    -0.135 C  
HETATM    2  C   UNL     1     -10.904   5.884  68.841  1.00  0.00    -0.373 C  
HETATM    3  C   UNL     1     -11.093   6.378  70.261  1.00  0.00    -0.416 C  
HETATM    4  C   UNL     1     -10.244   5.699  71.363  1.00  0.00    -0.214 C  
HETATM    5  H   UNL     1      -7.416  10.848  64.478  1.00  0.00     0.000 HD 
HETATM    6  C   UNL     1     -11.006   6.118  72.653  1.00  0.00    -0.256 C  
HETATM    7  C   UNL     1     -10.873   7.423  72.995  1.00  0.00    -0.423 C  
HETATM    8  O   UNL     1     -12.276   5.533  72.737  1.00  0.00    -0.497 OA 
HETATM    9  O   UNL     1      -7.935  10.348  65.097  1.00  0.00    -0.150 OA 
HETATM   10  C   UNL     1      -8.059   8.992  64.986  1.00  0.00    -0.137 A  
HETATM   11  C   UNL     1     -11.413   8.288  71.836  1.00  0.00    -0.310 C  
HETATM   12  H   UNL     1      -8.923   4.328  66.112  1.00  0.00     0.000 HD 
HETATM   13  H   UNL     1     -12.741   5.789  73.525  1.00  0.00     0.000 HD 
HETATM   14  O   UNL     1     -12.215   9.196  72.045  1.00  0.00    -0.367 OA 
HETATM   15  C   UNL     1     -10.864   7.920  70.416  1.00  0.00    -0.244 C  
HETATM   16  C   UNL     1      -7.390   8.376  63.926  1.00  0.00    -0.102 A  
HETATM   17  C   UNL     1      -7.501   7.008  63.743  1.00  0.00    -0.096 A  
HETATM   18 CL   UNL     1      -8.421   4.573  64.199  1.00  0.00    -0.115 Cl 
HETATM   19  O   UNL     1      -9.032   4.745  66.958  1.00  0.00    -0.110 OA 
HETATM   20  O   UNL     1      -9.471   8.282  70.703  1.00  0.00    -0.159 OA 
HETATM   21  C   UNL     1     -11.008   8.651  69.086  1.00  0.00     0.063 C  
HETATM   22  H   UNL     1      -9.332   9.217  70.797  1.00  0.00     0.000 HD 
HETATM   23  O   UNL     1     -11.464   9.953  69.100  1.00  0.00    -0.444 OA 
HETATM   24  C   UNL     1     -10.278   8.125  68.055  1.00  0.00    -0.263 C  
HETATM   25  C   UNL     1      -9.574   8.960  67.024  1.00  0.00    -0.176 C  
HETATM   26  H   UNL     1     -11.555  10.408  68.272  1.00  0.00     0.000 HD 
HETATM   27  O   UNL     1      -9.492  10.173  67.180  1.00  0.00    -0.154 OA 
HETATM   28  C   UNL     1      -8.830   8.248  65.907  1.00  0.00    -0.197 A  
HETATM   29  C   UNL     1      -8.887   6.839  65.753  1.00  0.00    -0.088 A  
HETATM   30  C   UNL     1      -8.261   6.247  64.628  1.00  0.00    -0.080 A  
HETATM   31  C   UNL     1      -9.666   6.011  66.738  1.00  0.00    -0.153 C  
ENDROOT
BRANCH   4  32
HETATM   32  N   UNL     1      -9.796   4.313  71.207  1.00  0.00    -0.188 NA 
HETATM   33  C   UNL     1      -8.374   4.281  70.839  1.00  0.00    -0.079 C  
HETATM   34  C   UNL     1     -10.081   3.401  72.301  1.00  0.00    -0.149 C  
ENDBRANCH   4  32
BRANCH   7  35
HETATM   35  C   UNL     1      -9.502   7.666  73.552  1.00  0.00    -0.289 C  
HETATM   36  N   UNL     1      -8.959   6.706  74.343  1.00  0.00    -0.169 N  
HETATM   37  O   UNL     1      -8.825   8.665  73.284  1.00  0.00    -0.323 OA 
HETATM   38  H1  UNL     1      -8.026   6.871  74.722  1.00  0.00     0.000 HD 
HETATM   39  H2  UNL     1      -9.467   5.846  74.552  1.00  0.00     0.000 HD 
ENDBRANCH   7  35
TORSDOF 2
ENDMDL
MODEL       31
REMARK 921   NORMALIZED FREE ENERGY PREDICTED BY IDOCK:   -6.32 KCAL/MOL
REMARK 922        TOTAL FREE ENERGY PREDICTED BY IDOCK:   -7.19 KCAL/MOL
REMARK 923 INTER-LIGAND FREE ENERGY PREDICTED BY IDOCK:   -6.86 KCAL/MOL
REMARK 924 INTRA-LIGAND FREE ENERGY PREDICTED BY IDOCK:   -0.33 KCAL/MOL
REMARK 927      BINDING AFFINITY PREDICTED BY RF-SCORE:    0.00 PKD
ROOT
HETATM    1  C   UNL     1      -8.441  10.518  68.713  1.00  0.00    -0.141 C  
HETATM    2  C   UNL     1      -7.624   9.294  69.098  1.00  0.00    -0.073 C  
HETATM    3  C   UNL     1      -8.509   8.121  69.468  1.00  0.00    -0.127 C  
HETATM    4  C   UNL     1      -8.886   7.967  70.962  1.00  0.00    -0.139 C  
HETATM    5  H   UNL     1     -11.250  14.561  65.230  1.00  0.00     0.000 HD 
HETATM    6  C   UNL     1      -9.375   6.490  71.014  1.00  0.00    -0.160 C  
HETATM    7  C   UNL     1     -10.573   6.266  70.423  1.00  0.00    -0.309 C  
HETATM    8  O   UNL     1      -8.338   5.577  70.789  1.00  0.00    -0.117 OA 
HETATM    9  O   UNL     1     -10.878  13.785  65.634  1.00  0.00    -0.280 OA 
HETATM   10  C   UNL     1      -9.744  13.855  66.392  1.00  0.00    -0.297 A  
HETATM   11  C   UNL     1     -10.466   6.666  68.935  1.00  0.00    -0.212 C  
HETATM   12  H   UNL     1      -6.267  12.713  69.614  1.00  0.00     0.000 HD 
HETATM   13  H   UNL     1      -8.637   4.676  70.821  1.00  0.00     0.000 HD 
HETATM   14  O   UNL     1     -10.843   5.906  68.047  1.00  0.00    -0.269 OA 
HETATM   15  C   UNL     1      -9.855   8.083  68.668  1.00  0.00    -0.174 C  
HETATM   16  C   UNL     1      -9.159  15.114  66.548  1.00  0.00    -0.328 A  
HETATM   17  C   UNL     1      -7.991  15.243  67.281  1.00  0.00    -0.231 A  
HETATM   18 CL   UNL     1      -5.887  14.414  68.648  1.00  0.00    -0.082 Cl 
HETATM   19  O   UNL     1      -6.890  12.010  69.756  1.00  0.00    -0.003 OA 
HETATM   20  O   UNL     1     -10.942   8.831  69.310  1.00  0.00    -0.404 OA 
HETATM   21  C   UNL     1      -9.769   8.889  67.377  1.00  0.00    -0.176 C  
HETATM   22  H   UNL     1     -11.759   8.808  68.824  1.00  0.00     0.000 HD 
HETATM   23  O   UNL     1     -10.533   8.487  66.302  1.00  0.00    -0.339 OA 
HETATM   24  C   UNL     1      -9.295  10.164  67.522  1.00  0.00    -0.168 C  
HETATM   25  C   UNL     1      -9.836  11.345  66.767  1.00  0.00    -0.206 C  
HETATM   26  H   UNL     1     -10.480   8.988  65.497  1.00  0.00     0.000 HD 
HETATM   27  O   UNL     1     -10.861  11.221  66.106  1.00  0.00    -0.267 OA 
HETATM   28  C   UNL     1      -9.191  12.701  66.992  1.00  0.00    -0.212 A  
HETATM   29  C   UNL     1      -8.031  12.852  67.796  1.00  0.00    -0.162 A  
HETATM   30  C   UNL     1      -7.415  14.125  67.878  1.00  0.00    -0.152 A  
HETATM   31  C   UNL     1      -7.438  11.652  68.482  1.00  0.00    -0.113 C  
ENDROOT
BRANCH   4  32
HETATM   32  N   UNL     1      -7.994   8.470  72.009  1.00  0.00    -0.234 NA 
HETATM   33  C   UNL     1      -8.566   8.195  73.334  1.00  0.00    -0.247 C  
HETATM   34  C   UNL     1      -6.601   8.065  71.938  1.00  0.00    -0.055 C  
ENDBRANCH   4  32
BRANCH   7  35
HETATM   35  C   UNL     1     -11.676   6.813  71.281  1.00  0.00    -0.336 C  
HETATM   36  N   UNL     1     -12.806   7.242  70.663  1.00  0.00    -0.587 N  
HETATM   37  O   UNL     1     -11.628   6.840  72.515  1.00  0.00    -0.260 OA 
HETATM   38  H1  UNL     1     -13.556   7.614  71.246  1.00  0.00     0.000 HD 
HETATM   39  H2  UNL     1     -12.903   7.194  69.649  1.00  0.00     0.000 HD 
ENDBRANCH   7  35
TORSDOF 2
ENDMDL
MODEL       32
REMARK 921   NORMALIZED FREE ENERGY PREDICTED BY IDOCK:   -6.25 KCAL/MOL
REMARK 922        TOTAL FREE ENERGY PREDICTED BY IDOCK:   -7.12 KCAL/MOL
REMARK 923 INTER-LIGAND FREE ENERGY PREDICTED BY IDOCK:   -6.65 KCAL/MOL
REMARK 924 INTRA-LIGAND FREE ENERGY PREDICTED BY IDOCK:   -0.46 KCAL/MOL
REMARK 927      BINDING AFFINITY PREDICTED BY RF-SCORE:    0.00 PKD
ROOT
HETATM    1  C   UNL     1      -9.857   9.829  68.946  1.00  0.00    -0.177 C  
HETATM    2  C   UNL     1      -9.069   9.683  70.239  1.00  0.00    -0.272 C  
HETATM    3  C   UNL     1      -8.647   8.248  70.481  1.00  0.00    -0.131 C  
HETATM    4  C   UNL     1      -9.605   7.363  71.316  1.00  0.00    -0.161 C  
HETATM    5  H   UNL     1     -11.009  10.981  63.140  1.00  0.00     0.000 HD 
HETATM    6  C   UNL     1      -8.674   6.183  71.720  1.00  0.00    -0.137 C  
HETATM    7  C   UNL     1      -8.356   5.336  70.711  1.00  0.00    -0.115 C  
HETATM    8  O   UNL     1      -7.660   6.581  72.601  1.00  0.00    -0.099 OA 
HETATM    9  O   UNL     1     -10.645  10.722  63.978  1.00  0.00    -0.332 OA 
HETATM   10  C   UNL     1     -10.974  11.379  65.129  1.00  0.00    -0.192 A  
HETATM   11  C   UNL     1      -7.634   6.140  69.609  1.00  0.00    -0.093 C  
HETATM   12  H   UNL     1     -11.604  12.371  69.861  1.00  0.00     0.000 HD 
HETATM   13  H   UNL     1      -7.092   5.861  72.847  1.00  0.00     0.000 HD 
HETATM   14  O   UNL     1      -6.571   5.748  69.134  1.00  0.00    -0.046 OA 
HETATM   15  C   UNL     1      -8.355   7.456  69.161  1.00  0.00    -0.132 C  
HETATM   16  C   UNL     1     -11.868  12.447  65.019  1.00  0.00    -0.440 A  
HETATM   17  C   UNL     1     -12.216  13.172  66.146  1.00  0.00    -0.451 A  
HETATM   18 CL   UNL     1     -12.111  13.898  68.685  1.00  0.00    -0.387 Cl 
HETATM   19  O   UNL     1     -11.317  11.467  69.898  1.00  0.00    -0.270 OA 
HETATM   20  O   UNL     1      -9.536   6.790  68.601  1.00  0.00    -0.133 OA 
HETATM   21  C   UNL     1      -8.059   8.392  67.994  1.00  0.00    -0.123 C  
HETATM   22  H   UNL     1      -9.359   6.310  67.801  1.00  0.00     0.000 HD 
HETATM   23  O   UNL     1      -7.206   7.953  67.003  1.00  0.00    -0.085 OA 
HETATM   24  C   UNL     1      -8.980   9.386  67.803  1.00  0.00    -0.127 C  
HETATM   25  C   UNL     1      -9.434   9.850  66.448  1.00  0.00    -0.183 C  
HETATM   26  H   UNL     1      -7.021   8.535  66.276  1.00  0.00     0.000 HD 
HETATM   27  O   UNL     1      -9.110   9.215  65.451  1.00  0.00    -0.207 OA 
HETATM   28  C   UNL     1     -10.433  10.992  66.376  1.00  0.00    -0.312 A  
HETATM   29  C   UNL     1     -10.845  11.697  67.536  1.00  0.00    -0.287 A  
HETATM   30  C   UNL     1     -11.694  12.822  67.388  1.00  0.00    -0.366 A  
HETATM   31  C   UNL     1     -10.320  11.287  68.885  1.00  0.00    -0.195 C  
ENDROOT
BRANCH   4  32
HETATM   32  N   UNL     1     -10.486   7.964  72.320  1.00  0.00    -0.240 NA 
HETATM   33  C   UNL     1     -11.829   8.165  71.757  1.00  0.00    -0.300 C  
HETATM   34  C   UNL     1     -10.547   7.313  73.617  1.00  0.00    -0.307 C  
ENDBRANCH   4  32
BRANCH   7  35
HETATM   35  C   UNL     1      -9.540   4.477  70.375  1.00  0.00    -0.200 C  
HETATM   36  N   UNL     1     -10.335   4.066  71.396  1.00  0.00     0.026 N  
HETATM   37  O   UNL     1      -9.855   4.174  69.219  1.00  0.00    -0.180 OA 
HETATM   38  H1  UNL     1     -11.140   3.483  71.168  1.00  0.00     0.000 HD 
HETATM   39  H2  UNL     1     -10.134   4.334  72.360  1.00  0.00     0.000 HD 
ENDBRANCH   7  35
TORSDOF 2
ENDMDL
MODEL       33
REMARK 921   NORMALIZED FREE ENERGY PREDICTED BY IDOCK:   -6.24 KCAL/MOL
REMARK 922        TOTAL FREE ENERGY PREDICTED BY IDOCK:   -7.10 KCAL/MOL
REMARK 923 INTER-LIGAND FREE ENERGY PREDICTED BY IDOCK:   -7.65 KCAL/MOL
REMARK 924 INTRA-LIGAND FREE ENERGY PREDICTED BY IDOCK:    0.55 KCAL/MOL
REMARK 927      BINDING AFFINITY PREDICTED BY RF-SCORE:    0.00 PKD
ROOT
HETATM    1  C   UNL     1      -8.590  14.729  68.101  1.00  0.00    -0.159 C  
HETATM    2  C   UNL     1      -7.937  15.515  69.228  1.00  0.00    -0.238 C  
HETATM    3  C   UNL     1      -8.024  17.010  68.995  1.00  0.00    -0.153 C  
HETATM    4  C   UNL     1      -6.843  17.676  68.249  1.00  0.00    -0.213 C  
HETATM    5  H   UNL     1     -12.791  11.640  65.072  1.00  0.00     0.000 HD 
HETATM    6  C   UNL     1      -7.059  19.179  68.594  1.00  0.00    -0.318 C  
HETATM    7  C   UNL     1      -8.114  19.760  67.974  1.00  0.00    -0.338 C  
HETATM    8  O   UNL     1      -6.851  19.450  69.952  1.00  0.00    -0.200 OA 
HETATM    9  O   UNL     1     -12.296  12.242  65.616  1.00  0.00    -0.619 OA 
HETATM   10  C   UNL     1     -11.123  11.864  66.205  1.00  0.00    -0.314 A  
HETATM   11  C   UNL     1      -9.396  19.003  68.380  1.00  0.00    -0.355 C  
HETATM   12  H   UNL     1      -6.767  12.093  68.382  1.00  0.00     0.000 HD 
HETATM   13  H   UNL     1      -6.983  20.367  70.162  1.00  0.00     0.000 HD 
HETATM   14  O   UNL     1     -10.387  19.607  68.782  1.00  0.00    -0.400 OA 
HETATM   15  C   UNL     1      -9.324  17.444  68.237  1.00  0.00    -0.278 C  
HETATM   16  C   UNL     1     -10.686  10.558  65.973  1.00  0.00    -0.086 A  
HETATM   17  C   UNL     1      -9.520  10.106  66.568  1.00  0.00    -0.214 A  
HETATM   18 CL   UNL     1      -7.414  10.222  68.161  1.00  0.00    -0.085 Cl 
HETATM   19  O   UNL     1      -6.930  13.010  68.198  1.00  0.00    -0.082 OA 
HETATM   20  O   UNL     1      -9.184  17.440  66.777  1.00  0.00    -0.244 OA 
HETATM   21  C   UNL     1     -10.425  16.395  68.352  1.00  0.00    -0.298 C  
HETATM   22  H   UNL     1      -9.972  17.704  66.317  1.00  0.00     0.000 HD 
HETATM   23  O   UNL     1     -11.737  16.818  68.334  1.00  0.00     0.030 OA 
HETATM   24  C   UNL     1     -10.044  15.121  68.029  1.00  0.00    -0.222 C  
HETATM   25  C   UNL     1     -10.915  14.159  67.272  1.00  0.00    -0.297 C  
HETATM   26  H   UNL     1     -12.423  16.164  68.406  1.00  0.00     0.000 HD 
HETATM   27  O   UNL     1     -11.955  14.559  66.761  1.00  0.00    -0.397 OA 
HETATM   28  C   UNL     1     -10.386  12.759  67.013  1.00  0.00    -0.240 A  
HETATM   29  C   UNL     1      -9.158  12.311  67.566  1.00  0.00    -0.182 A  
HETATM   30  C   UNL     1      -8.774  10.961  67.377  1.00  0.00    -0.130 A  
HETATM   31  C   UNL     1      -8.328  13.250  68.398  1.00  0.00    -0.131 C  
ENDROOT
BRANCH   4  32
HETATM   32  N   UNL     1      -5.497  17.103  68.327  1.00  0.00    -0.126 NA 
HETATM   33  C   UNL     1      -5.173  16.764  69.719  1.00  0.00    -0.166 C  
HETATM   34  C   UNL     1      -5.197  16.001  67.429  1.00  0.00    -0.034 C  
ENDBRANCH   4  32
BRANCH   7  35
HETATM   35  C   UNL     1      -7.791  19.989  66.526  1.00  0.00    -0.306 C  
HETATM   36  N   UNL     1      -6.825  20.894  66.228  1.00  0.00    -0.480 N  
HETATM   37  O   UNL     1      -8.319  19.359  65.603  1.00  0.00    -0.373 OA 
HETATM   38  H1  UNL     1      -6.605  21.050  65.244  1.00  0.00     0.000 HD 
HETATM   39  H2  UNL     1      -6.333  21.402  66.963  1.00  0.00     0.000 HD 
ENDBRANCH   7  35
TORSDOF 2
ENDMDL
MODEL       34
REMARK 921   NORMALIZED FREE ENERGY PREDICTED BY IDOCK:   -6.19 KCAL/MOL
REMARK 922        TOTAL FREE ENERGY PREDICTED BY IDOCK:   -7.05 KCAL/MOL
REMARK 923 INTER-LIGAND FREE ENERGY PREDICTED BY IDOCK:   -6.84 KCAL/MOL
REMARK 924 INTRA-LIGAND FREE ENERGY PREDICTED BY IDOCK:   -0.21 KCAL/MOL
REMARK 927      BINDING AFFINITY PREDICTED BY RF-SCORE:    0.00 PKD
ROOT
HETATM    1  C   UNL     1     -10.501   7.752  69.830  1.00  0.00    -0.233 C  
HETATM    2  C   UNL     1     -10.338   6.388  69.175  1.00  0.00    -0.248 C  
HETATM    3  C   UNL     1      -9.959   5.322  70.183  1.00  0.00    -0.313 C  
HETATM    4  C   UNL     1      -8.448   5.064  70.401  1.00  0.00    -0.100 C  
HETATM    5  H   UNL     1     -13.209  12.508  72.361  1.00  0.00     0.000 HD 
HETATM    6  C   UNL     1      -8.463   3.676  71.106  1.00  0.00    -0.068 C  
HETATM    7  C   UNL     1      -8.909   3.691  72.385  1.00  0.00    -0.117 C  
HETATM    8  O   UNL     1      -8.904   2.652  70.258  1.00  0.00    -0.069 OA 
HETATM    9  O   UNL     1     -12.929  11.648  72.070  1.00  0.00    -0.416 OA 
HETATM   10  C   UNL     1     -12.324  11.472  70.858  1.00  0.00    -0.359 A  
HETATM   11  C   UNL     1     -10.356   4.229  72.392  1.00  0.00    -0.160 C  
HETATM   12  H   UNL     1      -9.704   9.501  67.249  1.00  0.00     0.000 HD 
HETATM   13  H   UNL     1      -8.913   1.805  70.688  1.00  0.00     0.000 HD 
HETATM   14  O   UNL     1     -11.250   3.632  72.985  1.00  0.00    -0.077 OA 
HETATM   15  C   UNL     1     -10.574   5.565  71.602  1.00  0.00    -0.231 C  
HETATM   16  C   UNL     1     -12.135  12.609  70.069  1.00  0.00    -0.339 A  
HETATM   17  C   UNL     1     -11.555  12.489  68.817  1.00  0.00    -0.366 A  
HETATM   18 CL   UNL     1     -10.557  11.223  66.724  1.00  0.00    -0.290 Cl 
HETATM   19  O   UNL     1      -9.544   8.883  67.953  1.00  0.00    -0.144 OA 
HETATM   20  O   UNL     1      -9.731   6.388  72.476  1.00  0.00    -0.163 OA 
HETATM   21  C   UNL     1     -11.789   6.485  71.544  1.00  0.00    -0.333 C  
HETATM   22  H   UNL     1     -10.104   6.535  73.338  1.00  0.00     0.000 HD 
HETATM   23  O   UNL     1     -12.785   6.314  72.482  1.00  0.00    -0.537 OA 
HETATM   24  C   UNL     1     -11.595   7.655  70.862  1.00  0.00    -0.299 C  
HETATM   25  C   UNL     1     -12.165   8.975  71.297  1.00  0.00    -0.312 C  
HETATM   26  H   UNL     1     -13.542   6.887  72.446  1.00  0.00     0.000 HD 
HETATM   27  O   UNL     1     -12.693   9.073  72.399  1.00  0.00    -0.392 OA 
HETATM   28  C   UNL     1     -11.907  10.193  70.425  1.00  0.00    -0.373 A  
HETATM   29  C   UNL     1     -11.253  10.087  69.170  1.00  0.00    -0.197 A  
HETATM   30  C   UNL     1     -11.141  11.242  68.358  1.00  0.00    -0.240 A  
HETATM   31  C   UNL     1     -10.761   8.747  68.696  1.00  0.00    -0.068 C  
ENDROOT
BRANCH   4  32
HETATM   32  N   UNL     1      -7.488   5.318  69.325  1.00  0.00    -0.061 NA 
HETATM   33  C   UNL     1      -6.166   4.794  69.695  1.00  0.00    -0.026 C  
HETATM   34  C   UNL     1      -7.870   4.896  67.988  1.00  0.00    -0.083 C  
ENDBRANCH   4  32
BRANCH   7  35
HETATM   35  C   UNL     1      -7.867   4.296  73.280  1.00  0.00    -0.086 C  
HETATM   36  N   UNL     1      -8.270   4.785  74.481  1.00  0.00    -0.098 N  
HETATM   37  O   UNL     1      -6.663   4.319  73.004  1.00  0.00    -0.047 OA 
HETATM   38  H1  UNL     1      -7.562   5.195  75.090  1.00  0.00     0.000 HD 
HETATM   39  H2  UNL     1      -9.248   4.743  74.765  1.00  0.00     0.000 HD 
ENDBRANCH   7  35
TORSDOF 2
ENDMDL
MODEL       35
REMARK 921   NORMALIZED FREE ENERGY PREDICTED BY IDOCK:   -6.18 KCAL/MOL
REMARK 922        TOTAL FREE ENERGY PREDICTED BY IDOCK:   -7.04 KCAL/MOL
REMARK 923 INTER-LIGAND FREE ENERGY PREDICTED BY IDOCK:   -6.64 KCAL/MOL
REMARK 924 INTRA-LIGAND FREE ENERGY PREDICTED BY IDOCK:   -0.40 KCAL/MOL
REMARK 927      BINDING AFFINITY PREDICTED BY RF-SCORE:    0.00 PKD
ROOT
HETATM    1  C   UNL     1      -9.768   8.697  68.827  1.00  0.00    -0.171 C  
HETATM    2  C   UNL     1      -8.380   9.028  68.298  1.00  0.00    -0.121 C  
HETATM    3  C   UNL     1      -8.440   9.991  67.129  1.00  0.00    -0.125 C  
HETATM    4  C   UNL     1      -8.505   9.374  65.711  1.00  0.00    -0.132 C  
HETATM    5  H   UNL     1     -14.686   8.940  72.309  1.00  0.00     0.000 HD 
HETATM    6  C   UNL     1      -8.105  10.586  64.820  1.00  0.00    -0.078 C  
HETATM    7  C   UNL     1      -9.045  11.556  64.722  1.00  0.00     0.114 C  
HETATM    8  O   UNL     1      -6.770  10.967  65.007  1.00  0.00    -0.338 OA 
HETATM    9  O   UNL     1     -13.910   9.112  71.788  1.00  0.00    -0.389 OA 
HETATM   10  C   UNL     1     -12.920   8.180  71.658  1.00  0.00    -0.331 A  
HETATM   11  C   UNL     1      -9.337  12.099  66.137  1.00  0.00    -0.195 C  
HETATM   12  H   UNL     1      -9.051   5.764  69.938  1.00  0.00     0.000 HD 
HETATM   13  H   UNL     1      -6.526  11.706  64.463  1.00  0.00     0.000 HD 
HETATM   14  O   UNL     1      -9.336  13.306  66.365  1.00  0.00    -0.245 OA 
HETATM   15  C   UNL     1      -9.628  11.007  67.223  1.00  0.00    -0.165 C  
HETATM   16  C   UNL     1     -13.099   6.965  72.323  1.00  0.00     0.098 A  
HETATM   17  C   UNL     1     -12.117   5.991  72.254  1.00  0.00    -0.196 A  
HETATM   18 CL   UNL     1      -9.765   4.968  71.619  1.00  0.00    -0.216 Cl 
HETATM   19  O   UNL     1      -9.172   6.423  69.264  1.00  0.00    -0.135 OA 
HETATM   20  O   UNL     1     -10.868  10.521  66.609  1.00  0.00    -0.194 OA 
HETATM   21  C   UNL     1     -10.136  11.154  68.653  1.00  0.00    -0.200 C  
HETATM   22  H   UNL     1     -11.589  11.137  66.665  1.00  0.00     0.000 HD 
HETATM   23  O   UNL     1     -10.672  12.366  69.036  1.00  0.00    -0.349 OA 
HETATM   24  C   UNL     1     -10.418   9.976  69.290  1.00  0.00    -0.245 C  
HETATM   25  C   UNL     1     -11.592   9.786  70.206  1.00  0.00    -0.220 C  
HETATM   26  H   UNL     1     -10.989  12.458  69.927  1.00  0.00     0.000 HD 
HETATM   27  O   UNL     1     -12.452  10.658  70.277  1.00  0.00    -0.318 OA 
HETATM   28  C   UNL     1     -11.767   8.437  70.883  1.00  0.00    -0.269 A  
HETATM   29  C   UNL     1     -10.795   7.411  70.762  1.00  0.00    -0.257 A  
HETATM   30  C   UNL     1     -10.965   6.216  71.505  1.00  0.00    -0.273 A  
HETATM   31  C   UNL     1      -9.574   7.635  69.913  1.00  0.00    -0.160 C  
ENDROOT
BRANCH   4  32
HETATM   32  N   UNL     1      -7.921   8.058  65.445  1.00  0.00    -0.113 NA 
HETATM   33  C   UNL     1      -8.909   7.003  65.711  1.00  0.00    -0.064 C  
HETATM   34  C   UNL     1      -7.279   7.870  64.155  1.00  0.00    -0.079 C  
ENDBRANCH   4  32
BRANCH   7  35
HETATM   35  C   UNL     1     -10.165  11.092  63.838  1.00  0.00    -0.362 C  
HETATM   36  N   UNL     1      -9.845  10.370  62.734  1.00  0.00    -0.643 N  
HETATM   37  O   UNL     1     -11.359  11.286  64.093  1.00  0.00    -0.273 OA 
HETATM   38  H1  UNL     1     -10.606  10.054  62.134  1.00  0.00     0.000 HD 
HETATM   39  H2  UNL     1      -8.874  10.150  62.513  1.00  0.00     0.000 HD 
ENDBRANCH   7  35
TORSDOF 2
ENDMDL
MODEL       36
REMARK 921   NORMALIZED FREE ENERGY PREDICTED BY IDOCK:   -6.18 KCAL/MOL
REMARK 922        TOTAL FREE ENERGY PREDICTED BY IDOCK:   -7.03 KCAL/MOL
REMARK 923 INTER-LIGAND FREE ENERGY PREDICTED BY IDOCK:   -6.71 KCAL/MOL
REMARK 924 INTRA-LIGAND FREE ENERGY PREDICTED BY IDOCK:   -0.33 KCAL/MOL
REMARK 927      BINDING AFFINITY PREDICTED BY RF-SCORE:    0.00 PKD
ROOT
HETATM    1  C   UNL     1      -8.448  14.783  67.496  1.00  0.00    -0.204 C  
HETATM    2  C   UNL     1      -8.287  13.568  66.595  1.00  0.00     0.244 C  
HETATM    3  C   UNL     1      -9.129  12.401  67.069  1.00  0.00    -0.207 C  
HETATM    4  C   UNL     1      -8.460  11.396  68.038  1.00  0.00    -0.145 C  
HETATM    5  H   UNL     1     -10.480  20.098  69.493  1.00  0.00     0.000 HD 
HETATM    6  C   UNL     1      -9.415  10.172  67.933  1.00  0.00    -0.141 C  
HETATM    7  C   UNL     1     -10.621  10.337  68.527  1.00  0.00    -0.240 C  
HETATM    8  O   UNL     1      -9.371   9.568  66.670  1.00  0.00    -0.148 OA 
HETATM    9  O   UNL     1     -10.361  19.234  69.116  1.00  0.00    -0.225 OA 
HETATM   10  C   UNL     1      -9.159  18.845  68.598  1.00  0.00    -0.346 A  
HETATM   11  C   UNL     1     -11.332  11.537  67.864  1.00  0.00    -0.303 C  
HETATM   12  H   UNL     1      -5.529  16.029  66.966  1.00  0.00     0.000 HD 
HETATM   13  H   UNL     1      -9.954   8.820  66.606  1.00  0.00     0.000 HD 
HETATM   14  O   UNL     1     -12.491  11.445  67.469  1.00  0.00     0.247 OA 
HETATM   15  C   UNL     1     -10.471  12.840  67.747  1.00  0.00    -0.223 C  
HETATM   16  C   UNL     1      -8.114  19.771  68.650  1.00  0.00    -0.252 A  
HETATM   17  C   UNL     1      -6.879  19.446  68.114  1.00  0.00    -0.301 A  
HETATM   18 CL   UNL     1      -5.125  17.972  66.796  1.00  0.00    -0.148 Cl 
HETATM   19  O   UNL     1      -6.141  15.376  67.285  1.00  0.00    -0.324 OA 
HETATM   20  O   UNL     1     -10.354  13.066  69.192  1.00  0.00    -0.434 OA 
HETATM   21  C   UNL     1     -10.877  14.253  67.339  1.00  0.00    -0.285 C  
HETATM   22  H   UNL     1     -11.168  13.332  69.603  1.00  0.00     0.000 HD 
HETATM   23  O   UNL     1     -12.220  14.560  67.289  1.00  0.00    -0.575 OA 
HETATM   24  C   UNL     1      -9.897  15.198  67.480  1.00  0.00    -0.220 C  
HETATM   25  C   UNL     1     -10.154  16.596  67.965  1.00  0.00    -0.262 C  
HETATM   26  H   UNL     1     -12.473  15.439  67.035  1.00  0.00     0.000 HD 
HETATM   27  O   UNL     1     -11.254  16.885  68.424  1.00  0.00    -0.299 OA 
HETATM   28  C   UNL     1      -8.982  17.560  68.037  1.00  0.00    -0.258 A  
HETATM   29  C   UNL     1      -7.697  17.210  67.550  1.00  0.00    -0.190 A  
HETATM   30  C   UNL     1      -6.675  18.191  67.546  1.00  0.00    -0.191 A  
HETATM   31  C   UNL     1      -7.463  15.836  66.982  1.00  0.00    -0.207 C  
ENDROOT
BRANCH   4  32
HETATM   32  N   UNL     1      -7.011  11.187  68.007  1.00  0.00    -0.067 NA 
HETATM   33  C   UNL     1      -6.619  10.215  69.037  1.00  0.00    -0.053 C  
HETATM   34  C   UNL     1      -6.419  10.863  66.720  1.00  0.00    -0.115 C  
ENDBRANCH   4  32
BRANCH   7  35
HETATM   35  C   UNL     1     -10.468  10.272  70.019  1.00  0.00    -0.241 C  
HETATM   36  N   UNL     1     -11.392  10.912  70.780  1.00  0.00    -0.339 N  
HETATM   37  O   UNL     1      -9.580   9.624  70.584  1.00  0.00    -0.252 OA 
HETATM   38  H1  UNL     1     -11.288  10.868  71.793  1.00  0.00     0.000 HD 
HETATM   39  H2  UNL     1     -12.166  11.420  70.352  1.00  0.00     0.000 HD 
ENDBRANCH   7  35
TORSDOF 2
ENDMDL
MODEL       37
REMARK 921   NORMALIZED FREE ENERGY PREDICTED BY IDOCK:   -6.08 KCAL/MOL
REMARK 922        TOTAL FREE ENERGY PREDICTED BY IDOCK:   -6.92 KCAL/MOL
REMARK 923 INTER-LIGAND FREE ENERGY PREDICTED BY IDOCK:   -6.61 KCAL/MOL
REMARK 924 INTRA-LIGAND FREE ENERGY PREDICTED BY IDOCK:   -0.32 KCAL/MOL
REMARK 927      BINDING AFFINITY PREDICTED BY RF-SCORE:    0.00 PKD
ROOT
HETATM    1  C   UNL     1      -9.656   9.269  68.616  1.00  0.00    -0.152 C  
HETATM    2  C   UNL     1      -8.449   8.359  68.436  1.00  0.00    -0.135 C  
HETATM    3  C   UNL     1      -7.881   8.450  67.034  1.00  0.00    -0.096 C  
HETATM    4  C   UNL     1      -8.420   7.442  65.989  1.00  0.00    -0.148 C  
HETATM    5  H   UNL     1     -12.880  14.129  70.151  1.00  0.00     0.000 HD 
HETATM    6  C   UNL     1      -7.335   7.531  64.877  1.00  0.00    -0.079 C  
HETATM    7  C   UNL     1      -7.348   8.679  64.157  1.00  0.00    -0.102 C  
HETATM    8  O   UNL     1      -6.099   7.020  65.295  1.00  0.00    -0.035 OA 
HETATM    9  O   UNL     1     -12.224  13.507  69.857  1.00  0.00    -0.322 OA 
HETATM   10  C   UNL     1     -12.159  12.245  70.375  1.00  0.00    -0.300 A  
HETATM   11  C   UNL     1      -7.120   9.862  65.122  1.00  0.00    -0.129 C  
HETATM   12  H   UNL     1     -11.112   7.510  70.883  1.00  0.00     0.000 HD 
HETATM   13  H   UNL     1      -5.437   7.074  64.616  1.00  0.00     0.000 HD 
HETATM   14  O   UNL     1      -6.276  10.721  64.880  1.00  0.00    -0.035 OA 
HETATM   15  C   UNL     1      -8.033   9.871  66.394  1.00  0.00    -0.111 C  
HETATM   16  C   UNL     1     -13.097  11.910  71.355  1.00  0.00    -0.303 A  
HETATM   17  C   UNL     1     -13.063  10.656  71.941  1.00  0.00    -0.563 A  
HETATM   18 CL   UNL     1     -12.099   8.248  72.448  1.00  0.00    -0.434 Cl 
HETATM   19  O   UNL     1     -10.775   7.682  70.011  1.00  0.00    -0.235 OA 
HETATM   20  O   UNL     1      -9.293  10.057  65.665  1.00  0.00    -0.173 OA 
HETATM   21  C   UNL     1      -8.234  10.951  67.453  1.00  0.00    -0.117 C  
HETATM   22  H   UNL     1      -9.385  10.919  65.277  1.00  0.00     0.000 HD 
HETATM   23  O   UNL     1      -7.767  12.221  67.189  1.00  0.00    -0.172 OA 
HETATM   24  C   UNL     1      -9.221  10.690  68.364  1.00  0.00    -0.159 C  
HETATM   25  C   UNL     1     -10.158  11.736  68.897  1.00  0.00    -0.071 C  
HETATM   26  H   UNL     1      -7.891  12.894  67.848  1.00  0.00     0.000 HD 
HETATM   27  O   UNL     1     -10.174  12.851  68.387  1.00  0.00    -0.235 OA 
HETATM   28  C   UNL     1     -11.185  11.321  69.937  1.00  0.00    -0.264 A  
HETATM   29  C   UNL     1     -11.197  10.016  70.493  1.00  0.00    -0.408 A  
HETATM   30  C   UNL     1     -12.110   9.724  71.536  1.00  0.00    -0.409 A  
HETATM   31  C   UNL     1     -10.199   8.994  70.021  1.00  0.00    -0.203 C  
ENDROOT
BRANCH   4  32
HETATM   32  N   UNL     1      -8.918   6.131  66.410  1.00  0.00    -0.146 NA 
HETATM   33  C   UNL     1     -10.337   6.226  66.780  1.00  0.00    -0.221 C  
HETATM   34  C   UNL     1      -8.679   5.016  65.510  1.00  0.00    -0.143 C  
ENDBRANCH   4  32
BRANCH   7  35
HETATM   35  C   UNL     1      -8.518   8.677  63.217  1.00  0.00    -0.084 C  
HETATM   36  N   UNL     1      -8.779   7.535  62.531  1.00  0.00    -0.368 N  
HETATM   37  O   UNL     1      -9.283   9.638  63.080  1.00  0.00    -0.252 OA 
HETATM   38  H1  UNL     1      -9.574   7.533  61.893  1.00  0.00     0.000 HD 
HETATM   39  H2  UNL     1      -8.199   6.705  62.651  1.00  0.00     0.000 HD 
ENDBRANCH   7  35
TORSDOF 2
ENDMDL
MODEL       38
REMARK 921   NORMALIZED FREE ENERGY PREDICTED BY IDOCK:   -6.07 KCAL/MOL
REMARK 922        TOTAL FREE ENERGY PREDICTED BY IDOCK:   -6.92 KCAL/MOL
REMARK 923 INTER-LIGAND FREE ENERGY PREDICTED BY IDOCK:   -6.56 KCAL/MOL
REMARK 924 INTRA-LIGAND FREE ENERGY PREDICTED BY IDOCK:   -0.36 KCAL/MOL
REMARK 927      BINDING AFFINITY PREDICTED BY RF-SCORE:    0.00 PKD
ROOT
HETATM    1  C   UNL     1      -9.768   9.474  66.470  1.00  0.00    -0.284 C  
HETATM    2  C   UNL     1     -11.153  10.084  66.619  1.00  0.00     0.191 C  
HETATM    3  C   UNL     1     -11.105  11.598  66.607  1.00  0.00    -0.364 C  
HETATM    4  C   UNL     1     -10.972  12.311  67.975  1.00  0.00    -0.225 C  
HETATM    5  H   UNL     1      -4.964   6.958  63.831  1.00  0.00     0.000 HD 
HETATM    6  C   UNL     1     -11.402  13.763  67.618  1.00  0.00    -0.304 C  
HETATM    7  C   UNL     1     -10.503  14.458  66.879  1.00  0.00    -0.269 C  
HETATM    8  O   UNL     1     -12.757  13.850  67.275  1.00  0.00    -0.346 OA 
HETATM    9  O   UNL     1      -5.732   7.466  64.066  1.00  0.00    -0.036 OA 
HETATM   10  C   UNL     1      -6.675   6.972  64.922  1.00  0.00    -0.046 A  
HETATM   11  C   UNL     1     -10.276  13.704  65.552  1.00  0.00    -0.302 C  
HETATM   12  H   UNL     1     -10.383   6.757  68.080  1.00  0.00     0.000 HD 
HETATM   13  H   UNL     1     -13.019  14.737  67.058  1.00  0.00     0.000 HD 
HETATM   14  O   UNL     1     -10.337  14.288  64.473  1.00  0.00    -0.357 OA 
HETATM   15  C   UNL     1      -9.967  12.175  65.698  1.00  0.00    -0.249 C  
HETATM   16  C   UNL     1      -6.460   5.691  65.436  1.00  0.00    -0.039 A  
HETATM   17  C   UNL     1      -7.396   5.124  66.284  1.00  0.00    -0.082 A  
HETATM   18 CL   UNL     1      -9.681   4.955  67.600  1.00  0.00    -0.183 Cl 
HETATM   19  O   UNL     1     -10.273   7.696  67.988  1.00  0.00    -0.186 OA 
HETATM   20  O   UNL     1      -8.689  12.353  66.397  1.00  0.00    -0.386 OA 
HETATM   21  C   UNL     1      -9.505  11.161  64.657  1.00  0.00    -0.213 C  
HETATM   22  H   UNL     1      -7.999  12.703  65.846  1.00  0.00     0.000 HD 
HETATM   23  O   UNL     1      -9.035  11.631  63.449  1.00  0.00    -0.483 OA 
HETATM   24  C   UNL     1      -9.189   9.926  65.153  1.00  0.00    -0.288 C  
HETATM   25  C   UNL     1      -8.033   9.102  64.662  1.00  0.00    -0.125 C  
HETATM   26  H   UNL     1      -8.747  11.000  62.800  1.00  0.00     0.000 HD 
HETATM   27  O   UNL     1      -7.216   9.603  63.897  1.00  0.00    -0.105 OA 
HETATM   28  C   UNL     1      -7.817   7.728  65.272  1.00  0.00    -0.117 A  
HETATM   29  C   UNL     1      -8.738   7.168  66.194  1.00  0.00    -0.164 A  
HETATM   30  C   UNL     1      -8.536   5.839  66.642  1.00  0.00    -0.113 A  
HETATM   31  C   UNL     1      -9.944   7.960  66.619  1.00  0.00    -0.246 C  
ENDROOT
BRANCH   4  32
HETATM   32  N   UNL     1     -11.490  11.683  69.193  1.00  0.00    -0.273 NA 
HETATM   33  C   UNL     1     -10.457  10.832  69.800  1.00  0.00    -0.083 C  
HETATM   34  C   UNL     1     -12.101  12.559  70.177  1.00  0.00    -0.292 C  
ENDBRANCH   4  32
BRANCH   7  35
HETATM   35  C   UNL     1      -9.339  14.859  67.737  1.00  0.00    -0.194 C  
HETATM   36  N   UNL     1      -9.602  15.324  68.986  1.00  0.00    -0.224 N  
HETATM   37  O   UNL     1      -8.161  14.735  67.386  1.00  0.00    -0.170 OA 
HETATM   38  H1  UNL     1      -8.810  15.595  69.569  1.00  0.00     0.000 HD 
HETATM   39  H2  UNL     1     -10.559  15.398  69.329  1.00  0.00     0.000 HD 
ENDBRANCH   7  35
TORSDOF 2
ENDMDL
MODEL       39
REMARK 921   NORMALIZED FREE ENERGY PREDICTED BY IDOCK:   -5.97 KCAL/MOL
REMARK 922        TOTAL FREE ENERGY PREDICTED BY IDOCK:   -6.80 KCAL/MOL
REMARK 923 INTER-LIGAND FREE ENERGY PREDICTED BY IDOCK:   -6.47 KCAL/MOL
REMARK 924 INTRA-LIGAND FREE ENERGY PREDICTED BY IDOCK:   -0.33 KCAL/MOL
REMARK 927      BINDING AFFINITY PREDICTED BY RF-SCORE:    0.00 PKD
ROOT
HETATM    1  C   UNL     1     -10.138  10.006  67.220  1.00  0.00    -0.259 C  
HETATM    2  C   UNL     1     -10.102   8.747  66.367  1.00  0.00    -0.313 C  
HETATM    3  C   UNL     1      -9.417   7.601  67.084  1.00  0.00    -0.196 C  
HETATM    4  C   UNL     1      -7.894   7.437  66.856  1.00  0.00    -0.115 C  
HETATM    5  H   UNL     1     -12.250  14.202  71.002  1.00  0.00     0.000 HD 
HETATM    6  C   UNL     1      -7.657   5.978  67.344  1.00  0.00    -0.093 C  
HETATM    7  C   UNL     1      -7.736   5.806  68.686  1.00  0.00    -0.090 C  
HETATM    8  O   UNL     1      -8.269   5.032  66.513  1.00  0.00    -0.108 OA 
HETATM    9  O   UNL     1     -12.024  13.407  70.532  1.00  0.00    -0.326 OA 
HETATM   10  C   UNL     1     -11.766  13.424  69.191  1.00  0.00    -0.326 A  
HETATM   11  C   UNL     1      -9.147   6.226  69.149  1.00  0.00    -0.130 C  
HETATM   12  H   UNL     1     -10.152  12.106  64.783  1.00  0.00     0.000 HD 
HETATM   13  H   UNL     1      -8.123   4.141  66.811  1.00  0.00     0.000 HD 
HETATM   14  O   UNL     1      -9.819   5.494  69.872  1.00  0.00    -0.166 OA 
HETATM   15  C   UNL     1      -9.630   7.624  68.635  1.00  0.00    -0.152 C  
HETATM   16  C   UNL     1     -11.850  14.658  68.542  1.00  0.00    -0.346 A  
HETATM   17  C   UNL     1     -11.629  14.734  67.177  1.00  0.00    -0.373 A  
HETATM   18 CL   UNL     1     -11.189  13.807  64.742  1.00  0.00    -0.350 Cl 
HETATM   19  O   UNL     1      -9.779  11.424  65.328  1.00  0.00    -0.228 OA 
HETATM   20  O   UNL     1      -8.616   8.401  69.357  1.00  0.00    -0.127 OA 
HETATM   21  C   UNL     1     -10.853   8.447  69.027  1.00  0.00     0.009 C  
HETATM   22  H   UNL     1      -8.745   8.415  70.298  1.00  0.00     0.000 HD 
HETATM   23  O   UNL     1     -11.546   8.089  70.164  1.00  0.00    -0.470 OA 
HETATM   24  C   UNL     1     -10.903   9.702  68.483  1.00  0.00    -0.202 C  
HETATM   25  C   UNL     1     -11.387  10.913  69.228  1.00  0.00    -0.277 C  
HETATM   26  H   UNL     1     -12.308   8.602  70.408  1.00  0.00     0.000 HD 
HETATM   27  O   UNL     1     -11.597  10.837  70.434  1.00  0.00    -0.304 OA 
HETATM   28  C   UNL     1     -11.430  12.242  68.494  1.00  0.00    -0.349 A  
HETATM   29  C   UNL     1     -11.140  12.338  67.108  1.00  0.00    -0.330 A  
HETATM   30  C   UNL     1     -11.304  13.586  66.459  1.00  0.00    -0.319 A  
HETATM   31  C   UNL     1     -10.740  11.106  66.343  1.00  0.00    -0.247 C  
ENDROOT
BRANCH   4  32
HETATM   32  N   UNL     1      -7.276   7.891  65.608  1.00  0.00    -0.069 NA 
HETATM   33  C   UNL     1      -6.126   8.757  65.900  1.00  0.00    -0.052 C  
HETATM   34  C   UNL     1      -6.936   6.870  64.632  1.00  0.00    -0.058 C  
ENDBRANCH   4  32
BRANCH   7  35
HETATM   35  C   UNL     1      -6.516   6.379  69.346  1.00  0.00    -0.040 C  
HETATM   36  N   UNL     1      -6.625   6.788  70.636  1.00  0.00    -0.051 N  
HETATM   37  O   UNL     1      -5.411   6.445  68.795  1.00  0.00    -0.014 OA 
HETATM   38  H1  UNL     1      -5.796   7.176  71.084  1.00  0.00     0.000 HD 
HETATM   39  H2  UNL     1      -7.508   6.708  71.140  1.00  0.00     0.000 HD 
ENDBRANCH   7  35
TORSDOF 2
ENDMDL
MODEL       40
REMARK 921   NORMALIZED FREE ENERGY PREDICTED BY IDOCK:   -5.95 KCAL/MOL
REMARK 922        TOTAL FREE ENERGY PREDICTED BY IDOCK:   -6.78 KCAL/MOL
REMARK 923 INTER-LIGAND FREE ENERGY PREDICTED BY IDOCK:   -6.32 KCAL/MOL
REMARK 924 INTRA-LIGAND FREE ENERGY PREDICTED BY IDOCK:   -0.46 KCAL/MOL
REMARK 927      BINDING AFFINITY PREDICTED BY RF-SCORE:    0.00 PKD
ROOT
HETATM    1  C   UNL     1      -8.560  15.927  68.297  1.00  0.00    -0.176 C  
HETATM    2  C   UNL     1      -8.937  14.932  69.385  1.00  0.00    -0.044 C  
HETATM    3  C   UNL     1      -8.695  13.502  68.947  1.00  0.00     0.216 C  
HETATM    4  C   UNL     1      -9.878  12.760  68.278  1.00  0.00    -0.224 C  
HETATM    5  H   UNL     1      -5.271  19.912  65.189  1.00  0.00     0.000 HD 
HETATM    6  C   UNL     1      -9.425  11.276  68.391  1.00  0.00    -0.192 C  
HETATM    7  C   UNL     1      -8.405  10.927  67.569  1.00  0.00    -0.117 C  
HETATM    8  O   UNL     1      -9.396  10.826  69.717  1.00  0.00    -0.387 OA 
HETATM    9  O   UNL     1      -5.601  19.188  65.707  1.00  0.00    -0.150 OA 
HETATM   10  C   UNL     1      -6.715  19.323  66.487  1.00  0.00    -0.191 A  
HETATM   11  C   UNL     1      -7.184  11.810  67.905  1.00  0.00    -0.092 C  
HETATM   12  H   UNL     1     -10.644  18.223  69.156  1.00  0.00     0.000 HD 
HETATM   13  H   UNL     1      -9.120   9.920  69.786  1.00  0.00     0.000 HD 
HETATM   14  O   UNL     1      -6.077  11.314  68.092  1.00  0.00    -0.046 OA 
HETATM   15  C   UNL     1      -7.474  13.348  67.979  1.00  0.00    -0.139 C  
HETATM   16  C   UNL     1      -7.344  20.571  66.487  1.00  0.00    -0.257 A  
HETATM   17  C   UNL     1      -8.459  20.779  67.281  1.00  0.00    -0.224 A  
HETATM   18 CL   UNL     1     -10.279  20.181  69.102  1.00  0.00    -0.319 Cl 
HETATM   19  O   UNL     1     -10.394  17.366  68.833  1.00  0.00    -0.335 OA 
HETATM   20  O   UNL     1      -7.825  13.497  66.562  1.00  0.00    -0.045 OA 
HETATM   21  C   UNL     1      -6.511  14.526  68.089  1.00  0.00    -0.139 C  
HETATM   22  H   UNL     1      -7.084  13.403  65.974  1.00  0.00     0.000 HD 
HETATM   23  O   UNL     1      -5.172  14.301  67.847  1.00  0.00    -0.177 OA 
HETATM   24  C   UNL     1      -7.094  15.759  67.988  1.00  0.00    -0.134 C  
HETATM   25  C   UNL     1      -6.472  16.916  67.259  1.00  0.00    -0.168 C  
HETATM   26  H   UNL     1      -4.572  15.035  67.916  1.00  0.00     0.000 HD 
HETATM   27  O   UNL     1      -5.474  16.731  66.571  1.00  0.00    -0.346 OA 
HETATM   28  C   UNL     1      -7.207  18.246  67.257  1.00  0.00    -0.211 A  
HETATM   29  C   UNL     1      -8.388  18.446  68.017  1.00  0.00    -0.287 A  
HETATM   30  C   UNL     1      -8.964  19.740  68.059  1.00  0.00    -0.311 A  
HETATM   31  C   UNL     1      -8.962  17.309  68.818  1.00  0.00    -0.231 C  
ENDROOT
BRANCH   4  32
HETATM   32  N   UNL     1     -11.260  13.121  68.603  1.00  0.00    -0.259 NA 
HETATM   33  C   UNL     1     -11.852  13.894  67.503  1.00  0.00    -0.396 C  
HETATM   34  C   UNL     1     -12.139  12.044  69.027  1.00  0.00    -0.166 C  
ENDBRANCH   4  32
BRANCH   7  35
HETATM   35  C   UNL     1      -8.902  10.819  66.158  1.00  0.00    -0.177 C  
HETATM   36  N   UNL     1      -8.009  11.012  65.154  1.00  0.00    -0.357 N  
HETATM   37  O   UNL     1     -10.063  10.510  65.867  1.00  0.00    -0.242 OA 
HETATM   38  H1  UNL     1      -8.347  10.938  64.195  1.00  0.00     0.000 HD 
HETATM   39  H2  UNL     1      -7.031  11.224  65.353  1.00  0.00     0.000 HD 
ENDBRANCH   7  35
TORSDOF 2
ENDMDL
MODEL       41
REMARK 921   NORMALIZED FREE ENERGY PREDICTED BY IDOCK:   -5.92 KCAL/MOL
REMARK 922        TOTAL FREE ENERGY PREDICTED BY IDOCK:   -6.75 KCAL/MOL
REMARK 923 INTER-LIGAND FREE ENERGY PREDICTED BY IDOCK:   -6.84 KCAL/MOL
REMARK 924 INTRA-LIGAND FREE ENERGY PREDICTED BY IDOCK:    0.10 KCAL/MOL
REMARK 927      BINDING AFFINITY PREDICTED BY RF-SCORE:    0.00 PKD
ROOT
HETATM    1  C   UNL     1      -8.878  12.385  68.143  1.00  0.00    -0.191 C  
HETATM    2  C   UNL     1      -9.448  12.892  66.826  1.00  0.00    -0.245 C  
HETATM    3  C   UNL     1      -9.227  14.381  66.655  1.00  0.00    -0.283 C  
HETATM    4  C   UNL     1     -10.350  15.323  67.157  1.00  0.00    -0.265 C  
HETATM    5  H   UNL     1      -5.000   9.877  72.020  1.00  0.00     0.000 HD 
HETATM    6  C   UNL     1      -9.995  16.653  66.431  1.00  0.00    -0.302 C  
HETATM    7  C   UNL     1      -8.896  17.287  66.907  1.00  0.00    -0.259 C  
HETATM    8  O   UNL     1     -10.166  16.565  65.043  1.00  0.00    -0.564 OA 
HETATM    9  O   UNL     1      -5.435  10.351  71.320  1.00  0.00    -0.122 OA 
HETATM   10  C   UNL     1      -6.632   9.930  70.816  1.00  0.00    -0.066 A  
HETATM   11  C   UNL     1      -7.685  16.341  66.758  1.00  0.00    -0.260 C  
HETATM   12  H   UNL     1     -10.932   9.937  68.517  1.00  0.00     0.000 HD 
HETATM   13  H   UNL     1      -9.950  17.377  64.600  1.00  0.00     0.000 HD 
HETATM   14  O   UNL     1      -6.640  16.729  66.242  1.00  0.00    -0.192 OA 
HETATM   15  C   UNL     1      -7.899  14.891  67.310  1.00  0.00    -0.206 C  
HETATM   16  C   UNL     1      -7.188   8.777  71.374  1.00  0.00    -0.104 A  
HETATM   17  C   UNL     1      -8.386   8.283  70.884  1.00  0.00    -0.139 A  
HETATM   18 CL   UNL     1     -10.459   8.146  69.251  1.00  0.00    -0.225 Cl 
HETATM   19  O   UNL     1     -10.687  10.852  68.455  1.00  0.00    -0.178 OA 
HETATM   20  O   UNL     1      -8.051  15.292  68.713  1.00  0.00    -0.142 OA 
HETATM   21  C   UNL     1      -6.898  13.759  67.515  1.00  0.00    -0.131 C  
HETATM   22  H   UNL     1      -7.246  15.601  69.111  1.00  0.00     0.000 HD 
HETATM   23  O   UNL     1      -5.553  14.057  67.462  1.00  0.00    -0.342 OA 
HETATM   24  C   UNL     1      -7.396  12.657  68.155  1.00  0.00    -0.112 C  
HETATM   25  C   UNL     1      -6.622  11.863  69.168  1.00  0.00    -0.103 C  
HETATM   26  H   UNL     1      -4.929  13.353  67.589  1.00  0.00     0.000 HD 
HETATM   27  O   UNL     1      -5.554  12.295  69.587  1.00  0.00    -0.076 OA 
HETATM   28  C   UNL     1      -7.278  10.635  69.775  1.00  0.00    -0.135 A  
HETATM   29  C   UNL     1      -8.537  10.161  69.323  1.00  0.00    -0.180 A  
HETATM   30  C   UNL     1      -9.044   8.950  69.853  1.00  0.00    -0.161 A  
HETATM   31  C   UNL     1      -9.272  10.909  68.244  1.00  0.00    -0.161 C  
ENDROOT
BRANCH   4  32
HETATM   32  N   UNL     1     -11.741  14.867  67.192  1.00  0.00    -0.327 NA 
HETATM   33  C   UNL     1     -12.058  14.119  65.968  1.00  0.00    -0.432 C  
HETATM   34  C   UNL     1     -12.169  14.148  68.379  1.00  0.00    -0.164 C  
ENDBRANCH   4  32
BRANCH   7  35
HETATM   35  C   UNL     1      -9.208  17.924  68.229  1.00  0.00    -0.282 C  
HETATM   36  N   UNL     1      -8.171  18.192  69.064  1.00  0.00    -0.122 N  
HETATM   37  O   UNL     1     -10.347  18.264  68.569  1.00  0.00    -0.372 OA 
HETATM   38  H1  UNL     1      -8.383  18.625  69.963  1.00  0.00     0.000 HD 
HETATM   39  H2  UNL     1      -7.212  17.968  68.801  1.00  0.00     0.000 HD 
ENDBRANCH   7  35
TORSDOF 2
ENDMDL
MODEL       42
REMARK 921   NORMALIZED FREE ENERGY PREDICTED BY IDOCK:   -5.87 KCAL/MOL
REMARK 922        TOTAL FREE ENERGY PREDICTED BY IDOCK:   -6.69 KCAL/MOL
REMARK 923 INTER-LIGAND FREE ENERGY PREDICTED BY IDOCK:   -6.76 KCAL/MOL
REMARK 924 INTRA-LIGAND FREE ENERGY PREDICTED BY IDOCK:    0.07 KCAL/MOL
REMARK 927      BINDING AFFINITY PREDICTED BY RF-SCORE:    0.00 PKD
ROOT
HETATM    1  C   UNL     1      -8.882   9.419  69.911  1.00  0.00    -0.212 C  
HETATM    2  C   UNL     1      -8.273  10.769  69.559  1.00  0.00     0.034 C  
HETATM    3  C   UNL     1      -8.959  11.400  68.365  1.00  0.00    -0.172 C  
HETATM    4  C   UNL     1      -8.358  11.104  66.969  1.00  0.00    -0.144 C  
HETATM    5  H   UNL     1     -12.336   5.341  72.703  1.00  0.00     0.000 HD 
HETATM    6  C   UNL     1      -9.000  12.226  66.103  1.00  0.00    -0.005 C  
HETATM    7  C   UNL     1     -10.322  12.067  65.853  1.00  0.00    -0.278 C  
HETATM    8  O   UNL     1      -8.537  13.501  66.453  1.00  0.00    -0.424 OA 
HETATM    9  O   UNL     1     -11.963   6.108  72.284  1.00  0.00    -0.318 OA 
HETATM   10  C   UNL     1     -10.619   6.349  72.314  1.00  0.00    -0.214 A  
HETATM   11  C   UNL     1     -11.074  12.034  67.200  1.00  0.00    -0.290 C  
HETATM   12  H   UNL     1      -6.224   8.137  71.193  1.00  0.00     0.000 HD 
HETATM   13  H   UNL     1      -8.928  14.186  65.924  1.00  0.00     0.000 HD 
HETATM   14  O   UNL     1     -12.063  12.737  67.390  1.00  0.00    -0.382 OA 
HETATM   15  C   UNL     1     -10.483  11.054  68.270  1.00  0.00    -0.186 C  
HETATM   16  C   UNL     1      -9.820   5.421  72.986  1.00  0.00    -0.181 A  
HETATM   17  C   UNL     1      -8.454   5.627  73.076  1.00  0.00    -0.118 A  
HETATM   18 CL   UNL     1      -6.181   6.944  72.789  1.00  0.00    -0.053 Cl 
HETATM   19  O   UNL     1      -6.754   8.494  70.491  1.00  0.00    -0.036 OA 
HETATM   20  O   UNL     1     -10.763   9.829  67.512  1.00  0.00    -0.264 OA 
HETATM   21  C   UNL     1     -11.049  10.611  69.616  1.00  0.00    -0.284 C  
HETATM   22  H   UNL     1     -11.688   9.619  67.455  1.00  0.00     0.000 HD 
HETATM   23  O   UNL     1     -12.374  10.875  69.888  1.00  0.00    -0.326 OA 
HETATM   24  C   UNL     1     -10.337   9.626  70.245  1.00  0.00    -0.336 C  
HETATM   25  C   UNL     1     -10.972   8.496  71.003  1.00  0.00    -0.249 C  
HETATM   26  H   UNL     1     -12.726  10.600  70.726  1.00  0.00     0.000 HD 
HETATM   27  O   UNL     1     -12.184   8.327  70.934  1.00  0.00    -0.228 OA 
HETATM   28  C   UNL     1     -10.065   7.490  71.691  1.00  0.00    -0.204 A  
HETATM   29  C   UNL     1      -8.657   7.661  71.731  1.00  0.00    -0.130 A  
HETATM   30  C   UNL     1      -7.877   6.745  72.480  1.00  0.00    -0.100 A  
HETATM   31  C   UNL     1      -8.029   8.842  71.044  1.00  0.00    -0.151 C  
ENDROOT
BRANCH   4  32
HETATM   32  N   UNL     1      -6.931  10.805  66.823  1.00  0.00    -0.111 NA 
HETATM   33  C   UNL     1      -6.678  10.178  65.519  1.00  0.00    -0.122 C  
HETATM   34  C   UNL     1      -6.001  11.892  67.078  1.00  0.00    -0.153 C  
ENDBRANCH   4  32
BRANCH   7  35
HETATM   35  C   UNL     1     -10.521  10.975  64.843  1.00  0.00    -0.303 C  
HETATM   36  N   UNL     1     -11.341  11.226  63.790  1.00  0.00    -0.509 N  
HETATM   37  O   UNL     1      -9.936   9.887  64.892  1.00  0.00    -0.306 OA 
HETATM   38  H1  UNL     1     -11.476  10.484  63.104  1.00  0.00     0.000 HD 
HETATM   39  H2  UNL     1     -11.807  12.127  63.689  1.00  0.00     0.000 HD 
ENDBRANCH   7  35
TORSDOF 2
ENDMDL
MODEL       43
REMARK 921   NORMALIZED FREE ENERGY PREDICTED BY IDOCK:   -5.83 KCAL/MOL
REMARK 922        TOTAL FREE ENERGY PREDICTED BY IDOCK:   -6.65 KCAL/MOL
REMARK 923 INTER-LIGAND FREE ENERGY PREDICTED BY IDOCK:   -6.21 KCAL/MOL
REMARK 924 INTRA-LIGAND FREE ENERGY PREDICTED BY IDOCK:   -0.44 KCAL/MOL
REMARK 927      BINDING AFFINITY PREDICTED BY RF-SCORE:    0.00 PKD
ROOT
HETATM    1  C   UNL     1      -9.148  13.491  68.291  1.00  0.00    -0.189 C  
HETATM    2  C   UNL     1      -9.512  14.443  67.162  1.00  0.00    -0.225 C  
HETATM    3  C   UNL     1      -8.590  15.645  67.122  1.00  0.00    -0.235 C  
HETATM    4  C   UNL     1      -9.032  16.898  67.917  1.00  0.00    -0.225 C  
HETATM    5  H   UNL     1      -6.697   8.758  71.113  1.00  0.00     0.000 HD 
HETATM    6  C   UNL     1      -8.130  18.003  67.293  1.00  0.00    -0.210 C  
HETATM    7  C   UNL     1      -6.820  17.930  67.635  1.00  0.00    -0.193 C  
HETATM    8  O   UNL     1      -8.457  18.267  65.957  1.00  0.00    -0.494 OA 
HETATM    9  O   UNL     1      -6.901   9.503  70.558  1.00  0.00    -0.085 OA 
HETATM   10  C   UNL     1      -8.191   9.811  70.231  1.00  0.00    -0.148 A  
HETATM   11  C   UNL     1      -6.270  16.565  67.169  1.00  0.00    -0.177 C  
HETATM   12  H   UNL     1     -12.106  12.309  68.747  1.00  0.00     0.000 HD 
HETATM   13  H   UNL     1      -7.907  18.941  65.577  1.00  0.00     0.000 HD 
HETATM   14  O   UNL     1      -5.228  16.490  66.522  1.00  0.00    -0.337 OA 
HETATM   15  C   UNL     1      -7.129  15.322  67.584  1.00  0.00    -0.182 C  
HETATM   16  C   UNL     1      -9.194   8.986  70.746  1.00  0.00    -0.299 A  
HETATM   17  C   UNL     1     -10.518   9.230  70.424  1.00  0.00    -0.296 A  
HETATM   18 CL   UNL     1     -12.528  10.411  69.180  1.00  0.00     0.281 Cl 
HETATM   19  O   UNL     1     -11.442  12.988  68.745  1.00  0.00    -0.256 OA 
HETATM   20  O   UNL     1      -6.920  15.479  69.028  1.00  0.00    -0.123 OA 
HETATM   21  C   UNL     1      -6.818  13.833  67.480  1.00  0.00    -0.131 C  
HETATM   22  H   UNL     1      -6.034  15.283  69.308  1.00  0.00     0.000 HD 
HETATM   23  O   UNL     1      -5.518  13.452  67.222  1.00  0.00    -0.349 OA 
HETATM   24  C   UNL     1      -7.737  13.009  68.070  1.00  0.00    -0.145 C  
HETATM   25  C   UNL     1      -7.372  11.769  68.835  1.00  0.00    -0.093 C  
HETATM   26  H   UNL     1      -5.324  12.525  67.157  1.00  0.00     0.000 HD 
HETATM   27  O   UNL     1      -6.196  11.548  69.103  1.00  0.00    -0.058 OA 
HETATM   28  C   UNL     1      -8.494  10.919  69.407  1.00  0.00     0.075 A  
HETATM   29  C   UNL     1      -9.857  11.202  69.135  1.00  0.00    -0.074 A  
HETATM   30  C   UNL     1     -10.850  10.308  69.608  1.00  0.00    -0.271 A  
HETATM   31  C   UNL     1     -10.218  12.396  68.294  1.00  0.00    -0.229 C  
ENDROOT
BRANCH   4  32
HETATM   32  N   UNL     1     -10.452  17.170  68.147  1.00  0.00    -0.349 NA 
HETATM   33  C   UNL     1     -10.851  16.681  69.474  1.00  0.00    -0.285 C  
HETATM   34  C   UNL     1     -10.906  18.532  67.926  1.00  0.00    -0.200 C  
ENDBRANCH   4  32
BRANCH   7  35
HETATM   35  C   UNL     1      -6.638  18.380  69.054  1.00  0.00    -0.259 C  
HETATM   36  N   UNL     1      -5.634  17.817  69.774  1.00  0.00    -0.214 N  
HETATM   37  O   UNL     1      -7.316  19.271  69.578  1.00  0.00    -0.231 OA 
HETATM   38  H1  UNL     1      -5.510  18.124  70.739  1.00  0.00     0.000 HD 
HETATM   39  H2  UNL     1      -5.023  17.111  69.363  1.00  0.00     0.000 HD 
ENDBRANCH   7  35
TORSDOF 2
ENDMDL
MODEL       44
REMARK 921   NORMALIZED FREE ENERGY PREDICTED BY IDOCK:   -5.77 KCAL/MOL
REMARK 922        TOTAL FREE ENERGY PREDICTED BY IDOCK:   -6.58 KCAL/MOL
REMARK 923 INTER-LIGAND FREE ENERGY PREDICTED BY IDOCK:   -6.25 KCAL/MOL
REMARK 924 INTRA-LIGAND FREE ENERGY PREDICTED BY IDOCK:   -0.33 KCAL/MOL
REMARK 927      BINDING AFFINITY PREDICTED BY RF-SCORE:    0.00 PKD
ROOT
HETATM    1  C   UNL     1      -8.738  12.502  68.079  1.00  0.00    -0.186 C  
HETATM    2  C   UNL     1      -8.184  11.351  67.252  1.00  0.00    -0.150 C  
HETATM    3  C   UNL     1      -8.442  10.011  67.910  1.00  0.00    -0.118 C  
HETATM    4  C   UNL     1      -7.341   9.466  68.853  1.00  0.00    -0.073 C  
HETATM    5  H   UNL     1     -12.545  16.791  69.944  1.00  0.00     0.000 HD 
HETATM    6  C   UNL     1      -7.730   7.963  68.957  1.00  0.00    -0.101 C  
HETATM    7  C   UNL     1      -8.842   7.710  69.688  1.00  0.00    -0.140 C  
HETATM    8  O   UNL     1      -7.560   7.283  67.744  1.00  0.00    -0.105 OA 
HETATM    9  O   UNL     1     -12.124  16.005  69.616  1.00  0.00    -0.276 OA 
HETATM   10  C   UNL     1     -10.918  16.060  68.977  1.00  0.00    -0.296 A  
HETATM   11  C   UNL     1     -10.031   8.452  69.039  1.00  0.00    -0.190 C  
HETATM   12  H   UNL     1      -6.625  14.719  67.094  1.00  0.00     0.000 HD 
HETATM   13  H   UNL     1      -7.797   6.365  67.808  1.00  0.00     0.000 HD 
HETATM   14  O   UNL     1     -11.086   7.870  68.803  1.00  0.00     0.086 OA 
HETATM   15  C   UNL     1      -9.780   9.965  68.722  1.00  0.00    -0.160 C  
HETATM   16  C   UNL     1     -10.332  17.320  68.829  1.00  0.00    -0.358 A  
HETATM   17  C   UNL     1      -9.125  17.444  68.164  1.00  0.00    -0.267 A  
HETATM   18 CL   UNL     1      -7.053  16.632  66.738  1.00  0.00    -0.259 Cl 
HETATM   19  O   UNL     1      -6.892  13.920  67.533  1.00  0.00    -0.175 OA 
HETATM   20  O   UNL     1      -9.634  10.383  70.121  1.00  0.00    -0.374 OA 
HETATM   21  C   UNL     1     -10.753  11.050  68.272  1.00  0.00    -0.196 C  
HETATM   22  H   UNL     1     -10.446  10.355  70.613  1.00  0.00     0.000 HD 
HETATM   23  O   UNL     1     -12.105  10.799  68.373  1.00  0.00    -0.805 OA 
HETATM   24  C   UNL     1     -10.227  12.312  68.220  1.00  0.00    -0.221 C  
HETATM   25  C   UNL     1     -10.979  13.544  68.635  1.00  0.00    -0.263 C  
HETATM   26  H   UNL     1     -12.712  11.475  68.093  1.00  0.00     0.000 HD 
HETATM   27  O   UNL     1     -12.056  13.431  69.210  1.00  0.00    -0.311 OA 
HETATM   28  C   UNL     1     -10.292  14.891  68.489  1.00  0.00    -0.237 A  
HETATM   29  C   UNL     1      -9.023  15.017  67.867  1.00  0.00    -0.175 A  
HETATM   30  C   UNL     1      -8.486  16.312  67.664  1.00  0.00    -0.168 A  
HETATM   31  C   UNL     1      -8.309  13.789  67.371  1.00  0.00    -0.193 C  
ENDROOT
BRANCH   4  32
HETATM   32  N   UNL     1      -5.939   9.838  68.652  1.00  0.00    -0.042 NA 
HETATM   33  C   UNL     1      -5.299  10.114  69.945  1.00  0.00    -0.038 C  
HETATM   34  C   UNL     1      -5.131   8.944  67.840  1.00  0.00    -0.034 C  
ENDBRANCH   4  32
BRANCH   7  35
HETATM   35  C   UNL     1      -8.542   7.883  71.148  1.00  0.00    -0.128 C  
HETATM   36  N   UNL     1      -9.558   8.270  71.963  1.00  0.00    -0.221 N  
HETATM   37  O   UNL     1      -7.440   7.638  71.650  1.00  0.00    -0.073 OA 
HETATM   38  H1  UNL     1      -9.354   8.387  72.955  1.00  0.00     0.000 HD 
HETATM   39  H2  UNL     1     -10.494   8.438  71.594  1.00  0.00     0.000 HD 
ENDBRANCH   7  35
TORSDOF 2
ENDMDL
MODEL       45
REMARK 921   NORMALIZED FREE ENERGY PREDICTED BY IDOCK:   -5.73 KCAL/MOL
REMARK 922        TOTAL FREE ENERGY PREDICTED BY IDOCK:   -6.54 KCAL/MOL
REMARK 923 INTER-LIGAND FREE ENERGY PREDICTED BY IDOCK:   -6.14 KCAL/MOL
REMARK 924 INTRA-LIGAND FREE ENERGY PREDICTED BY IDOCK:   -0.39 KCAL/MOL
REMARK 927      BINDING AFFINITY PREDICTED BY RF-SCORE:    0.00 PKD
ROOT
HETATM    1  C   UNL     1      -9.063   7.025  68.335  1.00  0.00    -0.127 C  
HETATM    2  C   UNL     1      -7.806   6.168  68.325  1.00  0.00    -0.104 C  
HETATM    3  C   UNL     1      -7.640   5.429  67.013  1.00  0.00    -0.092 C  
HETATM    4  C   UNL     1      -8.248   4.008  66.924  1.00  0.00    -0.100 C  
HETATM    5  H   UNL     1     -12.568  11.908  67.843  1.00  0.00     0.000 HD 
HETATM    6  C   UNL     1      -7.516   3.429  65.678  1.00  0.00    -0.077 C  
HETATM    7  C   UNL     1      -7.910   3.952  64.491  1.00  0.00    -0.085 C  
HETATM    8  O   UNL     1      -6.146   3.242  65.903  1.00  0.00    -0.023 OA 
HETATM    9  O   UNL     1     -11.913  11.224  67.755  1.00  0.00    -0.637 OA 
HETATM   10  C   UNL     1     -11.503  10.492  68.832  1.00  0.00    -0.226 A  
HETATM   11  C   UNL     1      -7.647   5.473  64.517  1.00  0.00    -0.080 C  
HETATM   12  H   UNL     1      -9.567   6.908  71.511  1.00  0.00     0.000 HD 
HETATM   13  H   UNL     1      -5.700   2.889  65.142  1.00  0.00     0.000 HD 
HETATM   14  O   UNL     1      -7.053   6.028  63.597  1.00  0.00    -0.047 OA 
HETATM   15  C   UNL     1      -8.192   6.222  65.781  1.00  0.00    -0.136 C  
HETATM   16  C   UNL     1     -12.086  10.792  70.065  1.00  0.00    -0.423 A  
HETATM   17  C   UNL     1     -11.689  10.104  71.200  1.00  0.00    -0.453 A  
HETATM   18 CL   UNL     1     -10.231   8.422  72.623  1.00  0.00    -0.362 Cl 
HETATM   19  O   UNL     1      -9.499   6.543  70.637  1.00  0.00    -0.165 OA 
HETATM   20  O   UNL     1      -9.609   5.964  65.501  1.00  0.00    -0.370 OA 
HETATM   21  C   UNL     1      -8.296   7.716  66.069  1.00  0.00    -0.135 C  
HETATM   22  H   UNL     1      -9.943   6.446  64.753  1.00  0.00     0.000 HD 
HETATM   23  O   UNL     1      -8.136   8.598  65.020  1.00  0.00    -0.126 OA 
HETATM   24  C   UNL     1      -8.957   8.037  67.223  1.00  0.00    -0.148 C  
HETATM   25  C   UNL     1      -9.891   9.207  67.349  1.00  0.00    -0.184 C  
HETATM   26  H   UNL     1      -8.201   9.528  65.200  1.00  0.00     0.000 HD 
HETATM   27  O   UNL     1     -10.227   9.823  66.344  1.00  0.00    -0.242 OA 
HETATM   28  C   UNL     1     -10.530   9.476  68.701  1.00  0.00    -0.237 A  
HETATM   29  C   UNL     1     -10.176   8.731  69.855  1.00  0.00    -0.206 A  
HETATM   30  C   UNL     1     -10.727   9.102  71.106  1.00  0.00    -0.310 A  
HETATM   31  C   UNL     1      -9.173   7.615  69.744  1.00  0.00    -0.147 C  
ENDROOT
BRANCH   4  32
HETATM   32  N   UNL     1      -8.390   3.183  68.126  1.00  0.00    -0.077 NA 
HETATM   33  C   UNL     1      -9.337   2.088  67.877  1.00  0.00    -0.168 C  
HETATM   34  C   UNL     1      -7.167   2.697  68.739  1.00  0.00    -0.048 C  
ENDBRANCH   4  32
BRANCH   7  35
HETATM   35  C   UNL     1      -9.263   3.418  64.124  1.00  0.00    -0.127 C  
HETATM   36  N   UNL     1     -10.071   4.206  63.368  1.00  0.00    -0.341 N  
HETATM   37  O   UNL     1      -9.653   2.285  64.425  1.00  0.00    -0.142 OA 
HETATM   38  H1  UNL     1     -10.991   3.843  63.118  1.00  0.00     0.000 HD 
HETATM   39  H2  UNL     1      -9.768   5.130  63.061  1.00  0.00     0.000 HD 
ENDBRANCH   7  35
TORSDOF 2
ENDMDL
MODEL       46
REMARK 921   NORMALIZED FREE ENERGY PREDICTED BY IDOCK:   -5.69 KCAL/MOL
REMARK 922        TOTAL FREE ENERGY PREDICTED BY IDOCK:   -6.49 KCAL/MOL
REMARK 923 INTER-LIGAND FREE ENERGY PREDICTED BY IDOCK:   -6.52 KCAL/MOL
REMARK 924 INTRA-LIGAND FREE ENERGY PREDICTED BY IDOCK:    0.02 KCAL/MOL
REMARK 927      BINDING AFFINITY PREDICTED BY RF-SCORE:    0.00 PKD
ROOT
HETATM    1  C   UNL     1      -8.711  11.176  67.298  1.00  0.00    -0.139 C  
HETATM    2  C   UNL     1      -8.552  12.244  66.225  1.00  0.00     0.125 C  
HETATM    3  C   UNL     1      -8.945  13.615  66.736  1.00  0.00    -0.196 C  
HETATM    4  C   UNL     1     -10.416  14.050  66.526  1.00  0.00    -0.281 C  
HETATM    5  H   UNL     1      -7.231   7.367  71.732  1.00  0.00     0.000 HD 
HETATM    6  C   UNL     1     -10.324  15.589  66.740  1.00  0.00    -0.288 C  
HETATM    7  C   UNL     1     -10.122  15.976  68.023  1.00  0.00    -0.240 C  
HETATM    8  O   UNL     1      -9.592  16.226  65.729  1.00  0.00    -0.422 OA 
HETATM    9  O   UNL     1      -7.325   8.096  71.130  1.00  0.00    -0.057 OA 
HETATM   10  C   UNL     1      -7.670   7.896  69.823  1.00  0.00    -0.099 A  
HETATM   11  C   UNL     1      -8.795  15.360  68.515  1.00  0.00    -0.183 C  
HETATM   12  H   UNL     1      -9.279   8.722  65.296  1.00  0.00     0.000 HD 
HETATM   13  H   UNL     1      -9.536  17.165  65.860  1.00  0.00     0.000 HD 
HETATM   14  O   UNL     1      -7.944  16.051  69.069  1.00  0.00    -0.199 OA 
HETATM   15  C   UNL     1      -8.637  13.822  68.257  1.00  0.00    -0.175 C  
HETATM   16  C   UNL     1      -7.878   6.577  69.414  1.00  0.00    -0.106 A  
HETATM   17  C   UNL     1      -8.200   6.309  68.094  1.00  0.00    -0.115 A  
HETATM   18 CL   UNL     1      -8.609   6.862  65.542  1.00  0.00    -0.124 Cl 
HETATM   19  O   UNL     1      -9.471   9.552  65.715  1.00  0.00    -0.211 OA 
HETATM   20  O   UNL     1      -9.735  13.415  69.141  1.00  0.00    -0.385 OA 
HETATM   21  C   UNL     1      -7.580  12.845  68.760  1.00  0.00    -0.025 C  
HETATM   22  H   UNL     1      -9.549  13.541  70.064  1.00  0.00     0.000 HD 
HETATM   23  O   UNL     1      -6.755  13.245  69.790  1.00  0.00    -0.323 OA 
HETATM   24  C   UNL     1      -7.818  11.532  68.459  1.00  0.00    -0.140 C  
HETATM   25  C   UNL     1      -7.536  10.397  69.402  1.00  0.00    -0.140 C  
HETATM   26  H   UNL     1      -6.096  12.637  70.103  1.00  0.00     0.000 HD 
HETATM   27  O   UNL     1      -7.235  10.639  70.566  1.00  0.00    -0.158 OA 
HETATM   28  C   UNL     1      -7.810   8.981  68.928  1.00  0.00    -0.095 A  
HETATM   29  C   UNL     1      -8.204   8.704  67.593  1.00  0.00    -0.110 A  
HETATM   30  C   UNL     1      -8.337   7.354  67.184  1.00  0.00    -0.118 A  
HETATM   31  C   UNL     1      -8.401   9.837  66.623  1.00  0.00    -0.124 C  
ENDROOT
BRANCH   4  32
HETATM   32  N   UNL     1     -11.194  13.522  65.403  1.00  0.00    -0.288 NA 
HETATM   33  C   UNL     1     -11.940  12.329  65.823  1.00  0.00    -0.293 C  
HETATM   34  C   UNL     1     -12.048  14.460  64.695  1.00  0.00    -0.471 C  
ENDBRANCH   4  32
BRANCH   7  35
HETATM   35  C   UNL     1     -11.385  15.796  68.813  1.00  0.00    -0.362 C  
HETATM   36  N   UNL     1     -12.296  14.897  68.358  1.00  0.00    -0.578 N  
HETATM   37  O   UNL     1     -11.610  16.380  69.879  1.00  0.00    -0.200 OA 
HETATM   38  H1  UNL     1     -13.154  14.774  68.895  1.00  0.00     0.000 HD 
HETATM   39  H2  UNL     1     -12.126  14.362  67.506  1.00  0.00     0.000 HD 
ENDBRANCH   7  35
TORSDOF 2
ENDMDL
MODEL       47
REMARK 921   NORMALIZED FREE ENERGY PREDICTED BY IDOCK:   -5.69 KCAL/MOL
REMARK 922        TOTAL FREE ENERGY PREDICTED BY IDOCK:   -6.49 KCAL/MOL
REMARK 923 INTER-LIGAND FREE ENERGY PREDICTED BY IDOCK:   -6.20 KCAL/MOL
REMARK 924 INTRA-LIGAND FREE ENERGY PREDICTED BY IDOCK:   -0.29 KCAL/MOL
REMARK 927      BINDING AFFINITY PREDICTED BY RF-SCORE:    0.00 PKD
ROOT
HETATM    1  C   UNL     1     -10.129   8.166  68.387  1.00  0.00    -0.226 C  
HETATM    2  C   UNL     1     -10.656   9.190  67.393  1.00  0.00    -0.315 C  
HETATM    3  C   UNL     1      -9.705   9.384  66.229  1.00  0.00    -0.330 C  
HETATM    4  C   UNL     1      -8.645  10.506  66.365  1.00  0.00    -0.144 C  
HETATM    5  H   UNL     1      -9.375   2.867  71.164  1.00  0.00     0.000 HD 
HETATM    6  C   UNL     1      -8.196  10.696  64.887  1.00  0.00    -0.057 C  
HETATM    7  C   UNL     1      -7.441   9.689  64.386  1.00  0.00    -0.125 C  
HETATM    8  O   UNL     1      -9.213  11.230  64.085  1.00  0.00    -0.355 OA 
HETATM    9  O   UNL     1      -9.504   3.582  70.551  1.00  0.00    -0.153 OA 
HETATM   10  C   UNL     1     -10.122   4.739  70.931  1.00  0.00    -0.205 A  
HETATM   11  C   UNL     1      -8.262   8.383  64.455  1.00  0.00    -0.146 C  
HETATM   12  H   UNL     1     -11.580   9.391  70.985  1.00  0.00     0.000 HD 
HETATM   13  H   UNL     1      -8.939  11.347  63.183  1.00  0.00     0.000 HD 
HETATM   14  O   UNL     1      -8.369   7.650  63.475  1.00  0.00    -0.011 OA 
HETATM   15  C   UNL     1      -8.922   8.084  65.844  1.00  0.00    -0.137 C  
HETATM   16  C   UNL     1     -10.554   4.825  72.257  1.00  0.00    -0.225 A  
HETATM   17  C   UNL     1     -11.214   5.961  72.693  1.00  0.00    -0.335 A  
HETATM   18 CL   UNL     1     -12.381   8.321  72.462  1.00  0.00    -0.385 Cl 
HETATM   19  O   UNL     1     -10.969   9.397  70.258  1.00  0.00    -0.237 OA 
HETATM   20  O   UNL     1      -7.659   7.919  66.572  1.00  0.00    -0.089 OA 
HETATM   21  C   UNL     1      -9.628   6.828  66.347  1.00  0.00    -0.095 C  
HETATM   22  H   UNL     1      -7.185   7.130  66.338  1.00  0.00     0.000 HD 
HETATM   23  O   UNL     1      -9.488   5.664  65.621  1.00  0.00    -0.333 OA 
HETATM   24  C   UNL     1      -9.968   6.849  67.672  1.00  0.00    -0.180 C  
HETATM   25  C   UNL     1      -9.863   5.654  68.576  1.00  0.00    -0.143 C  
HETATM   26  H   UNL     1      -9.927   4.882  65.934  1.00  0.00     0.000 HD 
HETATM   27  O   UNL     1      -9.293   4.644  68.180  1.00  0.00    -0.122 OA 
HETATM   28  C   UNL     1     -10.313   5.802  70.020  1.00  0.00    -0.328 A  
HETATM   29  C   UNL     1     -10.931   6.989  70.491  1.00  0.00    -0.297 A  
HETATM   30  C   UNL     1     -11.425   7.023  71.818  1.00  0.00    -0.267 A  
HETATM   31  C   UNL     1     -11.115   8.155  69.559  1.00  0.00     0.052 C  
ENDROOT
BRANCH   4  32
HETATM   32  N   UNL     1      -8.910  11.681  67.197  1.00  0.00    -0.166 NA 
HETATM   33  C   UNL     1      -7.706  12.042  67.958  1.00  0.00    -0.132 C  
HETATM   34  C   UNL     1      -9.487  12.840  66.536  1.00  0.00    -0.253 C  
ENDBRANCH   4  32
BRANCH   7  35
HETATM   35  C   UNL     1      -6.059   9.752  64.966  1.00  0.00    -0.092 C  
HETATM   36  N   UNL     1      -5.542  10.976  65.243  1.00  0.00    -0.331 N  
HETATM   37  O   UNL     1      -5.395   8.749  65.253  1.00  0.00    -0.038 OA 
HETATM   38  H1  UNL     1      -4.603  11.019  65.637  1.00  0.00     0.000 HD 
HETATM   39  H2  UNL     1      -6.077  11.826  65.063  1.00  0.00     0.000 HD 
ENDBRANCH   7  35
TORSDOF 2
ENDMDL
MODEL       48
REMARK 921   NORMALIZED FREE ENERGY PREDICTED BY IDOCK:   -5.63 KCAL/MOL
REMARK 922        TOTAL FREE ENERGY PREDICTED BY IDOCK:   -6.42 KCAL/MOL
REMARK 923 INTER-LIGAND FREE ENERGY PREDICTED BY IDOCK:   -6.00 KCAL/MOL
REMARK 924 INTRA-LIGAND FREE ENERGY PREDICTED BY IDOCK:   -0.42 KCAL/MOL
REMARK 927      BINDING AFFINITY PREDICTED BY RF-SCORE:    0.00 PKD
ROOT
HETATM    1  C   UNL     1      -8.408   7.693  69.542  1.00  0.00    -0.130 C  
HETATM    2  C   UNL     1      -7.581   7.966  68.294  1.00  0.00    -0.116 C  
HETATM    3  C   UNL     1      -7.482   9.448  67.999  1.00  0.00    -0.080 C  
HETATM    4  C   UNL     1      -8.552  10.052  67.056  1.00  0.00    -0.125 C  
HETATM    5  H   UNL     1      -9.694   6.542  75.320  1.00  0.00     0.000 HD 
HETATM    6  C   UNL     1      -7.887  11.399  66.646  1.00  0.00    -0.137 C  
HETATM    7  C   UNL     1      -7.848  12.336  67.623  1.00  0.00    -0.156 C  
HETATM    8  O   UNL     1      -6.747  11.212  65.854  1.00  0.00    -0.344 OA 
HETATM    9  O   UNL     1      -9.338   6.845  74.493  1.00  0.00    -0.216 OA 
HETATM   10  C   UNL     1      -9.421   6.082  73.362  1.00  0.00    -0.138 A  
HETATM   11  C   UNL     1      -7.045  11.768  68.812  1.00  0.00    -0.111 C  
HETATM   12  H   UNL     1      -9.454   4.780  68.664  1.00  0.00     0.000 HD 
HETATM   13  H   UNL     1      -6.342  12.033  65.604  1.00  0.00     0.000 HD 
HETATM   14  O   UNL     1      -6.138  12.415  69.330  1.00  0.00    -0.090 OA 
HETATM   15  C   UNL     1      -7.477  10.339  69.287  1.00  0.00    -0.112 C  
HETATM   16  C   UNL     1     -10.053   4.841  73.477  1.00  0.00    -0.198 A  
HETATM   17  C   UNL     1     -10.141   4.010  72.373  1.00  0.00    -0.242 A  
HETATM   18 CL   UNL     1      -9.684   3.227  69.891  1.00  0.00    -0.162 Cl 
HETATM   19  O   UNL     1      -9.379   5.724  68.594  1.00  0.00    -0.120 OA 
HETATM   20  O   UNL     1      -8.818  10.735  69.733  1.00  0.00    -0.359 OA 
HETATM   21  C   UNL     1      -7.063   9.546  70.523  1.00  0.00    -0.127 C  
HETATM   22  H   UNL     1      -8.815  11.275  70.515  1.00  0.00     0.000 HD 
HETATM   23  O   UNL     1      -6.409  10.211  71.538  1.00  0.00    -0.306 OA 
HETATM   24  C   UNL     1      -7.743   8.374  70.711  1.00  0.00    -0.083 C  
HETATM   25  C   UNL     1      -8.179   7.873  72.058  1.00  0.00    -0.119 C  
HETATM   26  H   UNL     1      -6.150   9.717  72.307  1.00  0.00     0.000 HD 
HETATM   27  O   UNL     1      -8.083   8.605  73.036  1.00  0.00    -0.394 OA 
HETATM   28  C   UNL     1      -8.892   6.533  72.132  1.00  0.00    -0.135 A  
HETATM   29  C   UNL     1      -9.045   5.705  70.990  1.00  0.00    -0.159 A  
HETATM   30  C   UNL     1      -9.622   4.422  71.148  1.00  0.00    -0.175 A  
HETATM   31  C   UNL     1      -8.529   6.171  69.656  1.00  0.00    -0.127 C  
ENDROOT
BRANCH   4  32
HETATM   32  N   UNL     1      -9.195   9.223  66.035  1.00  0.00    -0.189 NA 
HETATM   33  C   UNL     1     -10.372   8.550  66.600  1.00  0.00    -0.233 C  
HETATM   34  C   UNL     1      -9.507   9.862  64.768  1.00  0.00    -0.291 C  
ENDBRANCH   4  32
BRANCH   7  35
HETATM   35  C   UNL     1      -9.218  12.910  67.834  1.00  0.00    -0.208 C  
HETATM   36  N   UNL     1      -9.477  13.512  69.023  1.00  0.00    -0.379 N  
HETATM   37  O   UNL     1     -10.097  12.911  66.965  1.00  0.00    -0.239 OA 
HETATM   38  H1  UNL     1     -10.408  13.903  69.167  1.00  0.00     0.000 HD 
HETATM   39  H2  UNL     1      -8.763  13.572  69.749  1.00  0.00     0.000 HD 
ENDBRANCH   7  35
TORSDOF 2
ENDMDL
MODEL       49
REMARK 921   NORMALIZED FREE ENERGY PREDICTED BY IDOCK:   -5.61 KCAL/MOL
REMARK 922        TOTAL FREE ENERGY PREDICTED BY IDOCK:   -6.41 KCAL/MOL
REMARK 923 INTER-LIGAND FREE ENERGY PREDICTED BY IDOCK:   -6.49 KCAL/MOL
REMARK 924 INTRA-LIGAND FREE ENERGY PREDICTED BY IDOCK:    0.09 KCAL/MOL
REMARK 927      BINDING AFFINITY PREDICTED BY RF-SCORE:    0.00 PKD
ROOT
HETATM    1  C   UNL     1      -9.840   8.973  67.491  1.00  0.00    -0.230 C  
HETATM    2  C   UNL     1      -9.939   7.462  67.633  1.00  0.00    -0.213 C  
HETATM    3  C   UNL     1      -9.669   7.012  69.054  1.00  0.00    -0.145 C  
HETATM    4  C   UNL     1      -8.207   6.648  69.412  1.00  0.00    -0.124 C  
HETATM    5  H   UNL     1     -11.585  14.736  67.153  1.00  0.00     0.000 HD 
HETATM    6  C   UNL     1      -8.395   5.839  70.728  1.00  0.00    -0.124 C  
HETATM    7  C   UNL     1      -8.747   6.580  71.807  1.00  0.00    -0.131 C  
HETATM    8  O   UNL     1      -9.048   4.619  70.515  1.00  0.00    -0.110 OA 
HETATM    9  O   UNL     1     -11.465  13.814  67.352  1.00  0.00    -0.311 OA 
HETATM   10  C   UNL     1     -10.977  12.945  66.418  1.00  0.00    -0.285 A  
HETATM   11  C   UNL     1     -10.087   7.283  71.500  1.00  0.00    -0.186 C  
HETATM   12  H   UNL     1      -8.949   8.998  64.399  1.00  0.00     0.000 HD 
HETATM   13  H   UNL     1      -9.163   4.125  71.318  1.00  0.00     0.000 HD 
HETATM   14  O   UNL     1     -11.023   7.234  72.293  1.00  0.00    -0.229 OA 
HETATM   15  C   UNL     1     -10.142   8.045  70.132  1.00  0.00    -0.194 C  
HETATM   16  C   UNL     1     -10.664  13.470  65.162  1.00  0.00    -0.349 A  
HETATM   17  C   UNL     1     -10.194  12.633  64.164  1.00  0.00    -0.366 A  
HETATM   18 CL   UNL     1      -9.550  10.328  63.043  1.00  0.00    -0.339 Cl 
HETATM   19  O   UNL     1      -8.842   8.808  65.324  1.00  0.00    -0.192 OA 
HETATM   20  O   UNL     1      -9.123   9.041  70.480  1.00  0.00    -0.181 OA 
HETATM   21  C   UNL     1     -11.197   8.997  69.579  1.00  0.00     0.070 C  
HETATM   22  H   UNL     1      -9.410   9.667  71.134  1.00  0.00     0.000 HD 
HETATM   23  O   UNL     1     -12.143   9.501  70.447  1.00  0.00    -0.451 OA 
HETATM   24  C   UNL     1     -10.865   9.604  68.398  1.00  0.00    -0.212 C  
HETATM   25  C   UNL     1     -11.188  11.036  68.079  1.00  0.00    -0.309 C  
HETATM   26  H   UNL     1     -12.800  10.094  70.103  1.00  0.00     0.000 HD 
HETATM   27  O   UNL     1     -11.619  11.770  68.962  1.00  0.00    -0.257 OA 
HETATM   28  C   UNL     1     -10.798  11.575  66.714  1.00  0.00    -0.330 A  
HETATM   29  C   UNL     1     -10.255  10.735  65.708  1.00  0.00    -0.319 A  
HETATM   30  C   UNL     1     -10.014  11.276  64.420  1.00  0.00    -0.288 A  
HETATM   31  C   UNL     1     -10.013   9.280  66.000  1.00  0.00    -0.255 C  
ENDROOT
BRANCH   4  32
HETATM   32  N   UNL     1      -7.292   6.151  68.382  1.00  0.00    -0.084 NA 
HETATM   33  C   UNL     1      -7.992   5.211  67.496  1.00  0.00    -0.100 C  
HETATM   34  C   UNL     1      -6.551   7.144  67.623  1.00  0.00    -0.056 C  
ENDBRANCH   4  32
BRANCH   7  35
HETATM   35  C   UNL     1      -7.566   7.369  72.291  1.00  0.00    -0.088 C  
HETATM   36  N   UNL     1      -7.807   8.509  72.986  1.00  0.00    -0.060 N  
HETATM   37  O   UNL     1      -6.395   7.005  72.136  1.00  0.00    -0.044 OA 
HETATM   38  H1  UNL     1      -7.004   9.045  73.315  1.00  0.00     0.000 HD 
HETATM   39  H2  UNL     1      -8.760   8.820  73.174  1.00  0.00     0.000 HD 
ENDBRANCH   7  35
TORSDOF 2
ENDMDL
MODEL       50
REMARK 921   NORMALIZED FREE ENERGY PREDICTED BY IDOCK:   -5.59 KCAL/MOL
REMARK 922        TOTAL FREE ENERGY PREDICTED BY IDOCK:   -6.38 KCAL/MOL
REMARK 923 INTER-LIGAND FREE ENERGY PREDICTED BY IDOCK:   -5.99 KCAL/MOL
REMARK 924 INTRA-LIGAND FREE ENERGY PREDICTED BY IDOCK:   -0.39 KCAL/MOL
REMARK 927      BINDING AFFINITY PREDICTED BY RF-SCORE:    0.00 PKD
ROOT
HETATM    1  C   UNL     1     -10.037   7.387  68.402  1.00  0.00    -0.196 C  
HETATM    2  C   UNL     1     -10.407   8.043  67.080  1.00  0.00    -0.414 C  
HETATM    3  C   UNL     1      -9.497   7.593  65.955  1.00  0.00    -0.033 C  
HETATM    4  C   UNL     1      -8.236   8.450  65.683  1.00  0.00    -0.132 C  
HETATM    5  H   UNL     1     -10.173   3.490  73.001  1.00  0.00     0.000 HD 
HETATM    6  C   UNL     1      -7.835   7.977  64.255  1.00  0.00    -0.137 C  
HETATM    7  C   UNL     1      -7.314   6.728  64.194  1.00  0.00    -0.085 C  
HETATM    8  O   UNL     1      -8.770   8.358  63.284  1.00  0.00    -0.424 OA 
HETATM    9  O   UNL     1     -10.193   3.931  72.160  1.00  0.00    -0.177 OA 
HETATM   10  C   UNL     1     -10.558   5.243  72.055  1.00  0.00    -0.216 A  
HETATM   11  C   UNL     1      -8.365   5.734  64.732  1.00  0.00    -0.116 C  
HETATM   12  H   UNL     1     -11.091   9.761  70.301  1.00  0.00     0.000 HD 
HETATM   13  H   UNL     1      -8.524   8.070  62.413  1.00  0.00     0.000 HD 
HETATM   14  O   UNL     1      -8.660   4.722  64.101  1.00  0.00    -0.130 OA 
HETATM   15  C   UNL     1      -8.999   6.117  66.113  1.00  0.00    -0.155 C  
HETATM   16  C   UNL     1     -10.897   5.906  73.237  1.00  0.00    -0.291 A  
HETATM   17  C   UNL     1     -11.303   7.229  73.193  1.00  0.00    -0.173 A  
HETATM   18 CL   UNL     1     -12.006   9.507  72.053  1.00  0.00    -0.375 Cl 
HETATM   19  O   UNL     1     -10.528   9.372  69.643  1.00  0.00    -0.204 OA 
HETATM   20  O   UNL     1      -7.755   5.994  66.882  1.00  0.00    -0.098 OA 
HETATM   21  C   UNL     1      -9.906   5.309  67.036  1.00  0.00    -0.167 C  
HETATM   22  H   UNL     1      -7.454   5.098  66.977  1.00  0.00     0.000 HD 
HETATM   23  O   UNL     1     -10.029   3.954  66.811  1.00  0.00    -0.349 OA 
HETATM   24  C   UNL     1     -10.168   5.894  68.245  1.00  0.00    -0.226 C  
HETATM   25  C   UNL     1     -10.248   5.133  69.537  1.00  0.00    -0.248 C  
HETATM   26  H   UNL     1     -10.594   3.451  67.385  1.00  0.00     0.000 HD 
HETATM   27  O   UNL     1      -9.903   3.957  69.569  1.00  0.00    -0.177 OA 
HETATM   28  C   UNL     1     -10.587   5.899  70.804  1.00  0.00    -0.330 A  
HETATM   29  C   UNL     1     -10.941   7.273  70.773  1.00  0.00    -0.273 A  
HETATM   30  C   UNL     1     -11.352   7.902  71.974  1.00  0.00    -0.292 A  
HETATM   31  C   UNL     1     -10.945   8.013  69.464  1.00  0.00    -0.054 C  
ENDROOT
BRANCH   4  32
HETATM   32  N   UNL     1      -8.228   9.880  65.999  1.00  0.00    -0.117 NA 
HETATM   33  C   UNL     1      -6.848  10.385  66.016  1.00  0.00    -0.128 C  
HETATM   34  C   UNL     1      -9.095  10.735  65.207  1.00  0.00    -0.195 C  
ENDBRANCH   4  32
BRANCH   7  35
HETATM   35  C   UNL     1      -5.917   6.731  64.743  1.00  0.00    -0.035 C  
HETATM   36  N   UNL     1      -5.449   5.581  65.292  1.00  0.00    -0.013 N  
HETATM   37  O   UNL     1      -5.159   7.705  64.670  1.00  0.00    -0.028 OA 
HETATM   38  H1  UNL     1      -4.499   5.583  65.664  1.00  0.00     0.000 HD 
HETATM   39  H2  UNL     1      -6.028   4.742  65.330  1.00  0.00     0.000 HD 
ENDBRANCH   7  35
TORSDOF 2
ENDMDL
MODEL       51
REMARK 921   NORMALIZED FREE ENERGY PREDICTED BY IDOCK:   -5.58 KCAL/MOL
REMARK 922        TOTAL FREE ENERGY PREDICTED BY IDOCK:   -6.37 KCAL/MOL
REMARK 923 INTER-LIGAND FREE ENERGY PREDICTED BY IDOCK:   -6.30 KCAL/MOL
REMARK 924 INTRA-LIGAND FREE ENERGY PREDICTED BY IDOCK:   -0.07 KCAL/MOL
REMARK 927      BINDING AFFINITY PREDICTED BY RF-SCORE:    0.00 PKD
ROOT
HETATM    1  C   UNL     1      -9.583   6.504  67.357  1.00  0.00    -0.142 C  
HETATM    2  C   UNL     1     -10.695   5.870  68.180  1.00  0.00    -0.329 C  
HETATM    3  C   UNL     1     -10.931   6.618  69.476  1.00  0.00    -0.367 C  
HETATM    4  C   UNL     1     -10.145   6.136  70.720  1.00  0.00    -0.193 C  
HETATM    5  H   UNL     1      -6.908   9.899  63.151  1.00  0.00     0.000 HD 
HETATM    6  C   UNL     1     -10.949   6.797  71.878  1.00  0.00    -0.239 C  
HETATM    7  C   UNL     1     -10.799   8.139  71.983  1.00  0.00    -0.349 C  
HETATM    8  O   UNL     1     -12.235   6.258  72.009  1.00  0.00    -0.350 OA 
HETATM    9  O   UNL     1      -7.465   9.528  63.827  1.00  0.00    -0.108 OA 
HETATM   10  C   UNL     1      -7.617   8.177  63.958  1.00  0.00    -0.130 A  
HETATM   11  C   UNL     1     -11.269   8.788  70.663  1.00  0.00    -0.257 C  
HETATM   12  H   UNL     1      -8.641   3.810  65.870  1.00  0.00     0.000 HD 
HETATM   13  H   UNL     1     -12.726   6.660  72.715  1.00  0.00     0.000 HD 
HETATM   14  O   UNL     1     -12.056   9.731  70.668  1.00  0.00    -0.274 OA 
HETATM   15  C   UNL     1     -10.670   8.158  69.360  1.00  0.00    -0.156 C  
HETATM   16  C   UNL     1      -6.920   7.367  63.058  1.00  0.00    -0.067 A  
HETATM   17  C   UNL     1      -7.057   5.991  63.121  1.00  0.00    -0.051 A  
HETATM   18 CL   UNL     1      -8.055   3.695  63.969  1.00  0.00    -0.088 Cl 
HETATM   19  O   UNL     1      -8.775   4.377  66.620  1.00  0.00    -0.111 OA 
HETATM   20  O   UNL     1      -9.282   8.543  69.639  1.00  0.00    -0.154 OA 
HETATM   21  C   UNL     1     -10.741   8.637  67.914  1.00  0.00    -0.093 C  
HETATM   22  H   UNL     1      -9.124   9.477  69.569  1.00  0.00     0.000 HD 
HETATM   23  O   UNL     1     -11.166   9.927  67.672  1.00  0.00    -0.453 OA 
HETATM   24  C   UNL     1      -9.982   7.920  67.030  1.00  0.00    -0.322 C  
HETATM   25  C   UNL     1      -9.216   8.541  65.897  1.00  0.00    -0.182 C  
HETATM   26  H   UNL     1     -11.210  10.225  66.771  1.00  0.00     0.000 HD 
HETATM   27  O   UNL     1      -9.110   9.761  65.835  1.00  0.00    -0.150 OA 
HETATM   28  C   UNL     1      -8.444   7.626  64.962  1.00  0.00    -0.027 A  
HETATM   29  C   UNL     1      -8.529   6.213  65.064  1.00  0.00    -0.071 A  
HETATM   30  C   UNL     1      -7.871   5.416  64.094  1.00  0.00    -0.104 A  
HETATM   31  C   UNL     1      -9.368   5.591  66.146  1.00  0.00    -0.157 C  
ENDROOT
BRANCH   4  32
HETATM   32  N   UNL     1      -9.725   4.738  70.838  1.00  0.00    -0.176 NA 
HETATM   33  C   UNL     1      -8.294   4.613  70.529  1.00  0.00    -0.090 C  
HETATM   34  C   UNL     1     -10.062   4.051  72.073  1.00  0.00    -0.157 C  
ENDBRANCH   4  32
BRANCH   7  35
HETATM   35  C   UNL     1      -9.446   8.457  72.548  1.00  0.00    -0.289 C  
HETATM   36  N   UNL     1      -9.165   8.022  73.804  1.00  0.00    -0.307 N  
HETATM   37  O   UNL     1      -8.562   9.042  71.912  1.00  0.00    -0.361 OA 
HETATM   38  H1  UNL     1      -8.245   8.238  74.188  1.00  0.00     0.000 HD 
HETATM   39  H2  UNL     1      -9.851   7.496  74.344  1.00  0.00     0.000 HD 
ENDBRANCH   7  35
TORSDOF 2
ENDMDL
MODEL       52
REMARK 921   NORMALIZED FREE ENERGY PREDICTED BY IDOCK:   -5.58 KCAL/MOL
REMARK 922        TOTAL FREE ENERGY PREDICTED BY IDOCK:   -6.37 KCAL/MOL
REMARK 923 INTER-LIGAND FREE ENERGY PREDICTED BY IDOCK:   -6.82 KCAL/MOL
REMARK 924 INTRA-LIGAND FREE ENERGY PREDICTED BY IDOCK:    0.45 KCAL/MOL
REMARK 927      BINDING AFFINITY PREDICTED BY RF-SCORE:    0.00 PKD
ROOT
HETATM    1  C   UNL     1      -9.515  15.582  67.646  1.00  0.00    -0.208 C  
HETATM    2  C   UNL     1     -10.929  15.080  67.396  1.00  0.00    -0.315 C  
HETATM    3  C   UNL     1     -10.933  13.719  66.730  1.00  0.00    -0.307 C  
HETATM    4  C   UNL     1     -10.973  13.693  65.182  1.00  0.00    -0.330 C  
HETATM    5  H   UNL     1      -4.371  16.739  70.573  1.00  0.00     0.000 HD 
HETATM    6  C   UNL     1     -11.412  12.226  64.902  1.00  0.00    -0.332 C  
HETATM    7  C   UNL     1     -10.465  11.290  65.150  1.00  0.00    -0.351 C  
HETATM    8  O   UNL     1     -12.725  11.974  65.320  1.00  0.00    -0.288 OA 
HETATM    9  O   UNL     1      -5.177  16.376  70.224  1.00  0.00    -0.157 OA 
HETATM   10  C   UNL     1      -6.188  17.184  69.788  1.00  0.00    -0.204 A  
HETATM   11  C   UNL     1     -10.070  11.379  66.640  1.00  0.00    -0.212 C  
HETATM   12  H   UNL     1     -10.203  18.722  67.489  1.00  0.00     0.000 HD 
HETATM   13  H   UNL     1     -12.993  11.079  65.148  1.00  0.00     0.000 HD 
HETATM   14  O   UNL     1     -10.036  10.374  67.346  1.00  0.00    -0.176 OA 
HETATM   15  C   UNL     1      -9.725  12.817  67.154  1.00  0.00    -0.216 C  
HETATM   16  C   UNL     1      -5.985  18.563  69.876  1.00  0.00    -0.231 A  
HETATM   17  C   UNL     1      -6.986  19.433  69.478  1.00  0.00    -0.280 A  
HETATM   18 CL   UNL     1      -9.392  20.132  68.638  1.00  0.00    -0.126 Cl 
HETATM   19  O   UNL     1     -10.117  17.841  67.142  1.00  0.00    -0.312 OA 
HETATM   20  O   UNL     1      -8.537  12.990  66.311  1.00  0.00    -0.400 OA 
HETATM   21  C   UNL     1      -9.119  13.269  68.479  1.00  0.00    -0.064 C  
HETATM   22  H   UNL     1      -7.804  12.443  66.569  1.00  0.00     0.000 HD 
HETATM   23  O   UNL     1      -8.539  12.318  69.292  1.00  0.00    -0.095 OA 
HETATM   24  C   UNL     1      -8.815  14.601  68.551  1.00  0.00    -0.182 C  
HETATM   25  C   UNL     1      -7.585  15.138  69.224  1.00  0.00    -0.201 C  
HETATM   26  H   UNL     1      -8.162  12.599  70.117  1.00  0.00     0.000 HD 
HETATM   27  O   UNL     1      -6.708  14.363  69.591  1.00  0.00    -0.137 OA 
HETATM   28  C   UNL     1      -7.387  16.644  69.268  1.00  0.00    -0.184 A  
HETATM   29  C   UNL     1      -8.381  17.541  68.801  1.00  0.00    -0.219 A  
HETATM   30  C   UNL     1      -8.182  18.933  68.969  1.00  0.00    -0.158 A  
HETATM   31  C   UNL     1      -9.653  17.001  68.205  1.00  0.00    -0.273 C  
ENDROOT
BRANCH   4  32
HETATM   32  N   UNL     1     -11.595  14.789  64.436  1.00  0.00    -0.337 NA 
HETATM   33  C   UNL     1     -13.022  14.882  64.773  1.00  0.00     0.559 C  
HETATM   34  C   UNL     1     -10.947  16.087  64.509  1.00  0.00    -0.159 C  
ENDBRANCH   4  32
BRANCH   7  35
HETATM   35  C   UNL     1      -9.414  11.332  64.080  1.00  0.00    -0.180 C  
HETATM   36  N   UNL     1      -8.174  10.876  64.391  1.00  0.00    -0.366 N  
HETATM   37  O   UNL     1      -9.635  11.707  62.923  1.00  0.00    -0.384 OA 
HETATM   38  H1  UNL     1      -7.460  10.904  63.663  1.00  0.00     0.000 HD 
HETATM   39  H2  UNL     1      -7.963  10.516  65.322  1.00  0.00     0.000 HD 
ENDBRANCH   7  35
TORSDOF 2
ENDMDL
MODEL       53
REMARK 921   NORMALIZED FREE ENERGY PREDICTED BY IDOCK:   -5.54 KCAL/MOL
REMARK 922        TOTAL FREE ENERGY PREDICTED BY IDOCK:   -6.32 KCAL/MOL
REMARK 923 INTER-LIGAND FREE ENERGY PREDICTED BY IDOCK:   -6.07 KCAL/MOL
REMARK 924 INTRA-LIGAND FREE ENERGY PREDICTED BY IDOCK:   -0.24 KCAL/MOL
REMARK 927      BINDING AFFINITY PREDICTED BY RF-SCORE:    0.00 PKD
ROOT
HETATM    1  C   UNL     1      -8.391  12.127  66.578  1.00  0.00     0.019 C  
HETATM    2  C   UNL     1      -8.566  12.638  68.001  1.00  0.00    -0.189 C  
HETATM    3  C   UNL     1      -9.327  13.948  68.038  1.00  0.00    -0.204 C  
HETATM    4  C   UNL     1      -8.490  15.250  67.994  1.00  0.00    -0.147 C  
HETATM    5  H   UNL     1      -9.427   8.964  61.549  1.00  0.00     0.000 HD 
HETATM    6  C   UNL     1      -9.521  16.304  68.493  1.00  0.00    -0.219 C  
HETATM    7  C   UNL     1     -10.505  16.602  67.611  1.00  0.00    -0.320 C  
HETATM    8  O   UNL     1      -9.865  16.120  69.838  1.00  0.00    -0.141 OA 
HETATM    9  O   UNL     1      -9.476   9.470  62.353  1.00  0.00    -0.158 OA 
HETATM   10  C   UNL     1      -8.490   9.401  63.295  1.00  0.00    -0.202 A  
HETATM   11  C   UNL     1     -11.284  15.307  67.294  1.00  0.00    -0.306 C  
HETATM   12  H   UNL     1      -5.648  10.527  67.093  1.00  0.00     0.000 HD 
HETATM   13  H   UNL     1     -10.493  16.763  70.143  1.00  0.00     0.000 HD 
HETATM   14  O   UNL     1     -12.511  15.277  67.350  1.00  0.00     0.521 OA 
HETATM   15  C   UNL     1     -10.399  14.075  66.903  1.00  0.00    -0.269 C  
HETATM   16  C   UNL     1      -7.409   8.558  63.026  1.00  0.00    -0.099 A  
HETATM   17  C   UNL     1      -6.393   8.423  63.957  1.00  0.00    -0.071 A  
HETATM   18 CL   UNL     1      -5.172   8.774  66.274  1.00  0.00    -0.030 Cl 
HETATM   19  O   UNL     1      -6.193  11.302  67.034  1.00  0.00    -0.082 OA 
HETATM   20  O   UNL     1      -9.877  14.660  65.663  1.00  0.00    -0.342 OA 
HETATM   21  C   UNL     1     -10.801  12.712  66.348  1.00  0.00    -0.269 C  
HETATM   22  H   UNL     1     -10.527  14.737  64.975  1.00  0.00     0.000 HD 
HETATM   23  O   UNL     1     -12.082  12.555  65.864  1.00  0.00    -0.537 OA 
HETATM   24  C   UNL     1      -9.757  11.908  65.980  1.00  0.00    -0.257 C  
HETATM   25  C   UNL     1      -9.774  11.029  64.763  1.00  0.00    -0.262 C  
HETATM   26  H   UNL     1     -12.333  11.706  65.518  1.00  0.00     0.000 HD 
HETATM   27  O   UNL     1     -10.684  11.139  63.949  1.00  0.00    -0.376 OA 
HETATM   28  C   UNL     1      -8.563  10.153  64.490  1.00  0.00    -0.198 A  
HETATM   29  C   UNL     1      -7.487  10.061  65.410  1.00  0.00    -0.139 A  
HETATM   30  C   UNL     1      -6.439   9.144  65.148  1.00  0.00    -0.069 A  
HETATM   31  C   UNL     1      -7.512  10.877  66.673  1.00  0.00    -0.139 C  
ENDROOT
BRANCH   4  32
HETATM   32  N   UNL     1      -7.123  15.272  68.517  1.00  0.00    -0.107 NA 
HETATM   33  C   UNL     1      -6.411  16.456  68.018  1.00  0.00    -0.126 C  
HETATM   34  C   UNL     1      -6.965  15.125  69.954  1.00  0.00    -0.140 C  
ENDBRANCH   4  32
BRANCH   7  35
HETATM   35  C   UNL     1      -9.955  17.451  66.502  1.00  0.00    -0.311 C  
HETATM   36  N   UNL     1      -8.929  18.290  66.795  1.00  0.00    -0.276 N  
HETATM   37  O   UNL     1     -10.351  17.383  65.333  1.00  0.00    -0.631 OA 
HETATM   38  H1  UNL     1      -8.555  18.867  66.041  1.00  0.00     0.000 HD 
HETATM   39  H2  UNL     1      -8.544  18.342  67.738  1.00  0.00     0.000 HD 
ENDBRANCH   7  35
TORSDOF 2
ENDMDL
MODEL       54
REMARK 921   NORMALIZED FREE ENERGY PREDICTED BY IDOCK:   -5.52 KCAL/MOL
REMARK 922        TOTAL FREE ENERGY PREDICTED BY IDOCK:   -6.30 KCAL/MOL
REMARK 923 INTER-LIGAND FREE ENERGY PREDICTED BY IDOCK:   -5.90 KCAL/MOL
REMARK 924 INTRA-LIGAND FREE ENERGY PREDICTED BY IDOCK:   -0.41 KCAL/MOL
REMARK 927      BINDING AFFINITY PREDICTED BY RF-SCORE:    0.00 PKD
ROOT
HETATM    1  C   UNL     1      -8.329  10.518  68.851  1.00  0.00    -0.147 C  
HETATM    2  C   UNL     1      -7.588   9.196  68.722  1.00  0.00    -0.083 C  
HETATM    3  C   UNL     1      -8.525   8.012  68.846  1.00  0.00    -0.131 C  
HETATM    4  C   UNL     1      -8.725   7.417  70.262  1.00  0.00    -0.146 C  
HETATM    5  H   UNL     1     -11.164  15.582  67.210  1.00  0.00     0.000 HD 
HETATM    6  C   UNL     1      -9.339   6.024  69.936  1.00  0.00    -0.148 C  
HETATM    7  C   UNL     1     -10.617   6.056  69.487  1.00  0.00    -0.363 C  
HETATM    8  O   UNL     1      -8.427   5.177  69.294  1.00  0.00    -0.092 OA 
HETATM    9  O   UNL     1     -10.818  14.701  67.300  1.00  0.00    -0.291 OA 
HETATM   10  C   UNL     1      -9.596  14.474  67.868  1.00  0.00    -0.217 A  
HETATM   11  C   UNL     1     -10.659   6.895  68.192  1.00  0.00    -0.216 C  
HETATM   12  H   UNL     1      -5.866  12.211  70.044  1.00  0.00     0.000 HD 
HETATM   13  H   UNL     1      -8.801   4.327  69.095  1.00  0.00     0.000 HD 
HETATM   14  O   UNL     1     -11.213   6.471  67.181  1.00  0.00    -0.388 OA 
HETATM   15  C   UNL     1      -9.958   8.293  68.280  1.00  0.00    -0.191 C  
HETATM   16  C   UNL     1      -8.882  15.590  68.310  1.00  0.00    -0.179 A  
HETATM   17  C   UNL     1      -7.625  15.426  68.867  1.00  0.00    -0.164 A  
HETATM   18 CL   UNL     1      -5.453  14.107  69.593  1.00  0.00    -0.092 Cl 
HETATM   19  O   UNL     1      -6.528  11.530  70.057  1.00  0.00    -0.139 OA 
HETATM   20  O   UNL     1     -10.882   8.856  69.271  1.00  0.00    -0.354 OA 
HETATM   21  C   UNL     1      -9.959   9.457  67.295  1.00  0.00    -0.196 C  
HETATM   22  H   UNL     1     -11.751   9.026  68.927  1.00  0.00     0.000 HD 
HETATM   23  O   UNL     1     -10.885   9.449  66.274  1.00  0.00     0.107 OA 
HETATM   24  C   UNL     1      -9.354  10.598  67.748  1.00  0.00    -0.154 C  
HETATM   25  C   UNL     1      -9.873  11.980  67.474  1.00  0.00    -0.186 C  
HETATM   26  H   UNL     1     -10.886  10.174  65.660  1.00  0.00     0.000 HD 
HETATM   27  O   UNL     1     -10.980  12.121  66.966  1.00  0.00    -0.246 OA 
HETATM   28  C   UNL     1      -9.082  13.165  68.003  1.00  0.00    -0.207 A  
HETATM   29  C   UNL     1      -7.822  12.998  68.634  1.00  0.00    -0.050 A  
HETATM   30  C   UNL     1      -7.086  14.150  69.006  1.00  0.00    -0.111 A  
HETATM   31  C   UNL     1      -7.262  11.616  68.829  1.00  0.00    -0.116 C  
ENDROOT
BRANCH   4  32
HETATM   32  N   UNL     1      -7.667   7.523  71.269  1.00  0.00    -0.084 NA 
HETATM   33  C   UNL     1      -8.105   8.386  72.374  1.00  0.00    -0.125 C  
HETATM   34  C   UNL     1      -7.100   6.279  71.761  1.00  0.00    -0.085 C  
ENDBRANCH   4  32
BRANCH   7  35
HETATM   35  C   UNL     1     -11.548   6.361  70.623  1.00  0.00    -0.347 C  
HETATM   36  N   UNL     1     -12.723   6.975  70.332  1.00  0.00    -0.480 N  
HETATM   37  O   UNL     1     -11.325   6.033  71.794  1.00  0.00    -0.276 OA 
HETATM   38  H1  UNL     1     -13.357   7.182  71.104  1.00  0.00     0.000 HD 
HETATM   39  H2  UNL     1     -12.965   7.221  69.372  1.00  0.00     0.000 HD 
ENDBRANCH   7  35
TORSDOF 2
ENDMDL
MODEL       55
REMARK 921   NORMALIZED FREE ENERGY PREDICTED BY IDOCK:   -5.46 KCAL/MOL
REMARK 922        TOTAL FREE ENERGY PREDICTED BY IDOCK:   -6.24 KCAL/MOL
REMARK 923 INTER-LIGAND FREE ENERGY PREDICTED BY IDOCK:   -5.82 KCAL/MOL
REMARK 924 INTRA-LIGAND FREE ENERGY PREDICTED BY IDOCK:   -0.42 KCAL/MOL
REMARK 927      BINDING AFFINITY PREDICTED BY RF-SCORE:    0.00 PKD
ROOT
HETATM    1  C   UNL     1      -8.424   6.996  67.023  1.00  0.00    -0.121 C  
HETATM    2  C   UNL     1      -7.701   8.312  67.265  1.00  0.00    -0.101 C  
HETATM    3  C   UNL     1      -8.465   9.206  68.221  1.00  0.00    -0.125 C  
HETATM    4  C   UNL     1      -9.462  10.214  67.598  1.00  0.00    -0.148 C  
HETATM    5  H   UNL     1      -9.885   1.173  67.589  1.00  0.00     0.000 HD 
HETATM    6  C   UNL     1      -9.687  11.205  68.777  1.00  0.00    -0.185 C  
HETATM    7  C   UNL     1     -10.424  10.714  69.802  1.00  0.00    -0.189 C  
HETATM    8  O   UNL     1      -8.537  11.946  69.078  1.00  0.00    -0.366 OA 
HETATM    9  O   UNL     1      -9.628   2.079  67.710  1.00  0.00    -0.143 OA 
HETATM   10  C   UNL     1      -8.999   2.777  66.719  1.00  0.00    -0.152 A  
HETATM   11  C   UNL     1      -9.704   9.473  70.371  1.00  0.00    -0.271 C  
HETATM   12  H   UNL     1      -7.280   6.484  64.059  1.00  0.00     0.000 HD 
HETATM   13  H   UNL     1      -8.674  12.551  69.797  1.00  0.00     0.000 HD 
HETATM   14  O   UNL     1      -9.505   9.355  71.578  1.00  0.00    -0.259 OA 
HETATM   15  C   UNL     1      -9.264   8.411  69.308  1.00  0.00    -0.154 C  
HETATM   16  C   UNL     1      -8.754   2.101  65.521  1.00  0.00    -0.118 A  
HETATM   17  C   UNL     1      -8.093   2.746  64.490  1.00  0.00    -0.082 A  
HETATM   18 CL   UNL     1      -6.762   4.707  63.321  1.00  0.00    -0.037 Cl 
HETATM   19  O   UNL     1      -7.781   6.947  64.719  1.00  0.00    -0.100 OA 
HETATM   20  O   UNL     1     -10.625   8.051  68.893  1.00  0.00    -0.292 OA 
HETATM   21  C   UNL     1      -8.715   7.000  69.496  1.00  0.00    -0.134 C  
HETATM   22  H   UNL     1     -11.110   7.569  69.553  1.00  0.00     0.000 HD 
HETATM   23  O   UNL     1      -8.823   6.416  70.741  1.00  0.00    -0.142 OA 
HETATM   24  C   UNL     1      -8.564   6.281  68.342  1.00  0.00    -0.114 C  
HETATM   25  C   UNL     1      -8.868   4.814  68.230  1.00  0.00    -0.104 C  
HETATM   26  H   UNL     1      -8.481   5.538  70.858  1.00  0.00     0.000 HD 
HETATM   27  O   UNL     1      -9.438   4.242  69.153  1.00  0.00    -0.148 OA 
HETATM   28  C   UNL     1      -8.617   4.126  66.900  1.00  0.00    -0.108 A  
HETATM   29  C   UNL     1      -8.000   4.801  65.815  1.00  0.00    -0.102 A  
HETATM   30  C   UNL     1      -7.695   4.073  64.639  1.00  0.00    -0.081 A  
HETATM   31  C   UNL     1      -7.615   6.248  65.959  1.00  0.00    -0.087 C  
ENDROOT
BRANCH   4  32
HETATM   32  N   UNL     1      -9.245  10.735  66.247  1.00  0.00    -0.168 NA 
HETATM   33  C   UNL     1      -9.906   9.870  65.260  1.00  0.00    -0.303 C  
HETATM   34  C   UNL     1      -9.563  12.135  66.022  1.00  0.00    -0.231 C  
ENDBRANCH   4  32
BRANCH   7  35
HETATM   35  C   UNL     1     -11.868  10.639  69.400  1.00  0.00    -0.253 C  
HETATM   36  N   UNL     1     -12.699   9.879  70.159  1.00  0.00    -0.456 N  
HETATM   37  O   UNL     1     -12.345  11.274  68.453  1.00  0.00    -0.545 OA 
HETATM   38  H1  UNL     1     -13.680   9.828  69.886  1.00  0.00     0.000 HD 
HETATM   39  H2  UNL     1     -12.352   9.375  70.976  1.00  0.00     0.000 HD 
ENDBRANCH   7  35
TORSDOF 2
ENDMDL
MODEL       56
REMARK 921   NORMALIZED FREE ENERGY PREDICTED BY IDOCK:   -5.33 KCAL/MOL
REMARK 922        TOTAL FREE ENERGY PREDICTED BY IDOCK:   -6.09 KCAL/MOL
REMARK 923 INTER-LIGAND FREE ENERGY PREDICTED BY IDOCK:   -5.76 KCAL/MOL
REMARK 924 INTRA-LIGAND FREE ENERGY PREDICTED BY IDOCK:   -0.33 KCAL/MOL
REMARK 927      BINDING AFFINITY PREDICTED BY RF-SCORE:    0.00 PKD
ROOT
HETATM    1  C   UNL     1      -9.270   7.072  67.520  1.00  0.00    -0.128 C  
HETATM    2  C   UNL     1      -8.753   7.956  68.646  1.00  0.00    -0.128 C  
HETATM    3  C   UNL     1      -9.637   7.875  69.874  1.00  0.00    -0.168 C  
HETATM    4  C   UNL     1     -10.781   8.913  69.988  1.00  0.00    -0.228 C  
HETATM    5  H   UNL     1      -9.825   2.265  63.921  1.00  0.00     0.000 HD 
HETATM    6  C   UNL     1     -11.144   8.818  71.499  1.00  0.00    -0.307 C  
HETATM    7  C   UNL     1     -11.791   7.683  71.859  1.00  0.00    -0.332 C  
HETATM    8  O   UNL     1     -10.118   9.292  72.325  1.00  0.00     0.031 OA 
HETATM    9  O   UNL     1      -9.707   2.876  64.640  1.00  0.00    -0.148 OA 
HETATM   10  C   UNL     1      -9.200   4.127  64.431  1.00  0.00    -0.150 A  
HETATM   11  C   UNL     1     -10.886   6.478  71.524  1.00  0.00    -0.246 C  
HETATM   12  H   UNL     1      -8.084   8.826  65.097  1.00  0.00     0.000 HD 
HETATM   13  H   UNL     1     -10.340   9.234  73.247  1.00  0.00     0.000 HD 
HETATM   14  O   UNL     1     -10.662   5.604  72.357  1.00  0.00    -0.216 OA 
HETATM   15  C   UNL     1     -10.298   6.469  70.072  1.00  0.00    -0.198 C  
HETATM   16  C   UNL     1      -8.864   4.467  63.119  1.00  0.00    -0.128 A  
HETATM   17  C   UNL     1      -8.316   5.710  62.849  1.00  0.00    -0.072 A  
HETATM   18 CL   UNL     1      -7.308   8.085  63.419  1.00  0.00    -0.101 Cl 
HETATM   19  O   UNL     1      -8.645   8.661  65.846  1.00  0.00    -0.138 OA 
HETATM   20  O   UNL     1     -11.592   6.326  69.394  1.00  0.00    -0.557 OA 
HETATM   21  C   UNL     1      -9.540   5.377  69.325  1.00  0.00    -0.145 C  
HETATM   22  H   UNL     1     -11.992   5.473  69.514  1.00  0.00     0.000 HD 
HETATM   23  O   UNL     1      -9.548   4.100  69.847  1.00  0.00    -0.182 OA 
HETATM   24  C   UNL     1      -9.289   5.645  68.007  1.00  0.00    -0.114 C  
HETATM   25  C   UNL     1      -9.368   4.613  66.918  1.00  0.00    -0.140 C  
HETATM   26  H   UNL     1      -9.075   3.420  69.382  1.00  0.00     0.000 HD 
HETATM   27  O   UNL     1      -9.837   3.508  67.165  1.00  0.00    -0.105 OA 
HETATM   28  C   UNL     1      -9.026   5.035  65.500  1.00  0.00    -0.151 A  
HETATM   29  C   UNL     1      -8.526   6.330  65.207  1.00  0.00    -0.113 A  
HETATM   30  C   UNL     1      -8.124   6.625  63.881  1.00  0.00    -0.012 A  
HETATM   31  C   UNL     1      -8.365   7.336  66.314  1.00  0.00    -0.129 C  
ENDROOT
BRANCH   4  32
HETATM   32  N   UNL     1     -10.656  10.229  69.356  1.00  0.00    -0.221 NA 
HETATM   33  C   UNL     1     -11.123  10.167  67.965  1.00  0.00    -0.240 C  
HETATM   34  C   UNL     1     -11.240  11.356  70.062  1.00  0.00    -0.078 C  
ENDBRANCH   4  32
BRANCH   7  35
HETATM   35  C   UNL     1     -13.209   7.729  71.372  1.00  0.00    -0.267 C  
HETATM   36  N   UNL     1     -13.764   8.948  71.149  1.00  0.00    -0.578 N  
HETATM   37  O   UNL     1     -13.873   6.719  71.114  1.00  0.00    -0.070 OA 
HETATM   38  H1  UNL     1     -14.728   8.978  70.817  1.00  0.00     0.000 HD 
HETATM   39  H2  UNL     1     -13.234   9.804  71.306  1.00  0.00     0.000 HD 
ENDBRANCH   7  35
TORSDOF 2
ENDMDL
MODEL       57
REMARK 921   NORMALIZED FREE ENERGY PREDICTED BY IDOCK:   -5.27 KCAL/MOL
REMARK 922        TOTAL FREE ENERGY PREDICTED BY IDOCK:   -6.02 KCAL/MOL
REMARK 923 INTER-LIGAND FREE ENERGY PREDICTED BY IDOCK:   -5.63 KCAL/MOL
REMARK 924 INTRA-LIGAND FREE ENERGY PREDICTED BY IDOCK:   -0.39 KCAL/MOL
REMARK 927      BINDING AFFINITY PREDICTED BY RF-SCORE:    0.00 PKD
ROOT
HETATM    1  C   UNL     1      -8.958   6.368  67.499  1.00  0.00    -0.116 C  
HETATM    2  C   UNL     1      -8.353   7.410  68.429  1.00  0.00    -0.125 C  
HETATM    3  C   UNL     1      -9.143   7.542  69.715  1.00  0.00    -0.140 C  
HETATM    4  C   UNL     1     -10.268   8.605  69.745  1.00  0.00    -0.206 C  
HETATM    5  H   UNL     1      -9.810   1.061  64.765  1.00  0.00     0.000 HD 
HETATM    6  C   UNL     1     -10.518   8.757  71.274  1.00  0.00    -0.256 C  
HETATM    7  C   UNL     1     -11.142   7.706  71.858  1.00  0.00    -0.290 C  
HETATM    8  O   UNL     1      -9.429   9.338  71.937  1.00  0.00    -0.291 OA 
HETATM    9  O   UNL     1      -9.635   1.776  65.366  1.00  0.00     0.053 OA 
HETATM   10  C   UNL     1      -9.138   2.969  64.924  1.00  0.00    -0.144 A  
HETATM   11  C   UNL     1     -10.272   6.447  71.654  1.00  0.00    -0.196 C  
HETATM   12  H   UNL     1      -7.947   7.693  64.747  1.00  0.00     0.000 HD 
HETATM   13  H   UNL     1      -9.582   9.431  72.870  1.00  0.00     0.000 HD 
HETATM   14  O   UNL     1      -9.992   5.712  72.598  1.00  0.00    -0.170 OA 
HETATM   15  C   UNL     1      -9.795   6.197  70.183  1.00  0.00    -0.171 C  
HETATM   16  C   UNL     1      -8.899   3.090  63.553  1.00  0.00    -0.092 A  
HETATM   17  C   UNL     1      -8.366   4.265  63.049  1.00  0.00    -0.093 A  
HETATM   18 CL   UNL     1      -7.303   6.682  63.156  1.00  0.00    -0.064 Cl 
HETATM   19  O   UNL     1      -8.451   7.660  65.552  1.00  0.00    -0.137 OA 
HETATM   20  O   UNL     1     -11.137   5.971  69.633  1.00  0.00    -0.369 OA 
HETATM   21  C   UNL     1      -9.101   4.986  69.567  1.00  0.00    -0.109 C  
HETATM   22  H   UNL     1     -11.532   5.155  69.917  1.00  0.00     0.000 HD 
HETATM   23  O   UNL     1      -9.078   3.809  70.285  1.00  0.00    -0.097 OA 
HETATM   24  C   UNL     1      -8.949   5.037  68.208  1.00  0.00    -0.120 C  
HETATM   25  C   UNL     1      -9.115   3.847  67.307  1.00  0.00    -0.156 C  
HETATM   26  H   UNL     1      -8.646   3.055  69.902  1.00  0.00     0.000 HD 
HETATM   27  O   UNL     1      -9.571   2.804  67.761  1.00  0.00    -0.184 OA 
HETATM   28  C   UNL     1      -8.878   4.032  65.818  1.00  0.00    -0.123 A  
HETATM   29  C   UNL     1      -8.395   5.255  65.286  1.00  0.00    -0.139 A  
HETATM   30  C   UNL     1      -8.091   5.329  63.904  1.00  0.00    -0.117 A  
HETATM   31  C   UNL     1      -8.145   6.421  66.203  1.00  0.00    -0.117 C  
ENDROOT
BRANCH   4  32
HETATM   32  N   UNL     1     -10.184   9.801  68.904  1.00  0.00    -0.191 NA 
HETATM   33  C   UNL     1     -10.785   9.537  67.590  1.00  0.00    -0.250 C  
HETATM   34  C   UNL     1     -10.677  11.043  69.474  1.00  0.00    -0.183 C  
ENDBRANCH   4  32
BRANCH   7  35
HETATM   35  C   UNL     1     -12.593   7.698  71.475  1.00  0.00    -0.343 C  
HETATM   36  N   UNL     1     -13.184   8.891  71.205  1.00  0.00    -0.513 N  
HETATM   37  O   UNL     1     -13.257   6.664  71.340  1.00  0.00    -0.177 OA 
HETATM   38  H1  UNL     1     -14.170   8.886  70.945  1.00  0.00     0.000 HD 
HETATM   39  H2  UNL     1     -12.658   9.763  71.261  1.00  0.00     0.000 HD 
ENDBRANCH   7  35
TORSDOF 2
ENDMDL
MODEL       58
REMARK 921   NORMALIZED FREE ENERGY PREDICTED BY IDOCK:   -5.23 KCAL/MOL
REMARK 922        TOTAL FREE ENERGY PREDICTED BY IDOCK:   -5.98 KCAL/MOL
REMARK 923 INTER-LIGAND FREE ENERGY PREDICTED BY IDOCK:   -5.78 KCAL/MOL
REMARK 924 INTRA-LIGAND FREE ENERGY PREDICTED BY IDOCK:   -0.20 KCAL/MOL
REMARK 927      BINDING AFFINITY PREDICTED BY RF-SCORE:    0.00 PKD
ROOT
HETATM    1  C   UNL     1     -11.368  15.447  69.283  1.00  0.00    -0.323 C  
HETATM    2  C   UNL     1     -11.455  16.781  68.557  1.00  0.00     0.065 C  
HETATM    3  C   UNL     1     -10.316  16.962  67.576  1.00  0.00    -0.318 C  
HETATM    4  C   UNL     1      -9.042  17.671  68.098  1.00  0.00    -0.276 C  
HETATM    5  H   UNL     1     -12.425   9.656  70.595  1.00  0.00     0.000 HD 
HETATM    6  C   UNL     1      -8.333  18.066  66.770  1.00  0.00    -0.253 C  
HETATM    7  C   UNL     1      -7.788  17.031  66.085  1.00  0.00    -0.295 C  
HETATM    8  O   UNL     1      -9.042  19.039  66.055  1.00  0.00    -0.459 OA 
HETATM    9  O   UNL     1     -12.271  10.501  70.187  1.00  0.00    -0.292 OA 
HETATM   10  C   UNL     1     -12.628  11.664  70.808  1.00  0.00    -0.273 A  
HETATM   11  C   UNL     1      -8.913  16.035  65.731  1.00  0.00    -0.062 C  
HETATM   12  H   UNL     1     -12.851  16.392  71.977  1.00  0.00     0.000 HD 
HETATM   13  H   UNL     1      -8.609  19.280  65.244  1.00  0.00     0.000 HD 
HETATM   14  O   UNL     1      -9.046  15.613  64.585  1.00  0.00     1.465 OA 
HETATM   15  C   UNL     1      -9.837  15.620  66.926  1.00  0.00    -0.238 C  
HETATM   16  C   UNL     1     -13.226  11.558  72.065  1.00  0.00    -0.443 A  
HETATM   17  C   UNL     1     -13.638  12.700  72.731  1.00  0.00     0.359 A  
HETATM   18 CL   UNL     1     -14.119  15.280  73.039  1.00  0.00    -0.144 Cl 
HETATM   19  O   UNL     1     -12.152  16.393  71.335  1.00  0.00    -0.305 OA 
HETATM   20  O   UNL     1      -8.787  14.938  67.690  1.00  0.00    -0.170 OA 
HETATM   21  C   UNL     1     -10.907  14.536  67.011  1.00  0.00    -0.297 C  
HETATM   22  H   UNL     1      -8.497  14.123  67.296  1.00  0.00     0.000 HD 
HETATM   23  O   UNL     1     -10.954  13.584  66.015  1.00  0.00    -0.276 OA 
HETATM   24  C   UNL     1     -11.435  14.343  68.258  1.00  0.00    -0.333 C  
HETATM   25  C   UNL     1     -11.779  12.991  68.815  1.00  0.00    -0.324 C  
HETATM   26  H   UNL     1     -11.621  12.909  66.068  1.00  0.00     0.000 HD 
HETATM   27  O   UNL     1     -11.428  11.982  68.214  1.00  0.00    -0.256 OA 
HETATM   28  C   UNL     1     -12.398  12.920  70.201  1.00  0.00    -0.249 A  
HETATM   29  C   UNL     1     -12.762  14.089  70.917  1.00  0.00    -0.420 A  
HETATM   30  C   UNL     1     -13.433  13.952  72.157  1.00  0.00    -0.485 A  
HETATM   31  C   UNL     1     -12.496  15.443  70.319  1.00  0.00    -0.374 C  
ENDROOT
BRANCH   4  32
HETATM   32  N   UNL     1      -9.128  18.645  69.188  1.00  0.00    -0.073 NA 
HETATM   33  C   UNL     1      -7.812  19.254  69.426  1.00  0.00    -0.006 C  
HETATM   34  C   UNL     1     -10.169  19.654  69.090  1.00  0.00    -0.205 C  
ENDBRANCH   4  32
BRANCH   7  35
HETATM   35  C   UNL     1      -6.544  16.560  66.778  1.00  0.00    -0.132 C  
HETATM   36  N   UNL     1      -5.672  17.501  67.225  1.00  0.00    -0.125 N  
HETATM   37  O   UNL     1      -6.302  15.370  67.010  1.00  0.00    -0.267 OA 
HETATM   38  H1  UNL     1      -4.826  17.181  67.697  1.00  0.00     0.000 HD 
HETATM   39  H2  UNL     1      -5.857  18.495  67.093  1.00  0.00     0.000 HD 
ENDBRANCH   7  35
TORSDOF 2
ENDMDL
MODEL       59
REMARK 921   NORMALIZED FREE ENERGY PREDICTED BY IDOCK:   -5.14 KCAL/MOL
REMARK 922        TOTAL FREE ENERGY PREDICTED BY IDOCK:   -5.87 KCAL/MOL
REMARK 923 INTER-LIGAND FREE ENERGY PREDICTED BY IDOCK:   -5.42 KCAL/MOL
REMARK 924 INTRA-LIGAND FREE ENERGY PREDICTED BY IDOCK:   -0.46 KCAL/MOL
REMARK 927      BINDING AFFINITY PREDICTED BY RF-SCORE:    0.00 PKD
ROOT
HETATM    1  C   UNL     1      -9.187   5.863  68.262  1.00  0.00    -0.117 C  
HETATM    2  C   UNL     1      -9.494   4.435  68.686  1.00  0.00    -0.219 C  
HETATM    3  C   UNL     1      -9.704   4.326  70.183  1.00  0.00    -0.282 C  
HETATM    4  C   UNL     1      -8.462   3.997  71.047  1.00  0.00    -0.076 C  
HETATM    5  H   UNL     1     -10.091  11.448  66.173  1.00  0.00     0.000 HD 
HETATM    6  C   UNL     1      -9.117   3.534  72.380  1.00  0.00    -0.097 C  
HETATM    7  C   UNL     1      -9.683   4.525  73.111  1.00  0.00    -0.160 C  
HETATM    8  O   UNL     1      -9.814   2.327  72.241  1.00  0.00    -0.121 OA 
HETATM    9  O   UNL     1     -10.139  10.596  66.592  1.00  0.00    -0.205 OA 
HETATM   10  C   UNL     1      -9.502   9.509  66.065  1.00  0.00    -0.233 A  
HETATM   11  C   UNL     1     -10.785   5.191  72.260  1.00  0.00    -0.203 C  
HETATM   12  H   UNL     1      -7.433   5.112  65.671  1.00  0.00     0.000 HD 
HETATM   13  H   UNL     1     -10.214   2.044  73.055  1.00  0.00     0.000 HD 
HETATM   14  O   UNL     1     -11.912   5.372  72.714  1.00  0.00    -0.232 OA 
HETATM   15  C   UNL     1     -10.352   5.605  70.813  1.00  0.00    -0.243 C  
HETATM   16  C   UNL     1      -8.777   9.705  64.887  1.00  0.00    -0.207 A  
HETATM   17  C   UNL     1      -8.134   8.635  64.288  1.00  0.00    -0.158 A  
HETATM   18 CL   UNL     1      -7.457   6.104  63.943  1.00  0.00    -0.071 Cl 
HETATM   19  O   UNL     1      -7.624   5.144  66.601  1.00  0.00    -0.086 OA 
HETATM   20  O   UNL     1      -9.373   6.612  71.239  1.00  0.00    -0.158 OA 
HETATM   21  C   UNL     1     -11.083   6.443  69.769  1.00  0.00    -0.396 C  
HETATM   22  H   UNL     1      -9.766   7.388  71.621  1.00  0.00     0.000 HD 
HETATM   23  O   UNL     1     -12.178   7.179  70.170  1.00  0.00    -0.586 OA 
HETATM   24  C   UNL     1     -10.354   6.735  68.649  1.00  0.00    -0.202 C  
HETATM   25  C   UNL     1     -10.404   8.062  67.947  1.00  0.00    -0.222 C  
HETATM   26  H   UNL     1     -12.634   7.700  69.520  1.00  0.00     0.000 HD 
HETATM   27  O   UNL     1     -10.989   9.003  68.472  1.00  0.00    -0.073 OA 
HETATM   28  C   UNL     1      -9.574   8.243  66.687  1.00  0.00    -0.299 A  
HETATM   29  C   UNL     1      -8.859   7.165  66.105  1.00  0.00    -0.171 A  
HETATM   30  C   UNL     1      -8.192   7.372  64.872  1.00  0.00    -0.077 A  
HETATM   31  C   UNL     1      -8.881   5.812  66.763  1.00  0.00    -0.117 C  
ENDROOT
BRANCH   4  32
HETATM   32  N   UNL     1      -7.348   3.229  70.484  1.00  0.00    -0.040 NA 
HETATM   33  C   UNL     1      -6.327   4.140  69.950  1.00  0.00    -0.028 C  
HETATM   34  C   UNL     1      -6.757   2.209  71.333  1.00  0.00    -0.023 C  
ENDBRANCH   4  32
BRANCH   7  35
HETATM   35  C   UNL     1      -8.614   5.355  73.757  1.00  0.00    -0.113 C  
HETATM   36  N   UNL     1      -7.496   4.721  74.196  1.00  0.00    -0.081 N  
HETATM   37  O   UNL     1      -8.675   6.586  73.859  1.00  0.00    -0.125 OA 
HETATM   38  H1  UNL     1      -6.769   5.285  74.634  1.00  0.00     0.000 HD 
HETATM   39  H2  UNL     1      -7.387   3.712  74.089  1.00  0.00     0.000 HD 
ENDBRANCH   7  35
TORSDOF 2
ENDMDL
MODEL       60
REMARK 921   NORMALIZED FREE ENERGY PREDICTED BY IDOCK:   -5.01 KCAL/MOL
REMARK 922        TOTAL FREE ENERGY PREDICTED BY IDOCK:   -5.74 KCAL/MOL
REMARK 923 INTER-LIGAND FREE ENERGY PREDICTED BY IDOCK:   -5.30 KCAL/MOL
REMARK 924 INTRA-LIGAND FREE ENERGY PREDICTED BY IDOCK:   -0.44 KCAL/MOL
REMARK 927      BINDING AFFINITY PREDICTED BY RF-SCORE:    0.00 PKD
ROOT
HETATM    1  C   UNL     1      -8.264   9.409  68.145  1.00  0.00    -0.118 C  
HETATM    2  C   UNL     1      -7.962  10.504  69.158  1.00  0.00    -0.145 C  
HETATM    3  C   UNL     1      -8.697  11.788  68.833  1.00  0.00     0.122 C  
HETATM    4  C   UNL     1      -7.955  12.819  67.947  1.00  0.00    -0.158 C  
HETATM    5  H   UNL     1     -10.858   4.548  65.695  1.00  0.00     0.000 HD 
HETATM    6  C   UNL     1      -8.782  14.112  68.208  1.00  0.00    -0.181 C  
HETATM    7  C   UNL     1     -10.013  14.125  67.641  1.00  0.00    -0.233 C  
HETATM    8  O   UNL     1      -8.648  14.576  69.523  1.00  0.00    -0.383 OA 
HETATM    9  O   UNL     1     -10.645   5.353  66.153  1.00  0.00    -0.222 OA 
HETATM   10  C   UNL     1      -9.398   5.569  66.666  1.00  0.00    -0.141 A  
HETATM   11  C   UNL     1     -10.822  12.937  68.204  1.00  0.00    -0.236 C  
HETATM   12  H   UNL     1      -5.470   7.842  68.448  1.00  0.00     0.000 HD 
HETATM   13  H   UNL     1      -9.153  15.365  69.681  1.00  0.00     0.000 HD 
HETATM   14  O   UNL     1     -11.957  13.097  68.646  1.00  0.00    -0.328 OA 
HETATM   15  C   UNL     1     -10.091  11.552  68.160  1.00  0.00    -0.193 C  
HETATM   16  C   UNL     1      -8.451   4.558  66.486  1.00  0.00    -0.109 A  
HETATM   17  C   UNL     1      -7.178   4.707  67.009  1.00  0.00    -0.076 A  
HETATM   18 CL   UNL     1      -5.256   5.862  68.408  1.00  0.00    -0.003 Cl 
HETATM   19  O   UNL     1      -6.022   8.580  68.217  1.00  0.00    -0.044 OA 
HETATM   20  O   UNL     1     -10.032  11.467  66.697  1.00  0.00    -0.201 OA 
HETATM   21  C   UNL     1     -10.624  10.150  68.438  1.00  0.00    -0.217 C  
HETATM   22  H   UNL     1     -10.878  11.324  66.289  1.00  0.00     0.000 HD 
HETATM   23  O   UNL     1     -11.989   9.970  68.502  1.00  0.00    -0.490 OA 
HETATM   24  C   UNL     1      -9.746   9.135  68.169  1.00  0.00    -0.174 C  
HETATM   25  C   UNL     1     -10.151   7.826  67.555  1.00  0.00    -0.209 C  
HETATM   26  H   UNL     1     -12.321   9.097  68.675  1.00  0.00     0.000 HD 
HETATM   27  O   UNL     1     -11.285   7.693  67.108  1.00  0.00    -0.020 OA 
HETATM   28  C   UNL     1      -9.082   6.767  67.347  1.00  0.00    -0.117 A  
HETATM   29  C   UNL     1      -7.757   6.940  67.823  1.00  0.00    -0.112 A  
HETATM   30  C   UNL     1      -6.837   5.871  67.693  1.00  0.00    -0.060 A  
HETATM   31  C   UNL     1      -7.375   8.219  68.517  1.00  0.00    -0.093 C  
ENDROOT
BRANCH   4  32
HETATM   32  N   UNL     1      -6.492  12.885  67.950  1.00  0.00    -0.109 NA 
HETATM   33  C   UNL     1      -5.948  12.067  66.857  1.00  0.00    -0.076 C  
HETATM   34  C   UNL     1      -5.892  14.208  67.971  1.00  0.00    -0.135 C  
ENDBRANCH   4  32
BRANCH   7  35
HETATM   35  C   UNL     1      -9.890  14.329  66.160  1.00  0.00    -0.316 C  
HETATM   36  N   UNL     1      -8.839  15.059  65.705  1.00  0.00    -0.224 N  
HETATM   37  O   UNL     1     -10.660  13.822  65.336  1.00  0.00    -0.295 OA 
HETATM   38  H1  UNL     1      -8.755  15.197  64.698  1.00  0.00     0.000 HD 
HETATM   39  H2  UNL     1      -8.155  15.455  66.350  1.00  0.00     0.000 HD 
ENDBRANCH   7  35
TORSDOF 2
ENDMDL
MODEL       61
REMARK 921   NORMALIZED FREE ENERGY PREDICTED BY IDOCK:   -4.97 KCAL/MOL
REMARK 922        TOTAL FREE ENERGY PREDICTED BY IDOCK:   -5.69 KCAL/MOL
REMARK 923 INTER-LIGAND FREE ENERGY PREDICTED BY IDOCK:   -5.85 KCAL/MOL
REMARK 924 INTRA-LIGAND FREE ENERGY PREDICTED BY IDOCK:    0.17 KCAL/MOL
REMARK 927      BINDING AFFINITY PREDICTED BY RF-SCORE:    0.00 PKD
ROOT
HETATM    1  C   UNL     1      -9.291  15.346  66.653  1.00  0.00    -0.288 C  
HETATM    2  C   UNL     1      -9.122  16.522  65.702  1.00  0.00     0.164 C  
HETATM    3  C   UNL     1      -8.340  17.652  66.341  1.00  0.00    -0.288 C  
HETATM    4  C   UNL     1      -9.155  18.747  67.072  1.00  0.00    -0.291 C  
HETATM    5  H   UNL     1      -8.255  10.014  69.273  1.00  0.00     0.000 HD 
HETATM    6  C   UNL     1      -8.113  19.898  67.179  1.00  0.00    -0.306 C  
HETATM    7  C   UNL     1      -7.115  19.683  68.070  1.00  0.00    -0.307 C  
HETATM    8  O   UNL     1      -7.786  20.440  65.929  1.00  0.00    -0.512 OA 
HETATM    9  O   UNL     1      -8.206  10.864  68.851  1.00  0.00    -0.140 OA 
HETATM   10  C   UNL     1      -9.202  11.306  68.028  1.00  0.00    -0.160 A  
HETATM   11  C   UNL     1      -6.354  18.407  67.651  1.00  0.00    -0.191 C  
HETATM   12  H   UNL     1     -12.065  14.273  65.425  1.00  0.00     0.000 HD 
HETATM   13  H   UNL     1      -7.150  21.142  65.995  1.00  0.00     0.000 HD 
HETATM   14  O   UNL     1      -5.129  18.400  67.566  1.00  0.00    -0.142 OA 
HETATM   15  C   UNL     1      -7.255  17.159  67.356  1.00  0.00    -0.154 C  
HETATM   16  C   UNL     1     -10.294  10.456  67.837  1.00  0.00    -0.227 A  
HETATM   17  C   UNL     1     -11.322  10.835  66.990  1.00  0.00    -0.046 A  
HETATM   18 CL   UNL     1     -12.561  12.355  65.218  1.00  0.00    -0.307 Cl 
HETATM   19  O   UNL     1     -11.506  14.899  65.871  1.00  0.00    -0.342 OA 
HETATM   20  O   UNL     1      -7.754  17.016  68.728  1.00  0.00    -0.234 OA 
HETATM   21  C   UNL     1      -6.869  15.704  67.112  1.00  0.00    -0.092 C  
HETATM   22  H   UNL     1      -7.095  16.717  69.344  1.00  0.00     0.000 HD 
HETATM   23  O   UNL     1      -5.586  15.306  67.421  1.00  0.00    -0.338 OA 
HETATM   24  C   UNL     1      -7.922  14.835  67.024  1.00  0.00    -0.139 C  
HETATM   25  C   UNL     1      -7.907  13.449  67.603  1.00  0.00    -0.173 C  
HETATM   26  H   UNL     1      -5.345  14.400  67.268  1.00  0.00     0.000 HD 
HETATM   27  O   UNL     1      -6.987  13.111  68.339  1.00  0.00    -0.087 OA 
HETATM   28  C   UNL     1      -9.129  12.570  67.400  1.00  0.00    -0.185 A  
HETATM   29  C   UNL     1     -10.217  12.981  66.586  1.00  0.00    -0.257 A  
HETATM   30  C   UNL     1     -11.277  12.071  66.350  1.00  0.00    -0.337 A  
HETATM   31  C   UNL     1     -10.191  14.336  65.935  1.00  0.00    -0.324 C  
ENDROOT
BRANCH   4  32
HETATM   32  N   UNL     1     -10.528  19.051  66.661  1.00  0.00    -0.414 NA 
HETATM   33  C   UNL     1     -11.275  19.629  67.786  1.00  0.00     0.311 C  
HETATM   34  C   UNL     1     -10.694  19.841  65.453  1.00  0.00    -0.082 C  
ENDBRANCH   4  32
BRANCH   7  35
HETATM   35  C   UNL     1      -7.639  19.833  69.468  1.00  0.00     0.047 C  
HETATM   36  N   UNL     1      -6.776  20.256  70.427  1.00  0.00    -0.256 N  
HETATM   37  O   UNL     1      -8.821  19.645  69.776  1.00  0.00     0.241 OA 
HETATM   38  H1  UNL     1      -7.132  20.358  71.377  1.00  0.00     0.000 HD 
HETATM   39  H2  UNL     1      -5.803  20.465  70.204  1.00  0.00     0.000 HD 
ENDBRANCH   7  35
TORSDOF 2
ENDMDL
MODEL       62
REMARK 921   NORMALIZED FREE ENERGY PREDICTED BY IDOCK:   -4.95 KCAL/MOL
REMARK 922        TOTAL FREE ENERGY PREDICTED BY IDOCK:   -5.66 KCAL/MOL
REMARK 923 INTER-LIGAND FREE ENERGY PREDICTED BY IDOCK:   -5.21 KCAL/MOL
REMARK 924 INTRA-LIGAND FREE ENERGY PREDICTED BY IDOCK:   -0.46 KCAL/MOL
REMARK 927      BINDING AFFINITY PREDICTED BY RF-SCORE:    0.00 PKD
ROOT
HETATM    1  C   UNL     1      -8.176   6.777  66.480  1.00  0.00    -0.117 C  
HETATM    2  C   UNL     1      -7.470   7.383  67.684  1.00  0.00    -0.097 C  
HETATM    3  C   UNL     1      -8.309   8.457  68.346  1.00  0.00    -0.131 C  
HETATM    4  C   UNL     1      -8.095   9.914  67.866  1.00  0.00    -0.109 C  
HETATM    5  H   UNL     1     -11.467   2.917  63.219  1.00  0.00     0.000 HD 
HETATM    6  C   UNL     1      -8.744  10.726  69.024  1.00  0.00    -0.130 C  
HETATM    7  C   UNL     1     -10.096  10.669  69.073  1.00  0.00    -0.226 C  
HETATM    8  O   UNL     1      -8.028  10.612  70.223  1.00  0.00    -0.360 OA 
HETATM    9  O   UNL     1     -11.090   3.480  63.886  1.00  0.00    -0.312 OA 
HETATM   10  C   UNL     1      -9.754   3.765  63.901  1.00  0.00    -0.164 A  
HETATM   11  C   UNL     1     -10.516   9.194  69.251  1.00  0.00    -0.221 C  
HETATM   12  H   UNL     1      -5.517   5.979  64.854  1.00  0.00     0.000 HD 
HETATM   13  H   UNL     1      -8.424  11.108  70.929  1.00  0.00     0.000 HD 
HETATM   14  O   UNL     1     -11.320   8.865  70.120  1.00  0.00    -0.217 OA 
HETATM   15  C   UNL     1      -9.849   8.186  68.254  1.00  0.00    -0.171 C  
HETATM   16  C   UNL     1      -8.970   3.194  62.895  1.00  0.00    -0.092 A  
HETATM   17  C   UNL     1      -7.604   3.421  62.875  1.00  0.00    -0.055 A  
HETATM   18 CL   UNL     1      -5.288   4.321  63.773  1.00  0.00    -0.012 Cl 
HETATM   19  O   UNL     1      -6.134   6.583  65.250  1.00  0.00    -0.032 OA 
HETATM   20  O   UNL     1     -10.474   8.741  67.048  1.00  0.00    -0.283 OA 
HETATM   21  C   UNL     1     -10.151   6.713  67.997  1.00  0.00    -0.154 C  
HETATM   22  H   UNL     1     -11.408   8.576  66.993  1.00  0.00     0.000 HD 
HETATM   23  O   UNL     1     -11.324   6.188  68.496  1.00  0.00    -0.394 OA 
HETATM   24  C   UNL     1      -9.469   6.159  66.948  1.00  0.00    -0.151 C  
HETATM   25  C   UNL     1     -10.074   5.173  65.990  1.00  0.00    -0.168 C  
HETATM   26  H   UNL     1     -11.512   5.271  68.336  1.00  0.00     0.000 HD 
HETATM   27  O   UNL     1     -11.281   4.962  66.022  1.00  0.00    -0.016 OA 
HETATM   28  C   UNL     1      -9.194   4.603  64.891  1.00  0.00    -0.144 A  
HETATM   29  C   UNL     1      -7.805   4.885  64.826  1.00  0.00    -0.090 A  
HETATM   30  C   UNL     1      -7.020   4.235  63.842  1.00  0.00    -0.045 A  
HETATM   31  C   UNL     1      -7.182   5.804  65.840  1.00  0.00    -0.075 C  
ENDROOT
BRANCH   4  32
HETATM   32  N   UNL     1      -6.801  10.334  67.325  1.00  0.00    -0.080 NA 
HETATM   33  C   UNL     1      -6.817  10.255  65.858  1.00  0.00    -0.125 C  
HETATM   34  C   UNL     1      -6.280  11.612  67.781  1.00  0.00    -0.059 C  
ENDBRANCH   4  32
BRANCH   7  35
HETATM   35  C   UNL     1     -10.682  11.499  67.968  1.00  0.00    -0.202 C  
HETATM   36  N   UNL     1     -10.020  12.628  67.605  1.00  0.00    -0.212 N  
HETATM   37  O   UNL     1     -11.698  11.179  67.341  1.00  0.00    -0.564 OA 
HETATM   38  H1  UNL     1     -10.418  13.192  66.854  1.00  0.00     0.000 HD 
HETATM   39  H2  UNL     1      -9.154  12.902  68.068  1.00  0.00     0.000 HD 
ENDBRANCH   7  35
TORSDOF 2
ENDMDL
MODEL       63
REMARK 921   NORMALIZED FREE ENERGY PREDICTED BY IDOCK:   -4.92 KCAL/MOL
REMARK 922        TOTAL FREE ENERGY PREDICTED BY IDOCK:   -5.64 KCAL/MOL
REMARK 923 INTER-LIGAND FREE ENERGY PREDICTED BY IDOCK:   -5.17 KCAL/MOL
REMARK 924 INTRA-LIGAND FREE ENERGY PREDICTED BY IDOCK:   -0.47 KCAL/MOL
REMARK 927      BINDING AFFINITY PREDICTED BY RF-SCORE:    0.00 PKD
ROOT
HETATM    1  C   UNL     1      -9.402   5.972  66.704  1.00  0.00    -0.156 C  
HETATM    2  C   UNL     1     -10.756   6.314  67.309  1.00  0.00    -0.424 C  
HETATM    3  C   UNL     1     -10.689   7.560  68.169  1.00  0.00    -0.145 C  
HETATM    4  C   UNL     1     -10.403   7.360  69.677  1.00  0.00    -0.223 C  
HETATM    5  H   UNL     1      -4.939   5.681  62.659  1.00  0.00     0.000 HD 
HETATM    6  C   UNL     1     -10.848   8.729  70.268  1.00  0.00    -0.231 C  
HETATM    7  C   UNL     1     -10.024   9.767  69.985  1.00  0.00    -0.299 C  
HETATM    8  O   UNL     1     -12.231   8.929  70.167  1.00  0.00    -0.308 OA 
HETATM    9  O   UNL     1      -5.671   5.921  63.216  1.00  0.00    -0.017 OA 
HETATM   10  C   UNL     1      -6.525   4.978  63.713  1.00  0.00    -0.026 A  
HETATM   11  C   UNL     1      -9.949   9.927  68.452  1.00  0.00    -0.158 C  
HETATM   12  H   UNL     1      -9.879   2.797  66.499  1.00  0.00     0.000 HD 
HETATM   13  H   UNL     1     -12.503   9.765  70.528  1.00  0.00     0.000 HD 
HETATM   14  O   UNL     1     -10.116  11.022  67.921  1.00  0.00    -0.172 OA 
HETATM   15  C   UNL     1      -9.646   8.611  67.658  1.00  0.00    -0.155 C  
HETATM   16  C   UNL     1      -6.274   3.647  63.369  1.00  0.00    -0.015 A  
HETATM   17  C   UNL     1      -7.121   2.649  63.817  1.00  0.00    -0.041 A  
HETATM   18 CL   UNL     1      -9.257   1.638  65.002  1.00  0.00    -0.118 Cl 
HETATM   19  O   UNL     1      -9.767   3.622  66.955  1.00  0.00    -0.197 OA 
HETATM   20  O   UNL     1      -8.299   8.418  68.207  1.00  0.00    -0.128 OA 
HETATM   21  C   UNL     1      -9.311   8.406  66.184  1.00  0.00    -0.201 C  
HETATM   22  H   UNL     1      -7.667   9.056  67.897  1.00  0.00     0.000 HD 
HETATM   23  O   UNL     1      -8.965   9.509  65.432  1.00  0.00    -0.173 OA 
HETATM   24  C   UNL     1      -8.960   7.128  65.844  1.00  0.00    -0.098 C  
HETATM   25  C   UNL     1      -7.874   6.798  64.860  1.00  0.00    -0.119 C  
HETATM   26  H   UNL     1      -8.757   9.382  64.514  1.00  0.00     0.000 HD 
HETATM   27  O   UNL     1      -7.136   7.688  64.452  1.00  0.00    -0.061 OA 
HETATM   28  C   UNL     1      -7.612   5.336  64.541  1.00  0.00    -0.077 A  
HETATM   29  C   UNL     1      -8.438   4.301  65.051  1.00  0.00    -0.117 A  
HETATM   30  C   UNL     1      -8.207   2.969  64.628  1.00  0.00    -0.086 A  
HETATM   31  C   UNL     1      -9.582   4.642  65.967  1.00  0.00    -0.185 C  
ENDROOT
BRANCH   4  32
HETATM   32  N   UNL     1     -10.796   6.120  70.350  1.00  0.00    -0.284 NA 
HETATM   33  C   UNL     1      -9.623   5.259  70.549  1.00  0.00    -0.176 C  
HETATM   34  C   UNL     1     -11.570   6.252  71.573  1.00  0.00    -0.287 C  
ENDBRANCH   4  32
BRANCH   7  35
HETATM   35  C   UNL     1      -8.771   9.659  70.803  1.00  0.00     0.116 C  
HETATM   36  N   UNL     1      -7.639  10.219  70.304  1.00  0.00    -0.272 N  
HETATM   37  O   UNL     1      -8.731   9.138  71.923  1.00  0.00    -0.336 OA 
HETATM   38  H1  UNL     1      -6.787  10.146  70.860  1.00  0.00     0.000 HD 
HETATM   39  H2  UNL     1      -7.641  10.698  69.404  1.00  0.00     0.000 HD 
ENDBRANCH   7  35
TORSDOF 2
ENDMDL
MODEL       64
REMARK 921   NORMALIZED FREE ENERGY PREDICTED BY IDOCK:   -4.83 KCAL/MOL
REMARK 922        TOTAL FREE ENERGY PREDICTED BY IDOCK:   -5.53 KCAL/MOL
REMARK 923 INTER-LIGAND FREE ENERGY PREDICTED BY IDOCK:   -5.12 KCAL/MOL
REMARK 924 INTRA-LIGAND FREE ENERGY PREDICTED BY IDOCK:   -0.41 KCAL/MOL
REMARK 927      BINDING AFFINITY PREDICTED BY RF-SCORE:    0.00 PKD
ROOT
HETATM    1  C   UNL     1     -10.032   8.596  69.359  1.00  0.00    -0.197 C  
HETATM    2  C   UNL     1     -10.761   9.017  68.091  1.00  0.00    -0.165 C  
HETATM    3  C   UNL     1      -9.982  10.057  67.313  1.00  0.00    -0.245 C  
HETATM    4  C   UNL     1     -10.287  11.543  67.622  1.00  0.00    -0.186 C  
HETATM    5  H   UNL     1      -6.547   5.339  73.048  1.00  0.00     0.000 HD 
HETATM    6  C   UNL     1      -9.677  12.257  66.381  1.00  0.00    -0.234 C  
HETATM    7  C   UNL     1      -8.323  12.275  66.343  1.00  0.00     0.157 C  
HETATM    8  O   UNL     1     -10.373  11.963  65.201  1.00  0.00    -0.257 OA 
HETATM    9  O   UNL     1      -6.951   5.799  72.321  1.00  0.00    -0.078 OA 
HETATM   10  C   UNL     1      -8.301   5.999  72.270  1.00  0.00    -0.113 A  
HETATM   11  C   UNL     1      -7.814  10.818  66.336  1.00  0.00    -0.148 C  
HETATM   12  H   UNL     1     -12.654   7.830  71.058  1.00  0.00     0.000 HD 
HETATM   13  H   UNL     1     -10.001  12.399  64.444  1.00  0.00     0.000 HD 
HETATM   14  O   UNL     1      -6.984  10.442  65.512  1.00  0.00    -0.139 OA 
HETATM   15  C   UNL     1      -8.429   9.892  67.439  1.00  0.00    -0.118 C  
HETATM   16  C   UNL     1      -9.060   5.500  73.332  1.00  0.00    -0.129 A  
HETATM   17  C   UNL     1     -10.437   5.645  73.322  1.00  0.00    -0.256 A  
HETATM   18 CL   UNL     1     -12.794   6.295  72.321  1.00  0.00    -0.031 Cl 
HETATM   19  O   UNL     1     -12.071   8.420  70.597  1.00  0.00    -0.140 OA 
HETATM   20  O   UNL     1      -7.851  10.618  68.575  1.00  0.00    -0.102 OA 
HETATM   21  C   UNL     1      -8.043   8.479  67.864  1.00  0.00    -0.115 C  
HETATM   22  H   UNL     1      -6.909  10.517  68.652  1.00  0.00     0.000 HD 
HETATM   23  O   UNL     1      -6.836   7.972  67.432  1.00  0.00    -0.067 OA 
HETATM   24  C   UNL     1      -8.700   8.008  68.968  1.00  0.00    -0.137 C  
HETATM   25  C   UNL     1      -8.046   7.176  70.034  1.00  0.00    -0.127 C  
HETATM   26  H   UNL     1      -6.595   7.092  67.696  1.00  0.00     0.000 HD 
HETATM   27  O   UNL     1      -6.828   7.036  70.030  1.00  0.00    -0.054 OA 
HETATM   28  C   UNL     1      -8.901   6.683  71.189  1.00  0.00    -0.137 A  
HETATM   29  C   UNL     1     -10.305   6.886  71.217  1.00  0.00    -0.221 A  
HETATM   30  C   UNL     1     -11.060   6.307  72.267  1.00  0.00    -0.271 A  
HETATM   31  C   UNL     1     -10.972   7.644  70.103  1.00  0.00    -0.246 C  
ENDROOT
BRANCH   4  32
HETATM   32  N   UNL     1     -11.609  11.944  68.109  1.00  0.00    -0.328 NA 
HETATM   33  C   UNL     1     -11.663  11.837  69.573  1.00  0.00    -0.343 C  
HETATM   34  C   UNL     1     -12.118  13.226  67.652  1.00  0.00    -0.249 C  
ENDBRANCH   4  32
BRANCH   7  35
HETATM   35  C   UNL     1      -7.799  13.260  67.346  1.00  0.00    -0.153 C  
HETATM   36  N   UNL     1      -6.519  13.111  67.773  1.00  0.00    -0.138 N  
HETATM   37  O   UNL     1      -8.452  14.225  67.758  1.00  0.00    -0.154 OA 
HETATM   38  H1  UNL     1      -6.162  13.780  68.455  1.00  0.00     0.000 HD 
HETATM   39  H2  UNL     1      -5.932  12.354  67.422  1.00  0.00     0.000 HD 
ENDBRANCH   7  35
TORSDOF 2
ENDMDL
MODEL       65
REMARK 921   NORMALIZED FREE ENERGY PREDICTED BY IDOCK:   -4.81 KCAL/MOL
REMARK 922        TOTAL FREE ENERGY PREDICTED BY IDOCK:   -5.51 KCAL/MOL
REMARK 923 INTER-LIGAND FREE ENERGY PREDICTED BY IDOCK:   -5.63 KCAL/MOL
REMARK 924 INTRA-LIGAND FREE ENERGY PREDICTED BY IDOCK:    0.12 KCAL/MOL
REMARK 927      BINDING AFFINITY PREDICTED BY RF-SCORE:    0.00 PKD
ROOT
HETATM    1  C   UNL     1      -9.934   7.460  68.180  1.00  0.00    -0.190 C  
HETATM    2  C   UNL     1      -9.927   6.100  67.497  1.00  0.00    -0.159 C  
HETATM    3  C   UNL     1      -9.351   5.024  68.394  1.00  0.00    -0.163 C  
HETATM    4  C   UNL     1      -7.831   4.752  68.282  1.00  0.00    -0.081 C  
HETATM    5  H   UNL     1     -11.993  12.217  71.262  1.00  0.00     0.000 HD 
HETATM    6  C   UNL     1      -7.708   3.359  68.965  1.00  0.00    -0.051 C  
HETATM    7  C   UNL     1      -7.869   3.367  70.310  1.00  0.00    -0.048 C  
HETATM    8  O   UNL     1      -8.329   2.345  68.225  1.00  0.00    -0.057 OA 
HETATM    9  O   UNL     1     -11.790  11.357  70.912  1.00  0.00    -0.258 OA 
HETATM   10  C   UNL     1     -11.460  11.185  69.597  1.00  0.00    -0.310 A  
HETATM   11  C   UNL     1      -9.276   3.916  70.630  1.00  0.00    -0.127 C  
HETATM   12  H   UNL     1      -9.693   9.223  65.499  1.00  0.00     0.000 HD 
HETATM   13  H   UNL     1      -8.254   1.495  68.642  1.00  0.00     0.000 HD 
HETATM   14  O   UNL     1     -10.028   3.321  71.397  1.00  0.00    -0.167 OA 
HETATM   15  C   UNL     1      -9.646   5.260  69.914  1.00  0.00    -0.177 C  
HETATM   16  C   UNL     1     -11.435  12.327  68.793  1.00  0.00    -0.360 A  
HETATM   17  C   UNL     1     -11.137  12.213  67.445  1.00  0.00    -0.330 A  
HETATM   18 CL   UNL     1     -10.622  10.956  65.179  1.00  0.00    -0.310 Cl 
HETATM   19  O   UNL     1      -9.391   8.599  66.148  1.00  0.00    -0.200 OA 
HETATM   20  O   UNL     1      -8.627   6.070  70.592  1.00  0.00    -0.131 OA 
HETATM   21  C   UNL     1     -10.837   6.189  70.123  1.00  0.00    -0.329 C  
HETATM   22  H   UNL     1      -8.806   6.213  71.514  1.00  0.00     0.000 HD 
HETATM   23  O   UNL     1     -11.610   6.019  71.252  1.00  0.00    -0.256 OA 
HETATM   24  C   UNL     1     -10.783   7.363  69.422  1.00  0.00    -0.220 C  
HETATM   25  C   UNL     1     -11.234   8.684  69.977  1.00  0.00    -0.094 C  
HETATM   26  H   UNL     1     -12.352   6.597  71.381  1.00  0.00     0.000 HD 
HETATM   27  O   UNL     1     -11.512   8.777  71.167  1.00  0.00    -0.263 OA 
HETATM   28  C   UNL     1     -11.157   9.907  69.078  1.00  0.00    -0.184 A  
HETATM   29  C   UNL     1     -10.789   9.806  67.711  1.00  0.00    -0.306 A  
HETATM   30  C   UNL     1     -10.842  10.966  66.900  1.00  0.00    -0.249 A  
HETATM   31  C   UNL     1     -10.422   8.466  67.134  1.00  0.00    -0.310 C  
ENDROOT
BRANCH   4  32
HETATM   32  N   UNL     1      -7.121   5.007  67.027  1.00  0.00    -0.071 NA 
HETATM   33  C   UNL     1      -7.943   4.580  65.887  1.00  0.00    -0.099 C  
HETATM   34  C   UNL     1      -6.594   6.346  66.828  1.00  0.00    -0.051 C  
ENDBRANCH   4  32
BRANCH   7  35
HETATM   35  C   UNL     1      -6.654   3.957  70.965  1.00  0.00    -0.031 C  
HETATM   36  N   UNL     1      -5.449   3.736  70.381  1.00  0.00    -0.011 N  
HETATM   37  O   UNL     1      -6.703   4.673  71.971  1.00  0.00    -0.039 OA 
HETATM   38  H1  UNL     1      -4.623   4.137  70.826  1.00  0.00     0.000 HD 
HETATM   39  H2  UNL     1      -5.371   3.188  69.524  1.00  0.00     0.000 HD 
ENDBRANCH   7  35
TORSDOF 2
ENDMDL
MODEL       66
REMARK 921   NORMALIZED FREE ENERGY PREDICTED BY IDOCK:   -4.78 KCAL/MOL
REMARK 922        TOTAL FREE ENERGY PREDICTED BY IDOCK:   -5.48 KCAL/MOL
REMARK 923 INTER-LIGAND FREE ENERGY PREDICTED BY IDOCK:   -6.06 KCAL/MOL
REMARK 924 INTRA-LIGAND FREE ENERGY PREDICTED BY IDOCK:    0.58 KCAL/MOL
REMARK 927      BINDING AFFINITY PREDICTED BY RF-SCORE:    0.00 PKD
ROOT
HETATM    1  C   UNL     1      -8.394  12.954  67.961  1.00  0.00    -0.169 C  
HETATM    2  C   UNL     1      -7.979  14.134  68.827  1.00  0.00    -0.102 C  
HETATM    3  C   UNL     1      -8.827  15.359  68.552  1.00  0.00    -0.183 C  
HETATM    4  C   UNL     1      -8.308  16.349  67.480  1.00  0.00    -0.161 C  
HETATM    5  H   UNL     1     -11.112   7.818  66.348  1.00  0.00     0.000 HD 
HETATM    6  C   UNL     1      -9.145  17.623  67.795  1.00  0.00    -0.247 C  
HETATM    7  C   UNL     1     -10.455  17.542  67.458  1.00  0.00    -0.355 C  
HETATM    8  O   UNL     1      -8.808  18.190  69.031  1.00  0.00    -0.167 OA 
HETATM    9  O   UNL     1     -10.866   8.664  66.705  1.00  0.00    -0.145 OA 
HETATM   10  C   UNL     1      -9.562   8.969  66.971  1.00  0.00    -0.176 A  
HETATM   11  C   UNL     1     -11.088  16.369  68.235  1.00  0.00    -0.337 C  
HETATM   12  H   UNL     1      -5.511  11.529  67.867  1.00  0.00     0.000 HD 
HETATM   13  H   UNL     1      -9.319  18.968  69.223  1.00  0.00     0.000 HD 
HETATM   14  O   UNL     1     -12.135  16.516  68.861  1.00  0.00     0.106 OA 
HETATM   15  C   UNL     1     -10.303  15.015  68.156  1.00  0.00    -0.239 C  
HETATM   16  C   UNL     1      -8.608   7.987  66.695  1.00  0.00    -0.141 A  
HETATM   17  C   UNL     1      -7.273   8.226  66.971  1.00  0.00    -0.083 A  
HETATM   18 CL   UNL     1      -5.201   9.562  67.923  1.00  0.00    -0.037 Cl 
HETATM   19  O   UNL     1      -6.133  12.224  67.688  1.00  0.00    -0.088 OA 
HETATM   20  O   UNL     1     -10.496  14.821  66.715  1.00  0.00    -0.274 OA 
HETATM   21  C   UNL     1     -10.703  13.618  68.618  1.00  0.00    -0.256 C  
HETATM   22  H   UNL     1     -11.391  14.613  66.475  1.00  0.00     0.000 HD 
HETATM   23  O   UNL     1     -12.025  13.387  68.937  1.00  0.00    -0.330 OA 
HETATM   24  C   UNL     1      -9.833  12.622  68.267  1.00  0.00    -0.227 C  
HETATM   25  C   UNL     1     -10.268  11.255  67.825  1.00  0.00    -0.180 C  
HETATM   26  H   UNL     1     -12.274  12.517  69.226  1.00  0.00     0.000 HD 
HETATM   27  O   UNL     1     -11.454  11.041  67.597  1.00  0.00    -0.445 OA 
HETATM   28  C   UNL     1      -9.197  10.227  67.502  1.00  0.00    -0.153 A  
HETATM   29  C   UNL     1      -7.820  10.490  67.722  1.00  0.00    -0.104 A  
HETATM   30  C   UNL     1      -6.881   9.453  67.503  1.00  0.00    -0.076 A  
HETATM   31  C   UNL     1      -7.392  11.833  68.248  1.00  0.00    -0.095 C  
ENDROOT
BRANCH   4  32
HETATM   32  N   UNL     1      -6.873  16.474  67.217  1.00  0.00    -0.159 NA 
HETATM   33  C   UNL     1      -6.596  17.735  66.516  1.00  0.00    -0.221 C  
HETATM   34  C   UNL     1      -5.978  16.288  68.347  1.00  0.00    -0.106 C  
ENDBRANCH   4  32
BRANCH   7  35
HETATM   35  C   UNL     1     -10.603  17.637  65.968  1.00  0.00    -0.220 C  
HETATM   36  N   UNL     1     -10.737  18.873  65.421  1.00  0.00    -0.087 N  
HETATM   37  O   UNL     1     -10.555  16.658  65.215  1.00  0.00    -0.596 OA 
HETATM   38  H1  UNL     1     -10.838  18.937  64.408  1.00  0.00     0.000 HD 
HETATM   39  H2  UNL     1     -10.736  19.709  66.005  1.00  0.00     0.000 HD 
ENDBRANCH   7  35
TORSDOF 2
ENDMDL
MODEL       67
REMARK 921   NORMALIZED FREE ENERGY PREDICTED BY IDOCK:   -4.69 KCAL/MOL
REMARK 922        TOTAL FREE ENERGY PREDICTED BY IDOCK:   -5.38 KCAL/MOL
REMARK 923 INTER-LIGAND FREE ENERGY PREDICTED BY IDOCK:   -4.99 KCAL/MOL
REMARK 924 INTRA-LIGAND FREE ENERGY PREDICTED BY IDOCK:   -0.39 KCAL/MOL
REMARK 927      BINDING AFFINITY PREDICTED BY RF-SCORE:    0.00 PKD
ROOT
HETATM    1  C   UNL     1      -9.413   9.130  68.052  1.00  0.00    -0.157 C  
HETATM    2  C   UNL     1      -8.530   7.990  68.538  1.00  0.00    -0.128 C  
HETATM    3  C   UNL     1      -7.840   7.284  67.389  1.00  0.00    -0.112 C  
HETATM    4  C   UNL     1      -8.566   6.061  66.776  1.00  0.00    -0.110 C  
HETATM    5  H   UNL     1     -11.126  14.741  66.658  1.00  0.00     0.000 HD 
HETATM    6  C   UNL     1      -7.412   5.367  65.995  1.00  0.00    -0.082 C  
HETATM    7  C   UNL     1      -7.013   6.016  64.875  1.00  0.00    -0.055 C  
HETATM    8  O   UNL     1      -6.433   4.840  66.846  1.00  0.00    -0.042 OA 
HETATM    9  O   UNL     1     -10.668  13.921  66.803  1.00  0.00    -0.279 OA 
HETATM   10  C   UNL     1     -11.036  13.070  67.805  1.00  0.00    -0.251 A  
HETATM   11  C   UNL     1      -6.520   7.423  65.275  1.00  0.00    -0.041 C  
HETATM   12  H   UNL     1     -11.529   9.020  70.474  1.00  0.00     0.000 HD 
HETATM   13  H   UNL     1      -5.729   4.417  66.369  1.00  0.00     0.000 HD 
HETATM   14  O   UNL     1      -5.437   7.850  64.883  1.00  0.00    -0.032 OA 
HETATM   15  C   UNL     1      -7.496   8.235  66.194  1.00  0.00    -0.081 C  
HETATM   16  C   UNL     1     -12.113  13.457  68.606  1.00  0.00    -0.281 A  
HETATM   17  C   UNL     1     -12.514  12.650  69.657  1.00  0.00     0.120 A  
HETATM   18 CL   UNL     1     -12.378  10.607  71.328  1.00  0.00    -0.484 Cl 
HETATM   19  O   UNL     1     -11.080   8.683  69.707  1.00  0.00    -0.190 OA 
HETATM   20  O   UNL     1      -8.570   8.346  65.200  1.00  0.00    -0.223 OA 
HETATM   21  C   UNL     1      -7.450   9.697  66.627  1.00  0.00    -0.094 C  
HETATM   22  H   UNL     1      -8.361   8.923  64.475  1.00  0.00     0.000 HD 
HETATM   23  O   UNL     1      -6.597  10.551  65.961  1.00  0.00    -0.111 OA 
HETATM   24  C   UNL     1      -8.545  10.126  67.325  1.00  0.00    -0.125 C  
HETATM   25  C   UNL     1      -9.163  11.484  67.151  1.00  0.00    -0.169 C  
HETATM   26  H   UNL     1      -6.568  11.461  66.231  1.00  0.00     0.000 HD 
HETATM   27  O   UNL     1      -8.794  12.203  66.229  1.00  0.00    -0.154 OA 
HETATM   28  C   UNL     1     -10.354  11.851  68.019  1.00  0.00    -0.209 A  
HETATM   29  C   UNL     1     -10.812  10.998  69.057  1.00  0.00    -0.274 A  
HETATM   30  C   UNL     1     -11.858  11.446  69.900  1.00  0.00    -0.359 A  
HETATM   31  C   UNL     1     -10.135   9.674  69.287  1.00  0.00    -0.193 C  
ENDROOT
BRANCH   4  32
HETATM   32  N   UNL     1      -9.475   5.252  67.591  1.00  0.00    -0.118 NA 
HETATM   33  C   UNL     1     -10.837   5.799  67.523  1.00  0.00    -0.174 C  
HETATM   34  C   UNL     1      -9.468   3.817  67.359  1.00  0.00    -0.196 C  
ENDBRANCH   4  32
BRANCH   7  35
HETATM   35  C   UNL     1      -8.040   5.848  63.794  1.00  0.00    -0.095 C  
HETATM   36  N   UNL     1      -8.807   4.728  63.818  1.00  0.00    -0.210 N  
HETATM   37  O   UNL     1      -8.258   6.697  62.923  1.00  0.00    -0.081 OA 
HETATM   38  H1  UNL     1      -9.506   4.613  63.084  1.00  0.00     0.000 HD 
HETATM   39  H2  UNL     1      -8.689   4.024  64.546  1.00  0.00     0.000 HD 
ENDBRANCH   7  35
TORSDOF 2
ENDMDL
MODEL       68
REMARK 921   NORMALIZED FREE ENERGY PREDICTED BY IDOCK:   -4.64 KCAL/MOL
REMARK 922        TOTAL FREE ENERGY PREDICTED BY IDOCK:   -5.32 KCAL/MOL
REMARK 923 INTER-LIGAND FREE ENERGY PREDICTED BY IDOCK:   -5.98 KCAL/MOL
REMARK 924 INTRA-LIGAND FREE ENERGY PREDICTED BY IDOCK:    0.65 KCAL/MOL
REMARK 927      BINDING AFFINITY PREDICTED BY RF-SCORE:    0.00 PKD
ROOT
HETATM    1  C   UNL     1      -7.939  12.534  67.864  1.00  0.00    -0.157 C  
HETATM    2  C   UNL     1      -7.104  11.261  67.874  1.00  0.00    -0.078 C  
HETATM    3  C   UNL     1      -7.944  10.041  68.193  1.00  0.00    -0.100 C  
HETATM    4  C   UNL     1      -8.049   9.627  69.681  1.00  0.00    -0.141 C  
HETATM    5  H   UNL     1     -11.205  17.123  65.710  1.00  0.00     0.000 HD 
HETATM    6  C   UNL     1      -8.567   8.163  69.566  1.00  0.00    -0.134 C  
HETATM    7  C   UNL     1      -9.859   8.045  69.175  1.00  0.00    -0.178 C  
HETATM    8  O   UNL     1      -7.617   7.304  68.999  1.00  0.00    -0.095 OA 
HETATM    9  O   UNL     1     -10.790  16.289  65.898  1.00  0.00    -0.252 OA 
HETATM   10  C   UNL     1      -9.535  16.225  66.435  1.00  0.00    -0.294 A  
HETATM   11  C   UNL     1     -10.010   8.700  67.786  1.00  0.00    -0.190 C  
HETATM   12  H   UNL     1      -5.570  14.538  68.714  1.00  0.00     0.000 HD 
HETATM   13  H   UNL     1      -7.933   6.411  68.929  1.00  0.00     0.000 HD 
HETATM   14  O   UNL     1     -10.566   8.108  66.864  1.00  0.00    -0.329 OA 
HETATM   15  C   UNL     1      -9.414  10.143  67.660  1.00  0.00    -0.148 C  
HETATM   16  C   UNL     1      -8.892  17.437  66.696  1.00  0.00    -0.278 A  
HETATM   17  C   UNL     1      -7.607  17.437  67.212  1.00  0.00    -0.214 A  
HETATM   18 CL   UNL     1      -5.318  16.382  68.004  1.00  0.00    -0.107 Cl 
HETATM   19  O   UNL     1      -6.178  13.820  68.846  1.00  0.00    -0.082 OA 
HETATM   20  O   UNL     1     -10.342  10.766  68.610  1.00  0.00    -0.174 OA 
HETATM   21  C   UNL     1      -9.538  11.164  66.534  1.00  0.00    -0.197 C  
HETATM   22  H   UNL     1     -11.233  10.828  68.287  1.00  0.00     0.000 HD 
HETATM   23  O   UNL     1     -10.497  10.956  65.565  1.00  0.00    -0.261 OA 
HETATM   24  C   UNL     1      -9.005  12.394  66.808  1.00  0.00    -0.205 C  
HETATM   25  C   UNL     1      -9.637  13.688  66.380  1.00  0.00    -0.268 C  
HETATM   26  H   UNL     1     -10.575  11.591  64.863  1.00  0.00     0.000 HD 
HETATM   27  O   UNL     1     -10.768  13.682  65.908  1.00  0.00    -0.276 OA 
HETATM   28  C   UNL     1      -8.919  14.985  66.714  1.00  0.00    -0.293 A  
HETATM   29  C   UNL     1      -7.629  14.992  67.304  1.00  0.00    -0.227 A  
HETATM   30  C   UNL     1      -6.968  16.232  67.491  1.00  0.00    -0.156 A  
HETATM   31  C   UNL     1      -6.959  13.691  67.652  1.00  0.00    -0.172 C  
ENDROOT
BRANCH   4  32
HETATM   32  N   UNL     1      -6.966   9.939  70.617  1.00  0.00    -0.278 NA 
HETATM   33  C   UNL     1      -7.073   9.092  71.813  1.00  0.00     0.067 C  
HETATM   34  C   UNL     1      -5.615   9.937  70.085  1.00  0.00    -0.044 C  
ENDBRANCH   4  32
BRANCH   7  35
HETATM   35  C   UNL     1     -10.769   8.432  70.303  1.00  0.00    -0.234 C  
HETATM   36  N   UNL     1     -10.409   9.489  71.076  1.00  0.00    -0.302 N  
HETATM   37  O   UNL     1     -11.850   7.875  70.527  1.00  0.00    -0.176 OA 
HETATM   38  H1  UNL     1     -11.028   9.752  71.842  1.00  0.00     0.000 HD 
HETATM   39  H2  UNL     1      -9.547  10.003  70.895  1.00  0.00     0.000 HD 
ENDBRANCH   7  35
TORSDOF 2
ENDMDL
MODEL       69
REMARK 921   NORMALIZED FREE ENERGY PREDICTED BY IDOCK:   -4.30 KCAL/MOL
REMARK 922        TOTAL FREE ENERGY PREDICTED BY IDOCK:   -4.94 KCAL/MOL
REMARK 923 INTER-LIGAND FREE ENERGY PREDICTED BY IDOCK:   -4.66 KCAL/MOL
REMARK 924 INTRA-LIGAND FREE ENERGY PREDICTED BY IDOCK:   -0.27 KCAL/MOL
REMARK 927      BINDING AFFINITY PREDICTED BY RF-SCORE:    0.00 PKD
ROOT
HETATM    1  C   UNL     1      -8.254   6.933  68.409  1.00  0.00    -0.120 C  
HETATM    2  C   UNL     1      -7.012   6.734  67.554  1.00  0.00    -0.083 C  
HETATM    3  C   UNL     1      -6.841   7.850  66.543  1.00  0.00    -0.070 C  
HETATM    4  C   UNL     1      -7.471   7.636  65.144  1.00  0.00    -0.088 C  
HETATM    5  H   UNL     1     -11.672   8.540  73.110  1.00  0.00     0.000 HD 
HETATM    6  C   UNL     1      -6.732   8.713  64.297  1.00  0.00    -0.074 C  
HETATM    7  C   UNL     1      -7.102   9.991  64.552  1.00  0.00    -0.139 C  
HETATM    8  O   UNL     1      -5.369   8.430  64.146  1.00  0.00    -0.047 OA 
HETATM    9  O   UNL     1     -11.027   8.466  72.416  1.00  0.00    -0.339 OA 
HETATM   10  C   UNL     1     -10.643   7.248  71.932  1.00  0.00    -0.212 A  
HETATM   11  C   UNL     1      -6.815  10.295  66.039  1.00  0.00    -0.119 C  
HETATM   12  H   UNL     1      -8.802   3.817  68.997  1.00  0.00     0.000 HD 
HETATM   13  H   UNL     1      -4.918   9.087  63.629  1.00  0.00     0.000 HD 
HETATM   14  O   UNL     1      -6.199  11.305  66.371  1.00  0.00    -0.139 OA 
HETATM   15  C   UNL     1      -7.363   9.235  67.054  1.00  0.00    -0.091 C  
HETATM   16  C   UNL     1     -11.238   6.120  72.502  1.00  0.00    -0.327 A  
HETATM   17  C   UNL     1     -10.867   4.856  72.075  1.00  0.00    -0.099 A  
HETATM   18 CL   UNL     1      -9.455   3.075  70.727  1.00  0.00    -0.224 Cl 
HETATM   19  O   UNL     1      -8.728   4.589  68.448  1.00  0.00    -0.096 OA 
HETATM   20  O   UNL     1      -8.781   9.475  66.760  1.00  0.00    -0.126 OA 
HETATM   21  C   UNL     1      -7.446   9.283  68.576  1.00  0.00    -0.081 C  
HETATM   22  H   UNL     1      -9.097  10.315  67.070  1.00  0.00     0.000 HD 
HETATM   23  O   UNL     1      -7.259  10.496  69.204  1.00  0.00    -0.078 OA 
HETATM   24  C   UNL     1      -8.117   8.238  69.151  1.00  0.00    -0.120 C  
HETATM   25  C   UNL     1      -9.033   8.386  70.332  1.00  0.00    -0.148 C  
HETATM   26  H   UNL     1      -7.310  10.526  70.152  1.00  0.00     0.000 HD 
HETATM   27  O   UNL     1      -9.346   9.507  70.717  1.00  0.00    -0.245 OA 
HETATM   28  C   UNL     1      -9.686   7.137  70.899  1.00  0.00    -0.170 A  
HETATM   29  C   UNL     1      -9.359   5.842  70.420  1.00  0.00    -0.181 A  
HETATM   30  C   UNL     1      -9.920   4.712  71.064  1.00  0.00    -0.200 A  
HETATM   31  C   UNL     1      -8.373   5.690  69.294  1.00  0.00    -0.107 C  
ENDROOT
BRANCH   4  32
HETATM   32  N   UNL     1      -7.643   6.285  64.605  1.00  0.00    -0.090 NA 
HETATM   33  C   UNL     1      -8.146   6.352  63.227  1.00  0.00    -0.038 C  
HETATM   34  C   UNL     1      -6.508   5.384  64.713  1.00  0.00    -0.038 C  
ENDBRANCH   4  32
BRANCH   7  35
HETATM   35  C   UNL     1      -8.459  10.255  63.969  1.00  0.00    -0.176 C  
HETATM   36  N   UNL     1      -9.199  11.255  64.514  1.00  0.00    -0.378 N  
HETATM   37  O   UNL     1      -8.909   9.650  62.990  1.00  0.00    -0.219 OA 
HETATM   38  H1  UNL     1     -10.122  11.435  64.117  1.00  0.00     0.000 HD 
HETATM   39  H2  UNL     1      -8.844  11.808  65.294  1.00  0.00     0.000 HD 
ENDBRANCH   7  35
TORSDOF 2
ENDMDL
MODEL       70
REMARK 921   NORMALIZED FREE ENERGY PREDICTED BY IDOCK:   -4.29 KCAL/MOL
REMARK 922        TOTAL FREE ENERGY PREDICTED BY IDOCK:   -4.93 KCAL/MOL
REMARK 923 INTER-LIGAND FREE ENERGY PREDICTED BY IDOCK:   -4.64 KCAL/MOL
REMARK 924 INTRA-LIGAND FREE ENERGY PREDICTED BY IDOCK:   -0.29 KCAL/MOL
REMARK 927      BINDING AFFINITY PREDICTED BY RF-SCORE:    0.00 PKD
ROOT
HETATM    1  C   UNL     1      -8.015   6.768  69.466  1.00  0.00    -0.125 C  
HETATM    2  C   UNL     1      -7.692   7.178  68.037  1.00  0.00    -0.113 C  
HETATM    3  C   UNL     1      -8.219   6.174  67.032  1.00  0.00    -0.106 C  
HETATM    4  C   UNL     1      -7.261   5.036  66.603  1.00  0.00    -0.081 C  
HETATM    5  H   UNL     1     -10.910   6.528  74.751  1.00  0.00     0.000 HD 
HETATM    6  C   UNL     1      -7.943   4.521  65.302  1.00  0.00    -0.098 C  
HETATM    7  C   UNL     1      -9.092   3.830  65.496  1.00  0.00    -0.146 C  
HETATM    8  O   UNL     1      -7.898   5.464  64.268  1.00  0.00    -0.090 OA 
HETATM    9  O   UNL     1     -10.650   6.579  73.838  1.00  0.00    -0.310 OA 
HETATM   10  C   UNL     1      -9.450   7.118  73.471  1.00  0.00    -0.209 A  
HETATM   11  C   UNL     1     -10.101   4.752  66.214  1.00  0.00    -0.264 C  
HETATM   12  H   UNL     1      -5.490   8.210  70.845  1.00  0.00     0.000 HD 
HETATM   13  H   UNL     1      -8.314   5.150  63.474  1.00  0.00     0.000 HD 
HETATM   14  O   UNL     1     -11.248   4.881  65.796  1.00  0.00    -0.092 OA 
HETATM   15  C   UNL     1      -9.549   5.482  67.485  1.00  0.00    -0.122 C  
HETATM   16  C   UNL     1      -8.623   7.588  74.494  1.00  0.00    -0.204 A  
HETATM   17  C   UNL     1      -7.407   8.173  74.182  1.00  0.00    -0.221 A  
HETATM   18 CL   UNL     1      -5.523   9.144  72.604  1.00  0.00    -0.080 Cl 
HETATM   19  O   UNL     1      -5.916   7.575  70.281  1.00  0.00    -0.024 OA 
HETATM   20  O   UNL     1      -9.339   4.262  68.273  1.00  0.00    -0.133 OA 
HETATM   21  C   UNL     1     -10.281   6.300  68.544  1.00  0.00    -0.176 C  
HETATM   22  H   UNL     1     -10.146   3.843  68.548  1.00  0.00     0.000 HD 
HETATM   23  O   UNL     1     -11.657   6.226  68.594  1.00  0.00    -0.443 OA 
HETATM   24  C   UNL     1      -9.513   6.685  69.610  1.00  0.00    -0.144 C  
HETATM   25  C   UNL     1     -10.008   6.706  71.027  1.00  0.00    -0.183 C  
HETATM   26  H   UNL     1     -12.113   6.736  69.253  1.00  0.00     0.000 HD 
HETATM   27  O   UNL     1     -11.093   6.202  71.297  1.00  0.00    -0.273 OA 
HETATM   28  C   UNL     1      -9.064   7.193  72.113  1.00  0.00    -0.143 A  
HETATM   29  C   UNL     1      -7.789   7.733  71.806  1.00  0.00    -0.098 A  
HETATM   30  C   UNL     1      -7.001   8.270  72.854  1.00  0.00    -0.099 A  
HETATM   31  C   UNL     1      -7.329   7.792  70.374  1.00  0.00    -0.069 C  
ENDROOT
BRANCH   4  32
HETATM   32  N   UNL     1      -5.810   5.237  66.628  1.00  0.00    -0.018 NA 
HETATM   33  C   UNL     1      -5.125   3.952  66.817  1.00  0.00    -0.008 C  
HETATM   34  C   UNL     1      -5.231   5.990  65.528  1.00  0.00    -0.013 C  
ENDBRANCH   4  32
BRANCH   7  35
HETATM   35  C   UNL     1      -8.781   2.468  66.044  1.00  0.00    -0.128 C  
HETATM   36  N   UNL     1      -9.656   1.925  66.929  1.00  0.00    -0.356 N  
HETATM   37  O   UNL     1      -7.804   1.799  65.690  1.00  0.00    -0.070 OA 
HETATM   38  H1  UNL     1      -9.445   0.999  67.300  1.00  0.00     0.000 HD 
HETATM   39  H2  UNL     1     -10.498   2.427  67.211  1.00  0.00     0.000 HD 
ENDBRANCH   7  35
TORSDOF 2
ENDMDL
MODEL       71
REMARK 921   NORMALIZED FREE ENERGY PREDICTED BY IDOCK:   -4.04 KCAL/MOL
REMARK 922        TOTAL FREE ENERGY PREDICTED BY IDOCK:   -4.65 KCAL/MOL
REMARK 923 INTER-LIGAND FREE ENERGY PREDICTED BY IDOCK:   -6.12 KCAL/MOL
REMARK 924 INTRA-LIGAND FREE ENERGY PREDICTED BY IDOCK:    1.47 KCAL/MOL
REMARK 927      BINDING AFFINITY PREDICTED BY RF-SCORE:    0.00 PKD
ROOT
HETATM    1  C   UNL     1      -8.413  11.835  67.892  1.00  0.00    -0.154 C  
HETATM    2  C   UNL     1      -8.121  13.087  68.706  1.00  0.00     0.086 C  
HETATM    3  C   UNL     1      -8.971  14.259  68.260  1.00  0.00    -0.187 C  
HETATM    4  C   UNL     1      -8.375  15.189  67.175  1.00  0.00    -0.219 C  
HETATM    5  H   UNL     1     -10.805   6.505  66.399  1.00  0.00     0.000 HD 
HETATM    6  C   UNL     1      -9.276  16.451  67.312  1.00  0.00    -0.215 C  
HETATM    7  C   UNL     1     -10.542  16.301  66.853  1.00  0.00    -0.270 C  
HETATM    8  O   UNL     1      -9.082  17.116  68.529  1.00  0.00    -0.251 OA 
HETATM    9  O   UNL     1     -10.621   7.382  66.716  1.00  0.00    -0.310 OA 
HETATM   10  C   UNL     1      -9.360   7.752  67.087  1.00  0.00    -0.150 A  
HETATM   11  C   UNL     1     -11.217  15.162  67.648  1.00  0.00    -0.327 C  
HETATM   12  H   UNL     1      -5.495  10.512  68.188  1.00  0.00     0.000 HD 
HETATM   13  H   UNL     1      -9.632  17.886  68.612  1.00  0.00     0.000 HD 
HETATM   14  O   UNL     1     -12.325  15.315  68.155  1.00  0.00     0.080 OA 
HETATM   15  C   UNL     1     -10.389  13.836  67.746  1.00  0.00    -0.241 C  
HETATM   16  C   UNL     1      -8.355   6.787  66.978  1.00  0.00    -0.114 A  
HETATM   17  C   UNL     1      -7.062   7.094  67.367  1.00  0.00    -0.084 A  
HETATM   18 CL   UNL     1      -5.136   8.566  68.419  1.00  0.00    -0.033 Cl 
HETATM   19  O   UNL     1      -6.115  11.170  67.898  1.00  0.00    -0.049 OA 
HETATM   20  O   UNL     1     -10.430  13.535  66.311  1.00  0.00    -0.281 OA 
HETATM   21  C   UNL     1     -10.794  12.461  68.268  1.00  0.00    -0.237 C  
HETATM   22  H   UNL     1     -11.290  13.278  66.000  1.00  0.00     0.000 HD 
HETATM   23  O   UNL     1     -12.134  12.206  68.471  1.00  0.00    -0.317 OA 
HETATM   24  C   UNL     1      -9.865  11.475  68.079  1.00  0.00    -0.192 C  
HETATM   25  C   UNL     1     -10.214  10.065  67.697  1.00  0.00    -0.204 C  
HETATM   26  H   UNL     1     -12.386  11.350  68.796  1.00  0.00     0.000 HD 
HETATM   27  O   UNL     1     -11.364   9.794  67.369  1.00  0.00    -0.030 OA 
HETATM   28  C   UNL     1      -9.086   9.056  67.557  1.00  0.00    -0.145 A  
HETATM   29  C   UNL     1      -7.747   9.383  67.892  1.00  0.00    -0.088 A  
HETATM   30  C   UNL     1      -6.761   8.367  67.843  1.00  0.00    -0.066 A  
HETATM   31  C   UNL     1      -7.413  10.774  68.359  1.00  0.00    -0.095 C  
ENDROOT
BRANCH   4  32
HETATM   32  N   UNL     1      -6.925  15.347  67.047  1.00  0.00    -0.226 NA 
HETATM   33  C   UNL     1      -6.609  16.660  66.470  1.00  0.00    -0.006 C  
HETATM   34  C   UNL     1      -6.126  15.082  68.231  1.00  0.00    -0.120 C  
ENDBRANCH   4  32
BRANCH   7  35
HETATM   35  C   UNL     1     -10.542  16.285  65.353  1.00  0.00    -0.352 C  
HETATM   36  N   UNL     1     -10.053  15.183  64.730  1.00  0.00    -0.318 N  
HETATM   37  O   UNL     1     -11.013  17.196  64.663  1.00  0.00    -1.005 OA 
HETATM   38  H1  UNL     1     -10.053  15.172  63.710  1.00  0.00     0.000 HD 
HETATM   39  H2  UNL     1      -9.697  14.390  65.264  1.00  0.00     0.000 HD 
ENDBRANCH   7  35
TORSDOF 2
ENDMDL
MODEL       72
REMARK 921   NORMALIZED FREE ENERGY PREDICTED BY IDOCK:   -4.02 KCAL/MOL
REMARK 922        TOTAL FREE ENERGY PREDICTED BY IDOCK:   -4.63 KCAL/MOL
REMARK 923 INTER-LIGAND FREE ENERGY PREDICTED BY IDOCK:   -4.35 KCAL/MOL
REMARK 924 INTRA-LIGAND FREE ENERGY PREDICTED BY IDOCK:   -0.28 KCAL/MOL
REMARK 927      BINDING AFFINITY PREDICTED BY RF-SCORE:    0.00 PKD
ROOT
HETATM    1  C   UNL     1      -9.327   6.723  66.972  1.00  0.00    -0.165 C  
HETATM    2  C   UNL     1     -10.170   5.813  66.091  1.00  0.00    -0.044 C  
HETATM    3  C   UNL     1      -9.772   4.359  66.241  1.00  0.00    -0.224 C  
HETATM    4  C   UNL     1      -8.703   3.817  65.261  1.00  0.00    -0.116 C  
HETATM    5  H   UNL     1      -7.730  10.087  71.715  1.00  0.00     0.000 HD 
HETATM    6  C   UNL     1      -8.891   2.278  65.408  1.00  0.00    -0.123 C  
HETATM    7  C   UNL     1      -8.452   1.760  66.580  1.00  0.00    -0.097 C  
HETATM    8  O   UNL     1     -10.123   1.841  64.906  1.00  0.00    -0.308 OA 
HETATM    9  O   UNL     1      -8.068   9.431  71.116  1.00  0.00    -0.322 OA 
HETATM   10  C   UNL     1      -8.425   9.755  69.838  1.00  0.00    -0.201 A  
HETATM   11  C   UNL     1      -9.227   2.433  67.733  1.00  0.00    -0.192 C  
HETATM   12  H   UNL     1      -9.532   9.338  65.108  1.00  0.00     0.000 HD 
HETATM   13  H   UNL     1     -10.238   0.903  64.995  1.00  0.00     0.000 HD 
HETATM   14  O   UNL     1      -9.758   1.763  68.615  1.00  0.00    -0.145 OA 
HETATM   15  C   UNL     1      -9.273   3.998  67.681  1.00  0.00    -0.160 C  
HETATM   16  C   UNL     1      -8.272  11.088  69.451  1.00  0.00     0.098 A  
HETATM   17  C   UNL     1      -8.646  11.484  68.178  1.00  0.00    -0.156 A  
HETATM   18 CL   UNL     1      -9.702  11.209  65.772  1.00  0.00    -0.249 Cl 
HETATM   19  O   UNL     1      -9.273   8.448  65.316  1.00  0.00    -0.021 OA 
HETATM   20  O   UNL     1      -7.831   4.191  67.869  1.00  0.00    -0.078 OA 
HETATM   21  C   UNL     1      -9.764   5.003  68.719  1.00  0.00    -0.161 C  
HETATM   22  H   UNL     1      -7.528   3.972  68.743  1.00  0.00     0.000 HD 
HETATM   23  O   UNL     1      -9.984   4.559  70.006  1.00  0.00    -0.220 OA 
HETATM   24  C   UNL     1      -9.530   6.315  68.408  1.00  0.00    -0.118 C  
HETATM   25  C   UNL     1      -9.115   7.347  69.417  1.00  0.00    -0.139 C  
HETATM   26  H   UNL     1     -10.290   5.184  70.652  1.00  0.00     0.000 HD 
HETATM   27  O   UNL     1      -8.801   6.995  70.549  1.00  0.00    -0.152 OA 
HETATM   28  C   UNL     1      -8.927   8.779  68.947  1.00  0.00    -0.134 A  
HETATM   29  C   UNL     1      -9.246   9.178  67.623  1.00  0.00    -0.143 A  
HETATM   30  C   UNL     1      -9.151  10.548  67.279  1.00  0.00    -0.143 A  
HETATM   31  C   UNL     1      -9.745   8.158  66.637  1.00  0.00    -0.248 C  
ENDROOT
BRANCH   4  32
HETATM   32  N   UNL     1      -8.553   4.402  63.927  1.00  0.00    -0.116 NA 
HETATM   33  C   UNL     1      -7.245   4.042  63.362  1.00  0.00    -0.050 C  
HETATM   34  C   UNL     1      -9.625   4.160  62.977  1.00  0.00    -0.136 C  
ENDBRANCH   4  32
BRANCH   7  35
HETATM   35  C   UNL     1      -6.952   1.723  66.591  1.00  0.00    -0.043 C  
HETATM   36  N   UNL     1      -6.330   1.552  67.785  1.00  0.00    -0.024 N  
HETATM   37  O   UNL     1      -6.262   1.785  65.567  1.00  0.00    -0.021 OA 
HETATM   38  H1  UNL     1      -5.311   1.526  67.792  1.00  0.00     0.000 HD 
HETATM   39  H2  UNL     1      -6.865   1.451  68.648  1.00  0.00     0.000 HD 
ENDBRANCH   7  35
TORSDOF 2
ENDMDL
MODEL       73
REMARK 921   NORMALIZED FREE ENERGY PREDICTED BY IDOCK:   -3.93 KCAL/MOL
REMARK 922        TOTAL FREE ENERGY PREDICTED BY IDOCK:   -4.53 KCAL/MOL
REMARK 923 INTER-LIGAND FREE ENERGY PREDICTED BY IDOCK:   -4.23 KCAL/MOL
REMARK 924 INTRA-LIGAND FREE ENERGY PREDICTED BY IDOCK:   -0.30 KCAL/MOL
REMARK 927      BINDING AFFINITY PREDICTED BY RF-SCORE:    0.00 PKD
ROOT
HETATM    1  C   UNL     1      -8.082   5.750  66.941  1.00  0.00    -0.102 C  
HETATM    2  C   UNL     1      -8.613   4.498  67.624  1.00  0.00    -0.106 C  
HETATM    3  C   UNL     1      -9.163   4.801  69.003  1.00  0.00    -0.174 C  
HETATM    4  C   UNL     1      -8.184   4.673  70.196  1.00  0.00    -0.067 C  
HETATM    5  H   UNL     1      -7.948  10.600  63.359  1.00  0.00     0.000 HD 
HETATM    6  C   UNL     1      -9.164   4.606  71.403  1.00  0.00    -0.142 C  
HETATM    7  C   UNL     1      -9.781   5.775  71.702  1.00  0.00    -0.192 C  
HETATM    8  O   UNL     1      -9.925   3.431  71.409  1.00  0.00    -0.169 OA 
HETATM    9  O   UNL     1      -8.172   9.893  63.954  1.00  0.00    -0.137 OA 
HETATM   10  C   UNL     1      -7.540   8.683  63.888  1.00  0.00    -0.127 A  
HETATM   11  C   UNL     1     -10.594   6.227  70.470  1.00  0.00    -0.249 C  
HETATM   12  H   UNL     1      -5.873   4.273  65.127  1.00  0.00     0.000 HD 
HETATM   13  H   UNL     1     -10.523   3.390  72.146  1.00  0.00     0.000 HD 
HETATM   14  O   UNL     1     -11.771   6.561  70.577  1.00  0.00    -0.380 OA 
HETATM   15  C   UNL     1      -9.808   6.224  69.115  1.00  0.00    -0.144 C  
HETATM   16  C   UNL     1      -6.554   8.532  62.911  1.00  0.00    -0.090 A  
HETATM   17  C   UNL     1      -5.900   7.319  62.774  1.00  0.00    -0.049 A  
HETATM   18 CL   UNL     1      -5.412   4.767  63.253  1.00  0.00    -0.012 Cl 
HETATM   19  O   UNL     1      -6.263   4.559  65.944  1.00  0.00    -0.030 OA 
HETATM   20  O   UNL     1      -8.857   7.274  69.497  1.00  0.00    -0.137 OA 
HETATM   21  C   UNL     1     -10.202   6.776  67.749  1.00  0.00    -0.171 C  
HETATM   22  H   UNL     1      -9.249   8.136  69.565  1.00  0.00     0.000 HD 
HETATM   23  O   UNL     1     -11.283   7.630  67.675  1.00  0.00    -0.480 OA 
HETATM   24  C   UNL     1      -9.216   6.733  66.802  1.00  0.00    -0.172 C  
HETATM   25  C   UNL     1      -8.978   7.825  65.798  1.00  0.00    -0.066 C  
HETATM   26  H   UNL     1     -11.529   7.974  66.824  1.00  0.00     0.000 HD 
HETATM   27  O   UNL     1      -9.572   8.891  65.912  1.00  0.00    -0.253 OA 
HETATM   28  C   UNL     1      -7.873   7.633  64.773  1.00  0.00    -0.129 A  
HETATM   29  C   UNL     1      -7.153   6.415  64.672  1.00  0.00    -0.057 A  
HETATM   30  C   UNL     1      -6.210   6.262  63.625  1.00  0.00    -0.026 A  
HETATM   31  C   UNL     1      -7.453   5.289  65.623  1.00  0.00    -0.081 C  
ENDROOT
BRANCH   4  32
HETATM   32  N   UNL     1      -7.053   3.745  70.132  1.00  0.00    -0.041 NA 
HETATM   33  C   UNL     1      -6.343   3.724  71.418  1.00  0.00    -0.015 C  
HETATM   34  C   UNL     1      -7.330   2.400  69.658  1.00  0.00    -0.043 C  
ENDBRANCH   4  32
BRANCH   7  35
HETATM   35  C   UNL     1      -8.808   6.711  72.357  1.00  0.00    -0.132 C  
HETATM   36  N   UNL     1      -9.018   8.045  72.217  1.00  0.00    -0.153 N  
HETATM   37  O   UNL     1      -7.864   6.331  73.060  1.00  0.00    -0.103 OA 
HETATM   38  H1  UNL     1      -8.357   8.681  72.662  1.00  0.00     0.000 HD 
HETATM   39  H2  UNL     1      -9.812   8.400  71.683  1.00  0.00     0.000 HD 
ENDBRANCH   7  35
TORSDOF 2
ENDMDL
MODEL       74
REMARK 921   NORMALIZED FREE ENERGY PREDICTED BY IDOCK:   -3.55 KCAL/MOL
REMARK 922        TOTAL FREE ENERGY PREDICTED BY IDOCK:   -4.10 KCAL/MOL
REMARK 923 INTER-LIGAND FREE ENERGY PREDICTED BY IDOCK:   -3.78 KCAL/MOL
REMARK 924 INTRA-LIGAND FREE ENERGY PREDICTED BY IDOCK:   -0.32 KCAL/MOL
REMARK 927      BINDING AFFINITY PREDICTED BY RF-SCORE:    0.00 PKD
ROOT
HETATM    1  C   UNL     1      -8.736   6.628  68.967  1.00  0.00    -0.129 C  
HETATM    2  C   UNL     1      -9.680   5.439  69.071  1.00  0.00    -0.208 C  
HETATM    3  C   UNL     1      -9.417   4.621  70.319  1.00  0.00    -0.240 C  
HETATM    4  C   UNL     1      -8.425   3.438  70.190  1.00  0.00    -0.056 C  
HETATM    5  H   UNL     1      -6.727  12.295  69.422  1.00  0.00     0.000 HD 
HETATM    6  C   UNL     1      -8.754   2.610  71.466  1.00  0.00    -0.069 C  
HETATM    7  C   UNL     1      -8.340   3.167  72.630  1.00  0.00    -0.076 C  
HETATM    8  O   UNL     1     -10.032   2.039  71.417  1.00  0.00    -0.143 OA 
HETATM    9  O   UNL     1      -7.138  11.446  69.536  1.00  0.00    -0.102 OA 
HETATM   10  C   UNL     1      -7.492  10.679  68.462  1.00  0.00    -0.093 A  
HETATM   11  C   UNL     1      -9.023   4.542  72.783  1.00  0.00    -0.119 C  
HETATM   12  H   UNL     1      -8.735   6.820  65.755  1.00  0.00     0.000 HD 
HETATM   13  H   UNL     1     -10.232   1.533  72.196  1.00  0.00     0.000 HD 
HETATM   14  O   UNL     1      -9.595   4.852  73.825  1.00  0.00    -0.127 OA 
HETATM   15  C   UNL     1      -8.923   5.480  71.532  1.00  0.00    -0.136 C  
HETATM   16  C   UNL     1      -7.222  11.197  67.193  1.00  0.00    -0.120 A  
HETATM   17  C   UNL     1      -7.585  10.480  66.066  1.00  0.00    -0.140 A  
HETATM   18 CL   UNL     1      -8.715   8.515  64.708  1.00  0.00    -0.115 Cl 
HETATM   19  O   UNL     1      -8.556   6.408  66.592  1.00  0.00    -0.115 OA 
HETATM   20  O   UNL     1      -7.465   5.637  71.586  1.00  0.00    -0.089 OA 
HETATM   21  C   UNL     1      -9.294   6.950  71.373  1.00  0.00    -0.156 C  
HETATM   22  H   UNL     1      -7.166   6.158  72.322  1.00  0.00     0.000 HD 
HETATM   23  O   UNL     1      -9.527   7.693  72.511  1.00  0.00    -0.149 OA 
HETATM   24  C   UNL     1      -8.945   7.508  70.173  1.00  0.00    -0.147 C  
HETATM   25  C   UNL     1      -8.414   8.905  70.028  1.00  0.00    -0.139 C  
HETATM   26  H   UNL     1      -9.758   8.609  72.412  1.00  0.00     0.000 HD 
HETATM   27  O   UNL     1      -8.110   9.544  71.030  1.00  0.00    -0.312 OA 
HETATM   28  C   UNL     1      -8.102   9.416  68.632  1.00  0.00    -0.104 A  
HETATM   29  C   UNL     1      -8.411   8.657  67.474  1.00  0.00    -0.120 A  
HETATM   30  C   UNL     1      -8.196   9.236  66.198  1.00  0.00    -0.111 A  
HETATM   31  C   UNL     1      -9.025   7.292  67.618  1.00  0.00    -0.126 C  
ENDROOT
BRANCH   4  32
HETATM   32  N   UNL     1      -8.250   2.752  68.908  1.00  0.00    -0.055 NA 
HETATM   33  C   UNL     1      -7.041   1.918  68.944  1.00  0.00    -0.039 C  
HETATM   34  C   UNL     1      -9.390   2.012  68.396  1.00  0.00    -0.194 C  
ENDBRANCH   4  32
BRANCH   7  35
HETATM   35  C   UNL     1      -6.850   3.038  72.754  1.00  0.00    -0.027 C  
HETATM   36  N   UNL     1      -6.272   1.897  72.299  1.00  0.00    -0.013 N  
HETATM   37  O   UNL     1      -6.124   3.935  73.196  1.00  0.00    -0.011 OA 
HETATM   38  H1  UNL     1      -5.259   1.810  72.384  1.00  0.00     0.000 HD 
HETATM   39  H2  UNL     1      -6.832   1.151  71.886  1.00  0.00     0.000 HD 
ENDBRANCH   7  35
TORSDOF 2
ENDMDL
MODEL       75
REMARK 921   NORMALIZED FREE ENERGY PREDICTED BY IDOCK:   -3.46 KCAL/MOL
REMARK 922        TOTAL FREE ENERGY PREDICTED BY IDOCK:   -4.00 KCAL/MOL
REMARK 923 INTER-LIGAND FREE ENERGY PREDICTED BY IDOCK:   -4.13 KCAL/MOL
REMARK 924 INTRA-LIGAND FREE ENERGY PREDICTED BY IDOCK:    0.13 KCAL/MOL
REMARK 927      BINDING AFFINITY PREDICTED BY RF-SCORE:    0.00 PKD
ROOT
HETATM    1  C   UNL     1      -7.969   8.223  68.399  1.00  0.00    -0.119 C  
HETATM    2  C   UNL     1      -6.912   7.149  68.192  1.00  0.00    -0.076 C  
HETATM    3  C   UNL     1      -7.466   5.760  68.439  1.00  0.00    -0.081 C  
HETATM    4  C   UNL     1      -7.331   5.192  69.873  1.00  0.00    -0.060 C  
HETATM    5  H   UNL     1     -12.256  12.252  67.076  1.00  0.00     0.000 HD 
HETATM    6  C   UNL     1      -7.572   3.673  69.635  1.00  0.00    -0.051 C  
HETATM    7  C   UNL     1      -8.852   3.337  69.345  1.00  0.00    -0.153 C  
HETATM    8  O   UNL     1      -6.542   3.080  68.893  1.00  0.00    -0.033 OA 
HETATM    9  O   UNL     1     -11.673  11.504  67.130  1.00  0.00    -0.567 OA 
HETATM   10  C   UNL     1     -10.379  11.641  67.547  1.00  0.00    -0.197 A  
HETATM   11  C   UNL     1      -9.272   4.079  68.058  1.00  0.00    -0.154 C  
HETATM   12  H   UNL     1      -5.946  10.570  69.270  1.00  0.00     0.000 HD 
HETATM   13  H   UNL     1      -6.688   2.153  68.748  1.00  0.00     0.000 HD 
HETATM   14  O   UNL     1      -9.800   3.479  67.125  1.00  0.00    -0.105 OA 
HETATM   15  C   UNL     1      -8.976   5.617  68.049  1.00  0.00    -0.108 C  
HETATM   16  C   UNL     1      -9.953  12.927  67.889  1.00  0.00    -0.233 A  
HETATM   17  C   UNL     1      -8.644  13.134  68.290  1.00  0.00    -0.166 A  
HETATM   18 CL   UNL     1      -6.125  12.487  68.757  1.00  0.00    -0.066 Cl 
HETATM   19  O   UNL     1      -6.390   9.736  69.369  1.00  0.00    -0.043 OA 
HETATM   20  O   UNL     1      -9.900   5.948  69.140  1.00  0.00    -0.143 OA 
HETATM   21  C   UNL     1      -9.412   6.696  67.062  1.00  0.00    -0.144 C  
HETATM   22  H   UNL     1     -10.816   5.861  68.903  1.00  0.00     0.000 HD 
HETATM   23  O   UNL     1     -10.411   6.394  66.161  1.00  0.00    -0.425 OA 
HETATM   24  C   UNL     1      -9.095   7.976  67.429  1.00  0.00    -0.147 C  
HETATM   25  C   UNL     1     -10.003   9.152  67.209  1.00  0.00    -0.211 C  
HETATM   26  H   UNL     1     -10.682   7.066  65.546  1.00  0.00     0.000 HD 
HETATM   27  O   UNL     1     -11.156   8.966  66.838  1.00  0.00     0.102 OA 
HETATM   28  C   UNL     1      -9.513  10.528  67.628  1.00  0.00    -0.164 A  
HETATM   29  C   UNL     1      -8.192  10.737  68.102  1.00  0.00    -0.119 A  
HETATM   30  C   UNL     1      -7.763  12.059  68.373  1.00  0.00    -0.138 A  
HETATM   31  C   UNL     1      -7.255   9.568  68.239  1.00  0.00    -0.076 C  
ENDROOT
BRANCH   4  32
HETATM   32  N   UNL     1      -6.235   5.623  70.742  1.00  0.00    -0.029 NA 
HETATM   33  C   UNL     1      -6.698   6.677  71.655  1.00  0.00    -0.062 C  
HETATM   34  C   UNL     1      -5.513   4.583  71.456  1.00  0.00    -0.004 C  
ENDBRANCH   4  32
BRANCH   7  35
HETATM   35  C   UNL     1      -9.694   3.423  70.583  1.00  0.00    -0.105 C  
HETATM   36  N   UNL     1      -9.615   2.404  71.477  1.00  0.00    -0.140 N  
HETATM   37  O   UNL     1     -10.408   4.395  70.854  1.00  0.00    -0.113 OA 
HETATM   38  H1  UNL     1     -10.187   2.463  72.319  1.00  0.00     0.000 HD 
HETATM   39  H2  UNL     1      -9.002   1.605  71.311  1.00  0.00     0.000 HD 
ENDBRANCH   7  35
TORSDOF 2
ENDMDL
MODEL       76
REMARK 921   NORMALIZED FREE ENERGY PREDICTED BY IDOCK:   -3.44 KCAL/MOL
REMARK 922        TOTAL FREE ENERGY PREDICTED BY IDOCK:   -3.98 KCAL/MOL
REMARK 923 INTER-LIGAND FREE ENERGY PREDICTED BY IDOCK:   -4.05 KCAL/MOL
REMARK 924 INTRA-LIGAND FREE ENERGY PREDICTED BY IDOCK:    0.07 KCAL/MOL
REMARK 927      BINDING AFFINITY PREDICTED BY RF-SCORE:    0.00 PKD
ROOT
HETATM    1  C   UNL     1      -8.428  13.195  67.232  1.00  0.00    -0.199 C  
HETATM    2  C   UNL     1      -8.189  14.231  66.143  1.00  0.00     1.309 C  
HETATM    3  C   UNL     1      -8.210  15.642  66.695  1.00  0.00    -0.284 C  
HETATM    4  C   UNL     1      -9.570  16.383  66.683  1.00  0.00    -0.256 C  
HETATM    5  H   UNL     1      -7.216   9.054  71.444  1.00  0.00     0.000 HD 
HETATM    6  C   UNL     1      -9.125  17.862  66.876  1.00  0.00    -0.260 C  
HETATM    7  C   UNL     1      -8.678  18.166  68.118  1.00  0.00    -0.285 C  
HETATM    8  O   UNL     1      -8.416  18.354  65.773  1.00  0.00    -0.468 OA 
HETATM    9  O   UNL     1      -7.232   9.800  70.856  1.00  0.00    -0.310 OA 
HETATM   10  C   UNL     1      -7.781   9.710  69.609  1.00  0.00    -0.124 A  
HETATM   11  C   UNL     1      -7.459  17.272  68.430  1.00  0.00    -0.234 C  
HETATM   12  H   UNL     1      -9.765  10.965  65.336  1.00  0.00     0.000 HD 
HETATM   13  H   UNL     1      -8.145  19.256  65.890  1.00  0.00     0.000 HD 
HETATM   14  O   UNL     1      -6.414  17.754  68.860  1.00  0.00    -0.201 OA 
HETATM   15  C   UNL     1      -7.667  15.742  68.160  1.00  0.00    -0.128 C  
HETATM   16  C   UNL     1      -8.318   8.475  69.237  1.00  0.00    -0.120 A  
HETATM   17  C   UNL     1      -8.862   8.312  67.974  1.00  0.00    -0.135 A  
HETATM   18 CL   UNL     1      -9.478   9.001  65.499  1.00  0.00    -0.271 Cl 
HETATM   19  O   UNL     1      -9.719  11.807  65.773  1.00  0.00    -0.230 OA 
HETATM   20  O   UNL     1      -8.699  15.555  69.185  1.00  0.00    -0.211 OA 
HETATM   21  C   UNL     1      -6.784  14.552  68.520  1.00  0.00    -0.096 C  
HETATM   22  H   UNL     1      -8.369  15.616  70.074  1.00  0.00     0.000 HD 
HETATM   23  O   UNL     1      -5.763  14.744  69.427  1.00  0.00    -0.093 OA 
HETATM   24  C   UNL     1      -7.334  13.326  68.260  1.00  0.00    -0.113 C  
HETATM   25  C   UNL     1      -7.177  12.136  69.162  1.00  0.00     0.022 C  
HETATM   26  H   UNL     1      -5.213  14.003  69.651  1.00  0.00     0.000 HD 
HETATM   27  O   UNL     1      -6.679  12.280  70.274  1.00  0.00     0.124 OA 
HETATM   28  C   UNL     1      -7.805  10.820  68.735  1.00  0.00    -0.129 A  
HETATM   29  C   UNL     1      -8.423  10.665  67.468  1.00  0.00    -0.121 A  
HETATM   30  C   UNL     1      -8.893   9.385  67.087  1.00  0.00    -0.127 A  
HETATM   31  C   UNL     1      -8.502  11.837  66.528  1.00  0.00    -0.125 C  
ENDROOT
BRANCH   4  32
HETATM   32  N   UNL     1     -10.584  16.058  65.678  1.00  0.00    -0.375 NA 
HETATM   33  C   UNL     1     -11.473  15.002  66.181  1.00  0.00    -0.222 C  
HETATM   34  C   UNL     1     -11.341  17.168  65.124  1.00  0.00     0.582 C  
ENDBRANCH   4  32
BRANCH   7  35
HETATM   35  C   UNL     1      -9.834  18.237  69.072  1.00  0.00    -0.250 C  
HETATM   36  N   UNL     1     -10.074  19.423  69.690  1.00  0.00    -0.402 N  
HETATM   37  O   UNL     1     -10.605  17.294  69.280  1.00  0.00    -0.319 OA 
HETATM   38  H1  UNL     1     -10.860  19.472  70.338  1.00  0.00     0.000 HD 
HETATM   39  H2  UNL     1      -9.488  20.238  69.510  1.00  0.00     0.000 HD 
ENDBRANCH   7  35
TORSDOF 2
ENDMDL
MODEL       77
REMARK 921   NORMALIZED FREE ENERGY PREDICTED BY IDOCK:   -3.08 KCAL/MOL
REMARK 922        TOTAL FREE ENERGY PREDICTED BY IDOCK:   -3.58 KCAL/MOL
REMARK 923 INTER-LIGAND FREE ENERGY PREDICTED BY IDOCK:   -3.50 KCAL/MOL
REMARK 924 INTRA-LIGAND FREE ENERGY PREDICTED BY IDOCK:   -0.08 KCAL/MOL
REMARK 927      BINDING AFFINITY PREDICTED BY RF-SCORE:    0.00 PKD
ROOT
HETATM    1  C   UNL     1      -9.202  10.966  67.729  1.00  0.00    -0.155 C  
HETATM    2  C   UNL     1      -9.925  11.766  68.802  1.00  0.00    -0.128 C  
HETATM    3  C   UNL     1     -10.476  13.068  68.257  1.00  0.00    -0.258 C  
HETATM    4  C   UNL     1      -9.566  14.317  68.362  1.00  0.00    -0.221 C  
HETATM    5  H   UNL     1      -8.276   6.836  63.433  1.00  0.00     0.000 HD 
HETATM    6  C   UNL     1     -10.588  15.471  68.144  1.00  0.00    -0.266 C  
HETATM    7  C   UNL     1     -11.048  15.594  66.876  1.00  0.00    -0.181 C  
HETATM    8  O   UNL     1     -11.504  15.579  69.198  1.00  0.00    -0.300 OA 
HETATM    9  O   UNL     1      -8.616   7.500  64.023  1.00  0.00     0.192 OA 
HETATM   10  C   UNL     1      -8.155   7.613  65.304  1.00  0.00    -0.133 A  
HETATM   11  C   UNL     1     -11.747  14.276  66.480  1.00  0.00    -0.394 C  
HETATM   12  H   UNL     1      -7.156   9.461  69.704  1.00  0.00     0.000 HD 
HETATM   13  H   UNL     1     -12.127  16.283  69.066  1.00  0.00     0.000 HD 
HETATM   14  O   UNL     1     -12.870  14.280  65.982  1.00  0.00    -0.379 OA 
HETATM   15  C   UNL     1     -10.922  12.973  66.759  1.00  0.00    -0.276 C  
HETATM   16  C   UNL     1      -7.166   6.713  65.707  1.00  0.00    -0.070 A  
HETATM   17  C   UNL     1      -6.681   6.759  67.003  1.00  0.00    -0.059 A  
HETATM   18 CL   UNL     1      -6.565   7.567  69.517  1.00  0.00    -0.036 Cl 
HETATM   19  O   UNL     1      -7.531  10.216  69.267  1.00  0.00    -0.088 OA 
HETATM   20  O   UNL     1      -9.850  13.275  65.805  1.00  0.00    -0.363 OA 
HETATM   21  C   UNL     1     -11.189  11.532  66.337  1.00  0.00    -0.243 C  
HETATM   22  H   UNL     1     -10.121  13.218  64.896  1.00  0.00     0.000 HD 
HETATM   23  O   UNL     1     -12.138  11.299  65.364  1.00  0.00     0.308 OA 
HETATM   24  C   UNL     1     -10.184  10.650  66.630  1.00  0.00    -0.284 C  
HETATM   25  C   UNL     1      -9.764   9.535  65.716  1.00  0.00    -0.287 C  
HETATM   26  H   UNL     1     -12.304  10.402  65.102  1.00  0.00     0.000 HD 
HETATM   27  O   UNL     1     -10.209   9.488  64.574  1.00  0.00     0.564 OA 
HETATM   28  C   UNL     1      -8.660   8.600  66.180  1.00  0.00    -0.158 A  
HETATM   29  C   UNL     1      -8.112   8.684  67.486  1.00  0.00    -0.106 A  
HETATM   30  C   UNL     1      -7.163   7.714  67.894  1.00  0.00    -0.094 A  
HETATM   31  C   UNL     1      -8.597   9.748  68.432  1.00  0.00    -0.119 C  
ENDROOT
BRANCH   4  32
HETATM   32  N   UNL     1      -8.572  14.425  69.431  1.00  0.00     0.193 NA 
HETATM   33  C   UNL     1      -7.273  13.920  68.966  1.00  0.00    -0.078 C  
HETATM   34  C   UNL     1      -8.437  15.719  70.078  1.00  0.00     0.571 C  
ENDBRANCH   4  32
BRANCH   7  35
HETATM   35  C   UNL     1      -9.979  16.181  66.001  1.00  0.00    -0.348 C  
HETATM   36  N   UNL     1     -10.312  17.238  65.216  1.00  0.00     0.026 N  
HETATM   37  O   UNL     1      -8.807  15.789  66.002  1.00  0.00    -0.327 OA 
HETATM   38  H1  UNL     1      -9.585  17.637  64.622  1.00  0.00     0.000 HD 
HETATM   39  H2  UNL     1     -11.257  17.620  65.221  1.00  0.00     0.000 HD 
ENDBRANCH   7  35
TORSDOF 2
ENDMDL
MODEL       78
REMARK 921   NORMALIZED FREE ENERGY PREDICTED BY IDOCK:   -3.06 KCAL/MOL
REMARK 922        TOTAL FREE ENERGY PREDICTED BY IDOCK:   -3.56 KCAL/MOL
REMARK 923 INTER-LIGAND FREE ENERGY PREDICTED BY IDOCK:   -3.12 KCAL/MOL
REMARK 924 INTRA-LIGAND FREE ENERGY PREDICTED BY IDOCK:   -0.44 KCAL/MOL
REMARK 927      BINDING AFFINITY PREDICTED BY RF-SCORE:    0.00 PKD
ROOT
HETATM    1  C   UNL     1      -8.030   6.387  67.721  1.00  0.00    -0.114 C  
HETATM    2  C   UNL     1      -8.854   6.840  66.525  1.00  0.00    -0.150 C  
HETATM    3  C   UNL     1      -8.770   5.854  65.378  1.00  0.00    -0.109 C  
HETATM    4  C   UNL     1      -7.661   6.091  64.324  1.00  0.00    -0.105 C  
HETATM    5  H   UNL     1      -6.723   3.892  73.053  1.00  0.00     0.000 HD 
HETATM    6  C   UNL     1      -8.158   5.213  63.139  1.00  0.00    -0.101 C  
HETATM    7  C   UNL     1      -8.046   3.877  63.333  1.00  0.00    -0.088 C  
HETATM    8  O   UNL     1      -9.338   5.707  62.567  1.00  0.00    -0.312 OA 
HETATM    9  O   UNL     1      -7.063   4.120  72.196  1.00  0.00    -0.051 OA 
HETATM   10  C   UNL     1      -7.114   5.419  71.776  1.00  0.00    -0.076 A  
HETATM   11  C   UNL     1      -8.878   3.492  64.575  1.00  0.00    -0.114 C  
HETATM   12  H   UNL     1      -7.397   9.324  68.871  1.00  0.00     0.000 HD 
HETATM   13  H   UNL     1      -9.641   5.171  61.844  1.00  0.00     0.000 HD 
HETATM   14  O   UNL     1      -9.677   2.560  64.538  1.00  0.00    -0.141 OA 
HETATM   15  C   UNL     1      -8.619   4.367  65.849  1.00  0.00    -0.114 C  
HETATM   16  C   UNL     1      -6.645   6.393  72.661  1.00  0.00    -0.064 A  
HETATM   17  C   UNL     1      -6.699   7.730  72.304  1.00  0.00    -0.060 A  
HETATM   18 CL   UNL     1      -7.332   9.810  70.802  1.00  0.00    -0.073 Cl 
HETATM   19  O   UNL     1      -7.352   8.622  68.233  1.00  0.00    -0.084 OA 
HETATM   20  O   UNL     1      -7.225   3.947  66.031  1.00  0.00    -0.066 OA 
HETATM   21  C   UNL     1      -9.093   4.177  67.286  1.00  0.00    -0.144 C  
HETATM   22  H   UNL     1      -7.134   3.045  66.317  1.00  0.00     0.000 HD 
HETATM   23  O   UNL     1      -9.624   2.955  67.643  1.00  0.00    -0.326 OA 
HETATM   24  C   UNL     1      -8.565   5.057  68.190  1.00  0.00    -0.102 C  
HETATM   25  C   UNL     1      -8.155   4.674  69.583  1.00  0.00    -0.064 C  
HETATM   26  H   UNL     1      -9.920   2.836  68.538  1.00  0.00     0.000 HD 
HETATM   27  O   UNL     1      -8.125   3.490  69.900  1.00  0.00    -0.049 OA 
HETATM   28  C   UNL     1      -7.619   5.759  70.501  1.00  0.00    -0.090 A  
HETATM   29  C   UNL     1      -7.610   7.124  70.116  1.00  0.00    -0.091 A  
HETATM   30  C   UNL     1      -7.199   8.099  71.058  1.00  0.00    -0.057 A  
HETATM   31  C   UNL     1      -8.104   7.518  68.750  1.00  0.00    -0.128 C  
ENDROOT
BRANCH   4  32
HETATM   32  N   UNL     1      -7.163   7.443  64.062  1.00  0.00    -0.075 NA 
HETATM   33  C   UNL     1      -5.920   7.677  64.810  1.00  0.00    -0.038 C  
HETATM   34  C   UNL     1      -7.025   7.836  62.670  1.00  0.00    -0.081 C  
ENDBRANCH   4  32
BRANCH   7  35
HETATM   35  C   UNL     1      -6.607   3.466  63.223  1.00  0.00    -0.030 C  
HETATM   36  N   UNL     1      -6.187   2.417  63.977  1.00  0.00    -0.014 N  
HETATM   37  O   UNL     1      -5.805   3.995  62.445  1.00  0.00    -0.012 OA 
HETATM   38  H1  UNL     1      -5.210   2.138  63.902  1.00  0.00     0.000 HD 
HETATM   39  H2  UNL     1      -6.830   1.925  64.598  1.00  0.00     0.000 HD 
ENDBRANCH   7  35
TORSDOF 2
ENDMDL
MODEL       79
REMARK 921   NORMALIZED FREE ENERGY PREDICTED BY IDOCK:   -3.04 KCAL/MOL
REMARK 922        TOTAL FREE ENERGY PREDICTED BY IDOCK:   -3.53 KCAL/MOL
REMARK 923 INTER-LIGAND FREE ENERGY PREDICTED BY IDOCK:   -4.10 KCAL/MOL
REMARK 924 INTRA-LIGAND FREE ENERGY PREDICTED BY IDOCK:    0.57 KCAL/MOL
REMARK 927      BINDING AFFINITY PREDICTED BY RF-SCORE:    0.00 PKD
ROOT
HETATM    1  C   UNL     1      -8.564   7.130  66.846  1.00  0.00    -0.124 C  
HETATM    2  C   UNL     1      -8.089   7.299  65.411  1.00  0.00    -0.133 C  
HETATM    3  C   UNL     1      -7.935   5.965  64.710  1.00  0.00    -0.126 C  
HETATM    4  C   UNL     1      -6.541   5.292  64.774  1.00  0.00    -0.043 C  
HETATM    5  H   UNL     1     -12.323   6.876  71.554  1.00  0.00     0.000 HD 
HETATM    6  C   UNL     1      -6.641   4.249  63.623  1.00  0.00    -0.041 C  
HETATM    7  C   UNL     1      -7.448   3.192  63.881  1.00  0.00    -0.067 C  
HETATM    8  O   UNL     1      -6.714   4.852  62.361  1.00  0.00    -0.025 OA 
HETATM    9  O   UNL     1     -11.892   6.824  70.709  1.00  0.00    -0.361 OA 
HETATM   10  C   UNL     1     -10.939   7.730  70.341  1.00  0.00    -0.249 A  
HETATM   11  C   UNL     1      -8.873   3.720  64.151  1.00  0.00    -0.110 C  
HETATM   12  H   UNL     1      -7.194   9.801  68.006  1.00  0.00     0.000 HD 
HETATM   13  H   UNL     1      -6.774   4.215  61.659  1.00  0.00     0.000 HD 
HETATM   14  O   UNL     1      -9.846   3.237  63.577  1.00  0.00    -0.124 OA 
HETATM   15  C   UNL     1      -8.966   4.888  65.190  1.00  0.00    -0.152 C  
HETATM   16  C   UNL     1     -10.627   8.735  71.261  1.00  0.00    -0.332 A  
HETATM   17  C   UNL     1      -9.691   9.701  70.934  1.00  0.00    -0.125 A  
HETATM   18 CL   UNL     1      -8.002  11.003  69.373  1.00  0.00    -0.034 Cl 
HETATM   19  O   UNL     1      -7.195   8.933  67.620  1.00  0.00    -0.079 OA 
HETATM   20  O   UNL     1      -8.500   4.098  66.336  1.00  0.00    -0.108 OA 
HETATM   21  C   UNL     1     -10.186   5.526  65.847  1.00  0.00     0.081 C  
HETATM   22  H   UNL     1      -9.126   3.445  66.627  1.00  0.00     0.000 HD 
HETATM   23  O   UNL     1     -11.397   4.874  65.750  1.00  0.00    -0.849 OA 
HETATM   24  C   UNL     1      -9.903   6.439  66.826  1.00  0.00    -0.209 C  
HETATM   25  C   UNL     1     -10.693   6.568  68.097  1.00  0.00    -0.282 C  
HETATM   26  H   UNL     1     -12.157   5.271  66.159  1.00  0.00     0.000 HD 
HETATM   27  O   UNL     1     -11.533   5.719  68.375  1.00  0.00     0.263 OA 
HETATM   28  C   UNL     1     -10.298   7.652  69.085  1.00  0.00    -0.217 A  
HETATM   29  C   UNL     1      -9.293   8.606  68.782  1.00  0.00    -0.142 A  
HETATM   30  C   UNL     1      -9.047   9.657  69.700  1.00  0.00    -0.210 A  
HETATM   31  C   UNL     1      -8.562   8.529  67.469  1.00  0.00    -0.128 C  
ENDROOT
BRANCH   4  32
HETATM   32  N   UNL     1      -5.330   6.104  64.910  1.00  0.00    -0.017 NA 
HETATM   33  C   UNL     1      -5.210   7.026  63.772  1.00  0.00    -0.028 C  
HETATM   34  C   UNL     1      -5.138   6.794  66.174  1.00  0.00    -0.018 C  
ENDBRANCH   4  32
BRANCH   7  35
HETATM   35  C   UNL     1      -6.781   2.267  64.856  1.00  0.00    -0.035 C  
HETATM   36  N   UNL     1      -7.556   1.676  65.801  1.00  0.00    -0.064 N  
HETATM   37  O   UNL     1      -5.581   1.977  64.808  1.00  0.00    -0.008 OA 
HETATM   38  H1  UNL     1      -7.103   1.047  66.464  1.00  0.00     0.000 HD 
HETATM   39  H2  UNL     1      -8.559   1.854  65.846  1.00  0.00     0.000 HD 
ENDBRANCH   7  35
TORSDOF 2
ENDMDL
MODEL       80
REMARK 921   NORMALIZED FREE ENERGY PREDICTED BY IDOCK:   -2.92 KCAL/MOL
REMARK 922        TOTAL FREE ENERGY PREDICTED BY IDOCK:   -3.40 KCAL/MOL
REMARK 923 INTER-LIGAND FREE ENERGY PREDICTED BY IDOCK:   -4.07 KCAL/MOL
REMARK 924 INTRA-LIGAND FREE ENERGY PREDICTED BY IDOCK:    0.67 KCAL/MOL
REMARK 927      BINDING AFFINITY PREDICTED BY RF-SCORE:    0.00 PKD
ROOT
HETATM    1  C   UNL     1      -7.012  12.237  69.033  1.00  0.00    -0.078 C  
HETATM    2  C   UNL     1      -6.031  11.090  69.228  1.00  0.00    -0.046 C  
HETATM    3  C   UNL     1      -6.678   9.746  68.965  1.00  0.00    -0.049 C  
HETATM    4  C   UNL     1      -7.307   9.017  70.178  1.00  0.00    -0.065 C  
HETATM    5  H   UNL     1      -9.905  16.792  66.342  1.00  0.00     0.000 HD 
HETATM    6  C   UNL     1      -7.442   7.563  69.638  1.00  0.00    -0.092 C  
HETATM    7  C   UNL     1      -8.409   7.389  68.704  1.00  0.00    -0.129 C  
HETATM    8  O   UNL     1      -6.198   6.953  69.431  1.00  0.00    -0.032 OA 
HETATM    9  O   UNL     1      -9.455  15.987  66.572  1.00  0.00    -0.235 OA 
HETATM   10  C   UNL     1      -8.547  15.949  67.592  1.00  0.00    -0.163 A  
HETATM   11  C   UNL     1      -8.095   8.303  67.500  1.00  0.00    -0.122 C  
HETATM   12  H   UNL     1      -5.636  14.262  71.120  1.00  0.00     0.000 HD 
HETATM   13  H   UNL     1      -6.281   6.066  69.102  1.00  0.00     0.000 HD 
HETATM   14  O   UNL     1      -8.096   7.862  66.354  1.00  0.00    -0.102 OA 
HETATM   15  C   UNL     1      -7.786   9.797  67.859  1.00  0.00    -0.090 C  
HETATM   16  C   UNL     1      -8.313  17.142  68.280  1.00  0.00    -0.232 A  
HETATM   17  C   UNL     1      -7.382  17.173  69.305  1.00  0.00    -0.098 A  
HETATM   18 CL   UNL     1      -5.469  16.232  70.866  1.00  0.00    -0.070 Cl 
HETATM   19  O   UNL     1      -6.095  13.471  70.864  1.00  0.00    -0.129 OA 
HETATM   20  O   UNL     1      -9.124  10.099  68.380  1.00  0.00    -0.128 OA 
HETATM   21  C   UNL     1      -7.627  11.013  66.953  1.00  0.00    -0.133 C  
HETATM   22  H   UNL     1      -9.796  10.130  67.709  1.00  0.00     0.000 HD 
HETATM   23  O   UNL     1      -8.040  10.911  65.641  1.00  0.00    -0.262 OA 
HETATM   24  C   UNL     1      -7.499  12.208  67.607  1.00  0.00    -0.129 C  
HETATM   25  C   UNL     1      -8.132  13.486  67.135  1.00  0.00    -0.082 C  
HETATM   26  H   UNL     1      -7.941  11.668  65.076  1.00  0.00     0.000 HD 
HETATM   27  O   UNL     1      -8.943  13.456  66.217  1.00  0.00    -0.054 OA 
HETATM   28  C   UNL     1      -7.877  14.753  67.933  1.00  0.00    -0.145 A  
HETATM   29  C   UNL     1      -6.973  14.777  69.027  1.00  0.00    -0.118 A  
HETATM   30  C   UNL     1      -6.698  16.014  69.661  1.00  0.00    -0.171 A  
HETATM   31  C   UNL     1      -6.273  13.513  69.444  1.00  0.00    -0.107 C  
ENDROOT
BRANCH   4  32
HETATM   32  N   UNL     1      -6.789   9.240  71.529  1.00  0.00    -0.294 NA 
HETATM   33  C   UNL     1      -7.169   8.125  72.406  1.00  0.00    -0.100 C  
HETATM   34  C   UNL     1      -5.375   9.551  71.649  1.00  0.00    -0.072 C  
ENDBRANCH   4  32
BRANCH   7  35
HETATM   35  C   UNL     1      -9.760   7.427  69.357  1.00  0.00    -0.159 C  
HETATM   36  N   UNL     1      -9.832   7.860  70.641  1.00  0.00    -0.184 N  
HETATM   37  O   UNL     1     -10.808   7.137  68.769  1.00  0.00    -0.196 OA 
HETATM   38  H1  UNL     1     -10.750   7.886  71.085  1.00  0.00     0.000 HD 
HETATM   39  H2  UNL     1      -8.995   8.151  71.146  1.00  0.00     0.000 HD 
ENDBRANCH   7  35
TORSDOF 2
ENDMDL
MODEL       81
REMARK 921   NORMALIZED FREE ENERGY PREDICTED BY IDOCK:   -2.74 KCAL/MOL
REMARK 922        TOTAL FREE ENERGY PREDICTED BY IDOCK:   -3.19 KCAL/MOL
REMARK 923 INTER-LIGAND FREE ENERGY PREDICTED BY IDOCK:   -3.77 KCAL/MOL
REMARK 924 INTRA-LIGAND FREE ENERGY PREDICTED BY IDOCK:    0.58 KCAL/MOL
REMARK 927      BINDING AFFINITY PREDICTED BY RF-SCORE:    0.00 PKD
ROOT
HETATM    1  C   UNL     1     -10.065  16.663  68.567  1.00  0.00    -0.266 C  
HETATM    2  C   UNL     1      -9.875  18.109  69.001  1.00  0.00    -0.259 C  
HETATM    3  C   UNL     1      -8.930  18.852  68.079  1.00  0.00    -0.338 C  
HETATM    4  C   UNL     1      -7.430  18.855  68.460  1.00  0.00    -0.307 C  
HETATM    5  H   UNL     1     -12.568  11.838  65.954  1.00  0.00     0.000 HD 
HETATM    6  C   UNL     1      -6.886  20.031  67.597  1.00  0.00    -0.246 C  
HETATM    7  C   UNL     1      -6.813  19.776  66.268  1.00  0.00    -0.236 C  
HETATM    8  O   UNL     1      -7.385  21.272  68.012  1.00  0.00    -0.042 OA 
HETATM    9  O   UNL     1     -12.242  12.699  66.191  1.00  0.00    -0.568 OA 
HETATM   10  C   UNL     1     -12.113  13.073  67.498  1.00  0.00    -0.224 A  
HETATM   11  C   UNL     1      -8.231  19.443  65.757  1.00  0.00     0.040 C  
HETATM   12  H   UNL     1     -10.682  15.474  71.493  1.00  0.00     0.000 HD 
HETATM   13  H   UNL     1      -7.053  21.989  67.485  1.00  0.00     0.000 HD 
HETATM   14  O   UNL     1      -8.690  19.996  64.761  1.00  0.00     0.893 OA 
HETATM   15  C   UNL     1      -9.006  18.367  66.591  1.00  0.00    -0.289 C  
HETATM   16  C   UNL     1     -12.478  12.136  68.468  1.00  0.00     0.708 A  
HETATM   17  C   UNL     1     -12.398  12.468  69.810  1.00  0.00    -0.085 A  
HETATM   18 CL   UNL     1     -12.012  14.047  71.893  1.00  0.00     0.016 Cl 
HETATM   19  O   UNL     1     -10.143  15.885  70.827  1.00  0.00     0.376 OA 
HETATM   20  O   UNL     1      -8.091  17.262  66.286  1.00  0.00    -0.293 OA 
HETATM   21  C   UNL     1     -10.319  17.651  66.295  1.00  0.00    -0.342 C  
HETATM   22  H   UNL     1      -8.137  16.968  65.384  1.00  0.00     0.000 HD 
HETATM   23  O   UNL     1     -10.831  17.726  65.017  1.00  0.00    -0.774 OA 
HETATM   24  C   UNL     1     -10.647  16.657  67.176  1.00  0.00    -0.264 C  
HETATM   25  C   UNL     1     -11.277  15.357  66.766  1.00  0.00    -0.197 C  
HETATM   26  H   UNL     1     -11.649  17.280  64.832  1.00  0.00     0.000 HD 
HETATM   27  O   UNL     1     -11.362  15.074  65.576  1.00  0.00    -0.347 OA 
HETATM   28  C   UNL     1     -11.628  14.353  67.851  1.00  0.00    -0.374 A  
HETATM   29  C   UNL     1     -11.485  14.662  69.228  1.00  0.00    -0.322 A  
HETATM   30  C   UNL     1     -11.932  13.724  70.190  1.00  0.00    -0.334 A  
HETATM   31  C   UNL     1     -10.935  16.000  69.639  1.00  0.00    -0.326 C  
ENDROOT
BRANCH   4  32
HETATM   32  N   UNL     1      -7.019  18.737  69.861  1.00  0.00     0.157 NA 
HETATM   33  C   UNL     1      -5.557  18.628  69.951  1.00  0.00    -0.237 C  
HETATM   34  C   UNL     1      -7.534  19.733  70.785  1.00  0.00     1.146 C  
ENDBRANCH   4  32
BRANCH   7  35
HETATM   35  C   UNL     1      -5.665  18.851  65.990  1.00  0.00    -0.158 C  
HETATM   36  N   UNL     1      -5.134  18.166  67.035  1.00  0.00    -0.120 N  
HETATM   37  O   UNL     1      -5.220  18.640  64.856  1.00  0.00    -0.157 OA 
HETATM   38  H1  UNL     1      -4.354  17.537  66.846  1.00  0.00     0.000 HD 
HETATM   39  H2  UNL     1      -5.503  18.278  67.979  1.00  0.00     0.000 HD 
ENDBRANCH   7  35
TORSDOF 2
ENDMDL
MODEL       82
REMARK 921   NORMALIZED FREE ENERGY PREDICTED BY IDOCK:   -2.28 KCAL/MOL
REMARK 922        TOTAL FREE ENERGY PREDICTED BY IDOCK:   -2.68 KCAL/MOL
REMARK 923 INTER-LIGAND FREE ENERGY PREDICTED BY IDOCK:   -2.41 KCAL/MOL
REMARK 924 INTRA-LIGAND FREE ENERGY PREDICTED BY IDOCK:   -0.27 KCAL/MOL
REMARK 927      BINDING AFFINITY PREDICTED BY RF-SCORE:    0.00 PKD
ROOT
HETATM    1  C   UNL     1      -7.722   6.910  68.914  1.00  0.00    -0.110 C  
HETATM    2  C   UNL     1      -8.775   6.719  67.833  1.00  0.00    -0.120 C  
HETATM    3  C   UNL     1      -8.870   5.273  67.390  1.00  0.00    -0.105 C  
HETATM    4  C   UNL     1      -7.991   4.845  66.189  1.00  0.00    -0.107 C  
HETATM    5  H   UNL     1      -5.329   7.521  74.415  1.00  0.00     0.000 HD 
HETATM    6  C   UNL     1      -8.667   3.509  65.763  1.00  0.00    -0.121 C  
HETATM    7  C   UNL     1      -8.465   2.472  66.612  1.00  0.00    -0.101 C  
HETATM    8  O   UNL     1      -9.953   3.704  65.243  1.00  0.00    -0.324 OA 
HETATM    9  O   UNL     1      -5.834   7.285  73.646  1.00  0.00    -0.056 OA 
HETATM   10  C   UNL     1      -6.017   8.167  72.619  1.00  0.00    -0.059 A  
HETATM   11  C   UNL     1      -9.031   2.856  67.996  1.00  0.00    -0.153 C  
HETATM   12  H   UNL     1      -7.004   9.963  68.196  1.00  0.00     0.000 HD 
HETATM   13  H   UNL     1     -10.365   2.889  64.982  1.00  0.00     0.000 HD 
HETATM   14  O   UNL     1      -9.783   2.099  68.604  1.00  0.00    -0.121 OA 
HETATM   15  C   UNL     1      -8.572   4.251  68.540  1.00  0.00    -0.093 C  
HETATM   16  C   UNL     1      -5.429   9.428  72.751  1.00  0.00    -0.013 A  
HETATM   17  C   UNL     1      -5.604  10.376  71.757  1.00  0.00     0.202 A  
HETATM   18 CL   UNL     1      -6.594  11.388  69.526  1.00  0.00    -0.120 Cl 
HETATM   19  O   UNL     1      -7.051   9.029  68.031  1.00  0.00    -0.077 OA 
HETATM   20  O   UNL     1      -7.152   3.899  68.660  1.00  0.00    -0.050 OA 
HETATM   21  C   UNL     1      -8.757   4.879  69.918  1.00  0.00    -0.093 C  
HETATM   22  H   UNL     1      -6.972   3.279  69.358  1.00  0.00     0.000 HD 
HETATM   23  O   UNL     1      -9.160   4.068  70.957  1.00  0.00    -0.101 OA 
HETATM   24  C   UNL     1      -8.104   6.067  70.104  1.00  0.00    -0.114 C  
HETATM   25  C   UNL     1      -7.423   6.449  71.387  1.00  0.00    -0.089 C  
HETATM   26  H   UNL     1      -9.276   4.459  71.815  1.00  0.00     0.000 HD 
HETATM   27  O   UNL     1      -7.284   5.611  72.271  1.00  0.00    -0.085 OA 
HETATM   28  C   UNL     1      -6.767   7.816  71.475  1.00  0.00    -0.046 A  
HETATM   29  C   UNL     1      -6.887   8.770  70.431  1.00  0.00    -0.045 A  
HETATM   30  C   UNL     1      -6.345  10.065  70.620  1.00  0.00    -0.100 A  
HETATM   31  C   UNL     1      -7.646   8.416  69.181  1.00  0.00    -0.087 C  
ENDROOT
BRANCH   4  32
HETATM   32  N   UNL     1      -7.607   5.819  65.165  1.00  0.00    -0.082 NA 
HETATM   33  C   UNL     1      -6.200   5.627  64.788  1.00  0.00    -0.025 C  
HETATM   34  C   UNL     1      -8.461   5.915  63.994  1.00  0.00     0.076 C  
ENDBRANCH   4  32
BRANCH   7  35
HETATM   35  C   UNL     1      -7.057   1.970  66.477  1.00  0.00    -0.048 C  
HETATM   36  N   UNL     1      -6.452   1.472  67.586  1.00  0.00    -0.024 N  
HETATM   37  O   UNL     1      -6.446   1.937  65.403  1.00  0.00    -0.022 OA 
HETATM   38  H1  UNL     1      -5.496   1.131  67.494  1.00  0.00     0.000 HD 
HETATM   39  H2  UNL     1      -6.939   1.440  68.481  1.00  0.00     0.000 HD 
ENDBRANCH   7  35
TORSDOF 2
ENDMDL
MODEL       83
REMARK 921   NORMALIZED FREE ENERGY PREDICTED BY IDOCK:   -2.20 KCAL/MOL
REMARK 922        TOTAL FREE ENERGY PREDICTED BY IDOCK:   -2.60 KCAL/MOL
REMARK 923 INTER-LIGAND FREE ENERGY PREDICTED BY IDOCK:   -4.05 KCAL/MOL
REMARK 924 INTRA-LIGAND FREE ENERGY PREDICTED BY IDOCK:    1.45 KCAL/MOL
REMARK 927      BINDING AFFINITY PREDICTED BY RF-SCORE:    0.00 PKD
ROOT
HETATM    1  C   UNL     1      -8.359  10.813  68.914  1.00  0.00    -0.147 C  
HETATM    2  C   UNL     1      -8.134  12.250  69.359  1.00  0.00     0.834 C  
HETATM    3  C   UNL     1      -8.941  13.228  68.530  1.00  0.00    -0.058 C  
HETATM    4  C   UNL     1      -8.253  13.825  67.278  1.00  0.00    -0.159 C  
HETATM    5  H   UNL     1     -10.629   5.227  68.809  1.00  0.00     0.000 HD 
HETATM    6  C   UNL     1      -9.158  15.055  66.975  1.00  0.00    -0.230 C  
HETATM    7  C   UNL     1     -10.381  14.752  66.477  1.00  0.00    -0.287 C  
HETATM    8  O   UNL     1      -9.067  16.041  67.965  1.00  0.00    -0.187 OA 
HETATM    9  O   UNL     1     -10.470   6.162  68.877  1.00  0.00    -0.188 OA 
HETATM   10  C   UNL     1      -9.244   6.649  69.229  1.00  0.00    -0.140 A  
HETATM   11  C   UNL     1     -11.124  13.872  67.505  1.00  0.00    -0.286 C  
HETATM   12  H   UNL     1      -5.479   9.692  69.812  1.00  0.00     0.000 HD 
HETATM   13  H   UNL     1      -9.620  16.791  67.780  1.00  0.00     0.000 HD 
HETATM   14  O   UNL     1     -12.271  14.138  67.854  1.00  0.00    -0.319 OA 
HETATM   15  C   UNL     1     -10.311  12.646  68.044  1.00  0.00    -0.228 C  
HETATM   16  C   UNL     1      -8.236   5.716  69.482  1.00  0.00    -0.103 A  
HETATM   17  C   UNL     1      -6.980   6.148  69.873  1.00  0.00    -0.070 A  
HETATM   18 CL   UNL     1      -5.146   7.900  70.616  1.00  0.00    -0.023 Cl 
HETATM   19  O   UNL     1      -6.072  10.227  69.297  1.00  0.00    -0.037 OA 
HETATM   20  O   UNL     1     -10.230  11.949  66.755  1.00  0.00    -0.203 OA 
HETATM   21  C   UNL     1     -10.762  11.467  68.900  1.00  0.00    -0.207 C  
HETATM   22  H   UNL     1     -11.062  11.596  66.460  1.00  0.00     0.000 HD 
HETATM   23  O   UNL     1     -12.115  11.251  69.057  1.00  0.00    -0.394 OA 
HETATM   24  C   UNL     1      -9.822  10.489  69.076  1.00  0.00    -0.224 C  
HETATM   25  C   UNL     1     -10.141   9.021  69.084  1.00  0.00    -0.195 C  
HETATM   26  H   UNL     1     -12.395  10.518  69.590  1.00  0.00     0.000 HD 
HETATM   27  O   UNL     1     -11.260   8.643  68.754  1.00  0.00     0.193 OA 
HETATM   28  C   UNL     1      -9.008   8.039  69.330  1.00  0.00    -0.148 A  
HETATM   29  C   UNL     1      -7.701   8.477  69.666  1.00  0.00    -0.093 A  
HETATM   30  C   UNL     1      -6.717   7.510  69.990  1.00  0.00    -0.046 A  
HETATM   31  C   UNL     1      -7.404   9.949  69.743  1.00  0.00    -0.129 C  
ENDROOT
BRANCH   4  32
HETATM   32  N   UNL     1      -6.796  13.972  67.229  1.00  0.00    -0.176 NA 
HETATM   33  C   UNL     1      -6.374  15.100  68.069  1.00  0.00    -0.146 C  
HETATM   34  C   UNL     1      -6.005  12.783  67.500  1.00  0.00    -0.143 C  
ENDBRANCH   4  32
BRANCH   7  35
HETATM   35  C   UNL     1     -10.254  14.312  65.048  1.00  0.00    -0.372 C  
HETATM   36  N   UNL     1     -10.823  15.091  64.091  1.00  0.00    -0.242 N  
HETATM   37  O   UNL     1      -9.616  13.314  64.697  1.00  0.00     0.104 OA 
HETATM   38  H1  UNL     1     -10.736  14.792  63.120  1.00  0.00     0.000 HD 
HETATM   39  H2  UNL     1     -11.320  15.947  64.336  1.00  0.00     0.000 HD 
ENDBRANCH   7  35
TORSDOF 2
ENDMDL
MODEL       84
REMARK 921   NORMALIZED FREE ENERGY PREDICTED BY IDOCK:   -1.81 KCAL/MOL
REMARK 922        TOTAL FREE ENERGY PREDICTED BY IDOCK:   -2.15 KCAL/MOL
REMARK 923 INTER-LIGAND FREE ENERGY PREDICTED BY IDOCK:   -2.97 KCAL/MOL
REMARK 924 INTRA-LIGAND FREE ENERGY PREDICTED BY IDOCK:    0.81 KCAL/MOL
REMARK 927      BINDING AFFINITY PREDICTED BY RF-SCORE:    0.00 PKD
ROOT
HETATM    1  C   UNL     1      -8.327   6.323  66.543  1.00  0.00    -0.114 C  
HETATM    2  C   UNL     1      -9.142   7.414  67.221  1.00  0.00    -0.135 C  
HETATM    3  C   UNL     1      -8.379   8.058  68.361  1.00  0.00    -0.127 C  
HETATM    4  C   UNL     1      -8.576   7.451  69.772  1.00  0.00    -0.140 C  
HETATM    5  H   UNL     1      -4.709   3.655  62.523  1.00  0.00     0.000 HD 
HETATM    6  C   UNL     1      -8.041   8.592  70.685  1.00  0.00    -0.120 C  
HETATM    7  C   UNL     1      -6.696   8.757  70.662  1.00  0.00    -0.048 C  
HETATM    8  O   UNL     1      -8.853   9.733  70.646  1.00  0.00    -0.312 OA 
HETATM    9  O   UNL     1      -5.150   4.242  63.126  1.00  0.00    -0.005 OA 
HETATM   10  C   UNL     1      -6.487   4.124  63.381  1.00  0.00    -0.030 A  
HETATM   11  C   UNL     1      -6.269   9.083  69.215  1.00  0.00    -0.041 C  
HETATM   12  H   UNL     1     -10.826   4.548  65.563  1.00  0.00     0.000 HD 
HETATM   13  H   UNL     1      -8.527  10.429  71.203  1.00  0.00     0.000 HD 
HETATM   14  O   UNL     1      -5.536  10.038  68.971  1.00  0.00    -0.036 OA 
HETATM   15  C   UNL     1      -6.833   8.116  68.119  1.00  0.00    -0.076 C  
HETATM   16  C   UNL     1      -7.174   3.104  62.718  1.00  0.00    -0.048 A  
HETATM   17  C   UNL     1      -8.537   2.954  62.911  1.00  0.00    -0.085 A  
HETATM   18 CL   UNL     1     -10.936   3.584  63.824  1.00  0.00    -0.197 Cl 
HETATM   19  O   UNL     1     -10.254   4.947  66.209  1.00  0.00    -0.228 OA 
HETATM   20  O   UNL     1      -6.118   6.926  68.596  1.00  0.00    -0.024 OA 
HETATM   21  C   UNL     1      -6.487   7.999  66.638  1.00  0.00    -0.055 C  
HETATM   22  H   UNL     1      -5.180   6.962  68.449  1.00  0.00     0.000 HD 
HETATM   23  O   UNL     1      -5.351   8.632  66.180  1.00  0.00    -0.033 OA 
HETATM   24  C   UNL     1      -7.068   6.943  65.991  1.00  0.00    -0.073 C  
HETATM   25  C   UNL     1      -6.368   6.117  64.950  1.00  0.00    -0.034 C  
HETATM   26  H   UNL     1      -5.136   8.560  65.258  1.00  0.00     0.000 HD 
HETATM   27  O   UNL     1      -5.164   6.266  64.769  1.00  0.00    -0.016 OA 
HETATM   28  C   UNL     1      -7.143   4.997  64.278  1.00  0.00    -0.050 A  
HETATM   29  C   UNL     1      -8.526   4.795  64.523  1.00  0.00    -0.140 A  
HETATM   30  C   UNL     1      -9.214   3.803  63.783  1.00  0.00    -0.123 A  
HETATM   31  C   UNL     1      -9.247   5.680  65.502  1.00  0.00    -0.006 C  
ENDROOT
BRANCH   4  32
HETATM   32  N   UNL     1      -9.827   6.773  70.121  1.00  0.00    -0.177 NA 
HETATM   33  C   UNL     1     -10.975   7.614  69.757  1.00  0.00    -0.170 C  
HETATM   34  C   UNL     1      -9.994   5.411  69.643  1.00  0.00    -0.227 C  
ENDBRANCH   4  32
BRANCH   7  35
HETATM   35  C   UNL     1      -6.034   7.644  71.420  1.00  0.00    -0.035 C  
HETATM   36  N   UNL     1      -5.631   7.895  72.692  1.00  0.00    -0.036 N  
HETATM   37  O   UNL     1      -5.888   6.504  70.966  1.00  0.00    -0.026 OA 
HETATM   38  H1  UNL     1      -5.181   7.139  73.207  1.00  0.00     0.000 HD 
HETATM   39  H2  UNL     1      -5.775   8.810  73.119  1.00  0.00     0.000 HD 
ENDBRANCH   7  35
TORSDOF 2
ENDMDL
MODEL       85
REMARK 921   NORMALIZED FREE ENERGY PREDICTED BY IDOCK:   -1.60 KCAL/MOL
REMARK 922        TOTAL FREE ENERGY PREDICTED BY IDOCK:   -1.92 KCAL/MOL
REMARK 923 INTER-LIGAND FREE ENERGY PREDICTED BY IDOCK:   -2.79 KCAL/MOL
REMARK 924 INTRA-LIGAND FREE ENERGY PREDICTED BY IDOCK:    0.87 KCAL/MOL
REMARK 927      BINDING AFFINITY PREDICTED BY RF-SCORE:    0.00 PKD
ROOT
HETATM    1  C   UNL     1      -8.303   7.148  68.040  1.00  0.00    -0.119 C  
HETATM    2  C   UNL     1      -8.331   8.264  69.074  1.00  0.00    -0.120 C  
HETATM    3  C   UNL     1      -9.010   9.508  68.539  1.00  0.00    -0.128 C  
HETATM    4  C   UNL     1      -8.106  10.567  67.860  1.00  0.00    -0.107 C  
HETATM    5  H   UNL     1      -9.929   2.146  65.090  1.00  0.00     0.000 HD 
HETATM    6  C   UNL     1      -9.030  11.820  67.865  1.00  0.00    -0.180 C  
HETATM    7  C   UNL     1     -10.065  11.769  66.992  1.00  0.00    -0.232 C  
HETATM    8  O   UNL     1      -9.272  12.300  69.158  1.00  0.00    -0.272 OA 
HETATM    9  O   UNL     1      -9.883   2.964  65.571  1.00  0.00     0.085 OA 
HETATM   10  C   UNL     1      -8.828   3.246  66.392  1.00  0.00    -0.141 A  
HETATM   11  C   UNL     1     -10.940  10.547  67.344  1.00  0.00    -0.288 C  
HETATM   12  H   UNL     1      -5.623   5.722  69.106  1.00  0.00     0.000 HD 
HETATM   13  H   UNL     1      -9.836  13.065  69.161  1.00  0.00     0.000 HD 
HETATM   14  O   UNL     1     -12.158  10.655  67.465  1.00  0.00     0.143 OA 
HETATM   15  C   UNL     1     -10.163   9.199  67.525  1.00  0.00    -0.245 C  
HETATM   16  C   UNL     1      -7.823   2.281  66.491  1.00  0.00    -0.072 A  
HETATM   17  C   UNL     1      -6.743   2.495  67.331  1.00  0.00    -0.040 A  
HETATM   18 CL   UNL     1      -5.317   3.754  69.166  1.00  0.00    -0.011 Cl 
HETATM   19  O   UNL     1      -6.126   6.430  68.722  1.00  0.00    -0.026 OA 
HETATM   20  O   UNL     1      -9.712   9.105  66.131  1.00  0.00    -0.248 OA 
HETATM   21  C   UNL     1     -10.686   7.775  67.679  1.00  0.00    -0.157 C  
HETATM   22  H   UNL     1     -10.411   8.918  65.516  1.00  0.00     0.000 HD 
HETATM   23  O   UNL     1     -12.010   7.528  67.382  1.00  0.00     1.271 OA 
HETATM   24  C   UNL     1      -9.724   6.802  67.675  1.00  0.00    -0.146 C  
HETATM   25  C   UNL     1      -9.892   5.470  67.002  1.00  0.00    -0.158 C  
HETATM   26  H   UNL     1     -12.337   6.642  67.479  1.00  0.00     0.000 HD 
HETATM   27  O   UNL     1     -10.858   5.278  66.273  1.00  0.00    -0.285 OA 
HETATM   28  C   UNL     1      -8.759   4.462  67.107  1.00  0.00    -0.106 A  
HETATM   29  C   UNL     1      -7.618   4.704  67.915  1.00  0.00    -0.078 A  
HETATM   30  C   UNL     1      -6.650   3.680  68.056  1.00  0.00    -0.042 A  
HETATM   31  C   UNL     1      -7.493   6.006  68.659  1.00  0.00    -0.087 C  
ENDROOT
BRANCH   4  32
HETATM   32  N   UNL     1      -6.701  10.704  68.250  1.00  0.00    -0.063 NA 
HETATM   33  C   UNL     1      -6.015  11.635  67.344  1.00  0.00    -0.096 C  
HETATM   34  C   UNL     1      -6.432  11.024  69.642  1.00  0.00    -0.123 C  
ENDBRANCH   4  32
BRANCH   7  35
HETATM   35  C   UNL     1      -9.561  11.966  65.592  1.00  0.00    -0.204 C  
HETATM   36  N   UNL     1      -8.728  11.024  65.079  1.00  0.00    -0.364 N  
HETATM   37  O   UNL     1      -9.907  12.908  64.870  1.00  0.00    -0.158 OA 
HETATM   38  H1  UNL     1      -8.386  11.158  64.128  1.00  0.00     0.000 HD 
HETATM   39  H2  UNL     1      -8.455  10.208  65.627  1.00  0.00     0.000 HD 
ENDBRANCH   7  35
TORSDOF 2
ENDMDL
MODEL       86
REMARK 921   NORMALIZED FREE ENERGY PREDICTED BY IDOCK:    1.62 KCAL/MOL
REMARK 922        TOTAL FREE ENERGY PREDICTED BY IDOCK:    1.68 KCAL/MOL
REMARK 923 INTER-LIGAND FREE ENERGY PREDICTED BY IDOCK:    0.93 KCAL/MOL
REMARK 924 INTRA-LIGAND FREE ENERGY PREDICTED BY IDOCK:    0.75 KCAL/MOL
REMARK 927      BINDING AFFINITY PREDICTED BY RF-SCORE:    0.00 PKD
ROOT
HETATM    1  C   UNL     1     -10.373  10.390  68.078  1.00  0.00    -0.212 C  
HETATM    2  C   UNL     1     -11.501  11.411  68.098  1.00  0.00    -0.375 C  
HETATM    3  C   UNL     1     -10.973  12.829  68.177  1.00  0.00    -0.273 C  
HETATM    4  C   UNL     1     -10.799  13.439  69.590  1.00  0.00     0.244 C  
HETATM    5  H   UNL     1      -6.317   6.505  65.881  1.00  0.00     0.000 HD 
HETATM    6  C   UNL     1     -10.696  14.958  69.268  1.00  0.00    -0.249 C  
HETATM    7  C   UNL     1      -9.537  15.339  68.679  1.00  0.00    -0.206 C  
HETATM    8  O   UNL     1     -11.898  15.481  68.774  1.00  0.00    -0.417 OA 
HETATM    9  O   UNL     1      -6.908   7.230  66.053  1.00  0.00    -0.055 OA 
HETATM   10  C   UNL     1      -8.060   7.051  66.764  1.00  0.00    -0.109 A  
HETATM   11  C   UNL     1      -9.391  14.572  67.347  1.00  0.00    -0.197 C  
HETATM   12  H   UNL     1     -12.020   7.990  69.449  1.00  0.00     0.000 HD 
HETATM   13  H   UNL     1     -11.835  16.409  68.578  1.00  0.00     0.000 HD 
HETATM   14  O   UNL     1      -9.124  15.163  66.304  1.00  0.00    -0.288 OA 
HETATM   15  C   UNL     1      -9.604  13.023  67.442  1.00  0.00    -0.211 C  
HETATM   16  C   UNL     1      -8.331   5.761  67.225  1.00  0.00    -0.104 A  
HETATM   17  C   UNL     1      -9.499   5.512  67.926  1.00  0.00    -0.128 A  
HETATM   18 CL   UNL     1     -11.870   6.066  68.953  1.00  0.00     0.775 Cl 
HETATM   19  O   UNL     1     -11.607   8.845  69.423  1.00  0.00     0.304 OA 
HETATM   20  O   UNL     1      -8.437  12.770  68.295  1.00  0.00    -0.168 OA 
HETATM   21  C   UNL     1      -9.357  11.932  66.406  1.00  0.00    -0.226 C  
HETATM   22  H   UNL     1      -7.607  12.888  67.849  1.00  0.00     0.000 HD 
HETATM   23  O   UNL     1      -8.611  12.245  65.290  1.00  0.00     0.159 OA 
HETATM   24  C   UNL     1      -9.516  10.653  66.866  1.00  0.00    -0.189 C  
HETATM   25  C   UNL     1      -8.628   9.509  66.467  1.00  0.00    -0.134 C  
HETATM   26  H   UNL     1      -8.457  11.566  64.644  1.00  0.00     0.000 HD 
HETATM   27  O   UNL     1      -7.602   9.732  65.832  1.00  0.00    -0.098 OA 
HETATM   28  C   UNL     1      -8.938   8.129  67.019  1.00  0.00    -0.160 A  
HETATM   29  C   UNL     1     -10.101   7.880  67.794  1.00  0.00    -0.246 A  
HETATM   30  C   UNL     1     -10.390   6.550  68.187  1.00  0.00    -0.187 A  
HETATM   31  C   UNL     1     -11.037   9.011  68.119  1.00  0.00     0.220 C  
ENDROOT
BRANCH   4  32
HETATM   32  N   UNL     1     -11.642  12.991  70.701  1.00  0.00     0.218 NA 
HETATM   33  C   UNL     1     -13.037  13.389  70.469  1.00  0.00     0.214 C  
HETATM   34  C   UNL     1     -11.546  11.591  71.078  1.00  0.00     0.739 C  
ENDBRANCH   4  32
BRANCH   7  35
HETATM   35  C   UNL     1      -8.427  15.330  69.689  1.00  0.00    -0.101 C  
HETATM   36  N   UNL     1      -8.658  15.916  70.891  1.00  0.00     2.561 N  
HETATM   37  O   UNL     1      -7.340  14.771  69.501  1.00  0.00    -0.172 OA 
HETATM   38  H1  UNL     1      -7.904  15.910  71.577  1.00  0.00     0.000 HD 
HETATM   39  H2  UNL     1      -9.558  16.349  71.102  1.00  0.00     0.000 HD 
ENDBRANCH   7  35
TORSDOF 2
ENDMDL
MODEL       87
REMARK 921   NORMALIZED FREE ENERGY PREDICTED BY IDOCK:    2.63 KCAL/MOL
REMARK 922        TOTAL FREE ENERGY PREDICTED BY IDOCK:    2.80 KCAL/MOL
REMARK 923 INTER-LIGAND FREE ENERGY PREDICTED BY IDOCK:    2.05 KCAL/MOL
REMARK 924 INTRA-LIGAND FREE ENERGY PREDICTED BY IDOCK:    0.75 KCAL/MOL
REMARK 927      BINDING AFFINITY PREDICTED BY RF-SCORE:    0.00 PKD
ROOT
HETATM    1  C   UNL     1      -9.020  12.654  67.395  1.00  0.00    -0.190 C  
HETATM    2  C   UNL     1      -8.294  12.138  68.629  1.00  0.00    -0.016 C  
HETATM    3  C   UNL     1      -7.579  13.251  69.366  1.00  0.00     0.480 C  
HETATM    4  C   UNL     1      -6.103  13.519  68.979  1.00  0.00    -0.086 C  
HETATM    5  H   UNL     1     -13.524  14.665  63.925  1.00  0.00     0.000 HD 
HETATM    6  C   UNL     1      -5.605  14.355  70.194  1.00  0.00    -0.119 C  
HETATM    7  C   UNL     1      -6.088  15.619  70.252  1.00  0.00    -0.066 C  
HETATM    8  O   UNL     1      -5.557  13.604  71.375  1.00  0.00    -0.204 OA 
HETATM    9  O   UNL     1     -12.910  14.463  64.623  1.00  0.00    -0.643 OA 
HETATM   10  C   UNL     1     -12.221  13.284  64.642  1.00  0.00    -0.407 A  
HETATM   11  C   UNL     1      -7.628  15.550  70.339  1.00  0.00     0.871 C  
HETATM   12  H   UNL     1      -8.845   9.928  65.694  1.00  0.00     0.000 HD 
HETATM   13  H   UNL     1      -5.253  14.115  72.116  1.00  0.00     0.000 HD 
HETATM   14  O   UNL     1      -8.242  16.184  71.193  1.00  0.00     3.826 OA 
HETATM   15  C   UNL     1      -8.315  14.631  69.273  1.00  0.00     0.015 C  
HETATM   16  C   UNL     1     -12.456  12.391  63.595  1.00  0.00    -0.610 A  
HETATM   17  C   UNL     1     -11.810  11.166  63.576  1.00  0.00     0.556 A  
HETATM   18 CL   UNL     1     -10.281   9.223  64.507  1.00  0.00     1.461 Cl 
HETATM   19  O   UNL     1      -8.490  10.691  66.135  1.00  0.00    -0.147 OA 
HETATM   20  O   UNL     1      -7.916  15.433  68.111  1.00  0.00    -0.127 OA 
HETATM   21  C   UNL     1      -9.790  14.463  68.924  1.00  0.00    -0.163 C  
HETATM   22  H   UNL     1      -8.363  16.270  68.055  1.00  0.00     0.000 HD 
HETATM   23  O   UNL     1     -10.686  15.397  69.400  1.00  0.00    -0.229 OA 
HETATM   24  C   UNL     1     -10.040  13.673  67.835  1.00  0.00    -0.244 C  
HETATM   25  C   UNL     1     -11.108  13.967  66.821  1.00  0.00    -0.306 C  
HETATM   26  H   UNL     1     -11.605  15.292  69.183  1.00  0.00     0.000 HD 
HETATM   27  O   UNL     1     -11.690  15.046  66.851  1.00  0.00    -0.300 OA 
HETATM   28  C   UNL     1     -11.308  12.985  65.679  1.00  0.00    -0.330 A  
HETATM   29  C   UNL     1     -10.600  11.758  65.619  1.00  0.00    -0.314 A  
HETATM   30  C   UNL     1     -10.911  10.838  64.587  1.00  0.00     0.043 A  
HETATM   31  C   UNL     1      -9.592  11.424  66.684  1.00  0.00    -0.191 C  
ENDROOT
BRANCH   4  32
HETATM   32  N   UNL     1      -5.266  12.438  68.453  1.00  0.00    -0.052 NA 
HETATM   33  C   UNL     1      -5.544  11.188  69.173  1.00  0.00    -0.040 C  
HETATM   34  C   UNL     1      -5.278  12.236  67.015  1.00  0.00     0.004 C  
ENDBRANCH   4  32
BRANCH   7  35
HETATM   35  C   UNL     1      -5.421  16.468  69.209  1.00  0.00    -0.137 C  
HETATM   36  N   UNL     1      -5.183  15.910  67.995  1.00  0.00    -0.115 N  
HETATM   37  O   UNL     1      -5.132  17.657  69.382  1.00  0.00    -0.165 OA 
HETATM   38  H1  UNL     1      -4.730  16.486  67.286  1.00  0.00     0.000 HD 
HETATM   39  H2  UNL     1      -5.448  14.945  67.798  1.00  0.00     0.000 HD 
ENDBRANCH   7  35
TORSDOF 2
ENDMDL
MODEL       88
REMARK 921   NORMALIZED FREE ENERGY PREDICTED BY IDOCK:    3.65 KCAL/MOL
REMARK 922        TOTAL FREE ENERGY PREDICTED BY IDOCK:    3.94 KCAL/MOL
REMARK 923 INTER-LIGAND FREE ENERGY PREDICTED BY IDOCK:    3.53 KCAL/MOL
REMARK 924 INTRA-LIGAND FREE ENERGY PREDICTED BY IDOCK:    0.42 KCAL/MOL
REMARK 927      BINDING AFFINITY PREDICTED BY RF-SCORE:    0.00 PKD
ROOT
HETATM    1  C   UNL     1      -8.607  14.597  67.947  1.00  0.00    -0.165 C  
HETATM    2  C   UNL     1      -7.670  15.519  68.714  1.00  0.00    -0.159 C  
HETATM    3  C   UNL     1      -8.376  16.777  69.179  1.00  0.00    -0.086 C  
HETATM    4  C   UNL     1      -8.324  18.003  68.236  1.00  0.00    -0.290 C  
HETATM    5  H   UNL     1     -12.411  10.045  66.868  1.00  0.00     0.000 HD 
HETATM    6  C   UNL     1      -8.725  19.159  69.198  1.00  0.00    -0.101 C  
HETATM    7  C   UNL     1     -10.029  19.171  69.563  1.00  0.00     0.030 C  
HETATM    8  O   UNL     1      -7.755  19.395  70.181  1.00  0.00     0.452 OA 
HETATM    9  O   UNL     1     -11.914  10.772  67.224  1.00  0.00    -0.086 OA 
HETATM   10  C   UNL     1     -10.619  10.996  66.851  1.00  0.00    -0.258 A  
HETATM   11  C   UNL     1     -10.348  17.841  70.279  1.00  0.00     1.259 C  
HETATM   12  H   UNL     1      -6.353  13.234  66.099  1.00  0.00     0.000 HD 
HETATM   13  H   UNL     1      -8.000  20.101  70.768  1.00  0.00     0.000 HD 
HETATM   14  O   UNL     1     -10.925  17.829  71.363  1.00  0.00     1.353 OA 
HETATM   15  C   UNL     1      -9.887  16.549  69.522  1.00  0.00    -0.080 C  
HETATM   16  C   UNL     1     -10.061  10.112  65.925  1.00  0.00    -0.325 A  
HETATM   17  C   UNL     1      -8.743  10.270  65.531  1.00  0.00    -0.176 A  
HETATM   18 CL   UNL     1      -6.316  11.315  65.564  1.00  0.00     0.286 Cl 
HETATM   19  O   UNL     1      -6.886  13.953  66.415  1.00  0.00     1.617 OA 
HETATM   20  O   UNL     1     -10.784  16.726  68.375  1.00  0.00    -0.330 OA 
HETATM   21  C   UNL     1     -10.188  15.082  69.809  1.00  0.00    -0.125 C  
HETATM   22  H   UNL     1     -11.701  16.588  68.584  1.00  0.00     0.000 HD 
HETATM   23  O   UNL     1     -11.202  14.782  70.695  1.00  0.00    -0.432 OA 
HETATM   24  C   UNL     1      -9.740  14.204  68.860  1.00  0.00    -0.084 C  
HETATM   25  C   UNL     1     -10.511  12.994  68.416  1.00  0.00    -0.252 C  
HETATM   26  H   UNL     1     -11.389  13.869  70.874  1.00  0.00     0.000 HD 
HETATM   27  O   UNL     1     -11.672  12.849  68.780  1.00  0.00    -0.286 OA 
HETATM   28  C   UNL     1      -9.880  12.078  67.381  1.00  0.00    -0.191 A  
HETATM   29  C   UNL     1      -8.551  12.273  66.923  1.00  0.00    -0.182 A  
HETATM   30  C   UNL     1      -7.984  11.321  66.041  1.00  0.00     0.020 A  
HETATM   31  C   UNL     1      -7.749  13.437  67.436  1.00  0.00    -0.137 C  
ENDROOT
BRANCH   4  32
HETATM   32  N   UNL     1      -7.199  18.186  67.316  1.00  0.00    -0.197 NA 
HETATM   33  C   UNL     1      -7.676  18.727  66.036  1.00  0.00    -0.199 C  
HETATM   34  C   UNL     1      -6.056  18.932  67.813  1.00  0.00    -0.201 C  
ENDBRANCH   4  32
BRANCH   7  35
HETATM   35  C   UNL     1     -10.875  19.640  68.415  1.00  0.00     0.315 C  
HETATM   36  N   UNL     1     -10.251  19.927  67.244  1.00  0.00    -0.416 N  
HETATM   37  O   UNL     1     -12.107  19.723  68.466  1.00  0.00     2.952 OA 
HETATM   38  H1  UNL     1     -10.826  20.245  66.463  1.00  0.00     0.000 HD 
HETATM   39  H2  UNL     1      -9.241  19.827  67.147  1.00  0.00     0.000 HD 
ENDBRANCH   7  35
TORSDOF 2
ENDMDL
MODEL       89
REMARK 921   NORMALIZED FREE ENERGY PREDICTED BY IDOCK:    4.62 KCAL/MOL
REMARK 922        TOTAL FREE ENERGY PREDICTED BY IDOCK:    5.03 KCAL/MOL
REMARK 923 INTER-LIGAND FREE ENERGY PREDICTED BY IDOCK:    4.97 KCAL/MOL
REMARK 924 INTRA-LIGAND FREE ENERGY PREDICTED BY IDOCK:    0.06 KCAL/MOL
REMARK 927      BINDING AFFINITY PREDICTED BY RF-SCORE:    0.00 PKD
ROOT
HETATM    1  C   UNL     1      -9.130  16.989  67.415  1.00  0.00    -0.225 C  
HETATM    2  C   UNL     1     -10.272  16.578  66.498  1.00  0.00    -0.305 C  
HETATM    3  C   UNL     1     -10.904  15.273  66.938  1.00  0.00    -0.317 C  
HETATM    4  C   UNL     1     -10.337  13.972  66.319  1.00  0.00    -0.293 C  
HETATM    5  H   UNL     1      -6.211  19.799  71.882  1.00  0.00     0.000 HD 
HETATM    6  C   UNL     1     -11.472  12.953  66.632  1.00  0.00    -0.343 C  
HETATM    7  C   UNL     1     -11.573  12.595  67.934  1.00  0.00    -0.401 C  
HETATM    8  O   UNL     1     -12.647  13.229  65.923  1.00  0.00    -0.406 OA 
HETATM    9  O   UNL     1      -6.831  19.350  71.318  1.00  0.00     0.831 OA 
HETATM   10  C   UNL     1      -6.781  19.484  69.960  1.00  0.00    -0.110 A  
HETATM   11  C   UNL     1     -11.848  13.864  68.769  1.00  0.00    -0.361 C  
HETATM   12  H   UNL     1      -7.453  18.624  65.208  1.00  0.00     0.000 HD 
HETATM   13  H   UNL     1     -13.339  12.607  66.113  1.00  0.00     0.000 HD 
HETATM   14  O   UNL     1     -12.762  13.896  69.589  1.00  0.00    -0.137 OA 
HETATM   15  C   UNL     1     -10.884  15.067  68.490  1.00  0.00    -0.250 C  
HETATM   16  C   UNL     1      -5.780  20.307  69.438  1.00  0.00    -0.344 A  
HETATM   17  C   UNL     1      -5.697  20.507  68.070  1.00  0.00    -0.290 A  
HETATM   18 CL   UNL     1      -6.458  20.317  65.546  1.00  0.00    -0.261 Cl 
HETATM   19  O   UNL     1      -7.839  17.846  65.593  1.00  0.00    -0.534 OA 
HETATM   20  O   UNL     1      -9.673  14.399  68.980  1.00  0.00    -0.339 OA 
HETATM   21  C   UNL     1     -10.720  16.388  69.235  1.00  0.00    -0.325 C  
HETATM   22  H   UNL     1      -9.662  14.274  69.922  1.00  0.00     0.000 HD 
HETATM   23  O   UNL     1     -11.290  16.510  70.485  1.00  0.00    -0.516 OA 
HETATM   24  C   UNL     1      -9.679  17.166  68.808  1.00  0.00    -0.277 C  
HETATM   25  C   UNL     1      -8.799  17.960  69.731  1.00  0.00     1.308 C  
HETATM   26  H   UNL     1     -11.188  17.333  70.948  1.00  0.00     0.000 HD 
HETATM   27  O   UNL     1      -8.887  17.793  70.942  1.00  0.00     5.051 OA 
HETATM   28  C   UNL     1      -7.702  18.816  69.122  1.00  0.00    -0.144 A  
HETATM   29  C   UNL     1      -7.570  18.972  67.718  1.00  0.00    -0.270 A  
HETATM   30  C   UNL     1      -6.595  19.869  67.217  1.00  0.00    -0.204 A  
HETATM   31  C   UNL     1      -8.509  18.244  66.795  1.00  0.00    -0.260 C  
ENDROOT
BRANCH   4  32
HETATM   32  N   UNL     1      -9.726  13.987  64.988  1.00  0.00    -0.017 NA 
HETATM   33  C   UNL     1      -8.430  14.676  65.036  1.00  0.00     4.897 C  
HETATM   34  C   UNL     1      -9.624  12.713  64.296  1.00  0.00     0.265 C  
ENDBRANCH   4  32
BRANCH   7  35
HETATM   35  C   UNL     1     -10.447  11.672  68.298  1.00  0.00    -0.204 C  
HETATM   36  N   UNL     1      -9.966  11.728  69.567  1.00  0.00    -0.081 N  
HETATM   37  O   UNL     1      -9.977  10.832  67.523  1.00  0.00    -0.169 OA 
HETATM   38  H1  UNL     1      -9.201  11.101  69.814  1.00  0.00     0.000 HD 
HETATM   39  H2  UNL     1     -10.358  12.376  70.250  1.00  0.00     0.000 HD 
ENDBRANCH   7  35
TORSDOF 2
ENDMDL
MODEL       90
REMARK 921   NORMALIZED FREE ENERGY PREDICTED BY IDOCK:    5.31 KCAL/MOL
REMARK 922        TOTAL FREE ENERGY PREDICTED BY IDOCK:    5.80 KCAL/MOL
REMARK 923 INTER-LIGAND FREE ENERGY PREDICTED BY IDOCK:    4.01 KCAL/MOL
REMARK 924 INTRA-LIGAND FREE ENERGY PREDICTED BY IDOCK:    1.79 KCAL/MOL
REMARK 927      BINDING AFFINITY PREDICTED BY RF-SCORE:    0.00 PKD
ROOT
HETATM    1  C   UNL     1      -8.678   8.151  66.160  1.00  0.00    -0.179 C  
HETATM    2  C   UNL     1      -9.793   7.148  65.902  1.00  0.00     0.444 C  
HETATM    3  C   UNL     1      -9.289   5.721  65.957  1.00  0.00    -0.134 C  
HETATM    4  C   UNL     1      -8.820   5.087  64.624  1.00  0.00    -0.114 C  
HETATM    5  H   UNL     1      -5.130  11.999  69.154  1.00  0.00     0.000 HD 
HETATM    6  C   UNL     1      -8.820   3.571  64.977  1.00  0.00    -0.124 C  
HETATM    7  C   UNL     1      -7.826   3.180  65.810  1.00  0.00    -0.085 C  
HETATM    8  O   UNL     1     -10.111   3.075  65.199  1.00  0.00    -0.374 OA 
HETATM    9  O   UNL     1      -5.682  11.282  68.864  1.00  0.00    -0.043 OA 
HETATM   10  C   UNL     1      -6.647  11.469  67.915  1.00  0.00    -0.064 A  
HETATM   11  C   UNL     1      -7.963   3.964  67.134  1.00  0.00    -0.092 C  
HETATM   12  H   UNL     1      -9.935  10.557  64.434  1.00  0.00     0.000 HD 
HETATM   13  H   UNL     1     -10.111   2.150  65.414  1.00  0.00     0.000 HD 
HETATM   14  O   UNL     1      -7.943   3.384  68.216  1.00  0.00    -0.069 OA 
HETATM   15  C   UNL     1      -8.119   5.514  66.977  1.00  0.00    -0.101 C  
HETATM   16  C   UNL     1      -6.784  12.757  67.392  1.00  0.00    -0.138 A  
HETATM   17  C   UNL     1      -7.764  13.015  66.449  1.00  0.00     1.157 A  
HETATM   18 CL   UNL     1      -9.861  12.485  64.930  1.00  0.00    -0.153 Cl 
HETATM   19  O   UNL     1      -9.555   9.696  64.559  1.00  0.00    -0.224 OA 
HETATM   20  O   UNL     1      -6.789   5.736  66.400  1.00  0.00    -0.056 OA 
HETATM   21  C   UNL     1      -8.085   6.617  68.031  1.00  0.00    -0.110 C  
HETATM   22  H   UNL     1      -6.079   5.611  67.020  1.00  0.00     0.000 HD 
HETATM   23  O   UNL     1      -7.609   6.308  69.287  1.00  0.00    -0.094 OA 
HETATM   24  C   UNL     1      -8.114   7.891  67.534  1.00  0.00    -0.124 C  
HETATM   25  C   UNL     1      -7.313   9.026  68.106  1.00  0.00    -0.083 C  
HETATM   26  H   UNL     1      -7.588   6.994  69.943  1.00  0.00     0.000 HD 
HETATM   27  O   UNL     1      -6.457   8.795  68.953  1.00  0.00    -0.047 OA 
HETATM   28  C   UNL     1      -7.468  10.403  67.484  1.00  0.00    -0.093 A  
HETATM   29  C   UNL     1      -8.426  10.660  66.470  1.00  0.00    -0.144 A  
HETATM   30  C   UNL     1      -8.595  11.988  66.008  1.00  0.00     0.203 A  
HETATM   31  C   UNL     1      -9.290   9.540  65.958  1.00  0.00    -0.216 C  
ENDROOT
BRANCH   4  32
HETATM   32  N   UNL     1      -9.388   5.533  63.349  1.00  0.00     0.612 NA 
HETATM   33  C   UNL     1     -10.500   4.655  62.959  1.00  0.00     0.486 C  
HETATM   34  C   UNL     1      -9.758   6.934  63.247  1.00  0.00     4.046 C  
ENDBRANCH   4  32
BRANCH   7  35
HETATM   35  C   UNL     1      -6.521   3.156  65.070  1.00  0.00    -0.035 C  
HETATM   36  N   UNL     1      -5.566   2.290  65.498  1.00  0.00    -0.016 N  
HETATM   37  O   UNL     1      -6.295   3.839  64.066  1.00  0.00    -0.028 OA 
HETATM   38  H1  UNL     1      -4.679   2.273  64.995  1.00  0.00     0.000 HD 
HETATM   39  H2  UNL     1      -5.731   1.677  66.296  1.00  0.00     0.000 HD 
ENDBRANCH   7  35
TORSDOF 2
ENDMDL
MODEL       91
REMARK 921   NORMALIZED FREE ENERGY PREDICTED BY IDOCK:    6.14 KCAL/MOL
REMARK 922        TOTAL FREE ENERGY PREDICTED BY IDOCK:    6.72 KCAL/MOL
REMARK 923 INTER-LIGAND FREE ENERGY PREDICTED BY IDOCK:    6.46 KCAL/MOL
REMARK 924 INTRA-LIGAND FREE ENERGY PREDICTED BY IDOCK:    0.25 KCAL/MOL
REMARK 927      BINDING AFFINITY PREDICTED BY RF-SCORE:    0.00 PKD
ROOT
HETATM    1  C   UNL     1      -8.442  11.935  69.838  1.00  0.00     2.276 C  
HETATM    2  C   UNL     1      -7.975  10.488  69.776  1.00  0.00    -0.014 C  
HETATM    3  C   UNL     1      -9.138   9.529  69.619  1.00  0.00    -0.207 C  
HETATM    4  C   UNL     1      -9.761   8.958  70.916  1.00  0.00    -0.239 C  
HETATM    5  H   UNL     1      -9.754  17.524  67.995  1.00  0.00     0.000 HD 
HETATM    6  C   UNL     1     -10.559   7.737  70.373  1.00  0.00    -0.227 C  
HETATM    7  C   UNL     1     -11.673   8.051  69.669  1.00  0.00     0.640 C  
HETATM    8  O   UNL     1      -9.721   6.729  69.879  1.00  0.00    -0.159 OA 
HETATM    9  O   UNL     1      -9.623  16.588  68.094  1.00  0.00    -0.219 OA 
HETATM   10  C   UNL     1      -8.629  16.092  68.889  1.00  0.00    -0.229 A  
HETATM   11  C   UNL     1     -11.258   8.910  68.456  1.00  0.00     0.424 C  
HETATM   12  H   UNL     1      -6.008  13.032  71.635  1.00  0.00     0.000 HD 
HETATM   13  H   UNL     1     -10.208   5.984  69.547  1.00  0.00     0.000 HD 
HETATM   14  O   UNL     1     -11.652   8.638  67.324  1.00  0.00     1.323 OA 
HETATM   15  C   UNL     1     -10.323  10.123  68.786  1.00  0.00    -0.194 C  
HETATM   16  C   UNL     1      -7.817  17.018  69.547  1.00  0.00     0.381 A  
HETATM   17  C   UNL     1      -6.773  16.576  70.342  1.00  0.00     0.935 A  
HETATM   18 CL   UNL     1      -5.129  14.806  71.414  1.00  0.00    -0.139 Cl 
HETATM   19  O   UNL     1      -6.782  12.509  71.462  1.00  0.00     2.268 OA 
HETATM   20  O   UNL     1     -11.308  10.848  69.597  1.00  0.00    -0.245 OA 
HETATM   21  C   UNL     1      -9.872  11.284  67.905  1.00  0.00    -0.176 C  
HETATM   22  H   UNL     1     -12.027  11.208  69.091  1.00  0.00     0.000 HD 
HETATM   23  O   UNL     1     -10.533  11.499  66.714  1.00  0.00    -0.222 OA 
HETATM   24  C   UNL     1      -9.161  12.258  68.553  1.00  0.00    -0.089 C  
HETATM   25  C   UNL     1      -9.315  13.725  68.273  1.00  0.00    -0.209 C  
HETATM   26  H   UNL     1     -10.251  12.221  66.166  1.00  0.00     0.000 HD 
HETATM   27  O   UNL     1     -10.230  14.111  67.555  1.00  0.00    -0.238 OA 
HETATM   28  C   UNL     1      -8.434  14.700  69.036  1.00  0.00    -0.095 A  
HETATM   29  C   UNL     1      -7.405  14.253  69.905  1.00  0.00     0.262 A  
HETATM   30  C   UNL     1      -6.549  15.211  70.502  1.00  0.00     0.139 A  
HETATM   31  C   UNL     1      -7.195  12.779  70.117  1.00  0.00     1.460 C  
ENDROOT
BRANCH   4  32
HETATM   32  N   UNL     1      -8.951   8.811  72.127  1.00  0.00    -0.385 NA 
HETATM   33  C   UNL     1      -9.800   8.411  73.257  1.00  0.00     0.191 C  
HETATM   34  C   UNL     1      -7.768   7.972  72.030  1.00  0.00    -0.103 C  
ENDBRANCH   4  32
BRANCH   7  35
HETATM   35  C   UNL     1     -12.749   8.522  70.604  1.00  0.00     0.407 C  
HETATM   36  N   UNL     1     -13.510   7.581  71.220  1.00  0.00    -0.579 N  
HETATM   37  O   UNL     1     -12.939   9.712  70.879  1.00  0.00    -0.277 OA 
HETATM   38  H1  UNL     1     -14.240   7.901  71.856  1.00  0.00     0.000 HD 
HETATM   39  H2  UNL     1     -13.354   6.587  71.054  1.00  0.00     0.000 HD 
ENDBRANCH   7  35
TORSDOF 2
ENDMDL
MODEL       92
REMARK 921   NORMALIZED FREE ENERGY PREDICTED BY IDOCK:    6.75 KCAL/MOL
REMARK 922        TOTAL FREE ENERGY PREDICTED BY IDOCK:    7.40 KCAL/MOL
REMARK 923 INTER-LIGAND FREE ENERGY PREDICTED BY IDOCK:    7.31 KCAL/MOL
REMARK 924 INTRA-LIGAND FREE ENERGY PREDICTED BY IDOCK:    0.09 KCAL/MOL
REMARK 927      BINDING AFFINITY PREDICTED BY RF-SCORE:    0.00 PKD
ROOT
HETATM    1  C   UNL     1      -8.868  11.577  68.276  1.00  0.00    -0.166 C  
HETATM    2  C   UNL     1     -10.062  12.503  68.454  1.00  0.00    -0.216 C  
HETATM    3  C   UNL     1     -10.789  12.742  67.146  1.00  0.00    -0.282 C  
HETATM    4  C   UNL     1     -10.346  13.967  66.308  1.00  0.00    -0.293 C  
HETATM    5  H   UNL     1      -5.622   6.496  68.253  1.00  0.00     0.000 HD 
HETATM    6  C   UNL     1     -11.553  14.140  65.340  1.00  0.00    -0.334 C  
HETATM    7  C   UNL     1     -11.653  13.192  64.378  1.00  0.00    -0.422 C  
HETATM    8  O   UNL     1     -12.719  14.538  66.007  1.00  0.00    -0.341 OA 
HETATM    9  O   UNL     1      -6.290   7.169  68.189  1.00  0.00    -0.040 OA 
HETATM   10  C   UNL     1      -6.261   8.274  68.991  1.00  0.00    -0.043 A  
HETATM   11  C   UNL     1     -11.801  11.816  65.061  1.00  0.00    -0.034 C  
HETATM   12  H   UNL     1      -7.116  12.759  70.701  1.00  0.00     0.000 HD 
HETATM   13  H   UNL     1     -13.455  14.644  65.417  1.00  0.00     0.000 HD 
HETATM   14  O   UNL     1     -12.691  11.037  64.728  1.00  0.00     1.591 OA 
HETATM   15  C   UNL     1     -10.749  11.510  66.181  1.00  0.00    -0.274 C  
HETATM   16  C   UNL     1      -5.209   8.372  69.904  1.00  0.00    -0.026 A  
HETATM   17  C   UNL     1      -5.142   9.455  70.765  1.00  0.00    -0.025 A  
HETATM   18 CL   UNL     1      -5.976  11.677  71.926  1.00  0.00     1.267 Cl 
HETATM   19  O   UNL     1      -7.554  12.795  69.860  1.00  0.00     0.970 OA 
HETATM   20  O   UNL     1      -9.586  11.500  65.286  1.00  0.00    -0.230 OA 
HETATM   21  C   UNL     1     -10.458  10.213  66.929  1.00  0.00    -0.222 C  
HETATM   22  H   UNL     1      -9.562  10.752  64.701  1.00  0.00     0.000 HD 
HETATM   23  O   UNL     1     -10.986   9.039  66.434  1.00  0.00     0.245 OA 
HETATM   24  C   UNL     1      -9.367  10.254  67.753  1.00  0.00    -0.156 C  
HETATM   25  C   UNL     1      -8.404   9.114  67.915  1.00  0.00    -0.117 C  
HETATM   26  H   UNL     1     -10.806   8.232  66.900  1.00  0.00     0.000 HD 
HETATM   27  O   UNL     1      -8.476   8.149  67.163  1.00  0.00    -0.121 OA 
HETATM   28  C   UNL     1      -7.254   9.275  68.895  1.00  0.00    -0.073 A  
HETATM   29  C   UNL     1      -7.143  10.414  69.734  1.00  0.00    -0.148 A  
HETATM   30  C   UNL     1      -6.110  10.454  70.702  1.00  0.00    -0.096 A  
HETATM   31  C   UNL     1      -8.161  11.518  69.632  1.00  0.00     0.849 C  
ENDROOT
BRANCH   4  32
HETATM   32  N   UNL     1      -9.768  15.144  66.960  1.00  0.00    -0.227 NA 
HETATM   33  C   UNL     1      -8.372  14.879  67.334  1.00  0.00    -0.194 C  
HETATM   34  C   UNL     1      -9.898  16.413  66.264  1.00  0.00    -0.314 C  
ENDBRANCH   4  32
BRANCH   7  35
HETATM   35  C   UNL     1     -10.598  13.413  63.333  1.00  0.00     1.252 C  
HETATM   36  N   UNL     1      -9.943  12.326  62.853  1.00  0.00    -0.152 N  
HETATM   37  O   UNL     1     -10.338  14.522  62.853  1.00  0.00     5.682 OA 
HETATM   38  H1  UNL     1      -9.226  12.476  62.143  1.00  0.00     0.000 HD 
HETATM   39  H2  UNL     1     -10.161  11.388  63.191  1.00  0.00     0.000 HD 
ENDBRANCH   7  35
TORSDOF 2
ENDMDL
MODEL       93
REMARK 921   NORMALIZED FREE ENERGY PREDICTED BY IDOCK:    8.28 KCAL/MOL
REMARK 922        TOTAL FREE ENERGY PREDICTED BY IDOCK:    9.11 KCAL/MOL
REMARK 923 INTER-LIGAND FREE ENERGY PREDICTED BY IDOCK:    9.18 KCAL/MOL
REMARK 924 INTRA-LIGAND FREE ENERGY PREDICTED BY IDOCK:   -0.07 KCAL/MOL
REMARK 927      BINDING AFFINITY PREDICTED BY RF-SCORE:    0.00 PKD
ROOT
HETATM    1  C   UNL     1      -9.541  14.317  65.939  1.00  0.00    -0.227 C  
HETATM    2  C   UNL     1      -8.728  15.601  66.021  1.00  0.00    -0.104 C  
HETATM    3  C   UNL     1      -7.872  15.646  67.270  1.00  0.00    -0.230 C  
HETATM    4  C   UNL     1      -8.489  16.311  68.524  1.00  0.00    -0.206 C  
HETATM    5  H   UNL     1     -11.082   8.706  64.359  1.00  0.00     0.000 HD 
HETATM    6  C   UNL     1      -7.227  16.570  69.398  1.00  0.00    -0.151 C  
HETATM    7  C   UNL     1      -6.673  15.459  69.942  1.00  0.00    -0.130 C  
HETATM    8  O   UNL     1      -6.378  17.532  68.837  1.00  0.00    -0.190 OA 
HETATM    9  O   UNL     1     -10.642   9.509  64.613  1.00  0.00     1.410 OA 
HETATM   10  C   UNL     1     -11.146  10.732  64.270  1.00  0.00     0.507 A  
HETATM   11  C   UNL     1      -6.257  14.510  68.798  1.00  0.00    -0.087 C  
HETATM   12  H   UNL     1     -11.987  15.534  64.240  1.00  0.00     0.000 HD 
HETATM   13  H   UNL     1      -5.608  17.690  69.370  1.00  0.00     0.000 HD 
HETATM   14  O   UNL     1      -5.132  14.019  68.761  1.00  0.00    -0.078 OA 
HETATM   15  C   UNL     1      -7.364  14.235  67.724  1.00  0.00    -0.174 C  
HETATM   16  C   UNL     1     -12.332  10.748  63.533  1.00  0.00     2.609 A  
HETATM   17  C   UNL     1     -12.875  11.957  63.130  1.00  0.00    -0.160 A  
HETATM   18 CL   UNL     1     -12.967  14.576  62.793  1.00  0.00     2.549 Cl 
HETATM   19  O   UNL     1     -11.428  15.449  65.003  1.00  0.00    -0.335 OA 
HETATM   20  O   UNL     1      -8.283  13.545  68.637  1.00  0.00    -0.261 OA 
HETATM   21  C   UNL     1      -7.396  13.226  66.581  1.00  0.00     1.146 C  
HETATM   22  H   UNL     1      -7.974  12.690  68.912  1.00  0.00     0.000 HD 
HETATM   23  O   UNL     1      -6.462  12.212  66.577  1.00  0.00    -0.438 OA 
HETATM   24  C   UNL     1      -8.585  13.152  65.909  1.00  0.00     1.056 C  
HETATM   25  C   UNL     1      -9.183  11.865  65.416  1.00  0.00     0.047 C  
HETATM   26  H   UNL     1      -6.481  11.583  65.865  1.00  0.00     0.000 HD 
HETATM   27  O   UNL     1      -8.689  10.797  65.762  1.00  0.00    -0.176 OA 
HETATM   28  C   UNL     1     -10.492  11.926  64.648  1.00  0.00    -0.340 A  
HETATM   29  C   UNL     1     -11.089  13.162  64.288  1.00  0.00    -0.426 A  
HETATM   30  C   UNL     1     -12.251  13.152  63.479  1.00  0.00    -0.476 A  
HETATM   31  C   UNL     1     -10.441  14.453  64.708  1.00  0.00    -0.367 C  
ENDROOT
BRANCH   4  32
HETATM   32  N   UNL     1      -9.500  17.362  68.386  1.00  0.00    -0.283 NA 
HETATM   33  C   UNL     1     -10.817  16.850  68.789  1.00  0.00    -0.289 C  
HETATM   34  C   UNL     1      -9.213  18.639  69.016  1.00  0.00    -0.123 C  
ENDBRANCH   4  32
BRANCH   7  35
HETATM   35  C   UNL     1      -7.530  14.964  71.070  1.00  0.00     1.751 C  
HETATM   36  N   UNL     1      -6.908  14.421  72.148  1.00  0.00     1.252 N  
HETATM   37  O   UNL     1      -8.761  15.075  71.090  1.00  0.00     2.107 OA 
HETATM   38  H1  UNL     1      -7.490  14.084  72.915  1.00  0.00     0.000 HD 
HETATM   39  H2  UNL     1      -5.891  14.353  72.190  1.00  0.00     0.000 HD 
ENDBRANCH   7  35
TORSDOF 2
ENDMDL
MODEL       94
REMARK 921   NORMALIZED FREE ENERGY PREDICTED BY IDOCK:    9.28 KCAL/MOL
REMARK 922        TOTAL FREE ENERGY PREDICTED BY IDOCK:   10.23 KCAL/MOL
REMARK 923 INTER-LIGAND FREE ENERGY PREDICTED BY IDOCK:    9.19 KCAL/MOL
REMARK 924 INTRA-LIGAND FREE ENERGY PREDICTED BY IDOCK:    1.03 KCAL/MOL
REMARK 927      BINDING AFFINITY PREDICTED BY RF-SCORE:    0.00 PKD
ROOT
HETATM    1  C   UNL     1     -10.341  11.458  67.950  1.00  0.00    -0.204 C  
HETATM    2  C   UNL     1      -9.573  12.771  67.918  1.00  0.00    -0.211 C  
HETATM    3  C   UNL     1     -10.259  13.844  68.738  1.00  0.00    -0.188 C  
HETATM    4  C   UNL     1     -11.264  14.761  67.999  1.00  0.00    -0.299 C  
HETATM    5  H   UNL     1     -11.914   5.880  69.615  1.00  0.00     0.000 HD 
HETATM    6  C   UNL     1     -11.397  15.951  68.993  1.00  0.00    -0.371 C  
HETATM    7  C   UNL     1     -12.087  15.674  70.125  1.00  0.00    -0.400 C  
HETATM    8  O   UNL     1     -10.213  16.693  69.098  1.00  0.00    -0.278 OA 
HETATM    9  O   UNL     1     -11.627   6.784  69.560  1.00  0.00    -0.230 OA 
HETATM   10  C   UNL     1     -11.039   7.275  68.429  1.00  0.00     0.132 A  
HETATM   11  C   UNL     1     -11.366  14.529  70.868  1.00  0.00    -0.022 C  
HETATM   12  H   UNL     1      -9.380  10.394  65.070  1.00  0.00     0.000 HD 
HETATM   13  H   UNL     1     -10.294  17.419  69.705  1.00  0.00     0.000 HD 
HETATM   14  O   UNL     1     -11.103  14.618  72.064  1.00  0.00     0.290 OA 
HETATM   15  C   UNL     1     -11.015  13.281  69.989  1.00  0.00     0.554 C  
HETATM   16  C   UNL     1     -10.878   6.390  67.360  1.00  0.00    -0.457 A  
HETATM   17  C   UNL     1     -10.261   6.821  66.198  1.00  0.00     0.310 A  
HETATM   18 CL   UNL     1      -8.950   8.499  64.633  1.00  0.00     0.062 Cl 
HETATM   19  O   UNL     1      -9.832  10.983  65.662  1.00  0.00    -0.215 OA 
HETATM   20  O   UNL     1     -12.406  12.902  69.714  1.00  0.00    -0.188 OA 
HETATM   21  C   UNL     1     -10.492  11.907  70.396  1.00  0.00     2.438 C  
HETATM   22  H   UNL     1     -12.864  12.560  70.473  1.00  0.00     0.000 HD 
HETATM   23  O   UNL     1     -10.543  11.555  71.728  1.00  0.00     4.772 OA 
HETATM   24  C   UNL     1     -10.424  10.991  69.381  1.00  0.00    -0.177 C  
HETATM   25  C   UNL     1     -10.771   9.539  69.547  1.00  0.00    -0.228 C  
HETATM   26  H   UNL     1     -10.217  10.700  71.982  1.00  0.00     0.000 HD 
HETATM   27  O   UNL     1     -11.302   9.159  70.585  1.00  0.00    -0.260 OA 
HETATM   28  C   UNL     1     -10.613   8.620  68.348  1.00  0.00    -0.169 A  
HETATM   29  C   UNL     1     -10.041   9.072  67.131  1.00  0.00    -0.309 A  
HETATM   30  C   UNL     1      -9.823   8.138  66.089  1.00  0.00    -0.023 A  
HETATM   31  C   UNL     1      -9.613  10.508  66.996  1.00  0.00    -0.173 C  
ENDROOT
BRANCH   4  32
HETATM   32  N   UNL     1     -11.111  15.029  66.567  1.00  0.00    -0.336 NA 
HETATM   33  C   UNL     1      -9.994  14.246  66.023  1.00  0.00    -0.319 C  
HETATM   34  C   UNL     1     -12.300  14.900  65.742  1.00  0.00     0.143 C  
ENDBRANCH   4  32
BRANCH   7  35
HETATM   35  C   UNL     1     -13.553  15.580  69.818  1.00  0.00     1.509 C  
HETATM   36  N   UNL     1     -14.326  14.826  70.641  1.00  0.00    -0.153 N  
HETATM   37  O   UNL     1     -14.095  16.194  68.893  1.00  0.00     4.192 OA 
HETATM   38  H1  UNL     1     -15.322  14.762  70.432  1.00  0.00     0.000 HD 
HETATM   39  H2  UNL     1     -13.923  14.340  71.442  1.00  0.00     0.000 HD 
ENDBRANCH   7  35
TORSDOF 2
ENDMDL
MODEL       95
REMARK 921   NORMALIZED FREE ENERGY PREDICTED BY IDOCK:   11.29 KCAL/MOL
REMARK 922        TOTAL FREE ENERGY PREDICTED BY IDOCK:   12.47 KCAL/MOL
REMARK 923 INTER-LIGAND FREE ENERGY PREDICTED BY IDOCK:   11.51 KCAL/MOL
REMARK 924 INTRA-LIGAND FREE ENERGY PREDICTED BY IDOCK:    0.96 KCAL/MOL
REMARK 927      BINDING AFFINITY PREDICTED BY RF-SCORE:    0.00 PKD
ROOT
HETATM    1  C   UNL     1      -6.960  11.354  68.683  1.00  0.00    -0.087 C  
HETATM    2  C   UNL     1      -6.218  12.503  68.017  1.00  0.00    -0.088 C  
HETATM    3  C   UNL     1      -6.643  13.846  68.576  1.00  0.00    -0.098 C  
HETATM    4  C   UNL     1      -7.804  14.574  67.854  1.00  0.00    -0.147 C  
HETATM    5  H   UNL     1      -8.067   6.791  72.467  1.00  0.00     0.000 HD 
HETATM    6  C   UNL     1      -7.648  16.027  68.390  1.00  0.00    -0.145 C  
HETATM    7  C   UNL     1      -8.003  16.198  69.686  1.00  0.00     0.181 C  
HETATM    8  O   UNL     1      -6.474  16.640  67.934  1.00  0.00    -0.125 OA 
HETATM    9  O   UNL     1      -7.798   7.596  72.040  1.00  0.00    -0.088 OA 
HETATM   10  C   UNL     1      -7.538   7.637  70.700  1.00  0.00    -0.080 A  
HETATM   11  C   UNL     1      -7.117  15.284  70.560  1.00  0.00     0.525 C  
HETATM   12  H   UNL     1      -6.837   9.333  66.183  1.00  0.00     0.000 HD 
HETATM   13  H   UNL     1      -6.379  17.527  68.261  1.00  0.00     0.000 HD 
HETATM   14  O   UNL     1      -6.535  15.725  71.548  1.00  0.00     1.346 OA 
HETATM   15  C   UNL     1      -7.032  13.792  70.092  1.00  0.00     0.441 C  
HETATM   16  C   UNL     1      -7.685   6.446  69.986  1.00  0.00    -0.102 A  
HETATM   17  C   UNL     1      -7.407   6.417  68.630  1.00  0.00    -0.087 A  
HETATM   18 CL   UNL     1      -6.560   7.364  66.313  1.00  0.00    -0.048 Cl 
HETATM   19  O   UNL     1      -7.103  10.123  66.638  1.00  0.00    -0.094 OA 
HETATM   20  O   UNL     1      -8.448  13.487  70.326  1.00  0.00     2.084 OA 
HETATM   21  C   UNL     1      -6.430  12.576  70.788  1.00  0.00     1.139 C  
HETATM   22  H   UNL     1      -8.683  13.454  71.246  1.00  0.00     0.000 HD 
HETATM   23  O   UNL     1      -6.117  12.677  72.127  1.00  0.00     0.480 OA 
HETATM   24  C   UNL     1      -6.651  11.381  70.159  1.00  0.00     0.044 C  
HETATM   25  C   UNL     1      -6.952  10.102  70.885  1.00  0.00     0.309 C  
HETATM   26  H   UNL     1      -5.741  11.919  72.561  1.00  0.00     0.000 HD 
HETATM   27  O   UNL     1      -7.182  10.129  72.089  1.00  0.00     1.399 OA 
HETATM   28  C   UNL     1      -7.138   8.835  70.066  1.00  0.00    -0.047 A  
HETATM   29  C   UNL     1      -6.919   8.814  68.665  1.00  0.00    -0.064 A  
HETATM   30  C   UNL     1      -7.003   7.578  67.977  1.00  0.00    -0.072 A  
HETATM   31  C   UNL     1      -6.531  10.080  67.951  1.00  0.00    -0.059 C  
ENDROOT
BRANCH   4  32
HETATM   32  N   UNL     1      -8.048  14.352  66.427  1.00  0.00     0.640 NA 
HETATM   33  C   UNL     1      -9.405  13.828  66.222  1.00  0.00    -0.145 C  
HETATM   34  C   UNL     1      -7.766  15.461  65.531  1.00  0.00     4.493 C  
ENDBRANCH   4  32
BRANCH   7  35
HETATM   35  C   UNL     1      -9.498  16.158  69.814  1.00  0.00     0.126 C  
HETATM   36  N   UNL     1     -10.120  14.968  69.610  1.00  0.00    -0.401 N  
HETATM   37  O   UNL     1     -10.179  17.133  70.148  1.00  0.00     0.283 OA 
HETATM   38  H1  UNL     1     -11.136  14.941  69.697  1.00  0.00     0.000 HD 
HETATM   39  H2  UNL     1      -9.588  14.129  69.377  1.00  0.00     0.000 HD 
ENDBRANCH   7  35
TORSDOF 2
ENDMDL
MODEL       96
REMARK 921   NORMALIZED FREE ENERGY PREDICTED BY IDOCK:   13.35 KCAL/MOL
REMARK 922        TOTAL FREE ENERGY PREDICTED BY IDOCK:   14.77 KCAL/MOL
REMARK 923 INTER-LIGAND FREE ENERGY PREDICTED BY IDOCK:   14.61 KCAL/MOL
REMARK 924 INTRA-LIGAND FREE ENERGY PREDICTED BY IDOCK:    0.16 KCAL/MOL
REMARK 927      BINDING AFFINITY PREDICTED BY RF-SCORE:    0.00 PKD
ROOT
HETATM    1  C   UNL     1      -7.579  13.710  69.622  1.00  0.00     0.621 C  
HETATM    2  C   UNL     1      -8.581  14.836  69.827  1.00  0.00     0.301 C  
HETATM    3  C   UNL     1      -8.628  15.771  68.635  1.00  0.00    -0.194 C  
HETATM    4  C   UNL     1      -7.691  17.003  68.668  1.00  0.00    -0.251 C  
HETATM    5  H   UNL     1      -5.435   8.249  68.228  1.00  0.00     0.000 HD 
HETATM    6  C   UNL     1      -8.322  17.910  67.572  1.00  0.00    -0.228 C  
HETATM    7  C   UNL     1      -8.137  17.480  66.301  1.00  0.00    -0.289 C  
HETATM    8  O   UNL     1      -9.588  18.386  67.937  1.00  0.00    -0.279 OA 
HETATM    9  O   UNL     1      -5.902   9.075  68.282  1.00  0.00    -0.038 OA 
HETATM   10  C   UNL     1      -6.058   9.725  69.473  1.00  0.00    -0.044 A  
HETATM   11  C   UNL     1      -8.768  16.078  66.162  1.00  0.00    -0.313 C  
HETATM   12  H   UNL     1      -6.890  13.255  72.731  1.00  0.00     0.000 HD 
HETATM   13  H   UNL     1      -9.973  18.939  67.268  1.00  0.00     0.000 HD 
HETATM   14  O   UNL     1      -9.531  15.817  65.235  1.00  0.00    -0.288 OA 
HETATM   15  C   UNL     1      -8.360  15.050  67.271  1.00  0.00    -0.205 C  
HETATM   16  C   UNL     1      -5.501   9.124  70.604  1.00  0.00    -0.029 A  
HETATM   17  C   UNL     1      -5.652   9.719  71.845  1.00  0.00     0.027 A  
HETATM   18 CL   UNL     1      -6.565  11.485  73.586  1.00  0.00     4.894 Cl 
HETATM   19  O   UNL     1      -6.912  13.745  71.918  1.00  0.00     1.797 OA 
HETATM   20  O   UNL     1      -6.940  14.997  66.903  1.00  0.00    -0.307 OA 
HETATM   21  C   UNL     1      -8.616  13.549  67.363  1.00  0.00    -0.208 C  
HETATM   22  H   UNL     1      -6.778  14.560  66.075  1.00  0.00     0.000 HD 
HETATM   23  O   UNL     1      -9.047  12.889  66.232  1.00  0.00    -0.424 OA 
HETATM   24  C   UNL     1      -7.994  12.920  68.407  1.00  0.00    -0.137 C  
HETATM   25  C   UNL     1      -7.376  11.555  68.306  1.00  0.00    -0.091 C  
HETATM   26  H   UNL     1      -9.207  11.954  66.289  1.00  0.00     0.000 HD 
HETATM   27  O   UNL     1      -7.259  11.024  67.207  1.00  0.00    -0.091 OA 
HETATM   28  C   UNL     1      -6.752  10.953  69.553  1.00  0.00    -0.117 A  
HETATM   29  C   UNL     1      -6.846  11.591  70.817  1.00  0.00     1.736 A  
HETATM   30  C   UNL     1      -6.338  10.926  71.959  1.00  0.00     2.257 A  
HETATM   31  C   UNL     1      -7.543  12.919  70.932  1.00  0.00     5.397 C  
ENDROOT
BRANCH   4  32
HETATM   32  N   UNL     1      -7.283  17.592  69.946  1.00  0.00     0.574 NA 
HETATM   33  C   UNL     1      -5.898  17.213  70.256  1.00  0.00    -0.108 C  
HETATM   34  C   UNL     1      -7.491  19.020  70.109  1.00  0.00     0.921 C  
ENDBRANCH   4  32
BRANCH   7  35
HETATM   35  C   UNL     1      -6.715  17.720  65.885  1.00  0.00    -0.251 C  
HETATM   36  N   UNL     1      -5.754  17.654  66.842  1.00  0.00    -0.138 N  
HETATM   37  O   UNL     1      -6.372  17.917  64.714  1.00  0.00     0.118 OA 
HETATM   38  H1  UNL     1      -4.788  17.816  66.559  1.00  0.00     0.000 HD 
HETATM   39  H2  UNL     1      -5.992  17.449  67.812  1.00  0.00     0.000 HD 
ENDBRANCH   7  35
TORSDOF 2
ENDMDL
MODEL       97
REMARK 921   NORMALIZED FREE ENERGY PREDICTED BY IDOCK:   15.13 KCAL/MOL
REMARK 922        TOTAL FREE ENERGY PREDICTED BY IDOCK:   16.76 KCAL/MOL
REMARK 923 INTER-LIGAND FREE ENERGY PREDICTED BY IDOCK:   15.95 KCAL/MOL
REMARK 924 INTRA-LIGAND FREE ENERGY PREDICTED BY IDOCK:    0.81 KCAL/MOL
REMARK 927      BINDING AFFINITY PREDICTED BY RF-SCORE:    0.00 PKD
ROOT
HETATM    1  C   UNL     1      -7.022  16.464  69.639  1.00  0.00    -0.064 C  
HETATM    2  C   UNL     1      -7.061  15.078  70.267  1.00  0.00     0.159 C  
HETATM    3  C   UNL     1      -7.797  14.085  69.390  1.00  0.00     0.306 C  
HETATM    4  C   UNL     1      -9.315  13.913  69.641  1.00  0.00     1.115 C  
HETATM    5  H   UNL     1      -4.931  21.204  66.554  1.00  0.00     0.000 HD 
HETATM    6  C   UNL     1      -9.604  12.564  68.921  1.00  0.00     0.226 C  
HETATM    7  C   UNL     1      -9.572  12.622  67.568  1.00  0.00    -0.184 C  
HETATM    8  O   UNL     1      -8.989  11.478  69.556  1.00  0.00    -0.096 OA 
HETATM    9  O   UNL     1      -5.161  20.345  66.889  1.00  0.00    -0.167 OA 
HETATM   10  C   UNL     1      -5.375  20.137  68.222  1.00  0.00    -0.206 A  
HETATM   11  C   UNL     1      -8.167  13.088  67.132  1.00  0.00    -0.127 C  
HETATM   12  H   UNL     1      -6.877  18.116  72.396  1.00  0.00     0.000 HD 
HETATM   13  H   UNL     1      -9.165  10.654  69.117  1.00  0.00     0.000 HD 
HETATM   14  O   UNL     1      -7.537  12.478  66.272  1.00  0.00     0.599 OA 
HETATM   15  C   UNL     1      -7.634  14.369  67.859  1.00  0.00    -0.151 C  
HETATM   16  C   UNL     1      -5.240  21.241  69.068  1.00  0.00    -0.185 A  
HETATM   17  C   UNL     1      -5.414  21.086  70.433  1.00  0.00    -0.052 A  
HETATM   18 CL   UNL     1      -5.798  19.766  72.689  1.00  0.00     0.904 Cl 
HETATM   19  O   UNL     1      -7.284  17.544  71.757  1.00  0.00     6.050 OA 
HETATM   20  O   UNL     1      -8.651  15.277  67.317  1.00  0.00    -0.165 OA 
HETATM   21  C   UNL     1      -6.404  15.224  67.569  1.00  0.00    -0.100 C  
HETATM   22  H   UNL     1      -8.552  15.449  66.388  1.00  0.00     0.000 HD 
HETATM   23  O   UNL     1      -5.757  15.053  66.364  1.00  0.00     1.542 OA 
HETATM   24  C   UNL     1      -6.306  16.366  68.316  1.00  0.00    -0.129 C  
HETATM   25  C   UNL     1      -5.816  17.677  67.771  1.00  0.00    -0.140 C  
HETATM   26  H   UNL     1      -4.991  15.585  66.183  1.00  0.00     0.000 HD 
HETATM   27  O   UNL     1      -5.647  17.805  66.563  1.00  0.00    -0.145 OA 
HETATM   28  C   UNL     1      -5.718  18.860  68.719  1.00  0.00    -0.216 A  
HETATM   29  C   UNL     1      -5.959  18.723  70.110  1.00  0.00    -0.193 A  
HETATM   30  C   UNL     1      -5.745  19.839  70.956  1.00  0.00    -0.266 A  
HETATM   31  C   UNL     1      -6.365  17.387  70.669  1.00  0.00     1.055 C  
ENDROOT
BRANCH   4  32
HETATM   32  N   UNL     1      -9.881  14.159  70.970  1.00  0.00     3.303 NA 
HETATM   33  C   UNL     1      -9.745  15.578  71.322  1.00  0.00     2.210 C  
HETATM   34  C   UNL     1     -11.232  13.680  71.209  1.00  0.00     2.019 C  
ENDBRANCH   4  32
BRANCH   7  35
HETATM   35  C   UNL     1     -10.799  13.322  67.060  1.00  0.00    -0.269 C  
HETATM   36  N   UNL     1     -11.675  12.603  66.312  1.00  0.00    -0.385 N  
HETATM   37  O   UNL     1     -11.075  14.495  67.333  1.00  0.00    -0.294 OA 
HETATM   38  H1  UNL     1     -12.508  13.079  65.967  1.00  0.00     0.000 HD 
HETATM   39  H2  UNL     1     -11.505  11.619  66.102  1.00  0.00     0.000 HD 
ENDBRANCH   7  35
TORSDOF 2
ENDMDL
MODEL       98
REMARK 921   NORMALIZED FREE ENERGY PREDICTED BY IDOCK:   15.68 KCAL/MOL
REMARK 922        TOTAL FREE ENERGY PREDICTED BY IDOCK:   17.38 KCAL/MOL
REMARK 923 INTER-LIGAND FREE ENERGY PREDICTED BY IDOCK:   17.00 KCAL/MOL
REMARK 924 INTRA-LIGAND FREE ENERGY PREDICTED BY IDOCK:    0.38 KCAL/MOL
REMARK 927      BINDING AFFINITY PREDICTED BY RF-SCORE:    0.00 PKD
ROOT
HETATM    1  C   UNL     1      -9.843  13.890  66.864  1.00  0.00    -0.268 C  
HETATM    2  C   UNL     1      -9.505  15.313  66.443  1.00  0.00    -0.326 C  
HETATM    3  C   UNL     1      -9.403  16.242  67.635  1.00  0.00    -0.218 C  
HETATM    4  C   UNL     1     -10.690  16.993  68.056  1.00  0.00    -0.365 C  
HETATM    5  H   UNL     1      -9.037   8.099  68.338  1.00  0.00     0.000 HD 
HETATM    6  C   UNL     1     -10.115  18.127  68.955  1.00  0.00    -0.338 C  
HETATM    7  C   UNL     1      -9.651  17.718  70.160  1.00  0.00     1.787 C  
HETATM    8  O   UNL     1      -9.357  19.052  68.227  1.00  0.00    -0.313 OA 
HETATM    9  O   UNL     1      -8.982   9.039  68.212  1.00  0.00    -0.133 OA 
HETATM   10  C   UNL     1      -9.529   9.641  67.115  1.00  0.00    -0.148 A  
HETATM   11  C   UNL     1      -8.519  16.695  69.926  1.00  0.00     1.187 C  
HETATM   12  H   UNL     1     -11.363  13.053  64.154  1.00  0.00     0.000 HD 
HETATM   13  H   UNL     1      -9.007  19.744  68.775  1.00  0.00     0.000 HD 
HETATM   14  O   UNL     1      -7.439  16.804  70.499  1.00  0.00     1.894 OA 
HETATM   15  C   UNL     1      -8.862  15.539  68.926  1.00  0.00    -0.217 C  
HETATM   16  C   UNL     1     -10.172   8.815  66.189  1.00  0.00    -0.028 A  
HETATM   17  C   UNL     1     -10.719   9.363  65.042  1.00  0.00     2.638 A  
HETATM   18 CL   UNL     1     -11.255  11.264  63.285  1.00  0.00    -0.197 Cl 
HETATM   19  O   UNL     1     -11.244  13.548  64.956  1.00  0.00    -0.306 OA 
HETATM   20  O   UNL     1      -9.914  14.939  69.754  1.00  0.00    -0.422 OA 
HETATM   21  C   UNL     1      -8.093  14.264  68.596  1.00  0.00    -0.140 C  
HETATM   22  H   UNL     1      -9.586  14.512  70.537  1.00  0.00     0.000 HD 
HETATM   23  O   UNL     1      -7.065  13.884  69.433  1.00  0.00    -0.251 OA 
HETATM   24  C   UNL     1      -8.748  13.390  67.772  1.00  0.00    -0.197 C  
HETATM   25  C   UNL     1      -8.705  11.898  67.938  1.00  0.00    -0.167 C  
HETATM   26  H   UNL     1      -6.585  13.090  69.228  1.00  0.00     0.000 HD 
HETATM   27  O   UNL     1      -8.204  11.416  68.948  1.00  0.00    -0.133 OA 
HETATM   28  C   UNL     1      -9.447  11.039  66.928  1.00  0.00    -0.197 A  
HETATM   29  C   UNL     1     -10.068  11.602  65.783  1.00  0.00    -0.278 A  
HETATM   30  C   UNL     1     -10.648  10.737  64.823  1.00  0.00    -0.194 A  
HETATM   31  C   UNL     1     -10.034  13.091  65.572  1.00  0.00    -0.214 C  
ENDROOT
BRANCH   4  32
HETATM   32  N   UNL     1     -11.723  17.309  67.067  1.00  0.00     1.297 NA 
HETATM   33  C   UNL     1     -13.026  17.458  67.728  1.00  0.00     5.969 C  
HETATM   34  C   UNL     1     -11.455  18.417  66.166  1.00  0.00     1.630 C  
ENDBRANCH   4  32
BRANCH   7  35
HETATM   35  C   UNL     1     -10.802  17.387  71.064  1.00  0.00     1.622 C  
HETATM   36  N   UNL     1     -10.884  16.122  71.549  1.00  0.00     0.415 N  
HETATM   37  O   UNL     1     -11.641  18.218  71.430  1.00  0.00     3.612 OA 
HETATM   38  H1  UNL     1     -11.666  15.897  72.163  1.00  0.00     0.000 HD 
HETATM   39  H2  UNL     1     -10.186  15.419  71.306  1.00  0.00     0.000 HD 
ENDBRANCH   7  35
TORSDOF 2
ENDMDL
MODEL       99
REMARK 921   NORMALIZED FREE ENERGY PREDICTED BY IDOCK:   17.53 KCAL/MOL
REMARK 922        TOTAL FREE ENERGY PREDICTED BY IDOCK:   19.44 KCAL/MOL
REMARK 923 INTER-LIGAND FREE ENERGY PREDICTED BY IDOCK:   17.63 KCAL/MOL
REMARK 924 INTRA-LIGAND FREE ENERGY PREDICTED BY IDOCK:    1.81 KCAL/MOL
REMARK 927      BINDING AFFINITY PREDICTED BY RF-SCORE:    0.00 PKD
ROOT
HETATM    1  C   UNL     1      -9.170   6.964  65.864  1.00  0.00     0.004 C  
HETATM    2  C   UNL     1      -9.476   5.494  65.620  1.00  0.00    -0.018 C  
HETATM    3  C   UNL     1      -9.897   4.788  66.893  1.00  0.00    -0.225 C  
HETATM    4  C   UNL     1      -8.782   4.108  67.724  1.00  0.00    -0.107 C  
HETATM    5  H   UNL     1      -9.992  12.933  66.118  1.00  0.00     0.000 HD 
HETATM    6  C   UNL     1      -9.605   3.156  68.639  1.00  0.00    -0.034 C  
HETATM    7  C   UNL     1     -10.312   3.774  69.615  1.00  0.00     1.076 C  
HETATM    8  O   UNL     1     -10.223   2.126  67.918  1.00  0.00     0.357 OA 
HETATM    9  O   UNL     1     -10.065  11.986  66.141  1.00  0.00    -0.216 OA 
HETATM   10  C   UNL     1      -9.313  11.195  65.320  1.00  0.00    -0.219 A  
HETATM   11  C   UNL     1     -11.305   4.753  68.954  1.00  0.00     3.503 C  
HETATM   12  H   UNL     1      -7.028   7.298  63.487  1.00  0.00     0.000 HD 
HETATM   13  H   UNL     1     -10.725   1.544  68.476  1.00  0.00     0.000 HD 
HETATM   14  O   UNL     1     -12.493   4.758  69.267  1.00  0.00     9.595 OA 
HETATM   15  C   UNL     1     -10.683   5.713  67.883  1.00  0.00    -0.158 C  
HETATM   16  C   UNL     1      -8.433  11.839  64.447  1.00  0.00     1.210 A  
HETATM   17  C   UNL     1      -7.666  11.093  63.568  1.00  0.00     0.717 A  
HETATM   18 CL   UNL     1      -6.840   8.909  62.330  1.00  0.00    -0.094 Cl 
HETATM   19  O   UNL     1      -7.353   6.952  64.309  1.00  0.00    -0.072 OA 
HETATM   20  O   UNL     1      -9.819   6.436  68.824  1.00  0.00    -0.136 OA 
HETATM   21  C   UNL     1     -11.289   6.919  67.173  1.00  0.00     0.092 C  
HETATM   22  H   UNL     1     -10.296   6.997  69.424  1.00  0.00     0.000 HD 
HETATM   23  O   UNL     1     -12.460   7.451  67.670  1.00  0.00     3.107 OA 
HETATM   24  C   UNL     1     -10.417   7.628  66.392  1.00  0.00     0.218 C  
HETATM   25  C   UNL     1     -10.419   9.126  66.292  1.00  0.00     0.035 C  
HETATM   26  H   UNL     1     -12.838   8.202  67.228  1.00  0.00     0.000 HD 
HETATM   27  O   UNL     1     -11.113   9.783  67.060  1.00  0.00    -0.093 OA 
HETATM   28  C   UNL     1      -9.422   9.787  65.355  1.00  0.00    -0.333 A  
HETATM   29  C   UNL     1      -8.585   9.026  64.499  1.00  0.00    -0.181 A  
HETATM   30  C   UNL     1      -7.756   9.704  63.572  1.00  0.00    -0.130 A  
HETATM   31  C   UNL     1      -8.647   7.523  64.538  1.00  0.00     0.280 C  
ENDROOT
BRANCH   4  32
HETATM   32  N   UNL     1      -7.567   3.613  67.072  1.00  0.00    -0.079 NA 
HETATM   33  C   UNL     1      -7.468   4.154  65.710  1.00  0.00    -0.081 C  
HETATM   34  C   UNL     1      -6.318   3.773  67.797  1.00  0.00    -0.037 C  
ENDBRANCH   4  32
BRANCH   7  35
HETATM   35  C   UNL     1      -9.384   4.245  70.696  1.00  0.00    -0.143 C  
HETATM   36  N   UNL     1      -8.069   3.922  70.588  1.00  0.00    -0.054 N  
HETATM   37  O   UNL     1      -9.744   4.953  71.643  1.00  0.00    -0.158 OA 
HETATM   38  H1  UNL     1      -7.438   4.242  71.322  1.00  0.00     0.000 HD 
HETATM   39  H2  UNL     1      -7.724   3.378  69.797  1.00  0.00     0.000 HD 
ENDBRANCH   7  35
TORSDOF 2
ENDMDL
MODEL      100
REMARK 921   NORMALIZED FREE ENERGY PREDICTED BY IDOCK:   22.01 KCAL/MOL
REMARK 922        TOTAL FREE ENERGY PREDICTED BY IDOCK:   24.44 KCAL/MOL
REMARK 923 INTER-LIGAND FREE ENERGY PREDICTED BY IDOCK:   23.57 KCAL/MOL
REMARK 924 INTRA-LIGAND FREE ENERGY PREDICTED BY IDOCK:    0.88 KCAL/MOL
REMARK 927      BINDING AFFINITY PREDICTED BY RF-SCORE:    0.00 PKD
ROOT
HETATM    1  C   UNL     1     -10.226  15.905  67.707  1.00  0.00    -0.260 C  
HETATM    2  C   UNL     1     -11.595  16.248  67.140  1.00  0.00     0.534 C  
HETATM    3  C   UNL     1     -12.166  15.108  66.322  1.00  0.00     0.418 C  
HETATM    4  C   UNL     1     -11.869  15.113  64.802  1.00  0.00    -0.291 C  
HETATM    5  H   UNL     1      -6.048  14.084  71.656  1.00  0.00     0.000 HD 
HETATM    6  C   UNL     1     -12.940  14.118  64.267  1.00  0.00     0.571 C  
HETATM    7  C   UNL     1     -12.711  12.817  64.569  1.00  0.00    -0.405 C  
HETATM    8  O   UNL     1     -14.243  14.615  64.400  1.00  0.00     3.641 OA 
HETATM    9  O   UNL     1      -6.823  14.216  71.122  1.00  0.00     0.467 OA 
HETATM   10  C   UNL     1      -7.130  15.444  70.609  1.00  0.00     0.805 A  
HETATM   11  C   UNL     1     -12.672  12.673  66.106  1.00  0.00     0.782 C  
HETATM   12  H   UNL     1      -9.101  18.917  67.813  1.00  0.00     0.000 HD 
HETATM   13  H   UNL     1     -14.896  14.008  64.073  1.00  0.00     0.000 HD 
HETATM   14  O   UNL     1     -13.331  11.807  66.677  1.00  0.00     4.752 OA 
HETATM   15  C   UNL     1     -11.745  13.695  66.848  1.00  0.00    -0.389 C  
HETATM   16  C   UNL     1      -6.256  16.494  70.903  1.00  0.00     1.039 A  
HETATM   17  C   UNL     1      -6.529  17.768  70.436  1.00  0.00     0.768 A  
HETATM   18 CL   UNL     1      -7.948  19.661  69.257  1.00  0.00    -0.202 Cl 
HETATM   19  O   UNL     1      -9.418  18.132  67.383  1.00  0.00    -0.252 OA 
HETATM   20  O   UNL     1     -10.492  13.200  66.268  1.00  0.00    -0.276 OA 
HETATM   21  C   UNL     1     -11.305  13.742  68.308  1.00  0.00    -0.285 C  
HETATM   22  H   UNL     1     -10.237  12.342  66.588  1.00  0.00     0.000 HD 
HETATM   23  O   UNL     1     -11.511  12.625  69.090  1.00  0.00    -0.271 OA 
HETATM   24  C   UNL     1     -10.370  14.697  68.598  1.00  0.00    -0.246 C  
HETATM   25  C   UNL     1      -9.227  14.481  69.549  1.00  0.00     0.323 C  
HETATM   26  H   UNL     1     -11.238  12.655  69.999  1.00  0.00     0.000 HD 
HETATM   27  O   UNL     1      -8.998  13.354  69.974  1.00  0.00     2.269 OA 
HETATM   28  C   UNL     1      -8.281  15.640  69.814  1.00  0.00     0.059 A  
HETATM   29  C   UNL     1      -8.521  16.934  69.284  1.00  0.00     0.076 A  
HETATM   30  C   UNL     1      -7.661  17.997  69.657  1.00  0.00     0.579 A  
HETATM   31  C   UNL     1      -9.716  17.170  68.401  1.00  0.00    -0.284 C  
ENDROOT
BRANCH   4  32
HETATM   32  N   UNL     1     -11.636  16.374  64.094  1.00  0.00    -1.029 NA 
HETATM   33  C   UNL     1     -12.397  17.457  64.731  1.00  0.00     5.302 C  
HETATM   34  C   UNL     1     -10.253  16.758  63.870  1.00  0.00     5.465 C  
ENDBRANCH   4  32
BRANCH   7  35
HETATM   35  C   UNL     1     -11.589  12.288  63.726  1.00  0.00    -0.471 C  
HETATM   36  N   UNL     1     -10.499  11.787  64.362  1.00  0.00    -0.288 N  
HETATM   37  O   UNL     1     -11.631  12.235  62.492  1.00  0.00     0.667 OA 
HETATM   38  H1  UNL     1      -9.737  11.427  63.789  1.00  0.00     0.000 HD 
HETATM   39  H2  UNL     1     -10.445  11.771  65.381  1.00  0.00     0.000 HD 
ENDBRANCH   7  35
TORSDOF 2
ENDMDL
MODEL      101
REMARK 921   NORMALIZED FREE ENERGY PREDICTED BY IDOCK:   22.88 KCAL/MOL
REMARK 922        TOTAL FREE ENERGY PREDICTED BY IDOCK:   25.42 KCAL/MOL
REMARK 923 INTER-LIGAND FREE ENERGY PREDICTED BY IDOCK:   23.33 KCAL/MOL
REMARK 924 INTRA-LIGAND FREE ENERGY PREDICTED BY IDOCK:    2.09 KCAL/MOL
REMARK 927      BINDING AFFINITY PREDICTED BY RF-SCORE:    0.00 PKD
ROOT
HETATM    1  C   UNL     1      -7.970   8.326  68.948  1.00  0.00    -0.113 C  
HETATM    2  C   UNL     1      -7.264   7.074  69.446  1.00  0.00    -0.085 C  
HETATM    3  C   UNL     1      -7.199   6.002  68.377  1.00  0.00    -0.084 C  
HETATM    4  C   UNL     1      -8.355   4.972  68.341  1.00  0.00    -0.088 C  
HETATM    5  H   UNL     1      -8.705  13.860  66.669  1.00  0.00     0.000 HD 
HETATM    6  C   UNL     1      -7.738   3.835  67.476  1.00  0.00    -0.078 C  
HETATM    7  C   UNL     1      -7.611   4.125  66.158  1.00  0.00    -0.089 C  
HETATM    8  O   UNL     1      -6.676   3.190  68.122  1.00  0.00    -0.043 OA 
HETATM    9  O   UNL     1      -8.429  12.978  66.888  1.00  0.00    -0.173 OA 
HETATM   10  C   UNL     1      -8.614  12.468  68.141  1.00  0.00    -0.189 A  
HETATM   11  C   UNL     1      -6.698   5.362  66.017  1.00  0.00    -0.056 C  
HETATM   12  H   UNL     1      -9.081   9.290  71.809  1.00  0.00     0.000 HD 
HETATM   13  H   UNL     1      -6.300   2.496  67.594  1.00  0.00     0.000 HD 
HETATM   14  O   UNL     1      -5.750   5.362  65.237  1.00  0.00    -0.016 OA 
HETATM   15  C   UNL     1      -7.078   6.579  66.927  1.00  0.00    -0.073 C  
HETATM   16  C   UNL     1      -9.227  13.298  69.083  1.00  0.00     0.608 A  
HETATM   17  C   UNL     1      -9.415  12.848  70.379  1.00  0.00     5.241 A  
HETATM   18 CL   UNL     1      -9.189  11.184  72.419  1.00  0.00    13.912 Cl 
HETATM   19  O   UNL     1      -9.017   8.704  71.064  1.00  0.00    -0.160 OA 
HETATM   20  O   UNL     1      -8.373   6.839  66.286  1.00  0.00    -0.114 OA 
HETATM   21  C   UNL     1      -6.547   8.009  66.928  1.00  0.00    -0.057 C  
HETATM   22  H   UNL     1      -8.299   7.189  65.406  1.00  0.00     0.000 HD 
HETATM   23  O   UNL     1      -5.803   8.432  65.847  1.00  0.00    -0.042 OA 
HETATM   24  C   UNL     1      -7.201   8.867  67.769  1.00  0.00    -0.084 C  
HETATM   25  C   UNL     1      -7.507  10.297  67.425  1.00  0.00    -0.094 C  
HETATM   26  H   UNL     1      -5.472   9.322  65.848  1.00  0.00     0.000 HD 
HETATM   27  O   UNL     1      -7.323  10.697  66.281  1.00  0.00    -0.126 OA 
HETATM   28  C   UNL     1      -8.204  11.155  68.467  1.00  0.00    -0.149 A  
HETATM   29  C   UNL     1      -8.460  10.677  69.778  1.00  0.00     0.228 A  
HETATM   30  C   UNL     1      -9.015  11.562  70.734  1.00  0.00     6.365 A  
HETATM   31  C   UNL     1      -8.073   9.271  70.148  1.00  0.00    -0.145 C  
ENDROOT
BRANCH   4  32
HETATM   32  N   UNL     1      -9.088   4.634  69.563  1.00  0.00    -0.102 NA 
HETATM   33  C   UNL     1      -9.241   3.177  69.673  1.00  0.00    -0.151 C  
HETATM   34  C   UNL     1      -8.601   5.211  70.804  1.00  0.00    -0.125 C  
ENDBRANCH   4  32
BRANCH   7  35
HETATM   35  C   UNL     1      -8.958   4.094  65.498  1.00  0.00    -0.131 C  
HETATM   36  N   UNL     1      -9.750   5.191  65.619  1.00  0.00    -0.318 N  
HETATM   37  O   UNL     1      -9.357   3.148  64.809  1.00  0.00    -0.140 OA 
HETATM   38  H1  UNL     1     -10.665   5.170  65.169  1.00  0.00     0.000 HD 
HETATM   39  H2  UNL     1      -9.438   6.009  66.141  1.00  0.00     0.000 HD 
ENDBRANCH   7  35
TORSDOF 2
ENDMDL
MODEL      102
REMARK 921   NORMALIZED FREE ENERGY PREDICTED BY IDOCK:   25.34 KCAL/MOL
REMARK 922        TOTAL FREE ENERGY PREDICTED BY IDOCK:   28.17 KCAL/MOL
REMARK 923 INTER-LIGAND FREE ENERGY PREDICTED BY IDOCK:   26.58 KCAL/MOL
REMARK 924 INTRA-LIGAND FREE ENERGY PREDICTED BY IDOCK:    1.58 KCAL/MOL
REMARK 927      BINDING AFFINITY PREDICTED BY RF-SCORE:    0.00 PKD
ROOT
HETATM    1  C   UNL     1      -7.952  15.847  66.644  1.00  0.00    -0.270 C  
HETATM    2  C   UNL     1      -7.680  15.161  65.313  1.00  0.00     6.722 C  
HETATM    3  C   UNL     1      -8.312  13.785  65.251  1.00  0.00     4.014 C  
HETATM    4  C   UNL     1      -7.442  12.588  65.705  1.00  0.00     3.080 C  
HETATM    5  H   UNL     1     -10.585  19.449  70.701  1.00  0.00     0.000 HD 
HETATM    6  C   UNL     1      -8.216  11.384  65.093  1.00  0.00     0.529 C  
HETATM    7  C   UNL     1      -9.391  11.093  65.703  1.00  0.00    -0.243 C  
HETATM    8  O   UNL     1      -8.172  11.377  63.693  1.00  0.00    -0.101 OA 
HETATM    9  O   UNL     1     -10.369  18.852  69.994  1.00  0.00     0.549 OA 
HETATM   10  C   UNL     1      -9.161  18.910  69.359  1.00  0.00     0.189 A  
HETATM   11  C   UNL     1     -10.309  12.330  65.609  1.00  0.00    -0.257 C  
HETATM   12  H   UNL     1      -5.285  17.646  66.686  1.00  0.00     0.000 HD 
HETATM   13  H   UNL     1      -8.644  10.642  63.320  1.00  0.00     0.000 HD 
HETATM   14  O   UNL     1     -11.468  12.230  65.213  1.00  0.00    -0.331 OA 
HETATM   15  C   UNL     1      -9.654  13.683  66.053  1.00  0.00    -0.166 C  
HETATM   16  C   UNL     1      -8.259  19.883  69.796  1.00  0.00     0.656 A  
HETATM   17  C   UNL     1      -7.030  20.012  69.171  1.00  0.00    -0.258 A  
HETATM   18 CL   UNL     1      -5.176  19.520  67.353  1.00  0.00    -0.163 Cl 
HETATM   19  O   UNL     1      -5.773  16.831  66.700  1.00  0.00    -0.301 OA 
HETATM   20  O   UNL     1      -9.472  13.300  67.457  1.00  0.00    -0.206 OA 
HETATM   21  C   UNL     1     -10.285  15.053  66.280  1.00  0.00    -0.294 C  
HETATM   22  H   UNL     1     -10.286  13.238  67.944  1.00  0.00     0.000 HD 
HETATM   23  O   UNL     1     -11.658  15.135  66.366  1.00  0.00    -0.240 OA 
HETATM   24  C   UNL     1      -9.444  15.995  66.806  1.00  0.00    -0.250 C  
HETATM   25  C   UNL     1      -9.864  17.003  67.837  1.00  0.00    -0.269 C  
HETATM   26  H   UNL     1     -12.051  15.988  66.507  1.00  0.00     0.000 HD 
HETATM   27  O   UNL     1     -10.961  16.896  68.375  1.00  0.00    -0.356 OA 
HETATM   28  C   UNL     1      -8.841  18.022  68.308  1.00  0.00    -0.291 A  
HETATM   29  C   UNL     1      -7.555  18.116  67.716  1.00  0.00    -0.222 A  
HETATM   30  C   UNL     1      -6.687  19.157  68.126  1.00  0.00    -0.239 A  
HETATM   31  C   UNL     1      -7.165  17.160  66.622  1.00  0.00    -0.247 C  
ENDROOT
BRANCH   4  32
HETATM   32  N   UNL     1      -5.983  12.643  65.587  1.00  0.00     3.650 NA 
HETATM   33  C   UNL     1      -5.569  12.221  64.242  1.00  0.00     6.080 C  
HETATM   34  C   UNL     1      -5.337  13.886  65.974  1.00  0.00     6.215 C  
ENDBRANCH   4  32
BRANCH   7  35
HETATM   35  C   UNL     1      -9.128  10.438  67.027  1.00  0.00    -0.139 C  
HETATM   36  N   UNL     1      -7.841  10.146  67.346  1.00  0.00    -0.102 N  
HETATM   37  O   UNL     1     -10.013  10.203  67.858  1.00  0.00    -0.155 OA 
HETATM   38  H1  UNL     1      -7.663   9.701  68.246  1.00  0.00     0.000 HD 
HETATM   39  H2  UNL     1      -7.078  10.366  66.707  1.00  0.00     0.000 HD 
ENDBRANCH   7  35
TORSDOF 2
ENDMDL
MODEL      103
REMARK 921   NORMALIZED FREE ENERGY PREDICTED BY IDOCK:   26.15 KCAL/MOL
REMARK 922        TOTAL FREE ENERGY PREDICTED BY IDOCK:   29.07 KCAL/MOL
REMARK 923 INTER-LIGAND FREE ENERGY PREDICTED BY IDOCK:   27.90 KCAL/MOL
REMARK 924 INTRA-LIGAND FREE ENERGY PREDICTED BY IDOCK:    1.17 KCAL/MOL
REMARK 927      BINDING AFFINITY PREDICTED BY RF-SCORE:    0.00 PKD
ROOT
HETATM    1  C   UNL     1     -10.202  14.086  68.883  1.00  0.00    -0.159 C  
HETATM    2  C   UNL     1     -10.199  15.570  69.218  1.00  0.00    -0.252 C  
HETATM    3  C   UNL     1      -9.532  16.390  68.132  1.00  0.00    -0.213 C  
HETATM    4  C   UNL     1      -8.015  16.659  68.283  1.00  0.00    -0.192 C  
HETATM    5  H   UNL     1     -12.197   8.753  66.896  1.00  0.00     0.000 HD 
HETATM    6  C   UNL     1      -7.805  17.844  67.296  1.00  0.00    -0.213 C  
HETATM    7  C   UNL     1      -7.877  17.513  65.984  1.00  0.00    -0.213 C  
HETATM    8  O   UNL     1      -8.443  19.015  67.724  1.00  0.00    -0.283 OA 
HETATM    9  O   UNL     1     -11.991   9.670  67.043  1.00  0.00     2.061 OA 
HETATM   10  C   UNL     1     -11.744  10.149  68.297  1.00  0.00     0.390 A  
HETATM   11  C   UNL     1      -9.276  16.922  65.706  1.00  0.00     0.071 C  
HETATM   12  H   UNL     1     -10.192  13.021  71.919  1.00  0.00     0.000 HD 
HETATM   13  H   UNL     1      -8.314  19.738  67.122  1.00  0.00     0.000 HD 
HETATM   14  O   UNL     1      -9.957  17.324  64.767  1.00  0.00     0.778 OA 
HETATM   15  C   UNL     1      -9.733  15.797  66.696  1.00  0.00    -0.249 C  
HETATM   16  C   UNL     1     -11.807   9.236  69.352  1.00  0.00     0.706 A  
HETATM   17  C   UNL     1     -11.595   9.668  70.651  1.00  0.00    -0.371 A  
HETATM   18 CL   UNL     1     -11.193  11.430  72.579  1.00  0.00     6.770 Cl 
HETATM   19  O   UNL     1      -9.829  13.465  71.162  1.00  0.00     6.021 OA 
HETATM   20  O   UNL     1      -8.697  14.833  66.307  1.00  0.00    -0.464 OA 
HETATM   21  C   UNL     1     -10.936  14.861  66.632  1.00  0.00    -0.325 C  
HETATM   22  H   UNL     1      -8.819  14.474  65.436  1.00  0.00     0.000 HD 
HETATM   23  O   UNL     1     -11.627  14.764  65.443  1.00  0.00    -0.343 OA 
HETATM   24  C   UNL     1     -10.964  13.891  67.597  1.00  0.00    -0.278 C  
HETATM   25  C   UNL     1     -11.417  12.481  67.345  1.00  0.00    -0.341 C  
HETATM   26  H   UNL     1     -12.376  14.181  65.404  1.00  0.00     0.000 HD 
HETATM   27  O   UNL     1     -11.619  12.107  66.195  1.00  0.00    -0.364 OA 
HETATM   28  C   UNL     1     -11.437  11.512  68.515  1.00  0.00    -0.354 A  
HETATM   29  C   UNL     1     -11.157  11.935  69.839  1.00  0.00     0.081 A  
HETATM   30  C   UNL     1     -11.299  11.006  70.900  1.00  0.00     0.457 A  
HETATM   31  C   UNL     1     -10.788  13.369  70.102  1.00  0.00     0.883 C  
ENDROOT
BRANCH   4  32
HETATM   32  N   UNL     1      -7.398  16.706  69.610  1.00  0.00     0.054 NA 
HETATM   33  C   UNL     1      -7.741  17.967  70.282  1.00  0.00     2.512 C  
HETATM   34  C   UNL     1      -7.619  15.564  70.480  1.00  0.00     1.156 C  
ENDBRANCH   4  32
BRANCH   7  35
HETATM   35  C   UNL     1      -6.640  16.766  65.579  1.00  0.00     2.113 C  
HETATM   36  N   UNL     1      -5.597  16.747  66.448  1.00  0.00     0.099 N  
HETATM   37  O   UNL     1      -6.546  16.126  64.525  1.00  0.00     8.359 OA 
HETATM   38  H1  UNL     1      -4.757  16.239  66.172  1.00  0.00     0.000 HD 
HETATM   39  H2  UNL     1      -5.653  17.225  67.347  1.00  0.00     0.000 HD 
ENDBRANCH   7  35
TORSDOF 2
ENDMDL
MODEL      104
REMARK 921   NORMALIZED FREE ENERGY PREDICTED BY IDOCK:   26.79 KCAL/MOL
REMARK 922        TOTAL FREE ENERGY PREDICTED BY IDOCK:   29.78 KCAL/MOL
REMARK 923 INTER-LIGAND FREE ENERGY PREDICTED BY IDOCK:   29.21 KCAL/MOL
REMARK 924 INTRA-LIGAND FREE ENERGY PREDICTED BY IDOCK:    0.57 KCAL/MOL
REMARK 927      BINDING AFFINITY PREDICTED BY RF-SCORE:    0.00 PKD
ROOT
HETATM    1  C   UNL     1      -9.030  10.330  68.407  1.00  0.00    -0.132 C  
HETATM    2  C   UNL     1      -7.622  10.903  68.469  1.00  0.00    -0.111 C  
HETATM    3  C   UNL     1      -7.514  12.212  67.713  1.00  0.00    -0.122 C  
HETATM    4  C   UNL     1      -7.093  12.134  66.225  1.00  0.00     0.855 C  
HETATM    5  H   UNL     1     -14.682   9.053  70.077  1.00  0.00     0.000 HD 
HETATM    6  C   UNL     1      -6.664  13.602  65.940  1.00  0.00     6.332 C  
HETATM    7  C   UNL     1      -7.684  14.491  65.872  1.00  0.00     3.639 C  
HETATM    8  O   UNL     1      -5.509  13.966  66.643  1.00  0.00     0.872 OA 
HETATM    9  O   UNL     1     -13.832   9.442  69.907  1.00  0.00     1.311 OA 
HETATM   10  C   UNL     1     -12.709   8.672  69.798  1.00  0.00     2.287 A  
HETATM   11  C   UNL     1      -8.432  14.481  67.222  1.00  0.00    -0.215 C  
HETATM   12  H   UNL     1      -8.185   7.238  68.682  1.00  0.00     0.000 HD 
HETATM   13  H   UNL     1      -5.247  14.862  66.469  1.00  0.00     0.000 HD 
HETATM   14  O   UNL     1      -8.685  15.528  67.813  1.00  0.00    -0.164 OA 
HETATM   15  C   UNL     1      -8.829  13.062  67.754  1.00  0.00    -0.188 C  
HETATM   16  C   UNL     1     -12.866   7.292  69.948  1.00  0.00     1.604 A  
HETATM   17  C   UNL     1     -11.760   6.462  69.879  1.00  0.00    -0.309 A  
HETATM   18 CL   UNL     1      -9.192   5.861  69.712  1.00  0.00    -0.152 Cl 
HETATM   19  O   UNL     1      -8.221   8.085  68.254  1.00  0.00    -0.120 OA 
HETATM   20  O   UNL     1      -9.762  12.756  66.664  1.00  0.00    -0.238 OA 
HETATM   21  C   UNL     1      -9.724  12.666  68.924  1.00  0.00     0.200 C  
HETATM   22  H   UNL     1     -10.560  13.272  66.690  1.00  0.00     0.000 HD 
HETATM   23  O   UNL     1     -10.529  13.632  69.489  1.00  0.00    -0.425 OA 
HETATM   24  C   UNL     1      -9.976  11.325  69.029  1.00  0.00    -0.124 C  
HETATM   25  C   UNL     1     -11.310  10.758  69.425  1.00  0.00    -0.285 C  
HETATM   26  H   UNL     1     -11.086  13.385  70.218  1.00  0.00     0.000 HD 
HETATM   27  O   UNL     1     -12.283  11.499  69.502  1.00  0.00    -0.289 OA 
HETATM   28  C   UNL     1     -11.445   9.250  69.544  1.00  0.00     0.186 A  
HETATM   29  C   UNL     1     -10.326   8.388  69.408  1.00  0.00    -0.217 A  
HETATM   30  C   UNL     1     -10.499   7.000  69.638  1.00  0.00    -0.223 A  
HETATM   31  C   UNL     1      -8.972   8.965  69.098  1.00  0.00    -0.140 C  
ENDROOT
BRANCH   4  32
HETATM   32  N   UNL     1      -6.257  11.031  65.746  1.00  0.00    -0.060 NA 
HETATM   33  C   UNL     1      -5.285  10.650  66.780  1.00  0.00    -0.048 C  
HETATM   34  C   UNL     1      -6.943   9.868  65.210  1.00  0.00    -0.122 C  
ENDBRANCH   4  32
BRANCH   7  35
HETATM   35  C   UNL     1      -8.434  14.308  64.585  1.00  0.00     6.849 C  
HETATM   36  N   UNL     1      -8.189  13.186  63.862  1.00  0.00     6.209 N  
HETATM   37  O   UNL     1      -9.298  15.096  64.182  1.00  0.00     2.555 OA 
HETATM   38  H1  UNL     1      -8.698  13.061  62.988  1.00  0.00     0.000 HD 
HETATM   39  H2  UNL     1      -7.516  12.489  64.183  1.00  0.00     0.000 HD 
ENDBRANCH   7  35
TORSDOF 2
ENDMDL
MODEL      105
REMARK 921   NORMALIZED FREE ENERGY PREDICTED BY IDOCK:   27.05 KCAL/MOL
REMARK 922        TOTAL FREE ENERGY PREDICTED BY IDOCK:   30.08 KCAL/MOL
REMARK 923 INTER-LIGAND FREE ENERGY PREDICTED BY IDOCK:   29.43 KCAL/MOL
REMARK 924 INTRA-LIGAND FREE ENERGY PREDICTED BY IDOCK:    0.65 KCAL/MOL
REMARK 927      BINDING AFFINITY PREDICTED BY RF-SCORE:    0.00 PKD
ROOT
HETATM    1  C   UNL     1      -9.123  17.446  68.508  1.00  0.00    -0.273 C  
HETATM    2  C   UNL     1     -10.292  18.294  68.029  1.00  0.00    -0.410 C  
HETATM    3  C   UNL     1     -11.111  17.578  66.975  1.00  0.00     0.253 C  
HETATM    4  C   UNL     1     -10.720  17.816  65.495  1.00  0.00    -0.009 C  
HETATM    5  H   UNL     1      -5.938  13.666  71.963  1.00  0.00     0.000 HD 
HETATM    6  C   UNL     1     -11.994  17.324  64.748  1.00  0.00     2.882 C  
HETATM    7  C   UNL     1     -12.174  15.981  64.753  1.00  0.00     0.621 C  
HETATM    8  O   UNL     1     -13.102  18.146  64.985  1.00  0.00    10.415 OA 
HETATM    9  O   UNL     1      -6.602  14.134  71.469  1.00  0.00     0.253 OA 
HETATM   10  C   UNL     1      -6.503  15.477  71.243  1.00  0.00     1.182 A  
HETATM   11  C   UNL     1     -12.285  15.509  66.218  1.00  0.00     0.957 C  
HETATM   12  H   UNL     1      -7.184  19.892  69.289  1.00  0.00     0.000 HD 
HETATM   13  H   UNL     1     -13.879  17.846  64.529  1.00  0.00     0.000 HD 
HETATM   14  O   UNL     1     -13.204  14.778  66.579  1.00  0.00     1.082 OA 
HETATM   15  C   UNL     1     -11.155  16.025  67.173  1.00  0.00    -0.104 C  
HETATM   16  C   UNL     1      -5.385  16.131  71.766  1.00  0.00     0.313 A  
HETATM   17  C   UNL     1      -5.244  17.498  71.596  1.00  0.00     0.248 A  
HETATM   18 CL   UNL     1      -5.967  19.932  70.866  1.00  0.00    -0.318 Cl 
HETATM   19  O   UNL     1      -7.683  19.347  68.693  1.00  0.00    -0.337 OA 
HETATM   20  O   UNL     1     -10.062  15.314  66.500  1.00  0.00    -0.253 OA 
HETATM   21  C   UNL     1     -10.822  15.627  68.608  1.00  0.00    -0.273 C  
HETATM   22  H   UNL     1     -10.089  14.372  66.621  1.00  0.00     0.000 HD 
HETATM   23  O   UNL     1     -11.397  14.484  69.120  1.00  0.00    -0.249 OA 
HETATM   24  C   UNL     1      -9.673  16.176  69.107  1.00  0.00    -0.248 C  
HETATM   25  C   UNL     1      -8.711  15.432  69.989  1.00  0.00     0.363 C  
HETATM   26  H   UNL     1     -11.191  14.236  70.013  1.00  0.00     0.000 HD 
HETATM   27  O   UNL     1      -8.849  14.225  70.151  1.00  0.00     1.144 OA 
HETATM   28  C   UNL     1      -7.490  16.172  70.509  1.00  0.00     1.899 A  
HETATM   29  C   UNL     1      -7.306  17.560  70.281  1.00  0.00     2.009 A  
HETATM   30  C   UNL     1      -6.204  18.213  70.884  1.00  0.00     0.995 A  
HETATM   31  C   UNL     1      -8.318  18.324  69.470  1.00  0.00     0.649 C  
ENDROOT
BRANCH   4  32
HETATM   32  N   UNL     1     -10.083  19.071  65.088  1.00  0.00     0.512 NA 
HETATM   33  C   UNL     1     -10.800  20.213  65.671  1.00  0.00    -0.045 C  
HETATM   34  C   UNL     1      -8.650  19.181  65.299  1.00  0.00     1.542 C  
ENDBRANCH   4  32
BRANCH   7  35
HETATM   35  C   UNL     1     -11.198  15.333  63.816  1.00  0.00     1.104 C  
HETATM   36  N   UNL     1     -10.438  14.315  64.295  1.00  0.00    -0.390 N  
HETATM   37  O   UNL     1     -11.091  15.641  62.623  1.00  0.00     3.917 OA 
HETATM   38  H1  UNL     1      -9.775  13.874  63.658  1.00  0.00     0.000 HD 
HETATM   39  H2  UNL     1     -10.529  14.000  65.261  1.00  0.00     0.000 HD 
ENDBRANCH   7  35
TORSDOF 2
ENDMDL
MODEL      106
REMARK 921   NORMALIZED FREE ENERGY PREDICTED BY IDOCK:   27.56 KCAL/MOL
REMARK 922        TOTAL FREE ENERGY PREDICTED BY IDOCK:   30.64 KCAL/MOL
REMARK 923 INTER-LIGAND FREE ENERGY PREDICTED BY IDOCK:   29.06 KCAL/MOL
REMARK 924 INTRA-LIGAND FREE ENERGY PREDICTED BY IDOCK:    1.58 KCAL/MOL
REMARK 927      BINDING AFFINITY PREDICTED BY RF-SCORE:    0.00 PKD
ROOT
HETATM    1  C   UNL     1      -9.427   5.714  65.963  1.00  0.00    -0.129 C  
HETATM    2  C   UNL     1     -10.523   4.727  66.335  1.00  0.00    -0.283 C  
HETATM    3  C   UNL     1     -11.106   5.022  67.702  1.00  0.00     1.161 C  
HETATM    4  C   UNL     1     -10.463   4.303  68.913  1.00  0.00     0.875 C  
HETATM    5  H   UNL     1      -6.765  10.515  63.468  1.00  0.00     0.000 HD 
HETATM    6  C   UNL     1     -11.557   4.482  70.005  1.00  0.00     5.499 C  
HETATM    7  C   UNL     1     -11.678   5.742  70.489  1.00  0.00     0.474 C  
HETATM    8  O   UNL     1     -12.725   3.765  69.713  1.00  0.00    17.388 OA 
HETATM    9  O   UNL     1      -7.347   9.893  63.888  1.00  0.00    -0.124 OA 
HETATM   10  C   UNL     1      -7.266   8.555  63.623  1.00  0.00    -0.095 A  
HETATM   11  C   UNL     1     -12.034   6.683  69.319  1.00  0.00     0.578 C  
HETATM   12  H   UNL     1      -7.768   3.725  64.055  1.00  0.00     0.000 HD 
HETATM   13  H   UNL     1     -13.392   3.874  70.380  1.00  0.00     0.000 HD 
HETATM   14  O   UNL     1     -12.971   7.472  69.404  1.00  0.00     2.841 OA 
HETATM   15  C   UNL     1     -11.120   6.549  68.053  1.00  0.00    -0.238 C  
HETATM   16  C   UNL     1      -6.291   8.145  62.711  1.00  0.00    -0.086 A  
HETATM   17  C   UNL     1      -6.180   6.805  62.379  1.00  0.00    -0.039 A  
HETATM   18 CL   UNL     1      -6.861   4.252  62.360  1.00  0.00    -0.030 Cl 
HETATM   19  O   UNL     1      -8.127   4.023  64.882  1.00  0.00    -0.092 OA 
HETATM   20  O   UNL     1      -9.893   7.012  68.712  1.00  0.00    -0.148 OA 
HETATM   21  C   UNL     1     -11.037   7.419  66.804  1.00  0.00     0.417 C  
HETATM   22  H   UNL     1      -9.902   7.938  68.925  1.00  0.00     0.000 HD 
HETATM   23  O   UNL     1     -11.646   8.656  66.825  1.00  0.00     1.219 OA 
HETATM   24  C   UNL     1     -10.021   7.099  65.944  1.00  0.00     0.579 C  
HETATM   25  C   UNL     1      -9.205   8.121  65.204  1.00  0.00     0.452 C  
HETATM   26  H   UNL     1     -11.595   9.198  66.047  1.00  0.00     0.000 HD 
HETATM   27  O   UNL     1      -9.319   9.308  65.490  1.00  0.00    -0.227 OA 
HETATM   28  C   UNL     1      -8.132   7.630  64.247  1.00  0.00    -0.071 A  
HETATM   29  C   UNL     1      -7.969   6.251  63.953  1.00  0.00    -0.095 A  
HETATM   30  C   UNL     1      -7.023   5.868  62.970  1.00  0.00    -0.048 A  
HETATM   31  C   UNL     1      -8.848   5.235  64.629  1.00  0.00    -0.038 C  
ENDROOT
BRANCH   4  32
HETATM   32  N   UNL     1      -9.817   2.999  68.745  1.00  0.00     0.172 NA 
HETATM   33  C   UNL     1      -9.011   2.990  67.516  1.00  0.00    -0.161 C  
HETATM   34  C   UNL     1      -9.064   2.486  69.876  1.00  0.00    -0.111 C  
ENDBRANCH   4  32
BRANCH   7  35
HETATM   35  C   UNL     1     -10.521   6.053  71.393  1.00  0.00    -0.231 C  
HETATM   36  N   UNL     1      -9.768   5.015  71.839  1.00  0.00    -0.155 N  
HETATM   37  O   UNL     1     -10.189   7.202  71.702  1.00  0.00    -0.193 OA 
HETATM   38  H1  UNL     1      -8.981   5.226  72.452  1.00  0.00     0.000 HD 
HETATM   39  H2  UNL     1      -9.982   4.055  71.569  1.00  0.00     0.000 HD 
ENDBRANCH   7  35
TORSDOF 2
ENDMDL
MODEL      107
REMARK 921   NORMALIZED FREE ENERGY PREDICTED BY IDOCK:   28.98 KCAL/MOL
REMARK 922        TOTAL FREE ENERGY PREDICTED BY IDOCK:   32.23 KCAL/MOL
REMARK 923 INTER-LIGAND FREE ENERGY PREDICTED BY IDOCK:   31.42 KCAL/MOL
REMARK 924 INTRA-LIGAND FREE ENERGY PREDICTED BY IDOCK:    0.82 KCAL/MOL
REMARK 927      BINDING AFFINITY PREDICTED BY RF-SCORE:    0.00 PKD
ROOT
HETATM    1  C   UNL     1     -10.700  17.218  69.609  1.00  0.00     0.187 C  
HETATM    2  C   UNL     1     -10.365  18.511  68.881  1.00  0.00    -0.147 C  
HETATM    3  C   UNL     1      -9.886  18.252  67.467  1.00  0.00    -0.324 C  
HETATM    4  C   UNL     1      -8.360  18.092  67.258  1.00  0.00    -0.229 C  
HETATM    5  H   UNL     1     -13.994  12.682  71.832  1.00  0.00     0.000 HD 
HETATM    6  C   UNL     1      -8.229  18.296  65.721  1.00  0.00     0.275 C  
HETATM    7  C   UNL     1      -8.700  17.273  64.967  1.00  0.00     3.270 C  
HETATM    8  O   UNL     1      -8.530  19.607  65.329  1.00  0.00    -0.009 OA 
HETATM    9  O   UNL     1     -13.610  13.383  71.317  1.00  0.00    -0.131 OA 
HETATM   10  C   UNL     1     -12.963  14.428  71.914  1.00  0.00    -0.349 A  
HETATM   11  C   UNL     1     -10.199  17.085  65.282  1.00  0.00     0.168 C  
HETATM   12  H   UNL     1     -10.058  18.287  72.576  1.00  0.00     0.000 HD 
HETATM   13  H   UNL     1      -8.449  19.731  64.391  1.00  0.00     0.000 HD 
HETATM   14  O   UNL     1     -11.030  17.008  64.381  1.00  0.00    -0.993 OA 
HETATM   15  C   UNL     1     -10.555  16.999  66.806  1.00  0.00    -0.191 C  
HETATM   16  C   UNL     1     -12.892  14.420  73.309  1.00  0.00    -0.413 A  
HETATM   17  C   UNL     1     -12.276  15.468  73.972  1.00  0.00    -0.740 A  
HETATM   18 CL   UNL     1     -11.094  17.819  74.212  1.00  0.00     1.248 Cl 
HETATM   19  O   UNL     1      -9.841  18.043  71.684  1.00  0.00     5.128 OA 
HETATM   20  O   UNL     1      -9.831  15.747  67.052  1.00  0.00    -0.229 OA 
HETATM   21  C   UNL     1     -11.867  16.630  67.489  1.00  0.00     0.951 C  
HETATM   22  H   UNL     1     -10.237  14.987  66.651  1.00  0.00     0.000 HD 
HETATM   23  O   UNL     1     -12.856  16.038  66.732  1.00  0.00     2.069 OA 
HETATM   24  C   UNL     1     -11.796  16.515  68.851  1.00  0.00     0.227 C  
HETATM   25  C   UNL     1     -12.524  15.461  69.636  1.00  0.00    -0.136 C  
HETATM   26  H   UNL     1     -13.673  15.808  67.158  1.00  0.00     0.000 HD 
HETATM   27  O   UNL     1     -13.083  14.544  69.044  1.00  0.00     0.841 OA 
HETATM   28  C   UNL     1     -12.392  15.470  71.149  1.00  0.00    -0.468 A  
HETATM   29  C   UNL     1     -11.704  16.506  71.832  1.00  0.00    -0.277 A  
HETATM   30  C   UNL     1     -11.710  16.514  73.248  1.00  0.00    -0.056 A  
HETATM   31  C   UNL     1     -11.050  17.610  71.047  1.00  0.00     2.111 C  
ENDROOT
BRANCH   4  32
HETATM   32  N   UNL     1      -7.414  18.753  68.159  1.00  0.00    -0.258 NA 
HETATM   33  C   UNL     1      -7.020  17.838  69.238  1.00  0.00    -0.152 C  
HETATM   34  C   UNL     1      -6.255  19.383  67.549  1.00  0.00    -0.195 C  
ENDBRANCH   4  32
BRANCH   7  35
HETATM   35  C   UNL     1      -7.754  16.110  65.039  1.00  0.00     5.968 C  
HETATM   36  N   UNL     1      -7.636  15.461  66.226  1.00  0.00     0.290 N  
HETATM   37  O   UNL     1      -7.124  15.683  64.065  1.00  0.00    13.983 OA 
HETATM   38  H1  UNL     1      -6.994  14.670  66.275  1.00  0.00     0.000 HD 
HETATM   39  H2  UNL     1      -8.174  15.755  67.042  1.00  0.00     0.000 HD 
ENDBRANCH   7  35
TORSDOF 2
ENDMDL
MODEL      108
REMARK 921   NORMALIZED FREE ENERGY PREDICTED BY IDOCK:   38.37 KCAL/MOL
REMARK 922        TOTAL FREE ENERGY PREDICTED BY IDOCK:   42.72 KCAL/MOL
REMARK 923 INTER-LIGAND FREE ENERGY PREDICTED BY IDOCK:   42.62 KCAL/MOL
REMARK 924 INTRA-LIGAND FREE ENERGY PREDICTED BY IDOCK:    0.10 KCAL/MOL
REMARK 927      BINDING AFFINITY PREDICTED BY RF-SCORE:    0.00 PKD
ROOT
HETATM    1  C   UNL     1      -8.982  16.959  68.652  1.00  0.00    -0.266 C  
HETATM    2  C   UNL     1      -9.274  16.415  67.261  1.00  0.00    -0.224 C  
HETATM    3  C   UNL     1      -9.438  14.909  67.270  1.00  0.00    -0.216 C  
HETATM    4  C   UNL     1      -8.170  14.059  67.009  1.00  0.00    -0.053 C  
HETATM    5  H   UNL     1      -9.958  19.451  74.056  1.00  0.00     0.000 HD 
HETATM    6  C   UNL     1      -8.785  12.675  66.653  1.00  0.00    -0.080 C  
HETATM    7  C   UNL     1      -9.330  12.007  67.698  1.00  0.00    -0.185 C  
HETATM    8  O   UNL     1      -9.483  12.697  65.439  1.00  0.00    -0.459 OA 
HETATM    9  O   UNL     1      -9.992  18.966  73.239  1.00  0.00     3.429 OA 
HETATM   10  C   UNL     1      -9.369  19.425  72.114  1.00  0.00     4.818 A  
HETATM   11  C   UNL     1     -10.459  12.874  68.296  1.00  0.00    -0.242 C  
HETATM   12  H   UNL     1      -7.306  19.535  67.698  1.00  0.00     0.000 HD 
HETATM   13  H   UNL     1      -9.858  11.852  65.221  1.00  0.00     0.000 HD 
HETATM   14  O   UNL     1     -11.572  12.402  68.513  1.00  0.00    -0.268 OA 
HETATM   15  C   UNL     1     -10.069  14.362  68.595  1.00  0.00    -0.242 C  
HETATM   16  C   UNL     1      -8.680  20.636  72.217  1.00  0.00     2.710 A  
HETATM   17  C   UNL     1      -8.054  21.168  71.102  1.00  0.00     4.353 A  
HETATM   18 CL   UNL     1      -7.383  21.333  68.552  1.00  0.00     0.955 Cl 
HETATM   19  O   UNL     1      -7.468  18.605  67.803  1.00  0.00    -0.224 OA 
HETATM   20  O   UNL     1      -9.079  14.045  69.631  1.00  0.00     0.060 OA 
HETATM   21  C   UNL     1     -10.833  15.446  69.349  1.00  0.00    -0.263 C  
HETATM   22  H   UNL     1      -9.462  13.714  70.435  1.00  0.00     0.000 HD 
HETATM   23  O   UNL     1     -11.917  15.070  70.115  1.00  0.00    -0.280 OA 
HETATM   24  C   UNL     1     -10.138  16.607  69.552  1.00  0.00    -0.133 C  
HETATM   25  C   UNL     1     -10.212  17.409  70.820  1.00  0.00     2.259 C  
HETATM   26  H   UNL     1     -12.393  15.745  70.584  1.00  0.00     0.000 HD 
HETATM   27  O   UNL     1     -10.782  16.941  71.799  1.00  0.00     1.387 OA 
HETATM   28  C   UNL     1      -9.420  18.703  70.900  1.00  0.00     3.892 A  
HETATM   29  C   UNL     1      -8.721  19.220  69.780  1.00  0.00     0.658 A  
HETATM   30  C   UNL     1      -8.092  20.485  69.889  1.00  0.00     1.570 A  
HETATM   31  C   UNL     1      -8.721  18.458  68.483  1.00  0.00    -0.315 C  
ENDROOT
BRANCH   4  32
HETATM   32  N   UNL     1      -7.073  14.593  66.199  1.00  0.00     2.690 NA 
HETATM   33  C   UNL     1      -5.786  14.327  66.855  1.00  0.00     1.743 C  
HETATM   34  C   UNL     1      -7.042  14.210  64.798  1.00  0.00    16.147 C  
ENDBRANCH   4  32
BRANCH   7  35
HETATM   35  C   UNL     1      -8.243  11.460  68.576  1.00  0.00    -0.153 C  
HETATM   36  N   UNL     1      -8.604  10.639  69.595  1.00  0.00    -0.383 N  
HETATM   37  O   UNL     1      -7.041  11.674  68.384  1.00  0.00    -0.072 OA 
HETATM   38  H1  UNL     1      -7.865  10.267  70.191  1.00  0.00     0.000 HD 
HETATM   39  H2  UNL     1      -9.582  10.401  69.758  1.00  0.00     0.000 HD 
ENDBRANCH   7  35
TORSDOF 2
ENDMDL
MODEL      109
REMARK 921   NORMALIZED FREE ENERGY PREDICTED BY IDOCK:   51.46 KCAL/MOL
REMARK 922        TOTAL FREE ENERGY PREDICTED BY IDOCK:   57.35 KCAL/MOL
REMARK 923 INTER-LIGAND FREE ENERGY PREDICTED BY IDOCK:   56.20 KCAL/MOL
REMARK 924 INTRA-LIGAND FREE ENERGY PREDICTED BY IDOCK:    1.15 KCAL/MOL
REMARK 927      BINDING AFFINITY PREDICTED BY RF-SCORE:    0.00 PKD
ROOT
HETATM    1  C   UNL     1      -9.654   8.586  69.290  1.00  0.00    -0.170 C  
HETATM    2  C   UNL     1      -9.017   7.793  68.159  1.00  0.00    -0.127 C  
HETATM    3  C   UNL     1      -8.859   8.629  66.906  1.00  0.00    -0.147 C  
HETATM    4  C   UNL     1     -10.018   8.586  65.880  1.00  0.00     0.186 C  
HETATM    5  H   UNL     1     -10.093  11.929  74.290  1.00  0.00     0.000 HD 
HETATM    6  C   UNL     1      -9.331   9.156  64.604  1.00  0.00     0.164 C  
HETATM    7  C   UNL     1      -9.071  10.485  64.642  1.00  0.00    -0.248 C  
HETATM    8  O   UNL     1      -8.346   8.297  64.100  1.00  0.00    -0.307 OA 
HETATM    9  O   UNL     1      -9.851  11.521  73.467  1.00  0.00    18.014 OA 
HETATM   10  C   UNL     1     -10.166  10.219  73.201  1.00  0.00     9.922 A  
HETATM   11  C   UNL     1      -8.133  10.765  65.836  1.00  0.00    -0.148 C  
HETATM   12  H   UNL     1     -11.033   6.083  70.768  1.00  0.00     0.000 HD 
HETATM   13  H   UNL     1      -7.928   8.644  63.321  1.00  0.00     0.000 HD 
HETATM   14  O   UNL     1      -7.112  11.433  65.695  1.00  0.00     0.284 OA 
HETATM   15  C   UNL     1      -8.587  10.143  67.200  1.00  0.00    -0.125 C  
HETATM   16  C   UNL     1     -10.859   9.516  74.189  1.00  0.00    11.274 A  
HETATM   17  C   UNL     1     -11.180   8.184  73.990  1.00  0.00     3.567 A  
HETATM   18 CL   UNL     1     -11.178   5.855  72.742  1.00  0.00    -0.315 Cl 
HETATM   19  O   UNL     1     -10.902   6.694  70.053  1.00  0.00    -0.238 OA 
HETATM   20  O   UNL     1      -9.809  10.947  67.325  1.00  0.00    -0.171 OA 
HETATM   21  C   UNL     1      -8.042  10.358  68.608  1.00  0.00    -0.118 C  
HETATM   22  H   UNL     1      -9.644  11.865  67.503  1.00  0.00     0.000 HD 
HETATM   23  O   UNL     1      -7.190  11.420  68.825  1.00  0.00    -0.092 OA 
HETATM   24  C   UNL     1      -8.766   9.763  69.605  1.00  0.00    -0.211 C  
HETATM   25  C   UNL     1      -9.019  10.399  70.942  1.00  0.00     2.273 C  
HETATM   26  H   UNL     1      -6.849  11.553  69.702  1.00  0.00     0.000 HD 
HETATM   27  O   UNL     1      -8.718  11.574  71.120  1.00  0.00     6.452 OA 
HETATM   28  C   UNL     1      -9.806   9.612  71.976  1.00  0.00     1.527 A  
HETATM   29  C   UNL     1     -10.196   8.267  71.752  1.00  0.00    -0.297 A  
HETATM   30  C   UNL     1     -10.833   7.555  72.798  1.00  0.00    -0.346 A  
HETATM   31  C   UNL     1      -9.865   7.602  70.444  1.00  0.00    -0.183 C  
ENDROOT
BRANCH   4  32
HETATM   32  N   UNL     1     -10.872   7.402  65.773  1.00  0.00     2.580 NA 
HETATM   33  C   UNL     1     -10.070   6.234  65.384  1.00  0.00     1.360 C  
HETATM   34  C   UNL     1     -11.728   7.102  66.908  1.00  0.00     1.913 C  
ENDBRANCH   4  32
BRANCH   7  35
HETATM   35  C   UNL     1     -10.346  11.258  64.477  1.00  0.00    -0.322 C  
HETATM   36  N   UNL     1     -11.453  10.802  65.118  1.00  0.00     0.610 N  
HETATM   37  O   UNL     1     -10.425  12.313  63.837  1.00  0.00    -0.360 OA 
HETATM   38  H1  UNL     1     -12.319  11.328  65.006  1.00  0.00     0.000 HD 
HETATM   39  H2  UNL     1     -11.418   9.960  65.693  1.00  0.00     0.000 HD 
ENDBRANCH   7  35
TORSDOF 2
ENDMDL
MODEL      110
REMARK 921   NORMALIZED FREE ENERGY PREDICTED BY IDOCK:   62.98 KCAL/MOL
REMARK 922        TOTAL FREE ENERGY PREDICTED BY IDOCK:   70.20 KCAL/MOL
REMARK 923 INTER-LIGAND FREE ENERGY PREDICTED BY IDOCK:   70.22 KCAL/MOL
REMARK 924 INTRA-LIGAND FREE ENERGY PREDICTED BY IDOCK:   -0.01 KCAL/MOL
REMARK 927      BINDING AFFINITY PREDICTED BY RF-SCORE:    0.00 PKD
ROOT
HETATM    1  C   UNL     1      -8.518   6.946  67.755  1.00  0.00    -0.123 C  
HETATM    2  C   UNL     1      -7.906   5.617  68.171  1.00  0.00    -0.096 C  
HETATM    3  C   UNL     1      -8.967   4.591  68.512  1.00  0.00    -0.145 C  
HETATM    4  C   UNL     1      -9.414   4.506  69.993  1.00  0.00    -0.177 C  
HETATM    5  H   UNL     1     -10.575  11.336  64.169  1.00  0.00     0.000 HD 
HETATM    6  C   UNL     1     -10.119   3.118  70.030  1.00  0.00     0.746 C  
HETATM    7  C   UNL     1     -11.316   3.070  69.398  1.00  0.00     8.761 C  
HETATM    8  O   UNL     1      -9.222   2.059  69.843  1.00  0.00    -0.097 OA 
HETATM    9  O   UNL     1     -10.336  10.517  64.587  1.00  0.00    -0.344 OA 
HETATM   10  C   UNL     1      -9.230  10.423  65.384  1.00  0.00    -0.193 A  
HETATM   11  C   UNL     1     -11.099   3.439  67.914  1.00  0.00     6.163 C  
HETATM   12  H   UNL     1      -6.074   8.800  68.727  1.00  0.00     0.000 HD 
HETATM   13  H   UNL     1      -9.652   1.212  69.866  1.00  0.00     0.000 HD 
HETATM   14  O   UNL     1     -11.555   2.737  67.015  1.00  0.00     8.683 OA 
HETATM   15  C   UNL     1     -10.276   4.748  67.666  1.00  0.00    -0.036 C  
HETATM   16  C   UNL     1      -8.470  11.582  65.558  1.00  0.00     0.259 A  
HETATM   17  C   UNL     1      -7.321  11.542  66.330  1.00  0.00     0.059 A  
HETATM   18 CL   UNL     1      -5.413  10.419  67.772  1.00  0.00    -0.041 Cl 
HETATM   19  O   UNL     1      -6.799   8.198  68.849  1.00  0.00    -0.058 OA 
HETATM   20  O   UNL     1     -11.261   5.654  68.268  1.00  0.00     0.006 OA 
HETATM   21  C   UNL     1     -10.027   5.523  66.376  1.00  0.00    -0.172 C  
HETATM   22  H   UNL     1     -12.055   5.748  67.754  1.00  0.00     0.000 HD 
HETATM   23  O   UNL     1     -10.805   5.231  65.276  1.00  0.00    -0.230 OA 
HETATM   24  C   UNL     1      -9.374   6.715  66.536  1.00  0.00    -0.191 C  
HETATM   25  C   UNL     1      -9.707   7.957  65.760  1.00  0.00     0.418 C  
HETATM   26  H   UNL     1     -10.650   5.713  64.473  1.00  0.00     0.000 HD 
HETATM   27  O   UNL     1     -10.716   7.982  65.064  1.00  0.00     4.576 OA 
HETATM   28  C   UNL     1      -8.876   9.204  66.005  1.00  0.00    -0.200 A  
HETATM   29  C   UNL     1      -7.735   9.186  66.849  1.00  0.00    -0.098 A  
HETATM   30  C   UNL     1      -6.940  10.355  66.950  1.00  0.00    -0.093 A  
HETATM   31  C   UNL     1      -7.350   7.917  67.557  1.00  0.00    -0.092 C  
ENDROOT
BRANCH   4  32
HETATM   32  N   UNL     1      -8.494   4.878  71.069  1.00  0.00    -0.114 NA 
HETATM   33  C   UNL     1      -9.187   4.835  72.364  1.00  0.00    -0.129 C  
HETATM   34  C   UNL     1      -7.225   4.173  71.124  1.00  0.00    -0.040 C  
ENDBRANCH   4  32
BRANCH   7  35
HETATM   35  C   UNL     1     -12.354   3.780  70.216  1.00  0.00    15.158 C  
HETATM   36  N   UNL     1     -13.609   3.872  69.707  1.00  0.00    24.324 N  
HETATM   37  O   UNL     1     -12.137   4.234  71.345  1.00  0.00     3.729 OA 
HETATM   38  H1  UNL     1     -14.315   4.355  70.263  1.00  0.00     0.000 HD 
HETATM   39  H2  UNL     1     -13.839   3.470  68.798  1.00  0.00     0.000 HD 
ENDBRANCH   7  35
TORSDOF 2
ENDMDL
MODEL      111
REMARK 921   NORMALIZED FREE ENERGY PREDICTED BY IDOCK:   65.55 KCAL/MOL
REMARK 922        TOTAL FREE ENERGY PREDICTED BY IDOCK:   73.08 KCAL/MOL
REMARK 923 INTER-LIGAND FREE ENERGY PREDICTED BY IDOCK:   72.89 KCAL/MOL
REMARK 924 INTRA-LIGAND FREE ENERGY PREDICTED BY IDOCK:    0.18 KCAL/MOL
REMARK 927      BINDING AFFINITY PREDICTED BY RF-SCORE:    0.00 PKD
ROOT
HETATM    1  C   UNL     1      -9.311  15.937  67.782  1.00  0.00    -0.207 C  
HETATM    2  C   UNL     1     -10.778  15.574  67.961  1.00  0.00    -0.283 C  
HETATM    3  C   UNL     1     -11.096  15.209  69.397  1.00  0.00    -0.283 C  
HETATM    4  C   UNL     1     -10.990  13.714  69.783  1.00  0.00     0.168 C  
HETATM    5  H   UNL     1      -4.361  19.343  67.277  1.00  0.00     0.000 HD 
HETATM    6  C   UNL     1     -11.792  13.674  71.117  1.00  0.00     0.237 C  
HETATM    7  C   UNL     1     -11.172  14.257  72.172  1.00  0.00     1.642 C  
HETATM    8  O   UNL     1     -13.157  13.921  70.926  1.00  0.00    -0.284 OA 
HETATM    9  O   UNL     1      -5.198  18.952  67.500  1.00  0.00    -0.160 OA 
HETATM   10  C   UNL     1      -5.896  18.204  66.595  1.00  0.00    -0.151 A  
HETATM   11  C   UNL     1     -10.916  15.740  71.829  1.00  0.00     0.196 C  
HETATM   12  H   UNL     1      -9.077  15.031  64.704  1.00  0.00     0.000 HD 
HETATM   13  H   UNL     1     -13.646  13.897  71.740  1.00  0.00     0.000 HD 
HETATM   14  O   UNL     1     -11.233  16.634  72.610  1.00  0.00     0.409 OA 
HETATM   15  C   UNL     1     -10.235  15.996  70.442  1.00  0.00     0.264 C  
HETATM   16  C   UNL     1      -5.325  18.039  65.330  1.00  0.00    -0.159 A  
HETATM   17  C   UNL     1      -5.999  17.317  64.360  1.00  0.00     4.045 A  
HETATM   18 CL   UNL     1      -8.021  15.980  63.306  1.00  0.00    21.420 Cl 
HETATM   19  O   UNL     1      -9.207  14.891  65.634  1.00  0.00    -0.139 OA 
HETATM   20  O   UNL     1      -8.969  15.335  70.779  1.00  0.00     0.547 OA 
HETATM   21  C   UNL     1      -9.660  17.279  69.851  1.00  0.00     0.978 C  
HETATM   22  H   UNL     1      -8.447  15.813  71.413  1.00  0.00     0.000 HD 
HETATM   23  O   UNL     1      -9.451  18.351  70.693  1.00  0.00     2.628 OA 
HETATM   24  C   UNL     1      -9.004  17.123  68.660  1.00  0.00    -0.267 C  
HETATM   25  C   UNL     1      -7.745  17.859  68.301  1.00  0.00    -0.279 C  
HETATM   26  H   UNL     1      -9.093  19.150  70.325  1.00  0.00     0.000 HD 
HETATM   27  O   UNL     1      -7.160  18.511  69.158  1.00  0.00    -0.278 OA 
HETATM   28  C   UNL     1      -7.140  17.624  66.927  1.00  0.00    -0.219 A  
HETATM   29  C   UNL     1      -7.794  16.830  65.950  1.00  0.00     0.178 A  
HETATM   30  C   UNL     1      -7.232  16.738  64.653  1.00  0.00     7.277 A  
HETATM   31  C   UNL     1      -9.102  16.164  66.283  1.00  0.00    -0.338 C  
ENDROOT
BRANCH   4  32
HETATM   32  N   UNL     1     -11.206  12.669  68.779  1.00  0.00    -0.263 NA 
HETATM   33  C   UNL     1     -10.085  12.642  67.830  1.00  0.00    -0.222 C  
HETATM   34  C   UNL     1     -11.517  11.338  69.270  1.00  0.00    -0.301 C  
ENDBRANCH   4  32
BRANCH   7  35
HETATM   35  C   UNL     1     -10.052  13.381  72.652  1.00  0.00    12.563 C  
HETATM   36  N   UNL     1     -10.114  12.056  72.362  1.00  0.00    15.018 N  
HETATM   37  O   UNL     1      -9.057  13.813  73.245  1.00  0.00     9.153 OA 
HETATM   38  H1  UNL     1      -9.352  11.462  72.687  1.00  0.00     0.000 HD 
HETATM   39  H2  UNL     1     -10.896  11.669  71.834  1.00  0.00     0.000 HD 
ENDBRANCH   7  35
TORSDOF 2
ENDMDL
MODEL      112
REMARK 921   NORMALIZED FREE ENERGY PREDICTED BY IDOCK:   70.01 KCAL/MOL
REMARK 922        TOTAL FREE ENERGY PREDICTED BY IDOCK:   78.06 KCAL/MOL
REMARK 923 INTER-LIGAND FREE ENERGY PREDICTED BY IDOCK:   76.99 KCAL/MOL
REMARK 924 INTRA-LIGAND FREE ENERGY PREDICTED BY IDOCK:    1.07 KCAL/MOL
REMARK 927      BINDING AFFINITY PREDICTED BY RF-SCORE:    0.00 PKD
ROOT
HETATM    1  C   UNL     1      -9.553   7.418  69.940  1.00  0.00    -0.163 C  
HETATM    2  C   UNL     1      -8.759   8.215  70.965  1.00  0.00    -0.156 C  
HETATM    3  C   UNL     1      -9.435   9.529  71.301  1.00  0.00     0.084 C  
HETATM    4  C   UNL     1      -9.025  10.766  70.466  1.00  0.00     2.308 C  
HETATM    5  H   UNL     1     -13.377   3.326  67.705  1.00  0.00     0.000 HD 
HETATM    6  C   UNL     1      -9.545  11.934  71.355  1.00  0.00    11.838 C  
HETATM    7  C   UNL     1     -10.892  12.075  71.379  1.00  0.00     5.290 C  
HETATM    8  O   UNL     1      -8.841  12.040  72.561  1.00  0.00    18.844 OA 
HETATM    9  O   UNL     1     -12.919   3.987  68.212  1.00  0.00    20.551 OA 
HETATM   10  C   UNL     1     -11.557   4.081  68.189  1.00  0.00     8.878 A  
HETATM   11  C   UNL     1     -11.510  10.770  71.922  1.00  0.00     2.054 C  
HETATM   12  H   UNL     1      -7.045   5.869  68.651  1.00  0.00     0.000 HD 
HETATM   13  H   UNL     1      -9.158  12.753  73.103  1.00  0.00     0.000 HD 
HETATM   14  O   UNL     1     -12.344  10.792  72.824  1.00  0.00     1.446 OA 
HETATM   15  C   UNL     1     -10.999   9.455  71.241  1.00  0.00    -0.370 C  
HETATM   16  C   UNL     1     -10.869   3.166  67.389  1.00  0.00     4.639 A  
HETATM   17  C   UNL     1      -9.485   3.192  67.348  1.00  0.00    -0.177 A  
HETATM   18 CL   UNL     1      -7.058   3.971  68.045  1.00  0.00    -0.058 Cl 
HETATM   19  O   UNL     1      -7.569   6.633  68.860  1.00  0.00    -0.096 OA 
HETATM   20  O   UNL     1     -11.551   9.756  69.915  1.00  0.00    -0.389 OA 
HETATM   21  C   UNL     1     -11.504   8.022  71.366  1.00  0.00    -0.258 C  
HETATM   22  H   UNL     1     -12.500   9.711  69.879  1.00  0.00     0.000 HD 
HETATM   23  O   UNL     1     -12.734   7.810  71.952  1.00  0.00    -0.312 OA 
HETATM   24  C   UNL     1     -10.915   7.125  70.517  1.00  0.00    -0.287 C  
HETATM   25  C   UNL     1     -11.660   6.016  69.831  1.00  0.00     0.023 C  
HETATM   26  H   UNL     1     -13.049   6.917  72.031  1.00  0.00     0.000 HD 
HETATM   27  O   UNL     1     -12.884   5.987  69.884  1.00  0.00     2.518 OA 
HETATM   28  C   UNL     1     -10.877   5.064  68.943  1.00  0.00     0.533 A  
HETATM   29  C   UNL     1      -9.463   5.127  68.845  1.00  0.00    -0.184 A  
HETATM   30  C   UNL     1      -8.784   4.143  68.086  1.00  0.00    -0.099 A  
HETATM   31  C   UNL     1      -8.709   6.186  69.603  1.00  0.00    -0.135 C  
ENDROOT
BRANCH   4  32
HETATM   32  N   UNL     1      -7.690  10.851  69.869  1.00  0.00     0.133 NA 
HETATM   33  C   UNL     1      -7.793  11.226  68.453  1.00  0.00    -0.136 C  
HETATM   34  C   UNL     1      -6.709  11.668  70.564  1.00  0.00     0.960 C  
ENDBRANCH   4  32
BRANCH   7  35
HETATM   35  C   UNL     1     -11.366  12.660  70.081  1.00  0.00     0.262 C  
HETATM   36  N   UNL     1     -11.460  11.833  69.009  1.00  0.00    -0.270 N  
HETATM   37  O   UNL     1     -11.726  13.836  69.955  1.00  0.00    -0.281 OA 
HETATM   38  H1  UNL     1     -11.783  12.230  68.127  1.00  0.00     0.000 HD 
HETATM   39  H2  UNL     1     -11.217  10.845  69.084  1.00  0.00     0.000 HD 
ENDBRANCH   7  35
TORSDOF 2
ENDMDL
MODEL      113
REMARK 921   NORMALIZED FREE ENERGY PREDICTED BY IDOCK:   71.13 KCAL/MOL
REMARK 922        TOTAL FREE ENERGY PREDICTED BY IDOCK:   79.32 KCAL/MOL
REMARK 923 INTER-LIGAND FREE ENERGY PREDICTED BY IDOCK:   78.86 KCAL/MOL
REMARK 924 INTRA-LIGAND FREE ENERGY PREDICTED BY IDOCK:    0.45 KCAL/MOL
REMARK 927      BINDING AFFINITY PREDICTED BY RF-SCORE:    0.00 PKD
ROOT
HETATM    1  C   UNL     1      -8.695  18.057  69.070  1.00  0.00    -0.011 C  
HETATM    2  C   UNL     1      -7.999  17.295  70.188  1.00  0.00     2.287 C  
HETATM    3  C   UNL     1      -8.976  16.846  71.255  1.00  0.00     7.225 C  
HETATM    4  C   UNL     1      -9.200  17.801  72.453  1.00  0.00    13.433 C  
HETATM    5  H   UNL     1     -11.351  19.106  63.759  1.00  0.00     0.000 HD 
HETATM    6  C   UNL     1      -9.860  16.852  73.495  1.00  0.00    11.360 C  
HETATM    7  C   UNL     1     -11.135  16.492  73.211  1.00  0.00     2.015 C  
HETATM    8  O   UNL     1      -8.976  15.867  73.955  1.00  0.00    13.515 OA 
HETATM    9  O   UNL     1     -11.035  18.755  64.584  1.00  0.00    -0.043 OA 
HETATM   10  C   UNL     1      -9.824  19.125  65.095  1.00  0.00     1.719 A  
HETATM   11  C   UNL     1     -11.145  15.764  71.850  1.00  0.00     0.058 C  
HETATM   12  H   UNL     1      -6.179  19.883  68.242  1.00  0.00     0.000 HD 
HETATM   13  H   UNL     1      -9.379  15.288  74.591  1.00  0.00     0.000 HD 
HETATM   14  O   UNL     1     -11.711  14.682  71.716  1.00  0.00    -0.318 OA 
HETATM   15  C   UNL     1     -10.397  16.506  70.691  1.00  0.00     0.910 C  
HETATM   16  C   UNL     1      -9.073  20.040  64.354  1.00  0.00     4.308 A  
HETATM   17  C   UNL     1      -7.824  20.431  64.805  1.00  0.00     1.073 A  
HETATM   18 CL   UNL     1      -5.700  20.399  66.378  1.00  0.00    -0.190 Cl 
HETATM   19  O   UNL     1      -6.864  19.576  68.823  1.00  0.00    -0.292 OA 
HETATM   20  O   UNL     1     -11.304  17.658  70.648  1.00  0.00     0.893 OA 
HETATM   21  C   UNL     1     -10.356  16.206  69.196  1.00  0.00    -0.259 C  
HETATM   22  H   UNL     1     -12.166  17.452  70.306  1.00  0.00     0.000 HD 
HETATM   23  O   UNL     1     -11.280  15.321  68.681  1.00  0.00    -0.264 OA 
HETATM   24  C   UNL     1      -9.714  17.145  68.436  1.00  0.00    -0.284 C  
HETATM   25  C   UNL     1     -10.185  17.580  67.078  1.00  0.00    -0.327 C  
HETATM   26  H   UNL     1     -11.254  15.134  67.750  1.00  0.00     0.000 HD 
HETATM   27  O   UNL     1     -11.285  17.218  66.675  1.00  0.00     0.268 OA 
HETATM   28  C   UNL     1      -9.355  18.603  66.321  1.00  0.00    -0.251 A  
HETATM   29  C   UNL     1      -8.103  19.057  66.811  1.00  0.00    -0.279 A  
HETATM   30  C   UNL     1      -7.329  19.929  66.006  1.00  0.00    -0.309 A  
HETATM   31  C   UNL     1      -7.591  18.553  68.132  1.00  0.00    -0.274 C  
ENDROOT
BRANCH   4  32
HETATM   32  N   UNL     1      -8.141  18.718  72.880  1.00  0.00     8.012 NA 
HETATM   33  C   UNL     1      -6.844  18.030  72.873  1.00  0.00     6.829 C  
HETATM   34  C   UNL     1      -8.065  19.999  72.199  1.00  0.00     2.630 C  
ENDBRANCH   4  32
BRANCH   7  35
HETATM   35  C   UNL     1     -12.059  17.647  73.464  1.00  0.00     1.302 C  
HETATM   36  N   UNL     1     -13.395  17.407  73.448  1.00  0.00     2.121 N  
HETATM   37  O   UNL     1     -11.665  18.786  73.740  1.00  0.00     2.006 OA 
HETATM   38  H1  UNL     1     -14.022  18.192  73.620  1.00  0.00     0.000 HD 
HETATM   39  H2  UNL     1     -13.759  16.471  73.269  1.00  0.00     0.000 HD 
ENDBRANCH   7  35
TORSDOF 2
ENDMDL
MODEL      114
REMARK 921   NORMALIZED FREE ENERGY PREDICTED BY IDOCK:   71.80 KCAL/MOL
REMARK 922        TOTAL FREE ENERGY PREDICTED BY IDOCK:   80.05 KCAL/MOL
REMARK 923 INTER-LIGAND FREE ENERGY PREDICTED BY IDOCK:   79.03 KCAL/MOL
REMARK 924 INTRA-LIGAND FREE ENERGY PREDICTED BY IDOCK:    1.02 KCAL/MOL
REMARK 927      BINDING AFFINITY PREDICTED BY RF-SCORE:    0.00 PKD
ROOT
HETATM    1  C   UNL     1     -11.012   8.001  69.048  1.00  0.00     0.086 C  
HETATM    2  C   UNL     1     -10.273   8.584  67.852  1.00  0.00    -0.273 C  
HETATM    3  C   UNL     1      -9.959  10.053  68.047  1.00  0.00    -0.176 C  
HETATM    4  C   UNL     1     -10.999  11.072  67.520  1.00  0.00    -0.281 C  
HETATM    5  H   UNL     1     -11.917   5.092  74.252  1.00  0.00     0.000 HD 
HETATM    6  C   UNL     1     -10.165  12.385  67.481  1.00  0.00    -0.209 C  
HETATM    7  C   UNL     1      -9.879  12.915  68.695  1.00  0.00    -0.074 C  
HETATM    8  O   UNL     1      -9.150  12.344  66.516  1.00  0.00    -0.226 OA 
HETATM    9  O   UNL     1     -11.596   5.616  73.527  1.00  0.00     0.087 OA 
HETATM   10  C   UNL     1     -11.911   5.307  72.234  1.00  0.00     0.243 A  
HETATM   11  C   UNL     1      -9.071  11.877  69.503  1.00  0.00     1.264 C  
HETATM   12  H   UNL     1     -12.602   5.722  67.426  1.00  0.00     0.000 HD 
HETATM   13  H   UNL     1      -8.641  13.146  66.492  1.00  0.00     0.000 HD 
HETATM   14  O   UNL     1      -8.026  12.189  70.067  1.00  0.00     1.532 OA 
HETATM   15  C   UNL     1      -9.686  10.436  69.541  1.00  0.00    -0.170 C  
HETATM   16  C   UNL     1     -12.724   4.191  72.026  1.00  0.00     4.642 A  
HETATM   17  C   UNL     1     -13.052   3.810  70.736  1.00  0.00    18.151 A  
HETATM   18 CL   UNL     1     -12.967   3.882  68.096  1.00  0.00    24.156 Cl 
HETATM   19  O   UNL     1     -12.379   6.616  67.658  1.00  0.00     2.582 OA 
HETATM   20  O   UNL     1     -10.895  10.816  70.281  1.00  0.00    -0.458 OA 
HETATM   21  C   UNL     1      -9.293   9.221  70.375  1.00  0.00    -0.250 C  
HETATM   22  H   UNL     1     -10.729  11.048  71.188  1.00  0.00     0.000 HD 
HETATM   23  O   UNL     1      -8.445   9.409  71.446  1.00  0.00    -0.293 OA 
HETATM   24  C   UNL     1     -10.136   8.149  70.266  1.00  0.00    -0.192 C  
HETATM   25  C   UNL     1     -10.519   7.271  71.422  1.00  0.00    -0.203 C  
HETATM   26  H   UNL     1      -8.200   8.652  71.965  1.00  0.00     0.000 HD 
HETATM   27  O   UNL     1     -10.212   7.603  72.562  1.00  0.00    -0.207 OA 
HETATM   28  C   UNL     1     -11.433   6.087  71.157  1.00  0.00    -0.246 A  
HETATM   29  C   UNL     1     -11.827   5.730  69.841  1.00  0.00     1.222 A  
HETATM   30  C   UNL     1     -12.591   4.552  69.652  1.00  0.00    15.032 A  
HETATM   31  C   UNL     1     -11.370   6.560  68.674  1.00  0.00    -0.109 C  
ENDROOT
BRANCH   4  32
HETATM   32  N   UNL     1     -11.864  10.732  66.388  1.00  0.00     0.668 NA 
HETATM   33  C   UNL     1     -11.049  10.378  65.218  1.00  0.00     0.789 C  
HETATM   34  C   UNL     1     -12.905   9.746  66.626  1.00  0.00    12.369 C  
ENDBRANCH   4  32
BRANCH   7  35
HETATM   35  C   UNL     1     -11.110  13.544  69.278  1.00  0.00    -0.179 C  
HETATM   36  N   UNL     1     -12.291  12.894  69.118  1.00  0.00    -0.005 N  
HETATM   37  O   UNL     1     -11.093  14.588  69.939  1.00  0.00    -0.237 OA 
HETATM   38  H1  UNL     1     -13.128  13.321  69.515  1.00  0.00     0.000 HD 
HETATM   39  H2  UNL     1     -12.340  12.006  68.618  1.00  0.00     0.000 HD 
ENDBRANCH   7  35
TORSDOF 2
ENDMDL
MODEL      115
REMARK 921   NORMALIZED FREE ENERGY PREDICTED BY IDOCK:   83.58 KCAL/MOL
REMARK 922        TOTAL FREE ENERGY PREDICTED BY IDOCK:   93.22 KCAL/MOL
REMARK 923 INTER-LIGAND FREE ENERGY PREDICTED BY IDOCK:   93.32 KCAL/MOL
REMARK 924 INTRA-LIGAND FREE ENERGY PREDICTED BY IDOCK:   -0.10 KCAL/MOL
REMARK 927      BINDING AFFINITY PREDICTED BY RF-SCORE:    0.00 PKD
ROOT
HETATM    1  C   UNL     1     -11.261   5.813  67.014  1.00  0.00     0.159 C  
HETATM    2  C   UNL     1     -11.807   4.867  68.073  1.00  0.00     6.392 C  
HETATM    3  C   UNL     1     -11.012   4.946  69.360  1.00  0.00     1.179 C  
HETATM    4  C   UNL     1      -9.828   3.961  69.519  1.00  0.00    -0.010 C  
HETATM    5  H   UNL     1     -10.708  10.764  63.615  1.00  0.00     0.000 HD 
HETATM    6  C   UNL     1      -9.571   4.020  71.053  1.00  0.00    -0.179 C  
HETATM    7  C   UNL     1      -9.007   5.171  71.492  1.00  0.00    -0.154 C  
HETATM    8  O   UNL     1     -10.625   3.469  71.793  1.00  0.00     0.157 OA 
HETATM    9  O   UNL     1     -10.843  10.123  64.304  1.00  0.00     0.805 OA 
HETATM   10  C   UNL     1     -11.273   8.858  64.022  1.00  0.00    11.337 A  
HETATM   11  C   UNL     1      -9.947   6.342  71.135  1.00  0.00    -0.180 C  
HETATM   12  H   UNL     1     -12.195   4.091  64.462  1.00  0.00     0.000 HD 
HETATM   13  H   UNL     1     -10.468   3.505  72.729  1.00  0.00     0.000 HD 
HETATM   14  O   UNL     1     -10.268   7.176  71.978  1.00  0.00    -0.189 OA 
HETATM   15  C   UNL     1     -10.436   6.375  69.647  1.00  0.00    -0.227 C  
HETATM   16  C   UNL     1     -11.504   8.548  62.680  1.00  0.00    14.654 A  
HETATM   17  C   UNL     1     -11.969   7.290  62.334  1.00  0.00    14.383 A  
HETATM   18 CL   UNL     1     -12.894   4.851  62.758  1.00  0.00     5.695 Cl 
HETATM   19  O   UNL     1     -11.694   4.255  65.251  1.00  0.00     0.497 OA 
HETATM   20  O   UNL     1      -9.109   6.603  69.064  1.00  0.00    -0.134 OA 
HETATM   21  C   UNL     1     -11.197   7.455  68.886  1.00  0.00     0.244 C  
HETATM   22  H   UNL     1      -8.761   7.469  69.238  1.00  0.00     0.000 HD 
HETATM   23  O   UNL     1     -11.287   8.711  69.447  1.00  0.00    -0.428 OA 
HETATM   24  C   UNL     1     -11.345   7.221  67.546  1.00  0.00     0.281 C  
HETATM   25  C   UNL     1     -11.246   8.293  66.498  1.00  0.00     1.904 C  
HETATM   26  H   UNL     1     -11.761   9.384  68.973  1.00  0.00     0.000 HD 
HETATM   27  O   UNL     1     -10.850   9.410  66.811  1.00  0.00    -0.114 OA 
HETATM   28  C   UNL     1     -11.472   7.905  65.047  1.00  0.00    11.292 A  
HETATM   29  C   UNL     1     -11.886   6.599  64.680  1.00  0.00    11.354 A  
HETATM   30  C   UNL     1     -12.184   6.332  63.321  1.00  0.00    11.620 A  
HETATM   31  C   UNL     1     -12.070   5.548  65.741  1.00  0.00     3.215 C  
ENDROOT
BRANCH   4  32
HETATM   32  N   UNL     1      -9.845   2.664  68.839  1.00  0.00     0.206 NA 
HETATM   33  C   UNL     1      -9.091   2.744  67.581  1.00  0.00    -0.181 C  
HETATM   34  C   UNL     1      -9.449   1.505  69.621  1.00  0.00    -0.062 C  
ENDBRANCH   4  32
BRANCH   7  35
HETATM   35  C   UNL     1      -7.559   5.210  71.102  1.00  0.00    -0.095 C  
HETATM   36  N   UNL     1      -6.659   5.604  72.040  1.00  0.00    -0.056 N  
HETATM   37  O   UNL     1      -7.142   4.851  69.995  1.00  0.00    -0.050 OA 
HETATM   38  H1  UNL     1      -5.675   5.630  71.775  1.00  0.00     0.000 HD 
HETATM   39  H2  UNL     1      -6.959   5.864  72.980  1.00  0.00     0.000 HD 
ENDBRANCH   7  35
TORSDOF 2
ENDMDL
MODEL      116
REMARK 921   NORMALIZED FREE ENERGY PREDICTED BY IDOCK:   84.84 KCAL/MOL
REMARK 922        TOTAL FREE ENERGY PREDICTED BY IDOCK:   94.62 KCAL/MOL
REMARK 923 INTER-LIGAND FREE ENERGY PREDICTED BY IDOCK:   92.86 KCAL/MOL
REMARK 924 INTRA-LIGAND FREE ENERGY PREDICTED BY IDOCK:    1.76 KCAL/MOL
REMARK 927      BINDING AFFINITY PREDICTED BY RF-SCORE:    0.00 PKD
ROOT
HETATM    1  C   UNL     1     -10.549  13.632  68.112  1.00  0.00    -0.255 C  
HETATM    2  C   UNL     1     -11.911  14.029  68.664  1.00  0.00    -0.396 C  
HETATM    3  C   UNL     1     -12.076  13.607  70.110  1.00  0.00    -0.431 C  
HETATM    4  C   UNL     1     -12.709  12.218  70.371  1.00  0.00     0.100 C  
HETATM    5  H   UNL     1      -4.769  14.115  66.463  1.00  0.00     0.000 HD 
HETATM    6  C   UNL     1     -13.118  12.334  71.868  1.00  0.00    -0.363 C  
HETATM    7  C   UNL     1     -12.085  12.313  72.745  1.00  0.00     4.284 C  
HETATM    8  O   UNL     1     -14.146  13.264  72.071  1.00  0.00    -0.344 OA 
HETATM    9  O   UNL     1      -5.620  14.164  66.884  1.00  0.00     0.451 OA 
HETATM   10  C   UNL     1      -6.775  14.056  66.164  1.00  0.00     5.008 A  
HETATM   11  C   UNL     1     -11.152  13.501  72.427  1.00  0.00     5.254 C  
HETATM   12  H   UNL     1     -11.465  13.337  65.042  1.00  0.00     0.000 HD 
HETATM   13  H   UNL     1     -14.395  13.334  72.984  1.00  0.00     0.000 HD 
HETATM   14  O   UNL     1     -10.776  14.265  73.312  1.00  0.00     2.683 OA 
HETATM   15  C   UNL     1     -10.737  13.639  70.922  1.00  0.00     2.688 C  
HETATM   16  C   UNL     1      -6.652  13.871  64.785  1.00  0.00    17.616 A  
HETATM   17  C   UNL     1      -7.787  13.785  63.998  1.00  0.00    14.174 A  
HETATM   18 CL   UNL     1     -10.374  13.873  63.464  1.00  0.00     1.996 Cl 
HETATM   19  O   UNL     1     -11.458  13.106  65.963  1.00  0.00    -0.314 OA 
HETATM   20  O   UNL     1      -9.983  12.382  70.865  1.00  0.00     4.940 OA 
HETATM   21  C   UNL     1      -9.699  14.545  70.268  1.00  0.00     1.113 C  
HETATM   22  H   UNL     1      -9.171  12.402  71.357  1.00  0.00     0.000 HD 
HETATM   23  O   UNL     1      -8.784  15.184  71.078  1.00  0.00     1.195 OA 
HETATM   24  C   UNL     1      -9.486  14.311  68.937  1.00  0.00    -0.071 C  
HETATM   25  C   UNL     1      -8.132  14.368  68.288  1.00  0.00    -0.139 C  
HETATM   26  H   UNL     1      -8.138  15.748  70.670  1.00  0.00     0.000 HD 
HETATM   27  O   UNL     1      -7.130  14.461  68.988  1.00  0.00    -0.110 OA 
HETATM   28  C   UNL     1      -8.040  14.127  66.791  1.00  0.00     0.239 A  
HETATM   29  C   UNL     1      -9.199  13.972  65.988  1.00  0.00     0.026 A  
HETATM   30  C   UNL     1      -9.048  13.860  64.583  1.00  0.00     2.756 A  
HETATM   31  C   UNL     1     -10.560  14.004  66.627  1.00  0.00    -0.274 C  
ENDROOT
BRANCH   4  32
HETATM   32  N   UNL     1     -13.648  11.637  69.409  1.00  0.00     2.748 NA 
HETATM   33  C   UNL     1     -13.574  12.360  68.132  1.00  0.00     7.673 C  
HETATM   34  C   UNL     1     -13.581  10.200  69.209  1.00  0.00     3.643 C  
ENDBRANCH   4  32
BRANCH   7  35
HETATM   35  C   UNL     1     -11.536  10.921  72.852  1.00  0.00     6.851 C  
HETATM   36  N   UNL     1     -12.222   9.920  72.242  1.00  0.00     0.028 N  
HETATM   37  O   UNL     1     -10.470  10.651  73.417  1.00  0.00    10.094 OA 
HETATM   38  H1  UNL     1     -11.849   8.974  72.315  1.00  0.00     0.000 HD 
HETATM   39  H2  UNL     1     -13.082  10.109  71.728  1.00  0.00     0.000 HD 
ENDBRANCH   7  35
TORSDOF 2
ENDMDL
