MODEL        1
REMARK 921   NORMALIZED FREE ENERGY PREDICTED BY IDOCK:   -7.11 KCAL/MOL
REMARK 922        TOTAL FREE ENERGY PREDICTED BY IDOCK:   -7.84 KCAL/MOL
REMARK 923 INTER-LIGAND FREE ENERGY PREDICTED BY IDOCK:   -7.53 KCAL/MOL
REMARK 924 INTRA-LIGAND FREE ENERGY PREDICTED BY IDOCK:   -0.31 KCAL/MOL
REMARK 927      BINDING AFFINITY PREDICTED BY RF-SCORE:    0.00 PKD
ROOT
HETATM    1  C   UNL     1     -10.395  10.242  64.866  1.00  0.00    -0.140 C  
HETATM    2  C   UNL     1      -9.895  10.713  63.626  1.00  0.00    -0.392 C  
HETATM    3  C   UNL     1      -8.999  10.962  64.793  1.00  0.00    -0.155 C  
HETATM    4  C   UNL     1      -9.641  10.032  66.493  1.00  0.00    -0.237 C  
HETATM    5  C   UNL     1      -9.413   9.702  68.102  1.00  0.00    -0.144 C  
HETATM    6  C   UNL     1      -8.747   9.498  65.612  1.00  0.00    -0.173 C  
HETATM    7  C   UNL     1      -8.128   9.063  68.654  1.00  0.00    -0.107 C  
HETATM    8  C   UNL     1     -10.601   8.727  68.592  1.00  0.00    -0.174 C  
HETATM    9  C   UNL     1      -7.507  10.640  66.327  1.00  0.00    -0.137 C  
HETATM   10  C   UNL     1      -8.417   8.097  65.227  1.00  0.00    -0.157 C  
HETATM   11  O   UNL     1      -6.427  10.994  65.445  1.00  0.00    -0.368 OA 
HETATM   12  C   UNL     1     -10.739  13.569  68.616  1.00  0.00    -0.271 C  
HETATM   13  C   UNL     1      -8.215  12.097  66.963  1.00  0.00    -0.164 C  
HETATM   14  H   UNL     1      -5.784  11.587  65.815  1.00  0.00     0.000 HD 
HETATM   15  C   UNL     1     -10.237  14.015  67.229  1.00  0.00    -0.260 C  
HETATM   16  C   UNL     1      -9.692  12.779  66.404  1.00  0.00    -0.261 C  
HETATM   17  H   UNL     1      -9.881  18.155  67.017  1.00  0.00     0.000 HD 
HETATM   18  C   UNL     1      -9.102  15.069  67.488  1.00  0.00    -0.189 C  
HETATM   19  C   UNL     1     -10.935  11.756  65.834  1.00  0.00    -0.354 C  
HETATM   20  C   UNL     1     -11.957  12.590  65.061  1.00  0.00    -0.478 C  
HETATM   21  C   UNL     1     -12.501  13.722  65.931  1.00  0.00    -0.512 C  
HETATM   22  C   UNL     1     -11.428  14.707  66.446  1.00  0.00    -0.348 C  
HETATM   23  C   UNL     1     -10.970  15.621  65.279  1.00  0.00    -0.375 C  
HETATM   24  C   UNL     1      -9.954  16.663  65.731  1.00  0.00    -0.243 C  
HETATM   25  O   UNL     1     -10.515  17.506  66.735  1.00  0.00    -0.320 OA 
HETATM   26  C   UNL     1      -8.732  15.943  66.285  1.00  0.00    -0.372 C  
ENDROOT
BRANCH   8  27
HETATM   27  C   UNL     1     -10.692   8.467  70.114  1.00  0.00    -0.240 C  
HETATM   28  O   UNL     1     -12.104  10.434  70.352  1.00  0.00    -0.282 OA 
HETATM   29  C   UNL     1     -11.535   9.481  70.855  1.00  0.00    -0.334 C  
HETATM   30  O   UNL     1     -11.627   9.201  72.179  1.00  0.00    -0.342 OA 
ENDBRANCH   8  27
TORSDOF 1
ENDMDL
MODEL        2
REMARK 921   NORMALIZED FREE ENERGY PREDICTED BY IDOCK:   -7.05 KCAL/MOL
REMARK 922        TOTAL FREE ENERGY PREDICTED BY IDOCK:   -7.77 KCAL/MOL
REMARK 923 INTER-LIGAND FREE ENERGY PREDICTED BY IDOCK:   -7.58 KCAL/MOL
REMARK 924 INTRA-LIGAND FREE ENERGY PREDICTED BY IDOCK:   -0.19 KCAL/MOL
REMARK 927      BINDING AFFINITY PREDICTED BY RF-SCORE:    0.00 PKD
ROOT
HETATM    1  C   UNL     1     -10.274  10.222  64.915  1.00  0.00    -0.261 C  
HETATM    2  C   UNL     1      -9.727  10.718  63.704  1.00  0.00    -0.376 C  
HETATM    3  C   UNL     1      -8.882  10.952  64.911  1.00  0.00    -0.127 C  
HETATM    4  C   UNL     1      -9.585   9.989  66.567  1.00  0.00    -0.237 C  
HETATM    5  C   UNL     1      -9.420   9.632  68.178  1.00  0.00    -0.144 C  
HETATM    6  C   UNL     1      -8.652   9.476  65.715  1.00  0.00    -0.152 C  
HETATM    7  C   UNL     1      -8.154   8.992  68.771  1.00  0.00    -0.105 C  
HETATM    8  C   UNL     1     -10.620   8.640  68.602  1.00  0.00    -0.165 C  
HETATM    9  C   UNL     1      -7.451  10.614  66.499  1.00  0.00    -0.134 C  
HETATM   10  C   UNL     1      -8.297   8.085  65.319  1.00  0.00    -0.151 C  
HETATM   11  O   UNL     1      -6.339  10.991  65.668  1.00  0.00    -0.343 OA 
HETATM   12  C   UNL     1     -10.796  13.480  68.705  1.00  0.00    -0.281 C  
HETATM   13  C   UNL     1      -8.195  12.055  67.131  1.00  0.00    -0.181 C  
HETATM   14  H   UNL     1      -5.716  11.582  66.074  1.00  0.00     0.000 HD 
HETATM   15  C   UNL     1     -10.242  13.954  67.347  1.00  0.00    -0.252 C  
HETATM   16  C   UNL     1      -9.654  12.736  66.523  1.00  0.00    -0.257 C  
HETATM   17  H   UNL     1      -9.909  18.100  67.222  1.00  0.00     0.000 HD 
HETATM   18  C   UNL     1      -9.127  15.011  67.670  1.00  0.00    -0.182 C  
HETATM   19  C   UNL     1     -10.865  11.715  65.886  1.00  0.00    -0.339 C  
HETATM   20  C   UNL     1     -11.861  12.555  65.087  1.00  0.00    -0.450 C  
HETATM   21  C   UNL     1     -12.448  13.667  65.953  1.00  0.00    -0.502 C  
HETATM   22  C   UNL     1     -11.405  14.651  66.528  1.00  0.00    -0.353 C  
HETATM   23  C   UNL     1     -10.907  15.589  65.397  1.00  0.00    -0.402 C  
HETATM   24  C   UNL     1      -9.918  16.629  65.908  1.00  0.00    -0.295 C  
HETATM   25  O   UNL     1     -10.526  17.450  66.903  1.00  0.00    -0.324 OA 
HETATM   26  C   UNL     1      -8.715  15.908  66.499  1.00  0.00    -0.350 C  
ENDROOT
BRANCH   8  27
HETATM   27  C   UNL     1     -10.771   8.353  70.115  1.00  0.00    -0.238 C  
HETATM   28  O   UNL     1     -11.584   6.120  69.595  1.00  0.00    -0.407 OA 
HETATM   29  C   UNL     1     -11.290   6.966  70.422  1.00  0.00    -0.328 C  
HETATM   30  O   UNL     1     -11.372   6.733  71.755  1.00  0.00    -0.247 OA 
ENDBRANCH   8  27
TORSDOF 1
ENDMDL
MODEL        3
REMARK 921   NORMALIZED FREE ENERGY PREDICTED BY IDOCK:   -7.05 KCAL/MOL
REMARK 922        TOTAL FREE ENERGY PREDICTED BY IDOCK:   -7.76 KCAL/MOL
REMARK 923 INTER-LIGAND FREE ENERGY PREDICTED BY IDOCK:   -7.59 KCAL/MOL
REMARK 924 INTRA-LIGAND FREE ENERGY PREDICTED BY IDOCK:   -0.18 KCAL/MOL
REMARK 927      BINDING AFFINITY PREDICTED BY RF-SCORE:    0.00 PKD
ROOT
HETATM    1  C   UNL     1     -10.274  10.200  65.574  1.00  0.00    -0.288 C  
HETATM    2  C   UNL     1      -9.764  10.499  64.285  1.00  0.00    -0.391 C  
HETATM    3  C   UNL     1      -8.900  10.947  65.416  1.00  0.00    -0.192 C  
HETATM    4  C   UNL     1      -9.548  10.257  67.225  1.00  0.00    -0.186 C  
HETATM    5  C   UNL     1      -9.342  10.176  68.869  1.00  0.00    -0.179 C  
HETATM    6  C   UNL     1      -8.620   9.630  66.447  1.00  0.00    -0.136 C  
HETATM    7  C   UNL     1      -8.049   9.669  69.529  1.00  0.00    -0.129 C  
HETATM    8  C   UNL     1     -10.509   9.244  69.479  1.00  0.00    -0.229 C  
HETATM    9  C   UNL     1      -7.431  10.906  67.004  1.00  0.00    -0.122 C  
HETATM   10  C   UNL     1      -8.239   8.200  66.279  1.00  0.00    -0.114 C  
HETATM   11  O   UNL     1      -6.345  11.163  66.096  1.00  0.00    -0.257 OA 
HETATM   12  C   UNL     1     -10.799  14.029  68.784  1.00  0.00    -0.279 C  
HETATM   13  C   UNL     1      -8.197  12.416  67.407  1.00  0.00    -0.180 C  
HETATM   14  H   UNL     1      -5.728  11.825  66.385  1.00  0.00     0.000 HD 
HETATM   15  C   UNL     1     -10.283  14.283  67.354  1.00  0.00    -0.247 C  
HETATM   16  C   UNL     1      -9.683  12.957  66.730  1.00  0.00    -0.246 C  
HETATM   17  H   UNL     1     -10.053  18.356  66.538  1.00  0.00     0.000 HD 
HETATM   18  C   UNL     1      -9.188  15.401  67.472  1.00  0.00    -0.201 C  
HETATM   19  C   UNL     1     -10.882  11.820  66.299  1.00  0.00    -0.325 C  
HETATM   20  C   UNL     1     -11.913  12.495  65.395  1.00  0.00    -0.492 C  
HETATM   21  C   UNL     1     -12.510  13.724  66.079  1.00  0.00    -0.491 C  
HETATM   22  C   UNL     1     -11.479  14.811  66.459  1.00  0.00    -0.328 C  
HETATM   23  C   UNL     1     -11.026  15.558  65.177  1.00  0.00    -0.422 C  
HETATM   24  C   UNL     1     -10.053  16.689  65.485  1.00  0.00    -0.134 C  
HETATM   25  O   UNL     1     -10.660  17.651  66.345  1.00  0.00    -0.308 OA 
HETATM   26  C   UNL     1      -8.821  16.100  66.159  1.00  0.00    -0.367 C  
ENDROOT
BRANCH   8  27
HETATM   27  C   UNL     1     -10.623   9.208  71.021  1.00  0.00    -0.362 C  
HETATM   28  O   UNL     1     -12.087   7.272  70.854  1.00  0.00    -0.320 OA 
HETATM   29  C   UNL     1     -11.499   8.090  71.541  1.00  0.00    -0.264 C  
HETATM   30  O   UNL     1     -11.544   8.062  72.896  1.00  0.00    -0.397 OA 
ENDBRANCH   8  27
TORSDOF 1
ENDMDL
MODEL        4
REMARK 921   NORMALIZED FREE ENERGY PREDICTED BY IDOCK:   -6.70 KCAL/MOL
REMARK 922        TOTAL FREE ENERGY PREDICTED BY IDOCK:   -7.40 KCAL/MOL
REMARK 923 INTER-LIGAND FREE ENERGY PREDICTED BY IDOCK:   -7.20 KCAL/MOL
REMARK 924 INTRA-LIGAND FREE ENERGY PREDICTED BY IDOCK:   -0.20 KCAL/MOL
REMARK 927      BINDING AFFINITY PREDICTED BY RF-SCORE:    0.00 PKD
ROOT
HETATM    1  C   UNL     1     -11.657  15.120  65.738  1.00  0.00    -0.097 C  
HETATM    2  C   UNL     1     -11.188  15.154  64.401  1.00  0.00    -0.181 C  
HETATM    3  C   UNL     1     -10.293  14.439  65.357  1.00  0.00    -0.400 C  
HETATM    4  C   UNL     1     -11.140  14.191  67.197  1.00  0.00    -0.315 C  
HETATM    5  C   UNL     1     -11.023  13.614  68.747  1.00  0.00    -0.292 C  
HETATM    6  C   UNL     1     -11.200  13.273  66.190  1.00  0.00    -0.317 C  
HETATM    7  C   UNL     1     -10.719  12.142  69.074  1.00  0.00    -0.163 C  
HETATM    8  C   UNL     1     -12.409  13.927  69.510  1.00  0.00    -0.275 C  
HETATM    9  C   UNL     1      -9.459  12.867  66.588  1.00  0.00    -0.255 C  
HETATM   10  C   UNL     1     -12.202  12.233  65.826  1.00  0.00    -0.151 C  
HETATM   11  O   UNL     1      -8.697  12.324  65.496  1.00  0.00    -0.201 OA 
HETATM   12  C   UNL     1      -8.581  16.887  69.297  1.00  0.00     0.073 C  
HETATM   13  C   UNL     1      -8.588  14.211  67.269  1.00  0.00    -0.231 C  
HETATM   14  H   UNL     1      -7.794  12.114  65.702  1.00  0.00     0.000 HD 
HETATM   15  C   UNL     1      -8.154  16.923  67.817  1.00  0.00    -0.188 C  
HETATM   16  C   UNL     1      -8.970  15.862  66.970  1.00  0.00    -0.239 C  
HETATM   17  H   UNL     1      -4.647  19.105  67.315  1.00  0.00     0.000 HD 
HETATM   18  C   UNL     1      -6.617  16.606  67.793  1.00  0.00    -0.158 C  
HETATM   19  C   UNL     1     -10.593  16.323  66.709  1.00  0.00    -0.257 C  
HETATM   20  C   UNL     1     -10.626  17.726  66.104  1.00  0.00    -0.235 C  
HETATM   21  C   UNL     1      -9.887  18.719  67.000  1.00  0.00    -0.359 C  
HETATM   22  C   UNL     1      -8.399  18.379  67.242  1.00  0.00    -0.251 C  
HETATM   23  C   UNL     1      -7.585  18.698  65.961  1.00  0.00    -0.236 C  
HETATM   24  C   UNL     1      -6.095  18.444  66.150  1.00  0.00    -0.186 C  
HETATM   25  O   UNL     1      -5.577  19.263  67.197  1.00  0.00    -0.171 OA 
HETATM   26  C   UNL     1      -5.891  16.976  66.496  1.00  0.00    -0.162 C  
ENDROOT
BRANCH   8  27
HETATM   27  C   UNL     1     -12.431  13.656  71.033  1.00  0.00    -0.456 C  
HETATM   28  O   UNL     1     -14.142  15.365  71.298  1.00  0.00    -0.494 OA 
HETATM   29  C   UNL     1     -13.416  14.518  71.790  1.00  0.00    -0.375 C  
HETATM   30  O   UNL     1     -13.439  14.227  73.115  1.00  0.00    -0.632 OA 
ENDBRANCH   8  27
TORSDOF 1
ENDMDL
MODEL        5
REMARK 921   NORMALIZED FREE ENERGY PREDICTED BY IDOCK:   -6.36 KCAL/MOL
REMARK 922        TOTAL FREE ENERGY PREDICTED BY IDOCK:   -7.04 KCAL/MOL
REMARK 923 INTER-LIGAND FREE ENERGY PREDICTED BY IDOCK:   -6.86 KCAL/MOL
REMARK 924 INTRA-LIGAND FREE ENERGY PREDICTED BY IDOCK:   -0.18 KCAL/MOL
REMARK 927      BINDING AFFINITY PREDICTED BY RF-SCORE:    0.00 PKD
ROOT
HETATM    1  C   UNL     1      -7.806  13.147  68.257  1.00  0.00    -0.143 C  
HETATM    2  C   UNL     1      -6.784  12.785  67.342  1.00  0.00    -0.138 C  
HETATM    3  C   UNL     1      -8.173  12.542  66.854  1.00  0.00    -0.070 C  
HETATM    4  C   UNL     1      -9.594  13.325  68.092  1.00  0.00    -0.227 C  
HETATM    5  C   UNL     1     -11.198  13.583  68.427  1.00  0.00    -0.309 C  
HETATM    6  C   UNL     1      -9.068  13.974  67.013  1.00  0.00    -0.256 C  
HETATM    7  C   UNL     1     -12.156  14.288  67.452  1.00  0.00    -0.371 C  
HETATM    8  C   UNL     1     -11.298  14.436  69.792  1.00  0.00    -0.285 C  
HETATM    9  C   UNL     1     -10.118  12.892  65.973  1.00  0.00    -0.285 C  
HETATM   10  C   UNL     1      -8.850  15.414  66.704  1.00  0.00    -0.330 C  
HETATM   11  O   UNL     1      -9.628  12.670  64.639  1.00  0.00    -0.498 OA 
HETATM   12  C   UNL     1     -11.146   9.604  69.494  1.00  0.00    -0.198 C  
HETATM   13  C   UNL     1     -10.449  11.353  66.714  1.00  0.00    -0.284 C  
HETATM   14  H   UNL     1     -10.172  12.109  64.099  1.00  0.00     0.000 HD 
HETATM   15  C   UNL     1      -9.987   9.274  68.533  1.00  0.00    -0.193 C  
HETATM   16  C   UNL     1      -9.419  10.592  67.864  1.00  0.00    -0.157 C  
HETATM   17  H   UNL     1      -9.793   5.191  67.757  1.00  0.00     0.000 HD 
HETATM   18  C   UNL     1     -10.575   8.297  67.453  1.00  0.00    -0.324 C  
HETATM   19  C   UNL     1      -8.503  11.546  68.943  1.00  0.00     0.011 C  
HETATM   20  C   UNL     1      -7.416  10.681  69.581  1.00  0.00    -0.121 C  
HETATM   21  C   UNL     1      -8.030   9.465  70.272  1.00  0.00    -0.172 C  
HETATM   22  C   UNL     1      -8.840   8.537  69.340  1.00  0.00    -0.141 C  
HETATM   23  C   UNL     1      -7.863   7.726  68.448  1.00  0.00    -0.121 C  
HETATM   24  C   UNL     1      -8.594   6.742  67.544  1.00  0.00    -0.120 C  
HETATM   25  O   UNL     1      -9.337   5.805  68.321  1.00  0.00    -0.116 OA 
HETATM   26  C   UNL     1      -9.536   7.521  66.637  1.00  0.00    -0.246 C  
ENDROOT
BRANCH   8  27
HETATM   27  C   UNL     1     -12.714  14.605  70.393  1.00  0.00    -0.370 C  
HETATM   28  O   UNL     1     -11.804  16.104  72.079  1.00  0.00    -0.479 OA 
HETATM   29  C   UNL     1     -12.760  15.528  71.590  1.00  0.00    -0.434 C  
HETATM   30  O   UNL     1     -14.020  15.686  72.067  1.00  0.00    -0.483 OA 
ENDBRANCH   8  27
TORSDOF 1
ENDMDL
MODEL        6
REMARK 921   NORMALIZED FREE ENERGY PREDICTED BY IDOCK:   -6.34 KCAL/MOL
REMARK 922        TOTAL FREE ENERGY PREDICTED BY IDOCK:   -7.02 KCAL/MOL
REMARK 923 INTER-LIGAND FREE ENERGY PREDICTED BY IDOCK:   -6.80 KCAL/MOL
REMARK 924 INTRA-LIGAND FREE ENERGY PREDICTED BY IDOCK:   -0.22 KCAL/MOL
REMARK 927      BINDING AFFINITY PREDICTED BY RF-SCORE:    0.00 PKD
ROOT
HETATM    1  C   UNL     1      -7.684  15.123  68.430  1.00  0.00    -0.118 C  
HETATM    2  C   UNL     1      -6.805  15.423  67.358  1.00  0.00    -0.204 C  
HETATM    3  C   UNL     1      -8.240  15.300  66.970  1.00  0.00    -0.267 C  
HETATM    4  C   UNL     1      -9.483  15.136  68.581  1.00  0.00    -0.206 C  
HETATM    5  C   UNL     1     -11.023  14.978  69.174  1.00  0.00    -0.265 C  
HETATM    6  C   UNL     1      -9.167  16.312  67.967  1.00  0.00    -0.196 C  
HETATM    7  C   UNL     1     -12.157  15.962  68.840  1.00  0.00    -0.065 C  
HETATM    8  C   UNL     1     -10.947  14.972  70.786  1.00  0.00    -0.176 C  
HETATM    9  C   UNL     1     -10.315  15.812  66.632  1.00  0.00    -0.291 C  
HETATM   10  C   UNL     1      -9.069  17.716  68.456  1.00  0.00    -0.279 C  
HETATM   11  O   UNL     1     -10.033  16.384  65.342  1.00  0.00    -0.534 OA 
HETATM   12  C   UNL     1     -10.613  11.070  67.934  1.00  0.00    -0.244 C  
HETATM   13  C   UNL     1     -10.450  14.085  66.465  1.00  0.00    -0.281 C  
HETATM   14  H   UNL     1     -10.629  16.124  64.649  1.00  0.00     0.000 HD 
HETATM   15  C   UNL     1      -9.607  11.439  66.826  1.00  0.00    -0.207 C  
HETATM   16  C   UNL     1      -9.215  12.972  66.909  1.00  0.00    -0.236 C  
HETATM   17  H   UNL     1      -9.342   8.425  63.970  1.00  0.00     0.000 HD 
HETATM   18  C   UNL     1     -10.310  11.106  65.463  1.00  0.00    -0.326 C  
HETATM   19  C   UNL     1      -8.186  13.327  68.223  1.00  0.00    -0.156 C  
HETATM   20  C   UNL     1      -6.972  12.400  68.177  1.00  0.00    -0.087 C  
HETATM   21  C   UNL     1      -7.409  10.936  68.172  1.00  0.00    -0.089 C  
HETATM   22  C   UNL     1      -8.312  10.540  66.983  1.00  0.00    -0.128 C  
HETATM   23  C   UNL     1      -7.451  10.443  65.695  1.00  0.00    -0.149 C  
HETATM   24  C   UNL     1      -8.268   9.995  64.491  1.00  0.00    -0.164 C  
HETATM   25  O   UNL     1      -8.832   8.705  64.722  1.00  0.00    -0.123 OA 
HETATM   26  C   UNL     1      -9.378  11.008  64.251  1.00  0.00    -0.232 C  
ENDROOT
BRANCH   8  27
HETATM   27  C   UNL     1     -12.255  14.623  71.534  1.00  0.00    -0.416 C  
HETATM   28  O   UNL     1     -12.027  16.654  72.852  1.00  0.00    -0.512 OA 
HETATM   29  C   UNL     1     -12.648  15.642  72.580  1.00  0.00    -0.433 C  
HETATM   30  O   UNL     1     -13.819  15.327  73.187  1.00  0.00    -0.418 OA 
ENDBRANCH   8  27
TORSDOF 1
ENDMDL
MODEL        7
REMARK 921   NORMALIZED FREE ENERGY PREDICTED BY IDOCK:   -6.27 KCAL/MOL
REMARK 922        TOTAL FREE ENERGY PREDICTED BY IDOCK:   -6.94 KCAL/MOL
REMARK 923 INTER-LIGAND FREE ENERGY PREDICTED BY IDOCK:   -6.73 KCAL/MOL
REMARK 924 INTRA-LIGAND FREE ENERGY PREDICTED BY IDOCK:   -0.21 KCAL/MOL
REMARK 927      BINDING AFFINITY PREDICTED BY RF-SCORE:    0.00 PKD
ROOT
HETATM    1  C   UNL     1     -11.283  10.876  66.318  1.00  0.00     0.086 C  
HETATM    2  C   UNL     1     -10.485  10.811  65.148  1.00  0.00    -0.299 C  
HETATM    3  C   UNL     1      -9.715  10.881  66.423  1.00  0.00    -0.240 C  
HETATM    4  C   UNL     1     -10.902  10.702  68.074  1.00  0.00    -0.309 C  
HETATM    5  C   UNL     1     -11.037  10.648  69.726  1.00  0.00    -0.358 C  
HETATM    6  C   UNL     1     -10.266   9.661  67.464  1.00  0.00    -0.274 C  
HETATM    7  C   UNL     1     -10.267   9.643  70.599  1.00  0.00    -0.346 C  
HETATM    8  C   UNL     1     -12.588  10.415  70.100  1.00  0.00    -0.197 C  
HETATM    9  C   UNL     1      -8.727  10.269  68.249  1.00  0.00    -0.126 C  
HETATM   10  C   UNL     1     -10.583   8.211  67.342  1.00  0.00    -0.325 C  
HETATM   11  O   UNL     1      -7.514   9.924  67.555  1.00  0.00    -0.090 OA 
HETATM   12  C   UNL     1     -10.465  14.720  69.449  1.00  0.00    -0.210 C  
HETATM   13  C   UNL     1      -8.744  11.986  68.533  1.00  0.00    -0.095 C  
HETATM   14  H   UNL     1      -6.716  10.240  67.961  1.00  0.00     0.000 HD 
HETATM   15  C   UNL     1      -9.660  14.602  68.140  1.00  0.00    -0.213 C  
HETATM   16  C   UNL     1      -9.662  13.110  67.610  1.00  0.00    -0.213 C  
HETATM   17  H   UNL     1      -7.401  18.028  67.450  1.00  0.00     0.000 HD 
HETATM   18  C   UNL     1      -8.203  15.084  68.472  1.00  0.00    -0.151 C  
HETATM   19  C   UNL     1     -11.164  12.638  66.950  1.00  0.00    -0.348 C  
HETATM   20  C   UNL     1     -11.588  13.652  65.888  1.00  0.00    -0.346 C  
HETATM   21  C   UNL     1     -11.638  15.062  66.476  1.00  0.00    -0.184 C  
HETATM   22  C   UNL     1     -10.297  15.564  67.053  1.00  0.00    -0.279 C  
HETATM   23  C   UNL     1      -9.338  15.922  65.887  1.00  0.00    -0.353 C  
HETATM   24  C   UNL     1      -8.013  16.485  66.385  1.00  0.00    -0.317 C  
HETATM   25  O   UNL     1      -8.228  17.676  67.139  1.00  0.00    -0.205 OA 
HETATM   26  C   UNL     1      -7.337  15.437  67.259  1.00  0.00    -0.239 C  
ENDROOT
BRANCH   8  27
HETATM   27  C   UNL     1     -12.961  10.544  71.596  1.00  0.00    -0.581 C  
HETATM   28  O   UNL     1     -14.181   8.444  71.459  1.00  0.00    -0.411 OA 
HETATM   29  C   UNL     1     -13.801   9.398  72.115  1.00  0.00    -0.365 C  
HETATM   30  O   UNL     1     -14.075   9.522  73.437  1.00  0.00     0.253 OA 
ENDBRANCH   8  27
TORSDOF 1
ENDMDL
MODEL        8
REMARK 921   NORMALIZED FREE ENERGY PREDICTED BY IDOCK:   -6.22 KCAL/MOL
REMARK 922        TOTAL FREE ENERGY PREDICTED BY IDOCK:   -6.89 KCAL/MOL
REMARK 923 INTER-LIGAND FREE ENERGY PREDICTED BY IDOCK:   -6.70 KCAL/MOL
REMARK 924 INTRA-LIGAND FREE ENERGY PREDICTED BY IDOCK:   -0.19 KCAL/MOL
REMARK 927      BINDING AFFINITY PREDICTED BY RF-SCORE:    0.00 PKD
ROOT
HETATM    1  C   UNL     1      -7.661  13.752  67.276  1.00  0.00    -0.095 C  
HETATM    2  C   UNL     1      -6.902  13.925  68.461  1.00  0.00    -0.098 C  
HETATM    3  C   UNL     1      -7.941  12.857  68.538  1.00  0.00    -0.095 C  
HETATM    4  C   UNL     1      -8.813  12.472  66.732  1.00  0.00    -0.177 C  
HETATM    5  C   UNL     1      -9.910  11.604  65.843  1.00  0.00    -0.262 C  
HETATM    6  C   UNL     1      -7.736  11.798  67.228  1.00  0.00    -0.158 C  
HETATM    7  C   UNL     1      -9.910  10.067  65.777  1.00  0.00    -0.345 C  
HETATM    8  C   UNL     1      -9.806  12.081  64.305  1.00  0.00    -0.195 C  
HETATM    9  C   UNL     1      -8.910  10.932  68.335  1.00  0.00    -0.147 C  
HETATM   10  C   UNL     1      -6.588  11.105  66.580  1.00  0.00    -0.137 C  
HETATM   11  O   UNL     1      -8.341  10.442  69.562  1.00  0.00    -0.234 OA 
HETATM   12  C   UNL     1     -12.660  14.061  67.682  1.00  0.00     0.417 C  
HETATM   13  C   UNL     1     -10.317  11.887  68.710  1.00  0.00    -0.184 C  
HETATM   14  H   UNL     1      -8.950   9.993  70.136  1.00  0.00     0.000 HD 
HETATM   15  C   UNL     1     -11.768  14.273  68.921  1.00  0.00    -0.363 C  
HETATM   16  C   UNL     1     -10.346  13.607  68.710  1.00  0.00    -0.182 C  
HETATM   17  H   UNL     1     -13.992  15.638  72.161  1.00  0.00     0.000 HD 
HETATM   18  C   UNL     1     -12.527  13.618  70.129  1.00  0.00    -0.305 C  
HETATM   19  C   UNL     1      -9.359  14.472  67.618  1.00  0.00    -0.202 C  
HETATM   20  C   UNL     1      -9.278  15.932  68.061  1.00  0.00    -0.192 C  
HETATM   21  C   UNL     1     -10.675  16.541  68.176  1.00  0.00    -0.343 C  
HETATM   22  C   UNL     1     -11.605  15.827  69.181  1.00  0.00    -0.399 C  
HETATM   23  C   UNL     1     -11.168  16.182  70.627  1.00  0.00    -0.371 C  
HETATM   24  C   UNL     1     -12.083  15.560  71.673  1.00  0.00    -0.401 C  
HETATM   25  O   UNL     1     -13.421  16.026  71.508  1.00  0.00    -0.347 OA 
HETATM   26  C   UNL     1     -12.042  14.046  71.517  1.00  0.00    -0.179 C  
ENDROOT
BRANCH   8  27
HETATM   27  C   UNL     1     -10.892  11.543  63.344  1.00  0.00    -0.423 C  
HETATM   28  O   UNL     1     -12.555  12.907  64.482  1.00  0.00    -0.590 OA 
HETATM   29  C   UNL     1     -12.271  12.107  63.607  1.00  0.00    -0.562 C  
HETATM   30  O   UNL     1     -13.190  11.647  62.722  1.00  0.00    -0.130 OA 
ENDBRANCH   8  27
TORSDOF 1
ENDMDL
MODEL        9
REMARK 921   NORMALIZED FREE ENERGY PREDICTED BY IDOCK:   -6.14 KCAL/MOL
REMARK 922        TOTAL FREE ENERGY PREDICTED BY IDOCK:   -6.81 KCAL/MOL
REMARK 923 INTER-LIGAND FREE ENERGY PREDICTED BY IDOCK:   -6.53 KCAL/MOL
REMARK 924 INTRA-LIGAND FREE ENERGY PREDICTED BY IDOCK:   -0.28 KCAL/MOL
REMARK 927      BINDING AFFINITY PREDICTED BY RF-SCORE:    0.00 PKD
ROOT
HETATM    1  C   UNL     1      -7.725  15.026  68.679  1.00  0.00    -0.128 C  
HETATM    2  C   UNL     1      -6.795  15.270  67.636  1.00  0.00    -0.205 C  
HETATM    3  C   UNL     1      -8.224  15.258  67.206  1.00  0.00    -0.230 C  
HETATM    4  C   UNL     1      -9.522  15.171  68.780  1.00  0.00    -0.209 C  
HETATM    5  C   UNL     1     -11.086  15.122  69.327  1.00  0.00    -0.279 C  
HETATM    6  C   UNL     1      -9.102  16.326  68.188  1.00  0.00    -0.188 C  
HETATM    7  C   UNL     1     -12.134  16.190  68.972  1.00  0.00     0.090 C  
HETATM    8  C   UNL     1     -11.056  15.095  70.940  1.00  0.00    -0.289 C  
HETATM    9  C   UNL     1     -10.245  15.925  66.815  1.00  0.00    -0.282 C  
HETATM   10  C   UNL     1      -8.915  17.714  68.695  1.00  0.00    -0.261 C  
HETATM   11  O   UNL     1      -9.884  16.486  65.541  1.00  0.00    -0.537 OA 
HETATM   12  C   UNL     1     -10.929  11.206  68.054  1.00  0.00    -0.307 C  
HETATM   13  C   UNL     1     -10.502  14.214  66.625  1.00  0.00    -0.278 C  
HETATM   14  H   UNL     1     -10.477  16.278  64.828  1.00  0.00     0.000 HD 
HETATM   15  C   UNL     1      -9.867  11.510  66.979  1.00  0.00    -0.212 C  
HETATM   16  C   UNL     1      -9.366  13.008  67.091  1.00  0.00    -0.230 C  
HETATM   17  H   UNL     1      -9.743   8.512  64.097  1.00  0.00     0.000 HD 
HETATM   18  C   UNL     1     -10.554  11.243  65.593  1.00  0.00    -0.303 C  
HETATM   19  C   UNL     1      -8.352  13.274  68.438  1.00  0.00    -0.131 C  
HETATM   20  C   UNL     1      -7.209  12.260  68.414  1.00  0.00    -0.102 C  
HETATM   21  C   UNL     1      -7.753  10.833  68.380  1.00  0.00    -0.113 C  
HETATM   22  C   UNL     1      -8.647  10.516  67.162  1.00  0.00    -0.127 C  
HETATM   23  C   UNL     1      -7.759  10.368  65.898  1.00  0.00    -0.145 C  
HETATM   24  C   UNL     1      -8.572   9.993  64.666  1.00  0.00    -0.181 C  
HETATM   25  O   UNL     1      -9.236   8.746  64.866  1.00  0.00    -0.038 OA 
HETATM   26  C   UNL     1      -9.597  11.088  64.406  1.00  0.00    -0.301 C  
ENDROOT
BRANCH   8  27
HETATM   27  C   UNL     1     -12.408  14.837  71.647  1.00  0.00    -0.409 C  
HETATM   28  O   UNL     1     -12.240  12.478  71.077  1.00  0.00    -0.307 OA 
HETATM   29  C   UNL     1     -12.849  13.390  71.607  1.00  0.00    -0.321 C  
HETATM   30  O   UNL     1     -14.016  13.193  72.270  1.00  0.00    -0.505 OA 
ENDBRANCH   8  27
TORSDOF 1
ENDMDL
MODEL       10
REMARK 921   NORMALIZED FREE ENERGY PREDICTED BY IDOCK:   -6.13 KCAL/MOL
REMARK 922        TOTAL FREE ENERGY PREDICTED BY IDOCK:   -6.80 KCAL/MOL
REMARK 923 INTER-LIGAND FREE ENERGY PREDICTED BY IDOCK:   -6.51 KCAL/MOL
REMARK 924 INTRA-LIGAND FREE ENERGY PREDICTED BY IDOCK:   -0.29 KCAL/MOL
REMARK 927      BINDING AFFINITY PREDICTED BY RF-SCORE:    0.00 PKD
ROOT
HETATM    1  C   UNL     1      -7.932  14.020  68.443  1.00  0.00    -0.143 C  
HETATM    2  C   UNL     1      -6.969  13.846  67.416  1.00  0.00    -0.065 C  
HETATM    3  C   UNL     1      -7.990  14.898  67.140  1.00  0.00    -0.227 C  
HETATM    4  C   UNL     1      -9.179  15.288  68.752  1.00  0.00    -0.203 C  
HETATM    5  C   UNL     1     -10.430  16.150  69.417  1.00  0.00    -0.283 C  
HETATM    6  C   UNL     1      -8.039  15.973  68.450  1.00  0.00    -0.159 C  
HETATM    7  C   UNL     1     -10.461  17.687  69.461  1.00  0.00     0.193 C  
HETATM    8  C   UNL     1     -10.600  15.691  70.954  1.00  0.00     0.040 C  
HETATM    9  C   UNL     1      -9.004  16.810  67.138  1.00  0.00    -0.204 C  
HETATM   10  C   UNL     1      -7.036  16.690  69.286  1.00  0.00    -0.225 C  
HETATM   11  O   UNL     1      -8.228  17.296  66.029  1.00  0.00    -0.488 OA 
HETATM   12  C   UNL     1     -12.771  13.634  67.143  1.00  0.00     0.472 C  
HETATM   13  C   UNL     1     -10.307  15.831  66.527  1.00  0.00    -0.298 C  
HETATM   14  H   UNL     1      -8.728  17.729  65.348  1.00  0.00     0.000 HD 
HETATM   15  C   UNL     1     -11.666  13.422  66.089  1.00  0.00    -0.405 C  
HETATM   16  C   UNL     1     -10.314  14.110  66.544  1.00  0.00    -0.284 C  
HETATM   17  H   UNL     1     -13.250  11.991  62.518  1.00  0.00     0.000 HD 
HETATM   18  C   UNL     1     -12.203  14.053  64.755  1.00  0.00    -0.454 C  
HETATM   19  C   UNL     1      -9.531  13.272  67.808  1.00  0.00    -0.208 C  
HETATM   20  C   UNL     1      -9.353  11.808  67.406  1.00  0.00    -0.174 C  
HETATM   21  C   UNL     1     -10.698  11.178  67.048  1.00  0.00    -0.316 C  
HETATM   22  C   UNL     1     -11.440  11.868  65.882  1.00  0.00    -0.340 C  
HETATM   23  C   UNL     1     -10.743  11.504  64.544  1.00  0.00    -0.390 C  
HETATM   24  C   UNL     1     -11.462  12.102  63.342  1.00  0.00    -0.416 C  
HETATM   25  O   UNL     1     -12.802  11.618  63.268  1.00  0.00    -0.478 OA 
HETATM   26  C   UNL     1     -11.468  13.618  63.483  1.00  0.00     0.167 C  
ENDROOT
BRANCH   8  27
HETATM   27  C   UNL     1     -11.849  16.223  71.696  1.00  0.00    -0.482 C  
HETATM   28  O   UNL     1     -13.222  14.590  70.527  1.00  0.00    -0.292 OA 
HETATM   29  C   UNL     1     -13.128  15.503  71.328  1.00  0.00    -0.511 C  
HETATM   30  O   UNL     1     -14.195  15.967  72.025  1.00  0.00    -0.339 OA 
ENDBRANCH   8  27
TORSDOF 1
ENDMDL
MODEL       11
REMARK 921   NORMALIZED FREE ENERGY PREDICTED BY IDOCK:   -6.12 KCAL/MOL
REMARK 922        TOTAL FREE ENERGY PREDICTED BY IDOCK:   -6.79 KCAL/MOL
REMARK 923 INTER-LIGAND FREE ENERGY PREDICTED BY IDOCK:   -6.58 KCAL/MOL
REMARK 924 INTRA-LIGAND FREE ENERGY PREDICTED BY IDOCK:   -0.21 KCAL/MOL
REMARK 927      BINDING AFFINITY PREDICTED BY RF-SCORE:    0.00 PKD
ROOT
HETATM    1  C   UNL     1      -9.873  11.543  65.071  1.00  0.00    -0.294 C  
HETATM    2  C   UNL     1     -10.392  10.227  64.963  1.00  0.00    -0.174 C  
HETATM    3  C   UNL     1     -10.605  10.873  66.291  1.00  0.00    -0.276 C  
HETATM    4  C   UNL     1     -10.082  12.846  66.303  1.00  0.00    -0.281 C  
HETATM    5  C   UNL     1      -9.947  14.273  67.137  1.00  0.00    -0.255 C  
HETATM    6  C   UNL     1     -11.341  12.383  66.055  1.00  0.00    -0.397 C  
HETATM    7  C   UNL     1     -11.132  14.942  67.853  1.00  0.00    -0.304 C  
HETATM    8  C   UNL     1      -9.390  15.399  66.125  1.00  0.00    -0.367 C  
HETATM    9  C   UNL     1     -11.481  12.084  67.856  1.00  0.00    -0.330 C  
HETATM   10  C   UNL     1     -12.471  12.908  65.239  1.00  0.00    -0.552 C  
HETATM   11  O   UNL     1     -12.408  11.049  68.229  1.00  0.00    -0.717 OA 
HETATM   12  C   UNL     1      -6.666  12.446  68.832  1.00  0.00    -0.098 C  
HETATM   13  C   UNL     1      -9.946  11.764  68.611  1.00  0.00    -0.181 C  
HETATM   14  H   UNL     1     -12.481  10.893  69.163  1.00  0.00     0.000 HD 
HETATM   15  C   UNL     1      -7.244  11.031  68.630  1.00  0.00    -0.091 C  
HETATM   16  C   UNL     1      -8.590  11.087  67.798  1.00  0.00    -0.130 C  
HETATM   17  H   UNL     1      -5.359   8.268  71.104  1.00  0.00     0.000 HD 
HETATM   18  C   UNL     1      -7.489  10.445  70.066  1.00  0.00    -0.088 C  
HETATM   19  C   UNL     1      -8.338  11.426  66.144  1.00  0.00    -0.071 C  
HETATM   20  C   UNL     1      -7.323  10.434  65.576  1.00  0.00    -0.139 C  
HETATM   21  C   UNL     1      -6.021  10.478  66.374  1.00  0.00    -0.084 C  
HETATM   22  C   UNL     1      -6.175  10.140  67.873  1.00  0.00    -0.057 C  
HETATM   23  C   UNL     1      -6.399   8.613  68.034  1.00  0.00    -0.056 C  
HETATM   24  C   UNL     1      -6.498   8.198  69.497  1.00  0.00    -0.034 C  
HETATM   25  O   UNL     1      -5.297   8.527  70.192  1.00  0.00    -0.022 OA 
HETATM   26  C   UNL     1      -7.676   8.926  70.130  1.00  0.00    -0.084 C  
ENDROOT
BRANCH   8  27
HETATM   27  C   UNL     1      -8.993  16.754  66.758  1.00  0.00    -0.265 C  
HETATM   28  O   UNL     1     -10.650  17.871  65.370  1.00  0.00    -0.656 OA 
HETATM   29  C   UNL     1      -9.781  17.929  66.222  1.00  0.00    -0.269 C  
HETATM   30  O   UNL     1      -9.437  19.094  66.827  1.00  0.00    -0.305 OA 
ENDBRANCH   8  27
TORSDOF 1
ENDMDL
MODEL       12
REMARK 921   NORMALIZED FREE ENERGY PREDICTED BY IDOCK:   -6.04 KCAL/MOL
REMARK 922        TOTAL FREE ENERGY PREDICTED BY IDOCK:   -6.71 KCAL/MOL
REMARK 923 INTER-LIGAND FREE ENERGY PREDICTED BY IDOCK:   -6.50 KCAL/MOL
REMARK 924 INTRA-LIGAND FREE ENERGY PREDICTED BY IDOCK:   -0.20 KCAL/MOL
REMARK 927      BINDING AFFINITY PREDICTED BY RF-SCORE:    0.00 PKD
ROOT
HETATM    1  C   UNL     1     -11.951  14.566  70.018  1.00  0.00    -0.388 C  
HETATM    2  C   UNL     1     -11.418  14.723  71.323  1.00  0.00    -0.257 C  
HETATM    3  C   UNL     1     -10.417  14.346  70.282  1.00  0.00     0.542 C  
HETATM    4  C   UNL     1     -11.187  14.397  68.392  1.00  0.00    -0.294 C  
HETATM    5  C   UNL     1     -10.960  14.192  66.762  1.00  0.00    -0.300 C  
HETATM    6  C   UNL     1     -10.535  15.437  68.988  1.00  0.00    -0.249 C  
HETATM    7  C   UNL     1      -9.875  14.934  65.965  1.00  0.00    -0.345 C  
HETATM    8  C   UNL     1     -12.341  14.552  66.011  1.00  0.00    -0.234 C  
HETATM    9  C   UNL     1      -8.983  14.519  68.671  1.00  0.00    -0.181 C  
HETATM   10  C   UNL     1     -10.637  16.915  68.838  1.00  0.00    -0.353 C  
HETATM   11  O   UNL     1      -7.904  14.819  69.575  1.00  0.00    -0.335 OA 
HETATM   12  C   UNL     1     -11.114  10.184  67.706  1.00  0.00    -0.293 C  
HETATM   13  C   UNL     1      -9.212  12.794  68.623  1.00  0.00     0.036 C  
HETATM   14  H   UNL     1      -7.099  14.343  69.411  1.00  0.00     0.000 HD 
HETATM   15  C   UNL     1     -10.595  10.415  69.139  1.00  0.00    -0.255 C  
HETATM   16  C   UNL     1     -10.471  11.963  69.449  1.00  0.00     0.157 C  
HETATM   17  H   UNL     1      -9.107   6.896  70.786  1.00  0.00     0.000 HD 
HETATM   18  C   UNL     1      -9.197   9.706  69.221  1.00  0.00    -0.186 C  
HETATM   19  C   UNL     1     -11.984  12.722  69.673  1.00  0.00    -0.354 C  
HETATM   20  C   UNL     1     -12.778  11.959  70.733  1.00  0.00    -0.242 C  
HETATM   21  C   UNL     1     -12.927  10.489  70.344  1.00  0.00    -0.208 C  
HETATM   22  C   UNL     1     -11.591   9.734  70.166  1.00  0.00    -0.239 C  
HETATM   23  C   UNL     1     -10.968   9.458  71.560  1.00  0.00    -0.429 C  
HETATM   24  C   UNL     1      -9.675   8.659  71.463  1.00  0.00    -0.263 C  
HETATM   25  O   UNL     1      -9.913   7.395  70.846  1.00  0.00    -0.185 OA 
HETATM   26  C   UNL     1      -8.672   9.454  70.638  1.00  0.00    -0.263 C  
ENDROOT
BRANCH   8  27
HETATM   27  C   UNL     1     -12.407  14.224  64.500  1.00  0.00    -0.432 C  
HETATM   28  O   UNL     1     -12.424  11.850  65.030  1.00  0.00    -0.315 OA 
HETATM   29  C   UNL     1     -12.446  12.742  64.200  1.00  0.00    -0.369 C  
HETATM   30  O   UNL     1     -12.544  12.491  62.871  1.00  0.00    -0.271 OA 
ENDBRANCH   8  27
TORSDOF 1
ENDMDL
MODEL       13
REMARK 921   NORMALIZED FREE ENERGY PREDICTED BY IDOCK:   -6.02 KCAL/MOL
REMARK 922        TOTAL FREE ENERGY PREDICTED BY IDOCK:   -6.68 KCAL/MOL
REMARK 923 INTER-LIGAND FREE ENERGY PREDICTED BY IDOCK:   -6.49 KCAL/MOL
REMARK 924 INTRA-LIGAND FREE ENERGY PREDICTED BY IDOCK:   -0.19 KCAL/MOL
REMARK 927      BINDING AFFINITY PREDICTED BY RF-SCORE:    0.00 PKD
ROOT
HETATM    1  C   UNL     1      -7.862  10.537  68.872  1.00  0.00    -0.124 C  
HETATM    2  C   UNL     1      -6.991   9.559  68.329  1.00  0.00    -0.070 C  
HETATM    3  C   UNL     1      -8.422   9.404  67.938  1.00  0.00    -0.116 C  
HETATM    4  C   UNL     1      -9.577  10.982  68.525  1.00  0.00    -0.187 C  
HETATM    5  C   UNL     1     -11.068  11.705  68.582  1.00  0.00    -0.287 C  
HETATM    6  C   UNL     1      -8.980  10.875  67.303  1.00  0.00    -0.139 C  
HETATM    7  C   UNL     1     -11.901  12.012  67.327  1.00  0.00    -0.257 C  
HETATM    8  C   UNL     1     -10.912  13.126  69.330  1.00  0.00    -0.131 C  
HETATM    9  C   UNL     1     -10.290   9.669  66.876  1.00  0.00    -0.238 C  
HETATM   10  C   UNL     1      -8.473  11.883  66.332  1.00  0.00    -0.039 C  
HETATM   11  O   UNL     1      -9.928   8.711  65.865  1.00  0.00    -0.469 OA 
HETATM   12  C   UNL     1     -11.819   8.888  71.494  1.00  0.00    -0.402 C  
HETATM   13  C   UNL     1     -10.905   8.817  68.264  1.00  0.00    -0.025 C  
HETATM   14  H   UNL     1     -10.607   8.085  65.644  1.00  0.00     0.000 HD 
HETATM   15  C   UNL     1     -10.809   7.885  70.903  1.00  0.00    -0.245 C  
HETATM   16  C   UNL     1     -10.005   8.536  69.703  1.00  0.00    -0.192 C  
HETATM   17  H   UNL     1     -11.537   4.027  72.282  1.00  0.00     0.000 HD 
HETATM   18  C   UNL     1     -11.647   6.648  70.419  1.00  0.00    -0.457 C  
HETATM   19  C   UNL     1      -8.851   9.683  70.219  1.00  0.00    -0.253 C  
HETATM   20  C   UNL     1      -7.945   9.046  71.272  1.00  0.00    -0.139 C  
HETATM   21  C   UNL     1      -8.769   8.501  72.437  1.00  0.00    -0.242 C  
HETATM   22  C   UNL     1      -9.807   7.427  72.041  1.00  0.00    -0.191 C  
HETATM   23  C   UNL     1      -9.074   6.093  71.739  1.00  0.00    -0.145 C  
HETATM   24  C   UNL     1     -10.045   4.969  71.401  1.00  0.00    -0.199 C  
HETATM   25  O   UNL     1     -10.931   4.729  72.493  1.00  0.00    -0.183 OA 
HETATM   26  C   UNL     1     -10.842   5.369  70.168  1.00  0.00    -0.215 C  
ENDROOT
BRANCH   8  27
HETATM   27  C   UNL     1     -12.225  13.868  69.674  1.00  0.00    -0.374 C  
HETATM   28  O   UNL     1     -10.968  15.421  71.061  1.00  0.00    -0.342 OA 
HETATM   29  C   UNL     1     -12.033  15.050  70.598  1.00  0.00    -0.318 C  
HETATM   30  O   UNL     1     -13.196  15.701  70.846  1.00  0.00    -0.515 OA 
ENDBRANCH   8  27
TORSDOF 1
ENDMDL
MODEL       14
REMARK 921   NORMALIZED FREE ENERGY PREDICTED BY IDOCK:   -5.94 KCAL/MOL
REMARK 922        TOTAL FREE ENERGY PREDICTED BY IDOCK:   -6.60 KCAL/MOL
REMARK 923 INTER-LIGAND FREE ENERGY PREDICTED BY IDOCK:   -6.42 KCAL/MOL
REMARK 924 INTRA-LIGAND FREE ENERGY PREDICTED BY IDOCK:   -0.18 KCAL/MOL
REMARK 927      BINDING AFFINITY PREDICTED BY RF-SCORE:    0.00 PKD
ROOT
HETATM    1  C   UNL     1     -11.079  12.725  64.151  1.00  0.00    -0.432 C  
HETATM    2  C   UNL     1     -12.056  11.752  63.818  1.00  0.00    -0.463 C  
HETATM    3  C   UNL     1     -11.461  11.598  65.178  1.00  0.00    -0.180 C  
HETATM    4  C   UNL     1     -10.267  13.169  65.700  1.00  0.00    -0.294 C  
HETATM    5  C   UNL     1      -9.280  13.890  66.821  1.00  0.00    -0.267 C  
HETATM    6  C   UNL     1     -11.594  13.073  66.005  1.00  0.00    -0.409 C  
HETATM    7  C   UNL     1      -9.730  14.205  68.258  1.00  0.00    -0.227 C  
HETATM    8  C   UNL     1      -8.787  15.305  66.225  1.00  0.00    -0.262 C  
HETATM    9  C   UNL     1     -11.110  11.868  67.296  1.00  0.00    -0.288 C  
HETATM   10  C   UNL     1     -12.661  14.090  66.218  1.00  0.00    -0.352 C  
HETATM   11  O   UNL     1     -12.130  10.918  67.654  1.00  0.00    -0.502 OA 
HETATM   12  C   UNL     1      -6.564  11.049  65.583  1.00  0.00     0.135 C  
HETATM   13  C   UNL     1      -9.650  11.004  66.905  1.00  0.00    -0.205 C  
HETATM   14  H   UNL     1     -11.879  10.293  68.323  1.00  0.00     0.000 HD 
HETATM   15  C   UNL     1      -7.666  10.052  65.174  1.00  0.00    -0.137 C  
HETATM   16  C   UNL     1      -9.099  10.714  65.301  1.00  0.00    -0.221 C  
HETATM   17  H   UNL     1      -6.163   6.183  64.886  1.00  0.00     0.000 HD 
HETATM   18  C   UNL     1      -7.524   8.818  66.134  1.00  0.00    -0.090 C  
HETATM   19  C   UNL     1      -9.416  11.859  64.075  1.00  0.00     0.024 C  
HETATM   20  C   UNL     1      -9.172  11.216  62.711  1.00  0.00    -0.374 C  
HETATM   21  C   UNL     1      -7.751  10.660  62.621  1.00  0.00    -0.120 C  
HETATM   22  C   UNL     1      -7.414   9.587  63.680  1.00  0.00    -0.115 C  
HETATM   23  C   UNL     1      -8.119   8.257  63.305  1.00  0.00    -0.137 C  
HETATM   24  C   UNL     1      -7.779   7.134  64.277  1.00  0.00    -0.117 C  
HETATM   25  O   UNL     1      -6.375   6.884  64.280  1.00  0.00    -0.035 OA 
HETATM   26  C   UNL     1      -8.234   7.542  65.671  1.00  0.00    -0.133 C  
ENDROOT
BRANCH   8  27
HETATM   27  C   UNL     1      -7.688  16.042  67.027  1.00  0.00    -0.264 C  
HETATM   28  O   UNL     1      -8.121  18.060  65.739  1.00  0.00    -0.525 OA 
HETATM   29  C   UNL     1      -7.499  17.485  66.616  1.00  0.00    -0.245 C  
HETATM   30  O   UNL     1      -6.558  18.112  67.365  1.00  0.00    -0.181 OA 
ENDBRANCH   8  27
TORSDOF 1
ENDMDL
MODEL       15
REMARK 921   NORMALIZED FREE ENERGY PREDICTED BY IDOCK:   -5.91 KCAL/MOL
REMARK 922        TOTAL FREE ENERGY PREDICTED BY IDOCK:   -6.56 KCAL/MOL
REMARK 923 INTER-LIGAND FREE ENERGY PREDICTED BY IDOCK:   -7.00 KCAL/MOL
REMARK 924 INTRA-LIGAND FREE ENERGY PREDICTED BY IDOCK:    0.44 KCAL/MOL
REMARK 927      BINDING AFFINITY PREDICTED BY RF-SCORE:    0.00 PKD
ROOT
HETATM    1  C   UNL     1      -7.730  13.924  67.800  1.00  0.00    -0.177 C  
HETATM    2  C   UNL     1      -7.175  14.322  69.043  1.00  0.00    -0.118 C  
HETATM    3  C   UNL     1      -8.655  14.478  68.943  1.00  0.00    -0.103 C  
HETATM    4  C   UNL     1      -9.425  13.646  67.246  1.00  0.00    -0.230 C  
HETATM    5  C   UNL     1     -10.748  13.308  66.305  1.00  0.00    -0.293 C  
HETATM    6  C   UNL     1      -9.330  13.003  68.445  1.00  0.00    -0.149 C  
HETATM    7  C   UNL     1     -11.970  12.531  66.823  1.00  0.00    -0.327 C  
HETATM    8  C   UNL     1     -10.252  12.481  65.012  1.00  0.00    -0.301 C  
HETATM    9  C   UNL     1     -10.766  14.003  68.985  1.00  0.00    -0.211 C  
HETATM   10  C   UNL     1      -9.167  11.570  68.817  1.00  0.00    -0.076 C  
HETATM   11  O   UNL     1     -10.855  14.222  70.404  1.00  0.00    -0.449 OA 
HETATM   12  C   UNL     1     -10.514  17.307  65.339  1.00  0.00    -0.049 C  
HETATM   13  C   UNL     1     -10.867  15.538  68.171  1.00  0.00    -0.296 C  
HETATM   14  H   UNL     1     -11.600  14.741  70.684  1.00  0.00     0.000 HD 
HETATM   15  C   UNL     1      -9.849  17.678  66.680  1.00  0.00    -0.309 C  
HETATM   16  C   UNL     1      -9.514  16.379  67.520  1.00  0.00    -0.224 C  
HETATM   17  H   UNL     1     -10.216  21.748  67.465  1.00  0.00     0.000 HD 
HETATM   18  C   UNL     1     -10.871  18.597  67.439  1.00  0.00    -0.381 C  
HETATM   19  C   UNL     1      -8.193  15.500  66.892  1.00  0.00    -0.287 C  
HETATM   20  C   UNL     1      -6.995  16.437  66.734  1.00  0.00    -0.212 C  
HETATM   21  C   UNL     1      -7.357  17.633  65.855  1.00  0.00    -0.213 C  
HETATM   22  C   UNL     1      -8.522  18.494  66.391  1.00  0.00    -0.275 C  
HETATM   23  C   UNL     1      -8.025  19.338  67.594  1.00  0.00    -0.311 C  
HETATM   24  C   UNL     1      -9.109  20.260  68.136  1.00  0.00    -0.051 C  
HETATM   25  O   UNL     1      -9.540  21.172  67.127  1.00  0.00    -0.282 OA 
HETATM   26  C   UNL     1     -10.285  19.411  68.598  1.00  0.00    -0.462 C  
ENDROOT
BRANCH   8  27
HETATM   27  C   UNL     1     -11.304  12.249  63.901  1.00  0.00    -0.501 C  
HETATM   28  O   UNL     1     -12.039  14.556  64.134  1.00  0.00    -0.454 OA 
HETATM   29  C   UNL     1     -12.138  13.471  63.588  1.00  0.00    -0.400 C  
HETATM   30  O   UNL     1     -13.020  13.245  62.584  1.00  0.00     0.140 OA 
ENDBRANCH   8  27
TORSDOF 1
ENDMDL
MODEL       16
REMARK 921   NORMALIZED FREE ENERGY PREDICTED BY IDOCK:   -5.83 KCAL/MOL
REMARK 922        TOTAL FREE ENERGY PREDICTED BY IDOCK:   -6.48 KCAL/MOL
REMARK 923 INTER-LIGAND FREE ENERGY PREDICTED BY IDOCK:   -6.21 KCAL/MOL
REMARK 924 INTRA-LIGAND FREE ENERGY PREDICTED BY IDOCK:   -0.27 KCAL/MOL
REMARK 927      BINDING AFFINITY PREDICTED BY RF-SCORE:    0.00 PKD
ROOT
HETATM    1  C   UNL     1      -7.803   9.786  69.146  1.00  0.00    -0.095 C  
HETATM    2  C   UNL     1      -6.749   9.769  68.198  1.00  0.00    -0.061 C  
HETATM    3  C   UNL     1      -8.117   9.698  67.608  1.00  0.00    -0.113 C  
HETATM    4  C   UNL     1      -9.589   9.996  68.990  1.00  0.00    -0.200 C  
HETATM    5  C   UNL     1     -11.207  10.110  69.338  1.00  0.00    -0.265 C  
HETATM    6  C   UNL     1      -9.044  10.981  68.219  1.00  0.00    -0.158 C  
HETATM    7  C   UNL     1     -12.150  11.100  68.633  1.00  0.00    -0.180 C  
HETATM    8  C   UNL     1     -11.364  10.440  70.909  1.00  0.00    -0.307 C  
HETATM    9  C   UNL     1     -10.042  10.315  66.835  1.00  0.00    -0.221 C  
HETATM   10  C   UNL     1      -8.845  12.441  68.433  1.00  0.00    -0.129 C  
HETATM   11  O   UNL     1      -9.508  10.571  65.524  1.00  0.00    -0.189 OA 
HETATM   12  C   UNL     1     -11.111   6.007  68.973  1.00  0.00    -0.377 C  
HETATM   13  C   UNL     1     -10.365   8.612  66.990  1.00  0.00    -0.368 C  
HETATM   14  H   UNL     1     -10.026  10.225  64.806  1.00  0.00     0.000 HD 
HETATM   15  C   UNL     1      -9.918   6.038  67.997  1.00  0.00    -0.162 C  
HETATM   16  C   UNL     1      -9.355   7.510  67.842  1.00  0.00    -0.144 C  
HETATM   17  H   UNL     1      -9.622   2.474  65.870  1.00  0.00     0.000 HD 
HETATM   18  C   UNL     1     -10.454   5.488  66.627  1.00  0.00    -0.355 C  
HETATM   19  C   UNL     1      -8.490   8.041  69.214  1.00  0.00    -0.136 C  
HETATM   20  C   UNL     1      -7.406   7.018  69.552  1.00  0.00    -0.094 C  
HETATM   21  C   UNL     1      -8.017   5.633  69.762  1.00  0.00    -0.098 C  
HETATM   22  C   UNL     1      -8.781   5.077  68.540  1.00  0.00    -0.103 C  
HETATM   23  C   UNL     1      -7.762   4.630  67.458  1.00  0.00    -0.089 C  
HETATM   24  C   UNL     1      -8.447   4.012  66.245  1.00  0.00    -0.109 C  
HETATM   25  O   UNL     1      -9.195   2.859  66.627  1.00  0.00    -0.158 OA 
HETATM   26  C   UNL     1      -9.376   5.049  65.630  1.00  0.00    -0.163 C  
ENDROOT
BRANCH   8  27
HETATM   27  C   UNL     1     -12.800  10.380  71.483  1.00  0.00    -0.569 C  
HETATM   28  O   UNL     1     -12.352   8.145  72.332  1.00  0.00    -0.337 OA 
HETATM   29  C   UNL     1     -13.116   9.085  72.198  1.00  0.00    -0.435 C  
HETATM   30  O   UNL     1     -14.366   9.082  72.723  1.00  0.00    -0.596 OA 
ENDBRANCH   8  27
TORSDOF 1
ENDMDL
MODEL       17
REMARK 921   NORMALIZED FREE ENERGY PREDICTED BY IDOCK:   -5.81 KCAL/MOL
REMARK 922        TOTAL FREE ENERGY PREDICTED BY IDOCK:   -6.46 KCAL/MOL
REMARK 923 INTER-LIGAND FREE ENERGY PREDICTED BY IDOCK:   -6.22 KCAL/MOL
REMARK 924 INTRA-LIGAND FREE ENERGY PREDICTED BY IDOCK:   -0.24 KCAL/MOL
REMARK 927      BINDING AFFINITY PREDICTED BY RF-SCORE:    0.00 PKD
ROOT
HETATM    1  C   UNL     1      -7.542  10.047  68.561  1.00  0.00    -0.087 C  
HETATM    2  C   UNL     1      -6.842   8.885  68.149  1.00  0.00    -0.069 C  
HETATM    3  C   UNL     1      -8.297   8.884  67.820  1.00  0.00    -0.110 C  
HETATM    4  C   UNL     1      -9.191  10.681  68.193  1.00  0.00    -0.148 C  
HETATM    5  C   UNL     1     -10.562  11.614  68.178  1.00  0.00    -0.230 C  
HETATM    6  C   UNL     1      -8.671  10.314  66.987  1.00  0.00    -0.133 C  
HETATM    7  C   UNL     1     -11.401  11.854  66.911  1.00  0.00    -0.392 C  
HETATM    8  C   UNL     1     -10.176  13.090  68.701  1.00  0.00    -0.173 C  
HETATM    9  C   UNL     1     -10.155   9.262  66.777  1.00  0.00    -0.261 C  
HETATM   10  C   UNL     1      -8.073  11.088  65.864  1.00  0.00    -0.075 C  
HETATM   11  O   UNL     1      -9.977   8.126  65.912  1.00  0.00    -0.435 OA 
HETATM   12  C   UNL     1     -11.567   9.385  71.495  1.00  0.00    -0.467 C  
HETATM   13  C   UNL     1     -10.820   8.717  68.290  1.00  0.00    -0.025 C  
HETATM   14  H   UNL     1     -10.746   7.580  65.803  1.00  0.00     0.000 HD 
HETATM   15  C   UNL     1     -10.736   8.171  71.035  1.00  0.00    -0.248 C  
HETATM   16  C   UNL     1      -9.904   8.519  69.733  1.00  0.00    -0.186 C  
HETATM   17  H   UNL     1     -11.933   4.700  72.992  1.00  0.00     0.000 HD 
HETATM   18  C   UNL     1     -11.759   7.013  70.762  1.00  0.00    -0.394 C  
HETATM   19  C   UNL     1      -8.578   9.549  70.044  1.00  0.00    -0.234 C  
HETATM   20  C   UNL     1      -7.723   8.946  71.158  1.00  0.00    -0.158 C  
HETATM   21  C   UNL     1      -8.563   8.700  72.411  1.00  0.00    -0.145 C  
HETATM   22  C   UNL     1      -9.757   7.742  72.205  1.00  0.00    -0.241 C  
HETATM   23  C   UNL     1      -9.232   6.287  72.088  1.00  0.00    -0.144 C  
HETATM   24  C   UNL     1     -10.365   5.278  71.945  1.00  0.00    -0.215 C  
HETATM   25  O   UNL     1     -11.226   5.329  73.081  1.00  0.00    -0.299 OA 
HETATM   26  C   UNL     1     -11.154   5.607  70.685  1.00  0.00    -0.195 C  
ENDROOT
BRANCH   8  27
HETATM   27  C   UNL     1     -11.355  14.056  68.963  1.00  0.00    -0.319 C  
HETATM   28  O   UNL     1     -11.943  12.780  70.948  1.00  0.00    -0.182 OA 
HETATM   29  C   UNL     1     -12.158  13.717  70.199  1.00  0.00    -0.361 C  
HETATM   30  O   UNL     1     -13.157  14.606  70.421  1.00  0.00    -0.291 OA 
ENDBRANCH   8  27
TORSDOF 1
ENDMDL
MODEL       18
REMARK 921   NORMALIZED FREE ENERGY PREDICTED BY IDOCK:   -5.75 KCAL/MOL
REMARK 922        TOTAL FREE ENERGY PREDICTED BY IDOCK:   -6.40 KCAL/MOL
REMARK 923 INTER-LIGAND FREE ENERGY PREDICTED BY IDOCK:   -6.09 KCAL/MOL
REMARK 924 INTRA-LIGAND FREE ENERGY PREDICTED BY IDOCK:   -0.30 KCAL/MOL
REMARK 927      BINDING AFFINITY PREDICTED BY RF-SCORE:    0.00 PKD
ROOT
HETATM    1  C   UNL     1     -10.567   5.864  69.063  1.00  0.00    -0.360 C  
HETATM    2  C   UNL     1      -9.638   4.915  68.565  1.00  0.00    -0.210 C  
HETATM    3  C   UNL     1      -9.089   5.840  69.598  1.00  0.00    -0.148 C  
HETATM    4  C   UNL     1     -10.528   6.998  70.467  1.00  0.00    -0.227 C  
HETATM    5  C   UNL     1     -10.932   8.173  71.565  1.00  0.00    -0.294 C  
HETATM    6  C   UNL     1     -10.098   5.802  70.961  1.00  0.00    -0.260 C  
HETATM    7  C   UNL     1     -10.602   8.071  73.064  1.00  0.00    -0.332 C  
HETATM    8  C   UNL     1     -12.530   8.389  71.510  1.00  0.00    -0.342 C  
HETATM    9  C   UNL     1      -8.598   6.685  71.529  1.00  0.00    -0.124 C  
HETATM   10  C   UNL     1     -10.761   4.744  71.774  1.00  0.00    -0.045 C  
HETATM   11  O   UNL     1      -7.424   5.865  71.664  1.00  0.00    -0.090 OA 
HETATM   12  C   UNL     1      -9.278  10.712  68.774  1.00  0.00    -0.182 C  
HETATM   13  C   UNL     1      -8.210   8.065  70.543  1.00  0.00    -0.118 C  
HETATM   14  H   UNL     1      -6.646   6.323  71.959  1.00  0.00     0.000 HD 
HETATM   15  C   UNL     1      -8.335   9.626  68.221  1.00  0.00    -0.117 C  
HETATM   16  C   UNL     1      -8.644   8.221  68.885  1.00  0.00    -0.132 C  
HETATM   17  H   UNL     1      -5.178  11.311  66.098  1.00  0.00     0.000 HD 
HETATM   18  C   UNL     1      -6.874  10.100  68.549  1.00  0.00    -0.058 C  
HETATM   19  C   UNL     1     -10.092   7.519  68.318  1.00  0.00    -0.209 C  
HETATM   20  C   UNL     1     -10.062   7.467  66.791  1.00  0.00    -0.305 C  
HETATM   21  C   UNL     1      -9.834   8.859  66.206  1.00  0.00    -0.355 C  
HETATM   22  C   UNL     1      -8.516   9.534  66.649  1.00  0.00    -0.136 C  
HETATM   23  C   UNL     1      -7.325   8.865  65.914  1.00  0.00    -0.093 C  
HETATM   24  C   UNL     1      -5.995   9.524  66.258  1.00  0.00    -0.059 C  
HETATM   25  O   UNL     1      -6.007  10.900  65.884  1.00  0.00    -0.133 OA 
HETATM   26  C   UNL     1      -5.764   9.400  67.758  1.00  0.00    -0.041 C  
ENDROOT
BRANCH   8  27
HETATM   27  C   UNL     1     -13.088   9.590  72.309  1.00  0.00    -0.492 C  
HETATM   28  O   UNL     1     -12.404  11.083  70.514  1.00  0.00    -0.323 OA 
HETATM   29  C   UNL     1     -12.924  10.919  71.604  1.00  0.00    -0.464 C  
HETATM   30  O   UNL     1     -13.460  11.944  72.312  1.00  0.00    -0.442 OA 
ENDBRANCH   8  27
TORSDOF 1
ENDMDL
MODEL       19
REMARK 921   NORMALIZED FREE ENERGY PREDICTED BY IDOCK:   -5.75 KCAL/MOL
REMARK 922        TOTAL FREE ENERGY PREDICTED BY IDOCK:   -6.39 KCAL/MOL
REMARK 923 INTER-LIGAND FREE ENERGY PREDICTED BY IDOCK:   -6.21 KCAL/MOL
REMARK 924 INTRA-LIGAND FREE ENERGY PREDICTED BY IDOCK:   -0.19 KCAL/MOL
REMARK 927      BINDING AFFINITY PREDICTED BY RF-SCORE:    0.00 PKD
ROOT
HETATM    1  C   UNL     1      -7.444   9.906  68.629  1.00  0.00    -0.075 C  
HETATM    2  C   UNL     1      -6.684   8.768  68.254  1.00  0.00    -0.065 C  
HETATM    3  C   UNL     1      -8.120   8.718  67.851  1.00  0.00    -0.107 C  
HETATM    4  C   UNL     1      -9.093  10.483  68.176  1.00  0.00    -0.141 C  
HETATM    5  C   UNL     1     -10.493  11.368  68.089  1.00  0.00    -0.212 C  
HETATM    6  C   UNL     1      -8.500  10.134  66.998  1.00  0.00    -0.129 C  
HETATM    7  C   UNL     1     -11.273  11.580  66.780  1.00  0.00    -0.350 C  
HETATM    8  C   UNL     1     -10.184  12.856  68.629  1.00  0.00    -0.170 C  
HETATM    9  C   UNL     1      -9.934   9.032  66.713  1.00  0.00    -0.263 C  
HETATM   10  C   UNL     1      -7.871  10.928  65.906  1.00  0.00    -0.090 C  
HETATM   11  O   UNL     1      -9.673   7.903  65.860  1.00  0.00    -0.443 OA 
HETATM   12  C   UNL     1     -11.589   9.105  71.353  1.00  0.00    -0.411 C  
HETATM   13  C   UNL     1     -10.656   8.464  68.192  1.00  0.00    -0.175 C  
HETATM   14  H   UNL     1     -10.416   7.331  65.713  1.00  0.00     0.000 HD 
HETATM   15  C   UNL     1     -10.694   7.920  70.938  1.00  0.00    -0.234 C  
HETATM   16  C   UNL     1      -9.809   8.298  69.680  1.00  0.00    -0.184 C  
HETATM   17  H   UNL     1     -11.870   4.409  72.836  1.00  0.00     0.000 HD 
HETATM   18  C   UNL     1     -11.662   6.728  70.614  1.00  0.00    -0.440 C  
HETATM   19  C   UNL     1      -8.538   9.372  70.057  1.00  0.00    -0.218 C  
HETATM   20  C   UNL     1      -7.720   8.798  71.214  1.00  0.00    -0.149 C  
HETATM   21  C   UNL     1      -8.614   8.523  72.422  1.00  0.00    -0.222 C  
HETATM   22  C   UNL     1      -9.762   7.525  72.157  1.00  0.00    -0.204 C  
HETATM   23  C   UNL     1      -9.183   6.088  72.069  1.00  0.00    -0.151 C  
HETATM   24  C   UNL     1     -10.272   5.042  71.869  1.00  0.00    -0.204 C  
HETATM   25  O   UNL     1     -11.191   5.062  72.960  1.00  0.00    -0.283 OA 
HETATM   26  C   UNL     1     -11.006   5.344  70.570  1.00  0.00    -0.101 C  
ENDROOT
BRANCH   8  27
HETATM   27  C   UNL     1     -11.408  13.781  68.828  1.00  0.00    -0.318 C  
HETATM   28  O   UNL     1      -9.939  15.514  69.699  1.00  0.00    -0.262 OA 
HETATM   29  C   UNL     1     -11.059  15.138  69.400  1.00  0.00    -0.276 C  
HETATM   30  O   UNL     1     -12.148  15.937  69.523  1.00  0.00    -0.329 OA 
ENDBRANCH   8  27
TORSDOF 1
ENDMDL
MODEL       20
REMARK 921   NORMALIZED FREE ENERGY PREDICTED BY IDOCK:   -5.65 KCAL/MOL
REMARK 922        TOTAL FREE ENERGY PREDICTED BY IDOCK:   -6.29 KCAL/MOL
REMARK 923 INTER-LIGAND FREE ENERGY PREDICTED BY IDOCK:   -6.08 KCAL/MOL
REMARK 924 INTRA-LIGAND FREE ENERGY PREDICTED BY IDOCK:   -0.20 KCAL/MOL
REMARK 927      BINDING AFFINITY PREDICTED BY RF-SCORE:    0.00 PKD
ROOT
HETATM    1  C   UNL     1     -12.364  14.390  66.206  1.00  0.00    -0.325 C  
HETATM    2  C   UNL     1     -12.378  15.230  65.064  1.00  0.00     0.209 C  
HETATM    3  C   UNL     1     -11.186  14.339  65.167  1.00  0.00    -0.345 C  
HETATM    4  C   UNL     1     -11.348  12.974  66.675  1.00  0.00    -0.366 C  
HETATM    5  C   UNL     1     -10.690  11.707  67.520  1.00  0.00    -0.257 C  
HETATM    6  C   UNL     1     -11.712  12.741  65.381  1.00  0.00    -0.425 C  
HETATM    7  C   UNL     1     -10.238  10.397  66.852  1.00  0.00    -0.281 C  
HETATM    8  C   UNL     1     -11.746  11.250  68.650  1.00  0.00    -0.391 C  
HETATM    9  C   UNL     1      -9.926  12.587  65.009  1.00  0.00    -0.176 C  
HETATM   10  C   UNL     1     -12.739  11.858  64.761  1.00  0.00     0.364 C  
HETATM   11  O   UNL     1      -9.560  12.891  63.651  1.00  0.00    -0.570 OA 
HETATM   12  C   UNL     1      -8.331  14.642  69.192  1.00  0.00    -0.055 C  
HETATM   13  C   UNL     1      -8.926  13.522  66.083  1.00  0.00     0.226 C  
HETATM   14  H   UNL     1      -8.633  12.811  63.457  1.00  0.00     0.000 HD 
HETATM   15  C   UNL     1      -8.433  15.550  67.951  1.00  0.00    -0.146 C  
HETATM   16  C   UNL     1      -9.448  14.947  66.895  1.00  0.00    -0.251 C  
HETATM   17  H   UNL     1      -5.389  18.386  67.905  1.00  0.00     0.000 HD 
HETATM   18  C   UNL     1      -6.984  15.646  67.354  1.00  0.00    -0.234 C  
HETATM   19  C   UNL     1     -11.079  15.100  67.375  1.00  0.00    -0.325 C  
HETATM   20  C   UNL     1     -11.368  16.561  67.717  1.00  0.00     0.005 C  
HETATM   21  C   UNL     1     -10.406  17.065  68.792  1.00  0.00    -0.336 C  
HETATM   22  C   UNL     1      -8.913  16.991  68.402  1.00  0.00    -0.247 C  
HETATM   23  C   UNL     1      -8.594  18.112  67.377  1.00  0.00    -0.244 C  
HETATM   24  C   UNL     1      -7.120  18.137  66.994  1.00  0.00    -0.196 C  
HETATM   25  O   UNL     1      -6.309  18.370  68.144  1.00  0.00    -0.191 OA 
HETATM   26  C   UNL     1      -6.756  16.798  66.369  1.00  0.00    -0.056 C  
ENDROOT
BRANCH   8  27
HETATM   27  C   UNL     1     -11.239  10.218  69.685  1.00  0.00    -0.322 C  
HETATM   28  O   UNL     1     -12.816  11.099  71.315  1.00  0.00    -0.394 OA 
HETATM   29  C   UNL     1     -11.937  10.306  71.024  1.00  0.00    -0.385 C  
HETATM   30  O   UNL     1     -11.498   9.362  71.893  1.00  0.00    -0.373 OA 
ENDBRANCH   8  27
TORSDOF 1
ENDMDL
MODEL       21
REMARK 921   NORMALIZED FREE ENERGY PREDICTED BY IDOCK:   -5.63 KCAL/MOL
REMARK 922        TOTAL FREE ENERGY PREDICTED BY IDOCK:   -6.27 KCAL/MOL
REMARK 923 INTER-LIGAND FREE ENERGY PREDICTED BY IDOCK:   -6.01 KCAL/MOL
REMARK 924 INTRA-LIGAND FREE ENERGY PREDICTED BY IDOCK:   -0.26 KCAL/MOL
REMARK 927      BINDING AFFINITY PREDICTED BY RF-SCORE:    0.00 PKD
ROOT
HETATM    1  C   UNL     1      -9.933  10.485  69.360  1.00  0.00    -0.220 C  
HETATM    2  C   UNL     1     -10.757   9.404  68.956  1.00  0.00    -0.209 C  
HETATM    3  C   UNL     1      -9.637   9.716  68.021  1.00  0.00    -0.161 C  
HETATM    4  C   UNL     1      -8.335  11.093  68.781  1.00  0.00    -0.136 C  
HETATM    5  C   UNL     1      -6.959  11.999  68.593  1.00  0.00    -0.096 C  
HETATM    6  C   UNL     1      -8.184   9.743  68.896  1.00  0.00    -0.117 C  
HETATM    7  C   UNL     1      -5.584  11.384  68.285  1.00  0.00    -0.045 C  
HETATM    8  C   UNL     1      -6.733  12.860  69.938  1.00  0.00     0.240 C  
HETATM    9  C   UNL     1      -7.660   9.749  67.142  1.00  0.00    -0.092 C  
HETATM   10  C   UNL     1      -7.535   8.880  69.923  1.00  0.00    -0.058 C  
HETATM   11  O   UNL     1      -7.880   8.514  66.437  1.00  0.00    -0.096 OA 
HETATM   12  C   UNL     1      -9.336  14.263  66.102  1.00  0.00    -0.191 C  
HETATM   13  C   UNL     1      -8.366  11.051  66.228  1.00  0.00    -0.166 C  
HETATM   14  H   UNL     1      -7.609   8.517  65.527  1.00  0.00     0.000 HD 
HETATM   15  C   UNL     1     -10.245  13.070  65.747  1.00  0.00    -0.297 C  
HETATM   16  C   UNL     1      -9.868  11.798  66.611  1.00  0.00    -0.223 C  
HETATM   17  H   UNL     1     -12.382  13.796  62.251  1.00  0.00     0.000 HD 
HETATM   18  C   UNL     1     -10.037  12.798  64.215  1.00  0.00    -0.277 C  
HETATM   19  C   UNL     1     -10.358  11.929  68.241  1.00  0.00    -0.211 C  
HETATM   20  C   UNL     1     -11.847  12.269  68.292  1.00  0.00    -0.367 C  
HETATM   21  C   UNL     1     -12.139  13.544  67.503  1.00  0.00    -0.340 C  
HETATM   22  C   UNL     1     -11.755  13.475  66.008  1.00  0.00    -0.389 C  
HETATM   23  C   UNL     1     -12.784  12.592  65.254  1.00  0.00    -0.229 C  
HETATM   24  C   UNL     1     -12.501  12.531  63.758  1.00  0.00    -0.455 C  
HETATM   25  O   UNL     1     -12.559  13.835  63.184  1.00  0.00    -0.793 OA 
HETATM   26  C   UNL     1     -11.115  11.936  63.550  1.00  0.00    -0.506 C  
ENDROOT
BRANCH   8  27
HETATM   27  C   UNL     1      -5.617  13.931  69.889  1.00  0.00    -0.108 C  
HETATM   28  O   UNL     1      -7.308  15.660  69.627  1.00  0.00    -0.203 OA 
HETATM   29  C   UNL     1      -6.136  15.342  69.724  1.00  0.00    -0.147 C  
HETATM   30  O   UNL     1      -5.136  16.258  69.725  1.00  0.00    -0.116 OA 
ENDBRANCH   8  27
TORSDOF 1
ENDMDL
MODEL       22
REMARK 921   NORMALIZED FREE ENERGY PREDICTED BY IDOCK:   -5.58 KCAL/MOL
REMARK 922        TOTAL FREE ENERGY PREDICTED BY IDOCK:   -6.21 KCAL/MOL
REMARK 923 INTER-LIGAND FREE ENERGY PREDICTED BY IDOCK:   -6.01 KCAL/MOL
REMARK 924 INTRA-LIGAND FREE ENERGY PREDICTED BY IDOCK:   -0.20 KCAL/MOL
REMARK 927      BINDING AFFINITY PREDICTED BY RF-SCORE:    0.00 PKD
ROOT
HETATM    1  C   UNL     1     -10.166  13.076  64.177  1.00  0.00    -0.263 C  
HETATM    2  C   UNL     1     -11.154  12.221  63.625  1.00  0.00    -0.537 C  
HETATM    3  C   UNL     1     -11.470  12.740  64.988  1.00  0.00    -0.356 C  
HETATM    4  C   UNL     1     -10.152  14.166  65.616  1.00  0.00    -0.350 C  
HETATM    5  C   UNL     1      -9.667  15.232  66.790  1.00  0.00    -0.249 C  
HETATM    6  C   UNL     1     -11.328  14.430  64.978  1.00  0.00    -0.373 C  
HETATM    7  C   UNL     1     -10.585  16.326  67.361  1.00  0.00    -0.307 C  
HETATM    8  C   UNL     1      -8.370  16.024  66.250  1.00  0.00    -0.287 C  
HETATM    9  C   UNL     1     -12.161  14.052  66.564  1.00  0.00    -0.451 C  
HETATM   10  C   UNL     1     -11.770  15.537  64.085  1.00  0.00    -0.093 C  
HETATM   11  O   UNL     1     -13.519  13.592  66.443  1.00  0.00     0.364 OA 
HETATM   12  C   UNL     1      -8.303  11.832  68.675  1.00  0.00    -0.079 C  
HETATM   13  C   UNL     1     -11.270  12.924  67.545  1.00  0.00    -0.329 C  
HETATM   14  H   UNL     1     -13.951  13.396  67.266  1.00  0.00     0.000 HD 
HETATM   15  C   UNL     1      -9.355  10.932  67.996  1.00  0.00    -0.160 C  
HETATM   16  C   UNL     1     -10.182  11.747  66.920  1.00  0.00    -0.236 C  
HETATM   17  H   UNL     1      -9.826   7.349  70.058  1.00  0.00     0.000 HD 
HETATM   18  C   UNL     1     -10.286  10.399  69.143  1.00  0.00    -0.239 C  
HETATM   19  C   UNL     1      -9.286  12.087  65.507  1.00  0.00    -0.042 C  
HETATM   20  C   UNL     1      -8.703  10.787  64.956  1.00  0.00    -0.160 C  
HETATM   21  C   UNL     1      -7.857  10.082  66.015  1.00  0.00    -0.119 C  
HETATM   22  C   UNL     1      -8.621   9.710  67.304  1.00  0.00    -0.132 C  
HETATM   23  C   UNL     1      -9.546   8.497  67.020  1.00  0.00    -0.246 C  
HETATM   24  C   UNL     1     -10.287   8.035  68.268  1.00  0.00    -0.197 C  
HETATM   25  O   UNL     1      -9.363   7.637  69.280  1.00  0.00    -0.149 OA 
HETATM   26  C   UNL     1     -11.146   9.185  68.778  1.00  0.00     0.100 C  
ENDROOT
BRANCH   8  27
HETATM   27  C   UNL     1      -7.635  16.918  67.276  1.00  0.00    -0.199 C  
HETATM   28  O   UNL     1      -8.185  18.878  65.944  1.00  0.00    -0.477 OA 
HETATM   29  C   UNL     1      -7.658  18.390  66.929  1.00  0.00    -0.218 C  
HETATM   30  O   UNL     1      -7.042  19.148  67.869  1.00  0.00    -0.226 OA 
ENDBRANCH   8  27
TORSDOF 1
ENDMDL
MODEL       23
REMARK 921   NORMALIZED FREE ENERGY PREDICTED BY IDOCK:   -5.56 KCAL/MOL
REMARK 922        TOTAL FREE ENERGY PREDICTED BY IDOCK:   -6.19 KCAL/MOL
REMARK 923 INTER-LIGAND FREE ENERGY PREDICTED BY IDOCK:   -5.98 KCAL/MOL
REMARK 924 INTRA-LIGAND FREE ENERGY PREDICTED BY IDOCK:   -0.22 KCAL/MOL
REMARK 927      BINDING AFFINITY PREDICTED BY RF-SCORE:    0.00 PKD
ROOT
HETATM    1  C   UNL     1      -7.444  13.902  68.006  1.00  0.00    -0.135 C  
HETATM    2  C   UNL     1      -6.784  13.881  69.261  1.00  0.00    -0.108 C  
HETATM    3  C   UNL     1      -8.069  14.638  69.246  1.00  0.00    -0.030 C  
HETATM    4  C   UNL     1      -9.099  14.410  67.498  1.00  0.00    -0.195 C  
HETATM    5  C   UNL     1     -10.438  14.762  66.584  1.00  0.00    -0.286 C  
HETATM    6  C   UNL     1      -9.286  13.641  68.610  1.00  0.00    -0.045 C  
HETATM    7  C   UNL     1     -11.875  14.493  67.061  1.00  0.00    -0.408 C  
HETATM    8  C   UNL     1     -10.315  13.973  65.183  1.00  0.00    -0.422 C  
HETATM    9  C   UNL     1     -10.190  15.064  69.325  1.00  0.00    -0.241 C  
HETATM   10  C   UNL     1      -9.727  12.232  68.804  1.00  0.00     0.017 C  
HETATM   11  O   UNL     1     -10.192  15.122  70.762  1.00  0.00    -0.448 OA 
HETATM   12  C   UNL     1      -8.576  18.404  66.082  1.00  0.00    -0.136 C  
HETATM   13  C   UNL     1      -9.646  16.595  68.701  1.00  0.00    -0.248 C  
HETATM   14  H   UNL     1     -10.661  15.860  71.134  1.00  0.00     0.000 HD 
HETATM   15  C   UNL     1      -7.828  18.302  67.426  1.00  0.00    -0.229 C  
HETATM   16  C   UNL     1      -8.062  16.885  68.094  1.00  0.00    -0.201 C  
HETATM   17  H   UNL     1      -6.500  22.034  68.696  1.00  0.00     0.000 HD 
HETATM   18  C   UNL     1      -8.389  19.455  68.332  1.00  0.00    -0.385 C  
HETATM   19  C   UNL     1      -7.212  15.629  67.310  1.00  0.00    -0.252 C  
HETATM   20  C   UNL     1      -5.735  16.008  67.209  1.00  0.00    -0.053 C  
HETATM   21  C   UNL     1      -5.568  17.347  66.492  1.00  0.00    -0.239 C  
HETATM   22  C   UNL     1      -6.281  18.534  67.176  1.00  0.00    -0.181 C  
HETATM   23  C   UNL     1      -5.491  18.944  68.446  1.00  0.00    -0.191 C  
HETATM   24  C   UNL     1      -6.105  20.154  69.139  1.00  0.00    -0.321 C  
HETATM   25  O   UNL     1      -6.116  21.280  68.263  1.00  0.00    -0.307 OA 
HETATM   26  C   UNL     1      -7.530  19.807  69.551  1.00  0.00    -0.059 C  
ENDROOT
BRANCH   8  27
HETATM   27  C   UNL     1     -11.360  14.330  64.100  1.00  0.00    -0.074 C  
HETATM   28  O   UNL     1     -11.905  11.970  63.867  1.00  0.00    -0.410 OA 
HETATM   29  C   UNL     1     -12.089  13.129  63.539  1.00  0.00    -0.514 C  
HETATM   30  O   UNL     1     -13.025  13.481  62.623  1.00  0.00     0.124 OA 
ENDBRANCH   8  27
TORSDOF 1
ENDMDL
MODEL       24
REMARK 921   NORMALIZED FREE ENERGY PREDICTED BY IDOCK:   -5.53 KCAL/MOL
REMARK 922        TOTAL FREE ENERGY PREDICTED BY IDOCK:   -6.16 KCAL/MOL
REMARK 923 INTER-LIGAND FREE ENERGY PREDICTED BY IDOCK:   -5.98 KCAL/MOL
REMARK 924 INTRA-LIGAND FREE ENERGY PREDICTED BY IDOCK:   -0.18 KCAL/MOL
REMARK 927      BINDING AFFINITY PREDICTED BY RF-SCORE:    0.00 PKD
ROOT
HETATM    1  C   UNL     1     -10.913  13.533  69.113  1.00  0.00    -0.220 C  
HETATM    2  C   UNL     1     -12.126  14.106  69.571  1.00  0.00    -0.388 C  
HETATM    3  C   UNL     1     -11.931  14.160  68.093  1.00  0.00    -0.367 C  
HETATM    4  C   UNL     1     -10.308  13.090  67.471  1.00  0.00    -0.224 C  
HETATM    5  C   UNL     1      -9.347  12.565  66.225  1.00  0.00    -0.177 C  
HETATM    6  C   UNL     1     -11.580  12.599  67.529  1.00  0.00    -0.418 C  
HETATM    7  C   UNL     1      -9.890  11.782  65.018  1.00  0.00    -0.257 C  
HETATM    8  C   UNL     1      -8.191  11.623  66.840  1.00  0.00    -0.169 C  
HETATM    9  C   UNL     1     -11.919  13.567  66.011  1.00  0.00    -0.409 C  
HETATM   10  C   UNL     1     -12.130  11.232  67.746  1.00  0.00     0.230 C  
HETATM   11  O   UNL     1     -13.295  13.945  65.827  1.00  0.00    -0.623 OA 
HETATM   12  C   UNL     1      -7.920  16.430  66.303  1.00  0.00    -0.264 C  
HETATM   13  C   UNL     1     -10.922  14.988  65.877  1.00  0.00    -0.343 C  
HETATM   14  H   UNL     1     -13.471  14.448  65.040  1.00  0.00     0.000 HD 
HETATM   15  C   UNL     1      -9.239  16.995  66.866  1.00  0.00    -0.254 C  
HETATM   16  C   UNL     1     -10.246  15.826  67.219  1.00  0.00    -0.268 C  
HETATM   17  H   UNL     1      -9.507  21.099  66.236  1.00  0.00     0.000 HD 
HETATM   18  C   UNL     1      -9.827  17.934  65.753  1.00  0.00     0.089 C  
HETATM   19  C   UNL     1      -9.799  14.960  68.621  1.00  0.00    -0.225 C  
HETATM   20  C   UNL     1      -9.592  15.942  69.774  1.00  0.00    -0.084 C  
HETATM   21  C   UNL     1      -8.557  17.003  69.401  1.00  0.00     0.296 C  
HETATM   22  C   UNL     1      -8.924  17.850  68.162  1.00  0.00    -0.268 C  
HETATM   23  C   UNL     1     -10.041  18.857  68.541  1.00  0.00    -0.460 C  
HETATM   24  C   UNL     1     -10.410  19.770  67.379  1.00  0.00    -0.447 C  
HETATM   25  O   UNL     1      -9.277  20.529  66.961  1.00  0.00    -0.361 OA 
HETATM   26  C   UNL     1     -10.909  18.911  66.225  1.00  0.00    -0.216 C  
ENDROOT
BRANCH   8  27
HETATM   27  C   UNL     1      -7.063  11.200  65.871  1.00  0.00     0.123 C  
HETATM   28  O   UNL     1      -7.857   8.902  65.972  1.00  0.00    -0.099 OA 
HETATM   29  C   UNL     1      -7.068   9.724  65.539  1.00  0.00    -0.108 C  
HETATM   30  O   UNL     1      -6.092   9.394  64.657  1.00  0.00    -0.072 OA 
ENDBRANCH   8  27
TORSDOF 1
ENDMDL
MODEL       25
REMARK 921   NORMALIZED FREE ENERGY PREDICTED BY IDOCK:   -5.49 KCAL/MOL
REMARK 922        TOTAL FREE ENERGY PREDICTED BY IDOCK:   -6.12 KCAL/MOL
REMARK 923 INTER-LIGAND FREE ENERGY PREDICTED BY IDOCK:   -5.92 KCAL/MOL
REMARK 924 INTRA-LIGAND FREE ENERGY PREDICTED BY IDOCK:   -0.20 KCAL/MOL
REMARK 927      BINDING AFFINITY PREDICTED BY RF-SCORE:    0.00 PKD
ROOT
HETATM    1  C   UNL     1      -7.831  11.775  68.395  1.00  0.00    -0.141 C  
HETATM    2  C   UNL     1      -6.902  11.155  67.520  1.00  0.00    -0.086 C  
HETATM    3  C   UNL     1      -8.335  10.920  67.175  1.00  0.00    -0.125 C  
HETATM    4  C   UNL     1      -9.613  12.047  68.300  1.00  0.00    -0.204 C  
HETATM    5  C   UNL     1     -11.169  12.488  68.666  1.00  0.00    -0.319 C  
HETATM    6  C   UNL     1      -9.129  12.417  67.080  1.00  0.00    -0.207 C  
HETATM    7  C   UNL     1     -12.152  13.045  67.622  1.00  0.00    -0.262 C  
HETATM    8  C   UNL     1     -11.118  13.611  69.823  1.00  0.00     0.006 C  
HETATM    9  C   UNL     1     -10.315  11.224  66.356  1.00  0.00    -0.245 C  
HETATM   10  C   UNL     1      -8.846  13.741  66.460  1.00  0.00    -0.006 C  
HETATM   11  O   UNL     1      -9.938  10.694  65.073  1.00  0.00    -0.261 OA 
HETATM   12  C   UNL     1     -11.281   8.824  70.549  1.00  0.00    -0.278 C  
HETATM   13  C   UNL     1     -10.683   9.901  67.425  1.00  0.00    -0.323 C  
HETATM   14  H   UNL     1     -10.553  10.076  64.697  1.00  0.00     0.000 HD 
HETATM   15  C   UNL     1     -10.217   8.217  69.613  1.00  0.00    -0.205 C  
HETATM   16  C   UNL     1      -9.620   9.321  68.648  1.00  0.00    -0.152 C  
HETATM   17  H   UNL     1     -10.327   4.059  69.710  1.00  0.00     0.000 HD 
HETATM   18  C   UNL     1     -10.939   7.084  68.801  1.00  0.00    -0.150 C  
HETATM   19  C   UNL     1      -8.572  10.407  69.444  1.00  0.00    -0.143 C  
HETATM   20  C   UNL     1      -7.496   9.615  70.186  1.00  0.00    -0.157 C  
HETATM   21  C   UNL     1      -8.130   8.618  71.154  1.00  0.00    -0.176 C  
HETATM   22  C   UNL     1      -9.061   7.580  70.489  1.00  0.00    -0.156 C  
HETATM   23  C   UNL     1      -8.202   6.531  69.734  1.00  0.00    -0.126 C  
HETATM   24  C   UNL     1      -9.055   5.438  69.103  1.00  0.00    -0.107 C  
HETATM   25  O   UNL     1      -9.795   4.741  70.104  1.00  0.00    -0.199 OA 
HETATM   26  C   UNL     1     -10.011   6.080  68.108  1.00  0.00    -0.168 C  
ENDROOT
BRANCH   8  27
HETATM   27  C   UNL     1     -12.473  14.006  70.457  1.00  0.00    -0.429 C  
HETATM   28  O   UNL     1     -11.759  16.331  70.501  1.00  0.00    -0.303 OA 
HETATM   29  C   UNL     1     -12.608  15.487  70.731  1.00  0.00    -0.452 C  
HETATM   30  O   UNL     1     -13.821  15.803  71.248  1.00  0.00    -0.547 OA 
ENDBRANCH   8  27
TORSDOF 1
ENDMDL
MODEL       26
REMARK 921   NORMALIZED FREE ENERGY PREDICTED BY IDOCK:   -5.44 KCAL/MOL
REMARK 922        TOTAL FREE ENERGY PREDICTED BY IDOCK:   -6.07 KCAL/MOL
REMARK 923 INTER-LIGAND FREE ENERGY PREDICTED BY IDOCK:   -5.88 KCAL/MOL
REMARK 924 INTRA-LIGAND FREE ENERGY PREDICTED BY IDOCK:   -0.19 KCAL/MOL
REMARK 927      BINDING AFFINITY PREDICTED BY RF-SCORE:    0.00 PKD
ROOT
HETATM    1  C   UNL     1      -7.580   8.742  69.725  1.00  0.00    -0.072 C  
HETATM    2  C   UNL     1      -7.147   9.533  70.820  1.00  0.00    -0.106 C  
HETATM    3  C   UNL     1      -8.624   9.333  70.741  1.00  0.00    -0.254 C  
HETATM    4  C   UNL     1      -9.161   7.977  69.313  1.00  0.00    -0.152 C  
HETATM    5  C   UNL     1     -10.361   7.147  68.525  1.00  0.00    -0.203 C  
HETATM    6  C   UNL     1      -8.947   7.672  70.625  1.00  0.00    -0.153 C  
HETATM    7  C   UNL     1     -11.390   6.265  69.253  1.00  0.00    -0.411 C  
HETATM    8  C   UNL     1      -9.673   6.168  67.443  1.00  0.00    -0.133 C  
HETATM    9  C   UNL     1     -10.578   8.431  70.968  1.00  0.00    -0.214 C  
HETATM   10  C   UNL     1      -8.477   6.438  71.314  1.00  0.00    -0.123 C  
HETATM   11  O   UNL     1     -10.738   8.952  72.299  1.00  0.00    -0.320 OA 
HETATM   12  C   UNL     1     -11.001  10.758  66.646  1.00  0.00    -0.173 C  
HETATM   13  C   UNL     1     -11.002   9.671  69.823  1.00  0.00    -0.266 C  
HETATM   14  H   UNL     1     -11.583   9.347  72.477  1.00  0.00     0.000 HD 
HETATM   15  C   UNL     1     -10.458  11.570  67.838  1.00  0.00    -0.211 C  
HETATM   16  C   UNL     1      -9.858  10.610  68.946  1.00  0.00    -0.210 C  
HETATM   17  H   UNL     1     -11.729  15.528  67.665  1.00  0.00     0.000 HD 
HETATM   18  C   UNL     1     -11.670  12.395  68.398  1.00  0.00    -0.386 C  
HETATM   19  C   UNL     1      -8.364   9.920  68.493  1.00  0.00    -0.108 C  
HETATM   20  C   UNL     1      -7.401  11.032  68.077  1.00  0.00    -0.088 C  
HETATM   21  C   UNL     1      -8.004  11.878  66.957  1.00  0.00    -0.158 C  
HETATM   22  C   UNL     1      -9.339  12.565  67.319  1.00  0.00    -0.190 C  
HETATM   23  C   UNL     1      -9.061  13.756  68.274  1.00  0.00    -0.195 C  
HETATM   24  C   UNL     1     -10.332  14.519  68.624  1.00  0.00    -0.242 C  
HETATM   25  O   UNL     1     -10.936  15.051  67.447  1.00  0.00    -0.298 OA 
HETATM   26  C   UNL     1     -11.298  13.566  69.314  1.00  0.00    -0.317 C  
ENDROOT
BRANCH   8  27
HETATM   27  C   UNL     1     -10.627   5.456  66.456  1.00  0.00    -0.353 C  
HETATM   28  O   UNL     1      -8.706   4.645  65.204  1.00  0.00    -0.129 OA 
HETATM   29  C   UNL     1      -9.914   4.708  65.352  1.00  0.00    -0.148 C  
HETATM   30  O   UNL     1     -10.778   4.063  64.529  1.00  0.00    -0.269 OA 
ENDBRANCH   8  27
TORSDOF 1
ENDMDL
MODEL       27
REMARK 921   NORMALIZED FREE ENERGY PREDICTED BY IDOCK:   -5.33 KCAL/MOL
REMARK 922        TOTAL FREE ENERGY PREDICTED BY IDOCK:   -5.95 KCAL/MOL
REMARK 923 INTER-LIGAND FREE ENERGY PREDICTED BY IDOCK:   -5.73 KCAL/MOL
REMARK 924 INTRA-LIGAND FREE ENERGY PREDICTED BY IDOCK:   -0.22 KCAL/MOL
REMARK 927      BINDING AFFINITY PREDICTED BY RF-SCORE:    0.00 PKD
ROOT
HETATM    1  C   UNL     1     -11.153   9.327  69.079  1.00  0.00     0.023 C  
HETATM    2  C   UNL     1     -10.692   8.839  70.327  1.00  0.00    -0.249 C  
HETATM    3  C   UNL     1      -9.669   9.579  69.532  1.00  0.00    -0.201 C  
HETATM    4  C   UNL     1     -10.457  10.484  67.880  1.00  0.00    -0.247 C  
HETATM    5  C   UNL     1     -10.228  11.418  66.529  1.00  0.00    -0.259 C  
HETATM    6  C   UNL     1     -10.305  11.090  69.093  1.00  0.00    -0.210 C  
HETATM    7  C   UNL     1      -9.610  12.825  66.577  1.00  0.00    -0.257 C  
HETATM    8  C   UNL     1     -11.656  11.619  65.806  1.00  0.00    -0.088 C  
HETATM    9  C   UNL     1      -8.521  11.213  68.699  1.00  0.00    -0.153 C  
HETATM   10  C   UNL     1     -11.050  12.180  69.781  1.00  0.00     0.042 C  
HETATM   11  O   UNL     1      -7.648  11.271  69.841  1.00  0.00    -0.306 OA 
HETATM   12  C   UNL     1      -8.571   7.975  64.986  1.00  0.00    -0.037 C  
HETATM   13  C   UNL     1      -7.973   9.949  67.635  1.00  0.00    -0.109 C  
HETATM   14  H   UNL     1      -6.723  11.334  69.637  1.00  0.00     0.000 HD 
HETATM   15  C   UNL     1      -8.150   7.455  66.374  1.00  0.00    -0.118 C  
HETATM   16  C   UNL     1      -8.706   8.397  67.520  1.00  0.00    -0.136 C  
HETATM   17  H   UNL     1      -5.205   4.533  66.056  1.00  0.00     0.000 HD 
HETATM   18  C   UNL     1      -6.580   7.425  66.376  1.00  0.00    -0.053 C  
HETATM   19  C   UNL     1     -10.388   8.234  67.760  1.00  0.00    -0.296 C  
HETATM   20  C   UNL     1     -10.724   6.759  67.980  1.00  0.00    -0.302 C  
HETATM   21  C   UNL     1     -10.228   5.911  66.810  1.00  0.00    -0.269 C  
HETATM   22  C   UNL     1      -8.705   5.983  66.565  1.00  0.00    -0.128 C  
HETATM   23  C   UNL     1      -7.970   5.169  67.662  1.00  0.00    -0.099 C  
HETATM   24  C   UNL     1      -6.462   5.146  67.446  1.00  0.00    -0.049 C  
HETATM   25  O   UNL     1      -6.146   4.548  66.191  1.00  0.00    -0.029 OA 
HETATM   26  C   UNL     1      -5.943   6.576  67.482  1.00  0.00    -0.017 C  
ENDROOT
BRANCH   8  27
HETATM   27  C   UNL     1     -11.630  12.287  64.411  1.00  0.00    -0.428 C  
HETATM   28  O   UNL     1     -13.220  13.953  65.194  1.00  0.00    -0.768 OA 
HETATM   29  C   UNL     1     -12.522  13.504  64.302  1.00  0.00    -0.252 C  
HETATM   30  O   UNL     1     -12.445  14.087  63.080  1.00  0.00    -0.733 OA 
ENDBRANCH   8  27
TORSDOF 1
ENDMDL
MODEL       28
REMARK 921   NORMALIZED FREE ENERGY PREDICTED BY IDOCK:   -5.30 KCAL/MOL
REMARK 922        TOTAL FREE ENERGY PREDICTED BY IDOCK:   -5.92 KCAL/MOL
REMARK 923 INTER-LIGAND FREE ENERGY PREDICTED BY IDOCK:   -5.71 KCAL/MOL
REMARK 924 INTRA-LIGAND FREE ENERGY PREDICTED BY IDOCK:   -0.20 KCAL/MOL
REMARK 927      BINDING AFFINITY PREDICTED BY RF-SCORE:    0.00 PKD
ROOT
HETATM    1  C   UNL     1      -7.492  12.756  68.480  1.00  0.00    -0.120 C  
HETATM    2  C   UNL     1      -6.490  13.448  67.752  1.00  0.00    -0.165 C  
HETATM    3  C   UNL     1      -7.831  13.427  67.099  1.00  0.00    -0.035 C  
HETATM    4  C   UNL     1      -9.286  12.657  68.307  1.00  0.00    -0.184 C  
HETATM    5  C   UNL     1     -10.878  12.249  68.527  1.00  0.00    -0.267 C  
HETATM    6  C   UNL     1      -8.989  13.985  68.207  1.00  0.00    -0.190 C  
HETATM    7  C   UNL     1     -12.032  13.251  68.362  1.00  0.00    -0.336 C  
HETATM    8  C   UNL     1     -11.048  11.668  70.022  1.00  0.00     0.085 C  
HETATM    9  C   UNL     1      -9.868  13.962  66.601  1.00  0.00    -0.284 C  
HETATM   10  C   UNL     1      -9.097  15.122  69.162  1.00  0.00    -0.215 C  
HETATM   11  O   UNL     1      -9.445  14.966  65.662  1.00  0.00    -0.466 OA 
HETATM   12  C   UNL     1      -9.924   9.061  66.097  1.00  0.00    -0.311 C  
HETATM   13  C   UNL     1      -9.816  12.406  65.822  1.00  0.00    -0.253 C  
HETATM   14  H   UNL     1      -9.901  14.954  64.828  1.00  0.00     0.000 HD 
HETATM   15  C   UNL     1      -8.798   9.834  65.382  1.00  0.00    -0.199 C  
HETATM   16  C   UNL     1      -8.567  11.246  66.061  1.00  0.00    -0.130 C  
HETATM   17  H   UNL     1      -7.823   8.056  61.749  1.00  0.00     0.000 HD 
HETATM   18  C   UNL     1      -9.251   9.991  63.887  1.00  0.00    -0.317 C  
HETATM   19  C   UNL     1      -7.788  11.139  67.576  1.00  0.00    -0.117 C  
HETATM   20  C   UNL     1      -6.501  10.329  67.424  1.00  0.00    -0.067 C  
HETATM   21  C   UNL     1      -6.796   8.951  66.833  1.00  0.00    -0.077 C  
HETATM   22  C   UNL     1      -7.465   8.980  65.441  1.00  0.00    -0.089 C  
HETATM   23  C   UNL     1      -6.412   9.379  64.374  1.00  0.00    -0.089 C  
HETATM   24  C   UNL     1      -6.990   9.366  62.964  1.00  0.00    -0.097 C  
HETATM   25  O   UNL     1      -7.462   8.063  62.629  1.00  0.00    -0.099 OA 
HETATM   26  C   UNL     1      -8.139  10.363  62.901  1.00  0.00    -0.157 C  
ENDROOT
BRANCH   8  27
HETATM   27  C   UNL     1     -12.418  11.033  70.359  1.00  0.00    -0.397 C  
HETATM   28  O   UNL     1     -11.300   9.413  71.789  1.00  0.00    -0.379 OA 
HETATM   29  C   UNL     1     -12.328   9.860  71.311  1.00  0.00    -0.381 C  
HETATM   30  O   UNL     1     -13.548   9.354  71.616  1.00  0.00    -0.378 OA 
ENDBRANCH   8  27
TORSDOF 1
ENDMDL
MODEL       29
REMARK 921   NORMALIZED FREE ENERGY PREDICTED BY IDOCK:   -5.30 KCAL/MOL
REMARK 922        TOTAL FREE ENERGY PREDICTED BY IDOCK:   -5.91 KCAL/MOL
REMARK 923 INTER-LIGAND FREE ENERGY PREDICTED BY IDOCK:   -5.60 KCAL/MOL
REMARK 924 INTRA-LIGAND FREE ENERGY PREDICTED BY IDOCK:   -0.31 KCAL/MOL
REMARK 927      BINDING AFFINITY PREDICTED BY RF-SCORE:    0.00 PKD
ROOT
HETATM    1  C   UNL     1      -6.806   9.530  67.711  1.00  0.00    -0.078 C  
HETATM    2  C   UNL     1      -6.089   8.313  67.586  1.00  0.00    -0.051 C  
HETATM    3  C   UNL     1      -7.488   8.267  67.069  1.00  0.00    -0.088 C  
HETATM    4  C   UNL     1      -8.376  10.105  67.030  1.00  0.00    -0.125 C  
HETATM    5  C   UNL     1      -9.708  11.030  66.684  1.00  0.00    -0.226 C  
HETATM    6  C   UNL     1      -7.712   9.546  65.978  1.00  0.00    -0.100 C  
HETATM    7  C   UNL     1     -10.366  11.068  65.295  1.00  0.00    -0.338 C  
HETATM    8  C   UNL     1      -9.355  12.569  67.014  1.00  0.00    -0.210 C  
HETATM    9  C   UNL     1      -9.182   8.481  65.740  1.00  0.00    -0.146 C  
HETATM   10  C   UNL     1      -6.951  10.127  64.837  1.00  0.00    -0.131 C  
HETATM   11  O   UNL     1      -8.922   7.220  65.098  1.00  0.00    -0.361 OA 
HETATM   12  C   UNL     1     -11.198   9.367  70.147  1.00  0.00    -0.253 C  
HETATM   13  C   UNL     1     -10.054   8.190  67.218  1.00  0.00    -0.309 C  
HETATM   14  H   UNL     1      -9.685   6.668  64.975  1.00  0.00     0.000 HD 
HETATM   15  C   UNL     1     -10.346   8.091  70.001  1.00  0.00    -0.218 C  
HETATM   16  C   UNL     1      -9.341   8.222  68.784  1.00  0.00    -0.143 C  
HETATM   17  H   UNL     1     -11.880   4.984  72.305  1.00  0.00     0.000 HD 
HETATM   18  C   UNL     1     -11.355   6.909  69.780  1.00  0.00    -0.288 C  
HETATM   19  C   UNL     1      -8.041   9.281  69.102  1.00  0.00    -0.106 C  
HETATM   20  C   UNL     1      -7.356   8.861  70.402  1.00  0.00    -0.070 C  
HETATM   21  C   UNL     1      -8.359   8.823  71.554  1.00  0.00    -0.212 C  
HETATM   22  C   UNL     1      -9.540   7.850  71.345  1.00  0.00    -0.187 C  
HETATM   23  C   UNL     1      -9.044   6.392  71.530  1.00  0.00    -0.144 C  
HETATM   24  C   UNL     1     -10.174   5.380  71.399  1.00  0.00    -0.216 C  
HETATM   25  O   UNL     1     -11.175   5.616  72.387  1.00  0.00    -0.268 OA 
HETATM   26  C   UNL     1     -10.782   5.506  70.008  1.00  0.00    -0.356 C  
ENDROOT
BRANCH   8  27
HETATM   27  C   UNL     1     -10.533  13.570  66.959  1.00  0.00    -0.265 C  
HETATM   28  O   UNL     1     -11.189  12.901  69.204  1.00  0.00    -0.256 OA 
HETATM   29  C   UNL     1     -11.373  13.591  68.216  1.00  0.00    -0.294 C  
HETATM   30  O   UNL     1     -12.371  14.508  68.150  1.00  0.00    -0.159 OA 
ENDBRANCH   8  27
TORSDOF 1
ENDMDL
MODEL       30
REMARK 921   NORMALIZED FREE ENERGY PREDICTED BY IDOCK:   -5.28 KCAL/MOL
REMARK 922        TOTAL FREE ENERGY PREDICTED BY IDOCK:   -5.90 KCAL/MOL
REMARK 923 INTER-LIGAND FREE ENERGY PREDICTED BY IDOCK:   -5.71 KCAL/MOL
REMARK 924 INTRA-LIGAND FREE ENERGY PREDICTED BY IDOCK:   -0.19 KCAL/MOL
REMARK 927      BINDING AFFINITY PREDICTED BY RF-SCORE:    0.00 PKD
ROOT
HETATM    1  C   UNL     1     -11.383  14.187  65.992  1.00  0.00    -0.330 C  
HETATM    2  C   UNL     1     -12.580  13.488  66.293  1.00  0.00    -0.298 C  
HETATM    3  C   UNL     1     -11.588  13.533  67.406  1.00  0.00    -0.392 C  
HETATM    4  C   UNL     1     -10.013  14.770  67.011  1.00  0.00    -0.238 C  
HETATM    5  C   UNL     1      -8.579  15.442  67.503  1.00  0.00    -0.187 C  
HETATM    6  C   UNL     1     -11.141  15.146  67.679  1.00  0.00    -0.318 C  
HETATM    7  C   UNL     1      -8.430  16.242  68.808  1.00  0.00    -0.240 C  
HETATM    8  C   UNL     1      -8.067  16.443  66.347  1.00  0.00    -0.357 C  
HETATM    9  C   UNL     1     -10.474  14.238  69.122  1.00  0.00    -0.159 C  
HETATM   10  C   UNL     1     -11.854  16.448  67.811  1.00  0.00     0.560 C  
HETATM   11  O   UNL     1     -11.464  13.755  70.048  1.00  0.00    -0.435 OA 
HETATM   12  C   UNL     1      -7.056  11.714  66.629  1.00  0.00    -0.025 C  
HETATM   13  C   UNL     1      -9.434  12.918  68.671  1.00  0.00    -0.002 C  
HETATM   14  H   UNL     1     -11.118  13.284  70.796  1.00  0.00     0.000 HD 
HETATM   15  C   UNL     1      -8.399  11.009  66.903  1.00  0.00    -0.138 C  
HETATM   16  C   UNL     1      -9.544  12.067  67.179  1.00  0.00    -0.195 C  
HETATM   17  H   UNL     1      -7.851   6.938  67.566  1.00  0.00     0.000 HD 
HETATM   18  C   UNL     1      -8.165  10.086  68.152  1.00  0.00    -0.109 C  
HETATM   19  C   UNL     1     -10.047  12.889  65.770  1.00  0.00    -0.294 C  
HETATM   20  C   UNL     1     -10.422  11.866  64.698  1.00  0.00    -0.340 C  
HETATM   21  C   UNL     1      -9.255  10.919  64.422  1.00  0.00    -0.223 C  
HETATM   22  C   UNL     1      -8.777  10.114  65.651  1.00  0.00    -0.173 C  
HETATM   23  C   UNL     1      -9.807   8.996  65.963  1.00  0.00    -0.312 C  
HETATM   24  C   UNL     1      -9.368   8.121  67.130  1.00  0.00    -0.145 C  
HETATM   25  O   UNL     1      -8.125   7.484  66.838  1.00  0.00    -0.112 OA 
HETATM   26  C   UNL     1      -9.220   8.996  68.367  1.00  0.00    -0.137 C  
ENDROOT
BRANCH   8  27
HETATM   27  C   UNL     1      -6.639  17.014  66.515  1.00  0.00    -0.254 C  
HETATM   28  O   UNL     1      -7.360  19.090  65.472  1.00  0.00    -0.477 OA 
HETATM   29  C   UNL     1      -6.482  18.425  65.992  1.00  0.00    -0.236 C  
HETATM   30  O   UNL     1      -5.231  18.909  66.192  1.00  0.00    -0.141 OA 
ENDBRANCH   8  27
TORSDOF 1
ENDMDL
MODEL       31
REMARK 921   NORMALIZED FREE ENERGY PREDICTED BY IDOCK:   -5.27 KCAL/MOL
REMARK 922        TOTAL FREE ENERGY PREDICTED BY IDOCK:   -5.88 KCAL/MOL
REMARK 923 INTER-LIGAND FREE ENERGY PREDICTED BY IDOCK:   -5.67 KCAL/MOL
REMARK 924 INTRA-LIGAND FREE ENERGY PREDICTED BY IDOCK:   -0.22 KCAL/MOL
REMARK 927      BINDING AFFINITY PREDICTED BY RF-SCORE:    0.00 PKD
ROOT
HETATM    1  C   UNL     1     -11.347   6.958  70.180  1.00  0.00    -0.364 C  
HETATM    2  C   UNL     1     -11.359   6.275  71.423  1.00  0.00    -0.353 C  
HETATM    3  C   UNL     1     -10.186   7.173  71.218  1.00  0.00    -0.199 C  
HETATM    4  C   UNL     1     -10.358   8.325  69.541  1.00  0.00    -0.219 C  
HETATM    5  C   UNL     1      -9.716   9.485  68.545  1.00  0.00    -0.162 C  
HETATM    6  C   UNL     1     -10.745   8.716  70.789  1.00  0.00    -0.260 C  
HETATM    7  C   UNL     1      -9.304  10.882  69.040  1.00  0.00    -0.144 C  
HETATM    8  C   UNL     1     -10.766   9.765  67.353  1.00  0.00    -0.314 C  
HETATM    9  C   UNL     1      -8.969   8.961  71.159  1.00  0.00    -0.241 C  
HETATM   10  C   UNL     1     -11.800   9.647  71.277  1.00  0.00    -0.460 C  
HETATM   11  O   UNL     1      -8.615   8.847  72.549  1.00  0.00    -0.396 OA 
HETATM   12  C   UNL     1      -7.266   6.415  67.299  1.00  0.00    -0.078 C  
HETATM   13  C   UNL     1      -7.932   7.918  70.227  1.00  0.00    -0.102 C  
HETATM   14  H   UNL     1      -7.694   8.974  72.740  1.00  0.00     0.000 HD 
HETATM   15  C   UNL     1      -7.366   5.676  68.648  1.00  0.00    -0.079 C  
HETATM   16  C   UNL     1      -8.410   6.387  69.604  1.00  0.00    -0.126 C  
HETATM   17  H   UNL     1      -4.259   2.946  69.100  1.00  0.00     0.000 HD 
HETATM   18  C   UNL     1      -5.924   5.694  69.269  1.00  0.00    -0.023 C  
HETATM   19  C   UNL     1     -10.030   6.133  69.130  1.00  0.00    -0.190 C  
HETATM   20  C   UNL     1     -10.280   4.633  68.979  1.00  0.00    -0.032 C  
HETATM   21  C   UNL     1      -9.291   4.016  67.991  1.00  0.00    -0.220 C  
HETATM   22  C   UNL     1      -7.806   4.177  68.385  1.00  0.00    -0.073 C  
HETATM   23  C   UNL     1      -7.477   3.208  69.551  1.00  0.00    -0.044 C  
HETATM   24  C   UNL     1      -6.009   3.269  69.951  1.00  0.00    -0.023 C  
HETATM   25  O   UNL     1      -5.176   2.908  68.851  1.00  0.00    -0.011 OA 
HETATM   26  C   UNL     1      -5.685   4.687  70.399  1.00  0.00    -0.016 C  
ENDROOT
BRANCH   8  27
HETATM   27  C   UNL     1     -10.268  10.664  66.197  1.00  0.00    -0.308 C  
HETATM   28  O   UNL     1     -12.158  12.152  66.558  1.00  0.00    -0.627 OA 
HETATM   29  C   UNL     1     -11.143  11.872  65.944  1.00  0.00    -0.316 C  
HETATM   30  O   UNL     1     -10.657  12.659  64.953  1.00  0.00    -0.286 OA 
ENDBRANCH   8  27
TORSDOF 1
ENDMDL
MODEL       32
REMARK 921   NORMALIZED FREE ENERGY PREDICTED BY IDOCK:   -5.24 KCAL/MOL
REMARK 922        TOTAL FREE ENERGY PREDICTED BY IDOCK:   -5.86 KCAL/MOL
REMARK 923 INTER-LIGAND FREE ENERGY PREDICTED BY IDOCK:   -5.92 KCAL/MOL
REMARK 924 INTRA-LIGAND FREE ENERGY PREDICTED BY IDOCK:    0.06 KCAL/MOL
REMARK 927      BINDING AFFINITY PREDICTED BY RF-SCORE:    0.00 PKD
ROOT
HETATM    1  C   UNL     1      -8.478   8.938  64.424  1.00  0.00    -0.170 C  
HETATM    2  C   UNL     1      -7.585   9.669  63.599  1.00  0.00    -0.124 C  
HETATM    3  C   UNL     1      -7.442   9.934  65.061  1.00  0.00    -0.134 C  
HETATM    4  C   UNL     1      -8.558   8.666  66.206  1.00  0.00    -0.151 C  
HETATM    5  C   UNL     1      -9.045   8.171  67.712  1.00  0.00    -0.140 C  
HETATM    6  C   UNL     1      -7.253   8.455  65.870  1.00  0.00    -0.072 C  
HETATM    7  C   UNL     1      -8.061   7.742  68.814  1.00  0.00    -0.126 C  
HETATM    8  C   UNL     1     -10.038   6.913  67.535  1.00  0.00    -0.222 C  
HETATM    9  C   UNL     1      -6.827   9.720  67.125  1.00  0.00    -0.083 C  
HETATM   10  C   UNL     1      -6.444   7.220  65.672  1.00  0.00    -0.044 C  
HETATM   11  O   UNL     1      -5.585  10.409  66.896  1.00  0.00    -0.044 OA 
HETATM   12  C   UNL     1     -11.371  11.570  67.578  1.00  0.00    -0.366 C  
HETATM   13  C   UNL     1      -8.089  10.896  67.356  1.00  0.00    -0.114 C  
HETATM   14  H   UNL     1      -5.364  11.065  67.546  1.00  0.00     0.000 HD 
HETATM   15  C   UNL     1     -10.401  12.298  66.627  1.00  0.00    -0.237 C  
HETATM   16  C   UNL     1      -9.242  11.327  66.154  1.00  0.00    -0.222 C  
HETATM   17  H   UNL     1     -11.029  16.410  66.695  1.00  0.00     0.000 HD 
HETATM   18  C   UNL     1      -9.826  13.518  67.431  1.00  0.00    -0.227 C  
HETATM   19  C   UNL     1      -9.769  10.158  65.028  1.00  0.00    -0.384 C  
HETATM   20  C   UNL     1     -10.474  10.860  63.867  1.00  0.00    -0.359 C  
HETATM   21  C   UNL     1     -11.626  11.723  64.377  1.00  0.00    -0.325 C  
HETATM   22  C   UNL     1     -11.209  12.829  65.372  1.00  0.00    -0.327 C  
HETATM   23  C   UNL     1     -10.496  13.970  64.599  1.00  0.00    -0.398 C  
HETATM   24  C   UNL     1     -10.110  15.127  65.512  1.00  0.00    -0.370 C  
HETATM   25  O   UNL     1     -11.270  15.688  66.126  1.00  0.00    -0.200 OA 
HETATM   26  C   UNL     1      -9.161  14.607  66.583  1.00  0.00    -0.291 C  
ENDROOT
BRANCH   8  27
HETATM   27  C   UNL     1     -10.771   6.431  68.810  1.00  0.00    -0.339 C  
HETATM   28  O   UNL     1      -9.125   4.660  69.071  1.00  0.00    -0.105 OA 
HETATM   29  C   UNL     1     -10.124   5.233  69.468  1.00  0.00    -0.252 C  
HETATM   30  O   UNL     1     -10.767   4.864  70.603  1.00  0.00    -0.093 OA 
ENDBRANCH   8  27
TORSDOF 1
ENDMDL
MODEL       33
REMARK 921   NORMALIZED FREE ENERGY PREDICTED BY IDOCK:   -5.21 KCAL/MOL
REMARK 922        TOTAL FREE ENERGY PREDICTED BY IDOCK:   -5.82 KCAL/MOL
REMARK 923 INTER-LIGAND FREE ENERGY PREDICTED BY IDOCK:   -5.63 KCAL/MOL
REMARK 924 INTRA-LIGAND FREE ENERGY PREDICTED BY IDOCK:   -0.19 KCAL/MOL
REMARK 927      BINDING AFFINITY PREDICTED BY RF-SCORE:    0.00 PKD
ROOT
HETATM    1  C   UNL     1      -8.872   9.686  69.750  1.00  0.00    -0.224 C  
HETATM    2  C   UNL     1      -8.018   9.284  70.809  1.00  0.00    -0.187 C  
HETATM    3  C   UNL     1      -7.531   8.924  69.445  1.00  0.00    -0.077 C  
HETATM    4  C   UNL     1      -8.658   9.756  67.960  1.00  0.00    -0.122 C  
HETATM    5  C   UNL     1      -8.936   9.966  66.338  1.00  0.00    -0.169 C  
HETATM    6  C   UNL     1      -7.528  10.318  68.478  1.00  0.00    -0.084 C  
HETATM    7  C   UNL     1      -7.878  10.520  65.369  1.00  0.00    -0.119 C  
HETATM    8  C   UNL     1     -10.205  10.947  66.166  1.00  0.00    -0.304 C  
HETATM    9  C   UNL     1      -6.585   9.086  67.505  1.00  0.00    -0.065 C  
HETATM   10  C   UNL     1      -7.078  11.729  68.634  1.00  0.00    -0.101 C  
HETATM   11  O   UNL     1      -5.289   8.755  68.036  1.00  0.00    -0.034 OA 
HETATM   12  C   UNL     1     -10.405   6.122  66.556  1.00  0.00    -0.186 C  
HETATM   13  C   UNL     1      -7.474   7.614  67.232  1.00  0.00    -0.100 C  
HETATM   14  H   UNL     1      -4.801   8.116  67.532  1.00  0.00     0.000 HD 
HETATM   15  C   UNL     1      -9.503   5.756  67.751  1.00  0.00    -0.116 C  
HETATM   16  C   UNL     1      -8.713   7.026  68.271  1.00  0.00    -0.127 C  
HETATM   17  H   UNL     1      -9.151   1.630  68.159  1.00  0.00     0.000 HD 
HETATM   18  C   UNL     1      -8.518   4.647  67.236  1.00  0.00    -0.104 C  
HETATM   19  C   UNL     1      -9.705   8.129  69.116  1.00  0.00    -0.163 C  
HETATM   20  C   UNL     1     -10.447   7.388  70.228  1.00  0.00    -0.229 C  
HETATM   21  C   UNL     1     -11.248   6.219  69.657  1.00  0.00    -0.506 C  
HETATM   22  C   UNL     1     -10.401   5.162  68.914  1.00  0.00    -0.186 C  
HETATM   23  C   UNL     1      -9.614   4.315  69.949  1.00  0.00    -0.279 C  
HETATM   24  C   UNL     1      -8.802   3.209  69.287  1.00  0.00    -0.098 C  
HETATM   25  O   UNL     1      -9.658   2.320  68.572  1.00  0.00    -0.186 OA 
HETATM   26  C   UNL     1      -7.804   3.845  68.330  1.00  0.00    -0.069 C  
ENDROOT
BRANCH   8  27
HETATM   27  C   UNL     1     -10.761  11.104  64.731  1.00  0.00    -0.334 C  
HETATM   28  O   UNL     1     -12.531  12.535  65.588  1.00  0.00    -0.648 OA 
HETATM   29  C   UNL     1     -11.988  11.985  64.646  1.00  0.00    -0.249 C  
HETATM   30  O   UNL     1     -12.424  12.134  63.371  1.00  0.00    -0.568 OA 
ENDBRANCH   8  27
TORSDOF 1
ENDMDL
MODEL       34
REMARK 921   NORMALIZED FREE ENERGY PREDICTED BY IDOCK:   -5.19 KCAL/MOL
REMARK 922        TOTAL FREE ENERGY PREDICTED BY IDOCK:   -5.80 KCAL/MOL
REMARK 923 INTER-LIGAND FREE ENERGY PREDICTED BY IDOCK:   -5.60 KCAL/MOL
REMARK 924 INTRA-LIGAND FREE ENERGY PREDICTED BY IDOCK:   -0.20 KCAL/MOL
REMARK 927      BINDING AFFINITY PREDICTED BY RF-SCORE:    0.00 PKD
ROOT
HETATM    1  C   UNL     1      -7.306   9.460  70.479  1.00  0.00    -0.138 C  
HETATM    2  C   UNL     1      -6.165   8.800  71.003  1.00  0.00    -0.047 C  
HETATM    3  C   UNL     1      -6.847   8.076  69.891  1.00  0.00    -0.041 C  
HETATM    4  C   UNL     1      -8.309   9.190  69.003  1.00  0.00    -0.127 C  
HETATM    5  C   UNL     1      -9.491   9.316  67.846  1.00  0.00    -0.154 C  
HETATM    6  C   UNL     1      -7.016   9.130  68.573  1.00  0.00    -0.067 C  
HETATM    7  C   UNL     1      -9.223   9.108  66.346  1.00  0.00    -0.233 C  
HETATM    8  C   UNL     1     -10.141  10.789  67.947  1.00  0.00    -0.197 C  
HETATM    9  C   UNL     1      -7.421   7.479  67.892  1.00  0.00    -0.105 C  
HETATM   10  C   UNL     1      -6.141  10.098  67.856  1.00  0.00    -0.052 C  
HETATM   11  O   UNL     1      -6.303   6.582  67.767  1.00  0.00    -0.039 OA 
HETATM   12  C   UNL     1     -11.619   6.884  70.402  1.00  0.00    -0.385 C  
HETATM   13  C   UNL     1      -8.691   6.676  68.771  1.00  0.00    -0.128 C  
HETATM   14  H   UNL     1      -6.513   5.725  67.415  1.00  0.00     0.000 HD 
HETATM   15  C   UNL     1     -10.345   6.244  70.989  1.00  0.00    -0.258 C  
HETATM   16  C   UNL     1      -9.048   6.960  70.430  1.00  0.00    -0.156 C  
HETATM   17  H   UNL     1     -11.205   2.638  72.877  1.00  0.00     0.000 HD 
HETATM   18  C   UNL     1     -10.380   4.730  70.576  1.00  0.00    -0.187 C  
HETATM   19  C   UNL     1      -8.803   8.513  71.096  1.00  0.00    -0.223 C  
HETATM   20  C   UNL     1      -8.824   8.415  72.621  1.00  0.00    -0.288 C  
HETATM   21  C   UNL     1     -10.129   7.785  73.105  1.00  0.00    -0.390 C  
HETATM   22  C   UNL     1     -10.390   6.359  72.569  1.00  0.00    -0.212 C  
HETATM   23  C   UNL     1      -9.458   5.358  73.301  1.00  0.00    -0.146 C  
HETATM   24  C   UNL     1      -9.706   3.919  72.865  1.00  0.00    -0.130 C  
HETATM   25  O   UNL     1     -11.050   3.535  73.149  1.00  0.00    -0.156 OA 
HETATM   26  C   UNL     1      -9.444   3.812  71.369  1.00  0.00    -0.225 C  
ENDROOT
BRANCH   8  27
HETATM   27  C   UNL     1     -11.406  11.041  67.093  1.00  0.00    -0.214 C  
HETATM   28  O   UNL     1     -10.569  13.254  66.530  1.00  0.00    -0.281 OA 
HETATM   29  C   UNL     1     -11.432  12.400  66.429  1.00  0.00    -0.373 C  
HETATM   30  O   UNL     1     -12.534  12.571  65.657  1.00  0.00    -0.648 OA 
ENDBRANCH   8  27
TORSDOF 1
ENDMDL
MODEL       35
REMARK 921   NORMALIZED FREE ENERGY PREDICTED BY IDOCK:   -5.12 KCAL/MOL
REMARK 922        TOTAL FREE ENERGY PREDICTED BY IDOCK:   -5.73 KCAL/MOL
REMARK 923 INTER-LIGAND FREE ENERGY PREDICTED BY IDOCK:   -5.52 KCAL/MOL
REMARK 924 INTRA-LIGAND FREE ENERGY PREDICTED BY IDOCK:   -0.20 KCAL/MOL
REMARK 927      BINDING AFFINITY PREDICTED BY RF-SCORE:    0.00 PKD
ROOT
HETATM    1  C   UNL     1      -8.118  15.646  68.066  1.00  0.00    -0.140 C  
HETATM    2  C   UNL     1      -7.411  16.068  66.911  1.00  0.00    -0.253 C  
HETATM    3  C   UNL     1      -8.643  15.274  66.632  1.00  0.00    -0.305 C  
HETATM    4  C   UNL     1      -9.756  14.926  68.308  1.00  0.00    -0.215 C  
HETATM    5  C   UNL     1     -11.103  14.254  69.001  1.00  0.00    -0.284 C  
HETATM    6  C   UNL     1      -9.948  15.976  67.458  1.00  0.00    -0.240 C  
HETATM    7  C   UNL     1     -12.535  14.575  68.541  1.00  0.00     0.166 C  
HETATM    8  C   UNL     1     -11.090  14.604  70.576  1.00  0.00    -0.062 C  
HETATM    9  C   UNL     1     -10.725  14.780  66.310  1.00  0.00    -0.313 C  
HETATM   10  C   UNL     1     -10.474  17.355  67.655  1.00  0.00    -0.368 C  
HETATM   11  O   UNL     1     -10.666  15.145  64.920  1.00  0.00    -0.424 OA 
HETATM   12  C   UNL     1      -9.025  10.726  68.535  1.00  0.00    -0.160 C  
HETATM   13  C   UNL     1     -10.106  13.164  66.494  1.00  0.00    -0.280 C  
HETATM   14  H   UNL     1     -11.069  14.525  64.324  1.00  0.00     0.000 HD 
HETATM   15  C   UNL     1      -8.232  11.256  67.324  1.00  0.00    -0.140 C  
HETATM   16  C   UNL     1      -8.533  12.792  67.082  1.00  0.00    -0.181 C  
HETATM   17  H   UNL     1      -6.607   8.132  65.107  1.00  0.00     0.000 HD 
HETATM   18  C   UNL     1      -8.677  10.390  66.092  1.00  0.00    -0.163 C  
HETATM   19  C   UNL     1      -7.801  13.806  68.244  1.00  0.00    -0.144 C  
HETATM   20  C   UNL     1      -6.307  13.492  68.316  1.00  0.00    -0.104 C  
HETATM   21  C   UNL     1      -6.080  12.012  68.623  1.00  0.00    -0.053 C  
HETATM   22  C   UNL     1      -6.684  11.041  67.585  1.00  0.00    -0.073 C  
HETATM   23  C   UNL     1      -5.818  11.062  66.298  1.00  0.00    -0.148 C  
HETATM   24  C   UNL     1      -6.322  10.078  65.250  1.00  0.00    -0.107 C  
HETATM   25  O   UNL     1      -6.293   8.746  65.760  1.00  0.00    -0.055 OA 
HETATM   26  C   UNL     1      -7.748  10.455  64.875  1.00  0.00    -0.084 C  
ENDROOT
BRANCH   8  27
HETATM   27  C   UNL     1     -12.152  13.892  71.447  1.00  0.00    -0.180 C  
HETATM   28  O   UNL     1     -12.637  16.002  72.556  1.00  0.00    -0.439 OA 
HETATM   29  C   UNL     1     -12.854  14.810  72.423  1.00  0.00    -0.348 C  
HETATM   30  O   UNL     1     -13.805  14.163  73.140  1.00  0.00    -0.429 OA 
ENDBRANCH   8  27
TORSDOF 1
ENDMDL
MODEL       36
REMARK 921   NORMALIZED FREE ENERGY PREDICTED BY IDOCK:   -5.11 KCAL/MOL
REMARK 922        TOTAL FREE ENERGY PREDICTED BY IDOCK:   -5.72 KCAL/MOL
REMARK 923 INTER-LIGAND FREE ENERGY PREDICTED BY IDOCK:   -5.53 KCAL/MOL
REMARK 924 INTRA-LIGAND FREE ENERGY PREDICTED BY IDOCK:   -0.18 KCAL/MOL
REMARK 927      BINDING AFFINITY PREDICTED BY RF-SCORE:    0.00 PKD
ROOT
HETATM    1  C   UNL     1     -11.276   7.992  69.146  1.00  0.00     0.315 C  
HETATM    2  C   UNL     1     -11.084   7.194  70.303  1.00  0.00    -0.303 C  
HETATM    3  C   UNL     1      -9.914   8.042  69.930  1.00  0.00    -0.189 C  
HETATM    4  C   UNL     1     -10.339   9.358  68.428  1.00  0.00    -0.238 C  
HETATM    5  C   UNL     1      -9.831  10.572  67.419  1.00  0.00    -0.204 C  
HETATM    6  C   UNL     1     -10.434   9.648  69.758  1.00  0.00    -0.263 C  
HETATM    7  C   UNL     1      -9.225  11.890  67.930  1.00  0.00    -0.187 C  
HETATM    8  C   UNL     1     -11.079  11.022  66.501  1.00  0.00    -0.174 C  
HETATM    9  C   UNL     1      -8.606   9.758  69.764  1.00  0.00    -0.201 C  
HETATM   10  C   UNL     1     -11.295  10.584  70.532  1.00  0.00    -0.400 C  
HETATM   11  O   UNL     1      -7.986   9.492  71.035  1.00  0.00    -0.321 OA 
HETATM   12  C   UNL     1      -7.922   7.506  65.436  1.00  0.00    -0.124 C  
HETATM   13  C   UNL     1      -7.862   8.754  68.553  1.00  0.00    -0.104 C  
HETATM   14  H   UNL     1      -7.037   9.548  71.038  1.00  0.00     0.000 HD 
HETATM   15  C   UNL     1      -7.798   6.647  66.710  1.00  0.00    -0.107 C  
HETATM   16  C   UNL     1      -8.569   7.319  67.919  1.00  0.00    -0.120 C  
HETATM   17  H   UNL     1      -4.874   3.719  66.271  1.00  0.00     0.000 HD 
HETATM   18  C   UNL     1      -6.262   6.526  67.013  1.00  0.00    -0.040 C  
HETATM   19  C   UNL     1     -10.265   7.201  67.777  1.00  0.00    -0.234 C  
HETATM   20  C   UNL     1     -10.651   5.738  67.559  1.00  0.00    -0.327 C  
HETATM   21  C   UNL     1      -9.934   5.166  66.338  1.00  0.00    -0.236 C  
HETATM   22  C   UNL     1      -8.392   5.206  66.422  1.00  0.00    -0.108 C  
HETATM   23  C   UNL     1      -7.904   4.113  67.409  1.00  0.00    -0.091 C  
HETATM   24  C   UNL     1      -6.384   4.055  67.495  1.00  0.00    -0.037 C  
HETATM   25  O   UNL     1      -5.822   3.756  66.218  1.00  0.00    -0.021 OA 
HETATM   26  C   UNL     1      -5.871   5.403  67.980  1.00  0.00    -0.017 C  
ENDROOT
BRANCH   8  27
HETATM   27  C   UNL     1     -10.763  12.000  65.345  1.00  0.00    -0.330 C  
HETATM   28  O   UNL     1     -13.146  12.271  64.940  1.00  0.00    -0.654 OA 
HETATM   29  C   UNL     1     -11.994  12.547  64.656  1.00  0.00    -0.404 C  
HETATM   30  O   UNL     1     -11.682  13.431  63.676  1.00  0.00    -0.411 OA 
ENDBRANCH   8  27
TORSDOF 1
ENDMDL
MODEL       37
REMARK 921   NORMALIZED FREE ENERGY PREDICTED BY IDOCK:   -5.06 KCAL/MOL
REMARK 922        TOTAL FREE ENERGY PREDICTED BY IDOCK:   -5.66 KCAL/MOL
REMARK 923 INTER-LIGAND FREE ENERGY PREDICTED BY IDOCK:   -5.48 KCAL/MOL
REMARK 924 INTRA-LIGAND FREE ENERGY PREDICTED BY IDOCK:   -0.18 KCAL/MOL
REMARK 927      BINDING AFFINITY PREDICTED BY RF-SCORE:    0.00 PKD
ROOT
HETATM    1  C   UNL     1     -11.167  11.516  66.836  1.00  0.00    -0.363 C  
HETATM    2  C   UNL     1     -11.347  11.998  65.514  1.00  0.00    -0.381 C  
HETATM    3  C   UNL     1      -9.923  11.815  65.921  1.00  0.00    -0.266 C  
HETATM    4  C   UNL     1      -9.732  10.872  67.722  1.00  0.00    -0.183 C  
HETATM    5  C   UNL     1      -8.745  10.266  68.909  1.00  0.00    -0.152 C  
HETATM    6  C   UNL     1      -9.721  10.238  66.514  1.00  0.00    -0.243 C  
HETATM    7  C   UNL     1      -7.653   9.218  68.638  1.00  0.00    -0.081 C  
HETATM    8  C   UNL     1      -9.673   9.607  70.051  1.00  0.00    -0.280 C  
HETATM    9  C   UNL     1      -8.015  10.870  66.308  1.00  0.00    -0.161 C  
HETATM   10  C   UNL     1     -10.126   8.871  66.084  1.00  0.00    -0.209 C  
HETATM   11  O   UNL     1      -7.586  11.027  64.943  1.00  0.00    -0.332 OA 
HETATM   12  C   UNL     1      -8.255  14.236  69.897  1.00  0.00     0.878 C  
HETATM   13  C   UNL     1      -7.737  12.362  67.160  1.00  0.00    -0.122 C  
HETATM   14  H   UNL     1      -6.701  11.355  64.836  1.00  0.00     0.000 HD 
HETATM   15  C   UNL     1      -8.525  14.715  68.457  1.00  0.00    -0.161 C  
HETATM   16  C   UNL     1      -8.966  13.505  67.535  1.00  0.00    -0.210 C  
HETATM   17  H   UNL     1      -7.085  18.572  67.859  1.00  0.00     0.000 HD 
HETATM   18  C   UNL     1      -7.186  15.358  67.947  1.00  0.00    -0.160 C  
HETATM   19  C   UNL     1     -10.554  12.967  67.855  1.00  0.00    -0.239 C  
HETATM   20  C   UNL     1     -11.512  14.156  67.783  1.00  0.00    -0.352 C  
HETATM   21  C   UNL     1     -11.077  15.260  68.746  1.00  0.00    -0.273 C  
HETATM   22  C   UNL     1      -9.661  15.819  68.483  1.00  0.00    -0.206 C  
HETATM   23  C   UNL     1      -9.693  16.723  67.223  1.00  0.00    -0.250 C  
HETATM   24  C   UNL     1      -8.338  17.360  66.939  1.00  0.00    -0.235 C  
HETATM   25  O   UNL     1      -7.930  18.175  68.036  1.00  0.00    -0.249 OA 
HETATM   26  C   UNL     1      -7.318  16.253  66.711  1.00  0.00    -0.244 C  
ENDROOT
BRANCH   8  27
HETATM   27  C   UNL     1      -8.956   9.169  71.350  1.00  0.00    -0.144 C  
HETATM   28  O   UNL     1     -11.069   8.334  72.219  1.00  0.00    -0.308 OA 
HETATM   29  C   UNL     1      -9.873   8.516  72.361  1.00  0.00    -0.288 C  
HETATM   30  O   UNL     1      -9.206   8.109  73.469  1.00  0.00    -0.264 OA 
ENDBRANCH   8  27
TORSDOF 1
ENDMDL
MODEL       38
REMARK 921   NORMALIZED FREE ENERGY PREDICTED BY IDOCK:   -5.02 KCAL/MOL
REMARK 922        TOTAL FREE ENERGY PREDICTED BY IDOCK:   -5.62 KCAL/MOL
REMARK 923 INTER-LIGAND FREE ENERGY PREDICTED BY IDOCK:   -5.44 KCAL/MOL
REMARK 924 INTRA-LIGAND FREE ENERGY PREDICTED BY IDOCK:   -0.18 KCAL/MOL
REMARK 927      BINDING AFFINITY PREDICTED BY RF-SCORE:    0.00 PKD
ROOT
HETATM    1  C   UNL     1     -11.669  13.075  67.654  1.00  0.00    -0.415 C  
HETATM    2  C   UNL     1     -12.658  13.639  66.808  1.00  0.00    -0.082 C  
HETATM    3  C   UNL     1     -11.270  13.692  66.263  1.00  0.00    -0.313 C  
HETATM    4  C   UNL     1      -9.938  12.634  67.392  1.00  0.00    -0.204 C  
HETATM    5  C   UNL     1      -8.382  12.115  67.635  1.00  0.00    -0.163 C  
HETATM    6  C   UNL     1     -10.603  12.133  66.311  1.00  0.00    -0.285 C  
HETATM    7  C   UNL     1      -7.586  11.325  66.583  1.00  0.00    -0.140 C  
HETATM    8  C   UNL     1      -8.359  11.184  68.952  1.00  0.00    -0.101 C  
HETATM    9  C   UNL     1      -9.441  13.095  65.273  1.00  0.00     0.310 C  
HETATM   10  C   UNL     1     -11.056  10.762  65.947  1.00  0.00     0.119 C  
HETATM   11  O   UNL     1      -9.945  13.461  63.976  1.00  0.00    -0.764 OA 
HETATM   12  C   UNL     1      -7.768  15.992  68.889  1.00  0.00    -0.196 C  
HETATM   13  C   UNL     1      -8.844  14.523  66.068  1.00  0.00     0.343 C  
HETATM   14  H   UNL     1      -9.343  13.960  63.437  1.00  0.00     0.000 HD 
HETATM   15  C   UNL     1      -8.900  16.547  68.002  1.00  0.00    -0.197 C  
HETATM   16  C   UNL     1      -9.694  15.370  67.301  1.00  0.00    -0.212 C  
HETATM   17  H   UNL     1      -8.488  20.647  67.428  1.00  0.00     0.000 HD 
HETATM   18  C   UNL     1      -8.213  17.478  66.941  1.00  0.00    -0.253 C  
HETATM   19  C   UNL     1     -10.703  14.511  68.378  1.00  0.00    -0.246 C  
HETATM   20  C   UNL     1     -11.613  15.498  69.109  1.00  0.00    -0.374 C  
HETATM   21  C   UNL     1     -10.789  16.566  69.825  1.00  0.00    -0.302 C  
HETATM   22  C   UNL     1      -9.884  17.407  68.898  1.00  0.00    -0.286 C  
HETATM   23  C   UNL     1     -10.759  18.405  68.095  1.00  0.00    -0.208 C  
HETATM   24  C   UNL     1      -9.922  19.313  67.202  1.00  0.00    -0.360 C  
HETATM   25  O   UNL     1      -9.010  20.081  67.985  1.00  0.00    -0.309 OA 
HETATM   26  C   UNL     1      -9.151  18.448  66.215  1.00  0.00    -0.213 C  
ENDROOT
BRANCH   8  27
HETATM   27  C   UNL     1      -6.964  10.768  69.475  1.00  0.00    -0.130 C  
HETATM   28  O   UNL     1      -8.026   9.362  71.151  1.00  0.00    -0.322 OA 
HETATM   29  C   UNL     1      -7.012   9.799  70.635  1.00  0.00    -0.094 C  
HETATM   30  O   UNL     1      -5.774   9.424  71.041  1.00  0.00    -0.047 OA 
ENDBRANCH   8  27
TORSDOF 1
ENDMDL
MODEL       39
REMARK 921   NORMALIZED FREE ENERGY PREDICTED BY IDOCK:   -5.01 KCAL/MOL
REMARK 922        TOTAL FREE ENERGY PREDICTED BY IDOCK:   -5.61 KCAL/MOL
REMARK 923 INTER-LIGAND FREE ENERGY PREDICTED BY IDOCK:   -5.41 KCAL/MOL
REMARK 924 INTRA-LIGAND FREE ENERGY PREDICTED BY IDOCK:   -0.19 KCAL/MOL
REMARK 927      BINDING AFFINITY PREDICTED BY RF-SCORE:    0.00 PKD
ROOT
HETATM    1  C   UNL     1     -10.973  13.479  65.643  1.00  0.00    -0.296 C  
HETATM    2  C   UNL     1     -12.227  12.820  65.567  1.00  0.00    -0.519 C  
HETATM    3  C   UNL     1     -11.607  12.822  66.924  1.00  0.00    -0.428 C  
HETATM    4  C   UNL     1      -9.947  14.006  67.031  1.00  0.00    -0.257 C  
HETATM    5  C   UNL     1      -8.701  14.623  67.935  1.00  0.00    -0.169 C  
HETATM    6  C   UNL     1     -11.210  14.417  67.343  1.00  0.00    -0.337 C  
HETATM    7  C   UNL     1      -8.919  15.408  69.239  1.00  0.00    -0.261 C  
HETATM    8  C   UNL     1      -7.840  15.614  66.998  1.00  0.00    -0.266 C  
HETATM    9  C   UNL     1     -11.027  13.477  68.903  1.00  0.00    -0.252 C  
HETATM   10  C   UNL     1     -11.888  15.742  67.281  1.00  0.00     0.440 C  
HETATM   11  O   UNL     1     -12.261  13.023  69.487  1.00  0.00    -0.248 OA 
HETATM   12  C   UNL     1      -7.107  10.850  67.486  1.00  0.00    -0.090 C  
HETATM   13  C   UNL     1      -9.943  12.123  68.756  1.00  0.00    -0.066 C  
HETATM   14  H   UNL     1     -12.167  12.534  70.296  1.00  0.00     0.000 HD 
HETATM   15  C   UNL     1      -8.493  10.191  67.340  1.00  0.00    -0.122 C  
HETATM   16  C   UNL     1      -9.635  11.287  67.284  1.00  0.00    -0.188 C  
HETATM   17  H   UNL     1      -8.295   6.099  68.066  1.00  0.00     0.000 HD 
HETATM   18  C   UNL     1      -8.668   9.252  68.586  1.00  0.00    -0.132 C  
HETATM   19  C   UNL     1      -9.673  12.135  65.803  1.00  0.00    -0.245 C  
HETATM   20  C   UNL     1      -9.747  11.133  64.651  1.00  0.00    -0.308 C  
HETATM   21  C   UNL     1      -8.581  10.148  64.716  1.00  0.00    -0.191 C  
HETATM   22  C   UNL     1      -8.514   9.318  66.017  1.00  0.00    -0.144 C  
HETATM   23  C   UNL     1      -9.625   8.235  65.993  1.00  0.00    -0.151 C  
HETATM   24  C   UNL     1      -9.577   7.337  67.222  1.00  0.00    -0.152 C  
HETATM   25  O   UNL     1      -8.325   6.659  67.299  1.00  0.00    -0.119 OA 
HETATM   26  C   UNL     1      -9.774   8.198  68.462  1.00  0.00    -0.170 C  
ENDROOT
BRANCH   8  27
HETATM   27  C   UNL     1      -6.508  16.133  67.589  1.00  0.00    -0.190 C  
HETATM   28  O   UNL     1      -7.414  18.390  67.613  1.00  0.00    -0.220 OA 
HETATM   29  C   UNL     1      -6.494  17.624  67.842  1.00  0.00    -0.179 C  
HETATM   30  O   UNL     1      -5.329  18.039  68.398  1.00  0.00    -0.154 OA 
ENDBRANCH   8  27
TORSDOF 1
ENDMDL
MODEL       40
REMARK 921   NORMALIZED FREE ENERGY PREDICTED BY IDOCK:   -4.98 KCAL/MOL
REMARK 922        TOTAL FREE ENERGY PREDICTED BY IDOCK:   -5.58 KCAL/MOL
REMARK 923 INTER-LIGAND FREE ENERGY PREDICTED BY IDOCK:   -5.27 KCAL/MOL
REMARK 924 INTRA-LIGAND FREE ENERGY PREDICTED BY IDOCK:   -0.31 KCAL/MOL
REMARK 927      BINDING AFFINITY PREDICTED BY RF-SCORE:    0.00 PKD
ROOT
HETATM    1  C   UNL     1      -7.625   8.642  69.547  1.00  0.00    -0.088 C  
HETATM    2  C   UNL     1      -7.993   9.224  70.788  1.00  0.00    -0.187 C  
HETATM    3  C   UNL     1      -9.141   8.812  69.928  1.00  0.00    -0.158 C  
HETATM    4  C   UNL     1      -8.557   7.745  68.288  1.00  0.00    -0.124 C  
HETATM    5  C   UNL     1      -8.971   6.932  66.904  1.00  0.00    -0.128 C  
HETATM    6  C   UNL     1      -8.933   7.190  69.476  1.00  0.00    -0.140 C  
HETATM    7  C   UNL     1      -9.960   5.755  66.885  1.00  0.00    -0.200 C  
HETATM    8  C   UNL     1      -7.623   6.347  66.239  1.00  0.00    -0.090 C  
HETATM    9  C   UNL     1     -10.658   7.579  69.000  1.00  0.00    -0.180 C  
HETATM   10  C   UNL     1      -8.559   5.925  70.167  1.00  0.00    -0.134 C  
HETATM   11  O   UNL     1     -11.568   7.753  70.102  1.00  0.00    -0.473 OA 
HETATM   12  C   UNL     1      -9.517  10.723  65.383  1.00  0.00    -0.258 C  
HETATM   13  C   UNL     1     -10.776   8.961  67.949  1.00  0.00    -0.185 C  
HETATM   14  H   UNL     1     -12.462   7.956  69.855  1.00  0.00     0.000 HD 
HETATM   15  C   UNL     1      -9.844  11.321  66.765  1.00  0.00    -0.227 C  
HETATM   16  C   UNL     1      -9.632  10.246  67.908  1.00  0.00    -0.161 C  
HETATM   17  H   UNL     1     -11.831  14.958  66.398  1.00  0.00     0.000 HD 
HETATM   18  C   UNL     1     -11.340  11.792  66.699  1.00  0.00    -0.381 C  
HETATM   19  C   UNL     1      -7.986   9.925  68.227  1.00  0.00    -0.100 C  
HETATM   20  C   UNL     1      -7.262  11.243  68.502  1.00  0.00    -0.094 C  
HETATM   21  C   UNL     1      -7.440  12.212  67.334  1.00  0.00    -0.156 C  
HETATM   22  C   UNL     1      -8.909  12.574  67.021  1.00  0.00    -0.212 C  
HETATM   23  C   UNL     1      -9.440  13.547  68.106  1.00  0.00    -0.214 C  
HETATM   24  C   UNL     1     -10.868  13.997  67.825  1.00  0.00    -0.247 C  
HETATM   25  O   UNL     1     -10.941  14.677  66.573  1.00  0.00    -0.307 OA 
HETATM   26  C   UNL     1     -11.768  12.770  67.798  1.00  0.00    -0.412 C  
ENDROOT
BRANCH   8  27
HETATM   27  C   UNL     1      -7.765   5.733  64.826  1.00  0.00    -0.096 C  
HETATM   28  O   UNL     1      -7.704   7.966  63.864  1.00  0.00    -0.123 OA 
HETATM   29  C   UNL     1      -7.783   6.759  63.715  1.00  0.00    -0.111 C  
HETATM   30  O   UNL     1      -7.868   6.186  62.489  1.00  0.00    -0.079 OA 
ENDBRANCH   8  27
TORSDOF 1
ENDMDL
MODEL       41
REMARK 921   NORMALIZED FREE ENERGY PREDICTED BY IDOCK:   -4.93 KCAL/MOL
REMARK 922        TOTAL FREE ENERGY PREDICTED BY IDOCK:   -5.53 KCAL/MOL
REMARK 923 INTER-LIGAND FREE ENERGY PREDICTED BY IDOCK:   -5.31 KCAL/MOL
REMARK 924 INTRA-LIGAND FREE ENERGY PREDICTED BY IDOCK:   -0.22 KCAL/MOL
REMARK 927      BINDING AFFINITY PREDICTED BY RF-SCORE:    0.00 PKD
ROOT
HETATM    1  C   UNL     1      -7.059   8.717  69.795  1.00  0.00    -0.051 C  
HETATM    2  C   UNL     1      -6.700   9.650  70.801  1.00  0.00    -0.096 C  
HETATM    3  C   UNL     1      -8.116   9.182  70.862  1.00  0.00    -0.201 C  
HETATM    4  C   UNL     1      -8.498   7.651  69.567  1.00  0.00    -0.132 C  
HETATM    5  C   UNL     1      -9.579   6.562  68.937  1.00  0.00    -0.128 C  
HETATM    6  C   UNL     1      -8.133   7.485  70.871  1.00  0.00    -0.104 C  
HETATM    7  C   UNL     1     -10.368   5.565  69.802  1.00  0.00    -0.366 C  
HETATM    8  C   UNL     1      -8.804   5.647  67.858  1.00  0.00    -0.105 C  
HETATM    9  C   UNL     1      -9.845   7.961  71.311  1.00  0.00    -0.168 C  
HETATM   10  C   UNL     1      -7.391   6.410  71.587  1.00  0.00    -0.088 C  
HETATM   11  O   UNL     1      -9.998   8.541  72.619  1.00  0.00    -0.278 OA 
HETATM   12  C   UNL     1     -11.018   9.852  66.915  1.00  0.00    -0.047 C  
HETATM   13  C   UNL     1     -10.578   9.017  70.138  1.00  0.00    -0.250 C  
HETATM   14  H   UNL     1     -10.887   8.788  72.847  1.00  0.00     0.000 HD 
HETATM   15  C   UNL     1     -10.547  10.833  68.006  1.00  0.00    -0.245 C  
HETATM   16  C   UNL     1      -9.697  10.081  69.111  1.00  0.00    -0.217 C  
HETATM   17  H   UNL     1     -12.541  14.474  67.717  1.00  0.00     0.000 HD 
HETATM   18  C   UNL     1     -11.846  11.465  68.622  1.00  0.00    -0.377 C  
HETATM   19  C   UNL     1      -8.140   9.640  68.570  1.00  0.00    -0.104 C  
HETATM   20  C   UNL     1      -7.434  10.875  68.008  1.00  0.00    -0.090 C  
HETATM   21  C   UNL     1      -8.266  11.514  66.898  1.00  0.00    -0.167 C  
HETATM   22  C   UNL     1      -9.675  11.973  67.335  1.00  0.00    -0.185 C  
HETATM   23  C   UNL     1      -9.552  13.261  68.192  1.00  0.00    -0.227 C  
HETATM   24  C   UNL     1     -10.913  13.806  68.607  1.00  0.00    -0.266 C  
HETATM   25  O   UNL     1     -11.692  14.133  67.458  1.00  0.00    -0.344 OA 
HETATM   26  C   UNL     1     -11.630  12.747  69.432  1.00  0.00    -0.361 C  
ENDROOT
BRANCH   8  27
HETATM   27  C   UNL     1      -9.681   4.705  67.000  1.00  0.00    -0.216 C  
HETATM   28  O   UNL     1      -8.545   5.492  64.998  1.00  0.00    -0.149 OA 
HETATM   29  C   UNL     1      -9.382   4.775  65.519  1.00  0.00    -0.159 C  
HETATM   30  O   UNL     1     -10.139   3.909  64.802  1.00  0.00    -0.196 OA 
ENDBRANCH   8  27
TORSDOF 1
ENDMDL
MODEL       42
REMARK 921   NORMALIZED FREE ENERGY PREDICTED BY IDOCK:   -4.93 KCAL/MOL
REMARK 922        TOTAL FREE ENERGY PREDICTED BY IDOCK:   -5.52 KCAL/MOL
REMARK 923 INTER-LIGAND FREE ENERGY PREDICTED BY IDOCK:   -5.34 KCAL/MOL
REMARK 924 INTRA-LIGAND FREE ENERGY PREDICTED BY IDOCK:   -0.18 KCAL/MOL
REMARK 927      BINDING AFFINITY PREDICTED BY RF-SCORE:    0.00 PKD
ROOT
HETATM    1  C   UNL     1      -7.484   6.290  67.708  1.00  0.00    -0.093 C  
HETATM    2  C   UNL     1      -7.909   4.943  67.587  1.00  0.00    -0.094 C  
HETATM    3  C   UNL     1      -9.015   5.937  67.703  1.00  0.00    -0.107 C  
HETATM    4  C   UNL     1      -8.357   7.867  67.604  1.00  0.00    -0.124 C  
HETATM    5  C   UNL     1      -8.706   9.488  67.621  1.00  0.00    -0.122 C  
HETATM    6  C   UNL     1      -8.792   7.144  66.532  1.00  0.00    -0.154 C  
HETATM    7  C   UNL     1      -9.698  10.143  66.646  1.00  0.00    -0.242 C  
HETATM    8  C   UNL     1      -7.330  10.304  67.419  1.00  0.00    -0.093 C  
HETATM    9  C   UNL     1     -10.491   7.423  67.157  1.00  0.00    -0.333 C  
HETATM   10  C   UNL     1      -8.457   7.181  65.081  1.00  0.00    -0.023 C  
HETATM   11  O   UNL     1     -11.452   6.424  66.771  1.00  0.00    -0.733 OA 
HETATM   12  C   UNL     1      -9.164   8.883  71.671  1.00  0.00    -0.302 C  
HETATM   13  C   UNL     1     -10.553   7.626  68.884  1.00  0.00    -0.176 C  
HETATM   14  H   UNL     1     -12.333   6.568  67.096  1.00  0.00     0.000 HD 
HETATM   15  C   UNL     1      -9.555   7.403  71.491  1.00  0.00    -0.163 C  
HETATM   16  C   UNL     1      -9.403   6.961  69.978  1.00  0.00    -0.158 C  
HETATM   17  H   UNL     1     -11.509   5.943  74.862  1.00  0.00     0.000 HD 
HETATM   18  C   UNL     1     -11.045   7.279  71.972  1.00  0.00    -0.277 C  
HETATM   19  C   UNL     1      -7.776   6.785  69.494  1.00  0.00    -0.104 C  
HETATM   20  C   UNL     1      -7.060   5.848  70.467  1.00  0.00    -0.071 C  
HETATM   21  C   UNL     1      -7.179   6.364  71.900  1.00  0.00    -0.087 C  
HETATM   22  C   UNL     1      -8.629   6.507  72.413  1.00  0.00    -0.119 C  
HETATM   23  C   UNL     1      -9.208   5.099  72.712  1.00  0.00    -0.146 C  
HETATM   24  C   UNL     1     -10.619   5.168  73.282  1.00  0.00    -0.239 C  
HETATM   25  O   UNL     1     -10.629   5.900  74.506  1.00  0.00    -0.189 OA 
HETATM   26  C   UNL     1     -11.522   5.853  72.265  1.00  0.00    -0.351 C  
ENDROOT
BRANCH   8  27
HETATM   27  C   UNL     1      -7.405  11.837  67.614  1.00  0.00    -0.119 C  
HETATM   28  O   UNL     1      -5.132  12.043  66.773  1.00  0.00    -0.267 OA 
HETATM   29  C   UNL     1      -6.143  12.565  67.210  1.00  0.00    -0.117 C  
HETATM   30  O   UNL     1      -6.258  13.908  67.355  1.00  0.00    -0.335 OA 
ENDBRANCH   8  27
TORSDOF 1
ENDMDL
MODEL       43
REMARK 921   NORMALIZED FREE ENERGY PREDICTED BY IDOCK:   -4.90 KCAL/MOL
REMARK 922        TOTAL FREE ENERGY PREDICTED BY IDOCK:   -5.49 KCAL/MOL
REMARK 923 INTER-LIGAND FREE ENERGY PREDICTED BY IDOCK:   -5.28 KCAL/MOL
REMARK 924 INTRA-LIGAND FREE ENERGY PREDICTED BY IDOCK:   -0.22 KCAL/MOL
REMARK 927      BINDING AFFINITY PREDICTED BY RF-SCORE:    0.00 PKD
ROOT
HETATM    1  C   UNL     1      -7.840   6.764  68.960  1.00  0.00    -0.111 C  
HETATM    2  C   UNL     1      -8.170   7.253  70.250  1.00  0.00    -0.133 C  
HETATM    3  C   UNL     1      -9.320   7.168  69.304  1.00  0.00    -0.146 C  
HETATM    4  C   UNL     1      -8.843   6.213  67.564  1.00  0.00    -0.106 C  
HETATM    5  C   UNL     1      -9.315   5.662  66.073  1.00  0.00    -0.150 C  
HETATM    6  C   UNL     1      -9.384   5.602  68.657  1.00  0.00    -0.142 C  
HETATM    7  C   UNL     1     -10.498   4.702  65.868  1.00  0.00    -0.305 C  
HETATM    8  C   UNL     1      -8.058   4.918  65.388  1.00  0.00    -0.114 C  
HETATM    9  C   UNL     1     -10.978   6.361  68.172  1.00  0.00    -0.307 C  
HETATM   10  C   UNL     1      -9.288   4.216  69.193  1.00  0.00    -0.235 C  
HETATM   11  O   UNL     1     -11.905   6.571  69.252  1.00  0.00    -0.608 OA 
HETATM   12  C   UNL     1      -9.071   9.641  65.029  1.00  0.00    -0.284 C  
HETATM   13  C   UNL     1     -10.781   7.855  67.302  1.00  0.00    -0.299 C  
HETATM   14  H   UNL     1     -12.732   6.965  69.001  1.00  0.00     0.000 HD 
HETATM   15  C   UNL     1      -9.366  10.122  66.464  1.00  0.00    -0.200 C  
HETATM   16  C   UNL     1      -9.422   8.898  67.467  1.00  0.00    -0.172 C  
HETATM   17  H   UNL     1     -10.635  14.084  66.490  1.00  0.00     0.000 HD 
HETATM   18  C   UNL     1     -10.745  10.870  66.403  1.00  0.00    -0.257 C  
HETATM   19  C   UNL     1      -7.884   8.239  67.802  1.00  0.00    -0.114 C  
HETATM   20  C   UNL     1      -6.949   9.355  68.269  1.00  0.00    -0.071 C  
HETATM   21  C   UNL     1      -6.879  10.472  67.229  1.00  0.00    -0.082 C  
HETATM   22  C   UNL     1      -8.236  11.138  66.911  1.00  0.00    -0.149 C  
HETATM   23  C   UNL     1      -8.645  12.058  68.091  1.00  0.00    -0.173 C  
HETATM   24  C   UNL     1      -9.949  12.798  67.818  1.00  0.00    -0.219 C  
HETATM   25  O   UNL     1      -9.822  13.623  66.661  1.00  0.00    -0.267 OA 
HETATM   26  C   UNL     1     -11.054  11.773  67.602  1.00  0.00    -0.312 C  
ENDROOT
BRANCH   8  27
HETATM   27  C   UNL     1      -8.225   4.513  63.904  1.00  0.00    -0.103 C  
HETATM   28  O   UNL     1      -7.735   2.204  64.493  1.00  0.00    -0.066 OA 
HETATM   29  C   UNL     1      -8.016   3.037  63.649  1.00  0.00    -0.081 C  
HETATM   30  O   UNL     1      -8.209   2.710  62.347  1.00  0.00    -0.070 OA 
ENDBRANCH   8  27
TORSDOF 1
ENDMDL
MODEL       44
REMARK 921   NORMALIZED FREE ENERGY PREDICTED BY IDOCK:   -4.90 KCAL/MOL
REMARK 922        TOTAL FREE ENERGY PREDICTED BY IDOCK:   -5.49 KCAL/MOL
REMARK 923 INTER-LIGAND FREE ENERGY PREDICTED BY IDOCK:   -5.24 KCAL/MOL
REMARK 924 INTRA-LIGAND FREE ENERGY PREDICTED BY IDOCK:   -0.25 KCAL/MOL
REMARK 927      BINDING AFFINITY PREDICTED BY RF-SCORE:    0.00 PKD
ROOT
HETATM    1  C   UNL     1      -9.487   5.969  67.442  1.00  0.00    -0.113 C  
HETATM    2  C   UNL     1      -8.348   5.567  66.699  1.00  0.00    -0.109 C  
HETATM    3  C   UNL     1      -8.051   6.069  68.072  1.00  0.00    -0.110 C  
HETATM    4  C   UNL     1      -9.736   6.377  69.182  1.00  0.00    -0.148 C  
HETATM    5  C   UNL     1     -10.425   6.846  70.616  1.00  0.00    -0.233 C  
HETATM    6  C   UNL     1      -9.011   5.222  69.185  1.00  0.00    -0.124 C  
HETATM    7  C   UNL     1     -10.073   6.201  71.967  1.00  0.00    -0.206 C  
HETATM    8  C   UNL     1     -12.025   6.682  70.486  1.00  0.00    -0.377 C  
HETATM    9  C   UNL     1      -7.787   6.108  70.220  1.00  0.00    -0.102 C  
HETATM   10  C   UNL     1      -9.375   3.797  69.419  1.00  0.00    -0.245 C  
HETATM   11  O   UNL     1      -6.440   5.609  70.130  1.00  0.00    -0.032 OA 
HETATM   12  C   UNL     1      -9.492  10.637  69.299  1.00  0.00    -0.152 C  
HETATM   13  C   UNL     1      -7.771   7.824  69.931  1.00  0.00    -0.095 C  
HETATM   14  H   UNL     1      -5.805   6.069  70.666  1.00  0.00     0.000 HD 
HETATM   15  C   UNL     1      -8.303  10.142  68.452  1.00  0.00    -0.113 C  
HETATM   16  C   UNL     1      -8.237   8.559  68.447  1.00  0.00    -0.123 C  
HETATM   17  H   UNL     1      -5.696  13.257  67.551  1.00  0.00     0.000 HD 
HETATM   18  C   UNL     1      -7.013  10.761  69.098  1.00  0.00    -0.091 C  
HETATM   19  C   UNL     1      -9.458   7.844  67.493  1.00  0.00    -0.175 C  
HETATM   20  C   UNL     1      -9.421   8.450  66.091  1.00  0.00    -0.263 C  
HETATM   21  C   UNL     1      -9.562   9.970  66.155  1.00  0.00    -0.265 C  
HETATM   22  C   UNL     1      -8.461  10.683  66.972  1.00  0.00    -0.129 C  
HETATM   23  C   UNL     1      -7.141  10.688  66.157  1.00  0.00    -0.138 C  
HETATM   24  C   UNL     1      -6.025  11.432  66.879  1.00  0.00    -0.122 C  
HETATM   25  O   UNL     1      -6.392  12.792  67.101  1.00  0.00    -0.227 OA 
HETATM   26  C   UNL     1      -5.763  10.744  68.211  1.00  0.00    -0.043 C  
ENDROOT
BRANCH   8  27
HETATM   27  C   UNL     1     -12.870   7.265  71.643  1.00  0.00    -0.415 C  
HETATM   28  O   UNL     1     -12.399   9.512  70.837  1.00  0.00    -0.288 OA 
HETATM   29  C   UNL     1     -12.942   8.776  71.643  1.00  0.00    -0.349 C  
HETATM   30  O   UNL     1     -13.723   9.252  72.644  1.00  0.00    -0.450 OA 
ENDBRANCH   8  27
TORSDOF 1
ENDMDL
MODEL       45
REMARK 921   NORMALIZED FREE ENERGY PREDICTED BY IDOCK:   -4.88 KCAL/MOL
REMARK 922        TOTAL FREE ENERGY PREDICTED BY IDOCK:   -5.47 KCAL/MOL
REMARK 923 INTER-LIGAND FREE ENERGY PREDICTED BY IDOCK:   -5.26 KCAL/MOL
REMARK 924 INTRA-LIGAND FREE ENERGY PREDICTED BY IDOCK:   -0.21 KCAL/MOL
REMARK 927      BINDING AFFINITY PREDICTED BY RF-SCORE:    0.00 PKD
ROOT
HETATM    1  C   UNL     1      -7.794  10.047  68.324  1.00  0.00    -0.089 C  
HETATM    2  C   UNL     1      -6.846   9.704  67.326  1.00  0.00    -0.083 C  
HETATM    3  C   UNL     1      -8.271   9.536  66.916  1.00  0.00    -0.113 C  
HETATM    4  C   UNL     1      -9.582  10.293  68.285  1.00  0.00    -0.151 C  
HETATM    5  C   UNL     1     -11.150  10.584  68.738  1.00  0.00    -0.315 C  
HETATM    6  C   UNL     1      -9.102  10.985  67.212  1.00  0.00    -0.142 C  
HETATM    7  C   UNL     1     -12.142  11.375  67.869  1.00  0.00     0.067 C  
HETATM    8  C   UNL     1     -11.133  11.359  70.152  1.00  0.00     0.064 C  
HETATM    9  C   UNL     1     -10.254  10.001  66.185  1.00  0.00    -0.213 C  
HETATM   10  C   UNL     1      -8.850  12.433  66.971  1.00  0.00    -0.210 C  
HETATM   11  O   UNL     1      -9.857   9.840  64.811  1.00  0.00    -0.413 OA 
HETATM   12  C   UNL     1     -11.177   6.549  69.577  1.00  0.00    -0.434 C  
HETATM   13  C   UNL     1     -10.593   8.432  66.859  1.00  0.00    -0.285 C  
HETATM   14  H   UNL     1     -10.454   9.329  64.278  1.00  0.00     0.000 HD 
HETATM   15  C   UNL     1     -10.094   6.238  68.525  1.00  0.00    -0.182 C  
HETATM   16  C   UNL     1      -9.521   7.573  67.895  1.00  0.00    -0.153 C  
HETATM   17  H   UNL     1     -10.098   2.202  67.512  1.00  0.00     0.000 HD 
HETATM   18  C   UNL     1     -10.784   5.345  67.433  1.00  0.00    -0.161 C  
HETATM   19  C   UNL     1      -8.504   8.432  68.963  1.00  0.00    -0.123 C  
HETATM   20  C   UNL     1      -7.412   7.496  69.480  1.00  0.00    -0.093 C  
HETATM   21  C   UNL     1      -8.025   6.263  70.141  1.00  0.00    -0.108 C  
HETATM   22  C   UNL     1      -8.926   5.418  69.213  1.00  0.00    -0.122 C  
HETATM   23  C   UNL     1      -8.037   4.628  68.217  1.00  0.00    -0.084 C  
HETATM   24  C   UNL     1      -8.859   3.723  67.308  1.00  0.00    -0.123 C  
HETATM   25  O   UNL     1      -9.585   2.767  68.079  1.00  0.00    -0.198 OA 
HETATM   26  C   UNL     1      -9.827   4.584  66.509  1.00  0.00    -0.244 C  
ENDROOT
BRANCH   8  27
HETATM   27  C   UNL     1     -12.501  11.539  70.853  1.00  0.00    -0.464 C  
HETATM   28  O   UNL     1     -12.036  13.912  71.119  1.00  0.00    -0.344 OA 
HETATM   29  C   UNL     1     -12.783  12.963  71.280  1.00  0.00    -0.278 C  
HETATM   30  O   UNL     1     -14.005  13.092  71.853  1.00  0.00    -0.266 OA 
ENDBRANCH   8  27
TORSDOF 1
ENDMDL
MODEL       46
REMARK 921   NORMALIZED FREE ENERGY PREDICTED BY IDOCK:   -4.82 KCAL/MOL
REMARK 922        TOTAL FREE ENERGY PREDICTED BY IDOCK:   -5.41 KCAL/MOL
REMARK 923 INTER-LIGAND FREE ENERGY PREDICTED BY IDOCK:   -5.25 KCAL/MOL
REMARK 924 INTRA-LIGAND FREE ENERGY PREDICTED BY IDOCK:   -0.16 KCAL/MOL
REMARK 927      BINDING AFFINITY PREDICTED BY RF-SCORE:    0.00 PKD
ROOT
HETATM    1  C   UNL     1     -12.224   9.170  71.599  1.00  0.00    -0.433 C  
HETATM    2  C   UNL     1     -13.493   9.030  70.980  1.00  0.00    -0.030 C  
HETATM    3  C   UNL     1     -12.360   8.421  70.224  1.00  0.00     0.653 C  
HETATM    4  C   UNL     1     -10.615   8.416  71.282  1.00  0.00    -0.279 C  
HETATM    5  C   UNL     1      -9.004   8.030  71.360  1.00  0.00    -0.173 C  
HETATM    6  C   UNL     1     -11.505   7.383  71.258  1.00  0.00    -0.297 C  
HETATM    7  C   UNL     1      -8.471   6.604  71.144  1.00  0.00    -0.126 C  
HETATM    8  C   UNL     1      -8.451   8.460  72.813  1.00  0.00    -0.224 C  
HETATM    9  C   UNL     1     -10.861   6.995  69.588  1.00  0.00    -0.247 C  
HETATM   10  C   UNL     1     -11.857   6.326  72.246  1.00  0.00    -0.326 C  
HETATM   11  O   UNL     1     -11.785   6.308  68.725  1.00  0.00    -0.369 OA 
HETATM   12  C   UNL     1      -8.567  11.299  68.889  1.00  0.00    -0.056 C  
HETATM   13  C   UNL     1     -10.249   8.395  68.755  1.00  0.00    -0.223 C  
HETATM   14  H   UNL     1     -11.452   6.107  67.859  1.00  0.00     0.000 HD 
HETATM   15  C   UNL     1      -9.982  11.145  68.296  1.00  0.00    -0.196 C  
HETATM   16  C   UNL     1     -10.785  10.004  69.046  1.00  0.00    -0.244 C  
HETATM   17  H   UNL     1     -10.328  13.181  64.684  1.00  0.00     0.000 HD 
HETATM   18  C   UNL     1      -9.788  10.797  66.777  1.00  0.00    -0.233 C  
HETATM   19  C   UNL     1     -11.287  10.461  70.612  1.00  0.00    -0.411 C  
HETATM   20  C   UNL     1     -12.054  11.780  70.530  1.00  0.00    -0.439 C  
HETATM   21  C   UNL     1     -11.203  12.860  69.864  1.00  0.00     0.093 C  
HETATM   22  C   UNL     1     -10.750  12.524  68.426  1.00  0.00    -0.259 C  
HETATM   23  C   UNL     1     -11.956  12.668  67.461  1.00  0.00    -0.314 C  
HETATM   24  C   UNL     1     -11.566  12.411  66.011  1.00  0.00    -0.401 C  
HETATM   25  O   UNL     1     -10.571  13.341  65.589  1.00  0.00    -0.274 OA 
HETATM   26  C   UNL     1     -11.027  10.992  65.897  1.00  0.00    -0.115 C  
ENDROOT
BRANCH   8  27
HETATM   27  C   UNL     1      -6.919   8.378  73.016  1.00  0.00    -0.108 C  
HETATM   28  O   UNL     1      -7.233   6.482  74.507  1.00  0.00    -0.098 OA 
HETATM   29  C   UNL     1      -6.487   7.264  73.943  1.00  0.00    -0.076 C  
HETATM   30  O   UNL     1      -5.139   7.195  74.067  1.00  0.00    -0.042 OA 
ENDBRANCH   8  27
TORSDOF 1
ENDMDL
MODEL       47
REMARK 921   NORMALIZED FREE ENERGY PREDICTED BY IDOCK:   -4.81 KCAL/MOL
REMARK 922        TOTAL FREE ENERGY PREDICTED BY IDOCK:   -5.40 KCAL/MOL
REMARK 923 INTER-LIGAND FREE ENERGY PREDICTED BY IDOCK:   -5.08 KCAL/MOL
REMARK 924 INTRA-LIGAND FREE ENERGY PREDICTED BY IDOCK:   -0.31 KCAL/MOL
REMARK 927      BINDING AFFINITY PREDICTED BY RF-SCORE:    0.00 PKD
ROOT
HETATM    1  C   UNL     1      -7.067   6.323  71.974  1.00  0.00    -0.082 C  
HETATM    2  C   UNL     1      -7.063   7.014  73.213  1.00  0.00    -0.073 C  
HETATM    3  C   UNL     1      -8.182   6.043  73.046  1.00  0.00    -0.116 C  
HETATM    4  C   UNL     1      -7.987   4.892  71.371  1.00  0.00    -0.105 C  
HETATM    5  C   UNL     1      -8.582   3.687  70.400  1.00  0.00    -0.109 C  
HETATM    6  C   UNL     1      -7.540   4.535  72.609  1.00  0.00    -0.085 C  
HETATM    7  C   UNL     1      -8.891   2.270  70.914  1.00  0.00    -0.130 C  
HETATM    8  C   UNL     1      -7.552   3.466  69.179  1.00  0.00    -0.051 C  
HETATM    9  C   UNL     1      -9.286   4.181  73.031  1.00  0.00    -0.110 C  
HETATM   10  C   UNL     1      -6.414   3.675  73.071  1.00  0.00    -0.024 C  
HETATM   11  O   UNL     1      -9.605   4.282  74.431  1.00  0.00    -0.106 OA 
HETATM   12  C   UNL     1     -11.255   6.588  69.210  1.00  0.00    -0.390 C  
HETATM   13  C   UNL     1     -10.412   5.151  72.126  1.00  0.00    -0.281 C  
HETATM   14  H   UNL     1     -10.511   4.099  74.650  1.00  0.00     0.000 HD 
HETATM   15  C   UNL     1     -11.164   7.342  70.552  1.00  0.00    -0.305 C  
HETATM   16  C   UNL     1     -10.050   6.704  71.480  1.00  0.00    -0.200 C  
HETATM   17  H   UNL     1     -14.422   9.874  71.081  1.00  0.00     0.000 HD 
HETATM   18  C   UNL     1     -12.583   7.237  71.215  1.00  0.00    -0.402 C  
HETATM   19  C   UNL     1      -8.464   7.056  70.958  1.00  0.00    -0.133 C  
HETATM   20  C   UNL     1      -8.313   8.568  70.792  1.00  0.00    -0.154 C  
HETATM   21  C   UNL     1      -9.366   9.115  69.831  1.00  0.00    -0.198 C  
HETATM   22  C   UNL     1     -10.827   8.864  70.268  1.00  0.00    -0.265 C  
HETATM   23  C   UNL     1     -11.182   9.818  71.439  1.00  0.00    -0.368 C  
HETATM   24  C   UNL     1     -12.632   9.668  71.881  1.00  0.00    -0.396 C  
HETATM   25  O   UNL     1     -13.518   9.968  70.804  1.00  0.00    -0.316 OA 
HETATM   26  C   UNL     1     -12.853   8.235  72.346  1.00  0.00    -0.261 C  
ENDROOT
BRANCH   8  27
HETATM   27  C   UNL     1      -8.025   2.529  68.043  1.00  0.00    -0.063 C  
HETATM   28  O   UNL     1      -9.301   4.363  67.080  1.00  0.00    -0.132 OA 
HETATM   29  C   UNL     1      -8.937   3.200  67.040  1.00  0.00    -0.162 C  
HETATM   30  O   UNL     1      -9.300   2.363  66.037  1.00  0.00    -0.066 OA 
ENDBRANCH   8  27
TORSDOF 1
ENDMDL
MODEL       48
REMARK 921   NORMALIZED FREE ENERGY PREDICTED BY IDOCK:   -4.76 KCAL/MOL
REMARK 922        TOTAL FREE ENERGY PREDICTED BY IDOCK:   -5.34 KCAL/MOL
REMARK 923 INTER-LIGAND FREE ENERGY PREDICTED BY IDOCK:   -5.09 KCAL/MOL
REMARK 924 INTRA-LIGAND FREE ENERGY PREDICTED BY IDOCK:   -0.25 KCAL/MOL
REMARK 927      BINDING AFFINITY PREDICTED BY RF-SCORE:    0.00 PKD
ROOT
HETATM    1  C   UNL     1      -7.289  10.625  68.105  1.00  0.00    -0.088 C  
HETATM    2  C   UNL     1      -6.256  10.610  67.133  1.00  0.00    -0.062 C  
HETATM    3  C   UNL     1      -7.623  10.357  66.592  1.00  0.00    -0.114 C  
HETATM    4  C   UNL     1      -9.089  10.654  67.982  1.00  0.00    -0.147 C  
HETATM    5  C   UNL     1     -10.703  10.654  68.364  1.00  0.00    -0.260 C  
HETATM    6  C   UNL     1      -8.655  11.603  67.103  1.00  0.00    -0.164 C  
HETATM    7  C   UNL     1     -11.748  11.479  67.594  1.00  0.00    -0.283 C  
HETATM    8  C   UNL     1     -10.859  11.122  69.899  1.00  0.00    -0.072 C  
HETATM    9  C   UNL     1      -9.613  10.716  65.820  1.00  0.00    -0.210 C  
HETATM   10  C   UNL     1      -8.588  13.090  67.169  1.00  0.00    -0.195 C  
HETATM   11  O   UNL     1      -9.132  10.888  64.475  1.00  0.00    -0.206 OA 
HETATM   12  C   UNL     1     -10.230   6.561  68.394  1.00  0.00    -0.192 C  
HETATM   13  C   UNL     1      -9.771   9.014  66.148  1.00  0.00    -0.354 C  
HETATM   14  H   UNL     1      -9.628  10.428  63.809  1.00  0.00     0.000 HD 
HETATM   15  C   UNL     1      -9.065   6.604  67.385  1.00  0.00    -0.120 C  
HETATM   16  C   UNL     1      -8.646   8.099  67.073  1.00  0.00    -0.124 C  
HETATM   17  H   UNL     1      -8.478   2.889  65.606  1.00  0.00     0.000 HD 
HETATM   18  C   UNL     1      -9.574   5.875  66.091  1.00  0.00    -0.107 C  
HETATM   19  C   UNL     1      -7.807   8.840  68.361  1.00  0.00    -0.104 C  
HETATM   20  C   UNL     1      -6.625   7.958  68.765  1.00  0.00    -0.053 C  
HETATM   21  C   UNL     1      -7.099   6.551  69.125  1.00  0.00    -0.088 C  
HETATM   22  C   UNL     1      -7.832   5.809  67.985  1.00  0.00    -0.100 C  
HETATM   23  C   UNL     1      -6.798   5.353  66.923  1.00  0.00    -0.063 C  
HETATM   24  C   UNL     1      -7.445   4.558  65.796  1.00  0.00    -0.081 C  
HETATM   25  O   UNL     1      -8.074   3.385  66.309  1.00  0.00    -0.091 OA 
HETATM   26  C   UNL     1      -8.480   5.440  65.111  1.00  0.00    -0.150 C  
ENDROOT
BRANCH   8  27
HETATM   27  C   UNL     1     -12.271  10.988  70.517  1.00  0.00    -0.472 C  
HETATM   28  O   UNL     1     -11.470   9.169  71.920  1.00  0.00    -0.360 OA 
HETATM   29  C   UNL     1     -12.377   9.901  71.565  1.00  0.00    -0.412 C  
HETATM   30  O   UNL     1     -13.615   9.838  72.114  1.00  0.00    -0.419 OA 
ENDBRANCH   8  27
TORSDOF 1
ENDMDL
MODEL       49
REMARK 921   NORMALIZED FREE ENERGY PREDICTED BY IDOCK:   -4.71 KCAL/MOL
REMARK 922        TOTAL FREE ENERGY PREDICTED BY IDOCK:   -5.29 KCAL/MOL
REMARK 923 INTER-LIGAND FREE ENERGY PREDICTED BY IDOCK:   -5.04 KCAL/MOL
REMARK 924 INTRA-LIGAND FREE ENERGY PREDICTED BY IDOCK:   -0.25 KCAL/MOL
REMARK 927      BINDING AFFINITY PREDICTED BY RF-SCORE:    0.00 PKD
ROOT
HETATM    1  C   UNL     1     -10.982   9.831  68.418  1.00  0.00    -0.200 C  
HETATM    2  C   UNL     1     -11.373  10.838  69.336  1.00  0.00    -0.351 C  
HETATM    3  C   UNL     1      -9.905  10.580  69.285  1.00  0.00    -0.225 C  
HETATM    4  C   UNL     1      -9.377   9.322  67.766  1.00  0.00    -0.145 C  
HETATM    5  C   UNL     1      -8.187   8.512  66.944  1.00  0.00    -0.106 C  
HETATM    6  C   UNL     1      -9.386  10.683  67.673  1.00  0.00    -0.156 C  
HETATM    7  C   UNL     1      -6.971   9.215  66.317  1.00  0.00    -0.086 C  
HETATM    8  C   UNL     1      -8.872   7.709  65.723  1.00  0.00    -0.134 C  
HETATM    9  C   UNL     1      -7.838  10.663  68.650  1.00  0.00    -0.121 C  
HETATM   10  C   UNL     1      -9.603  11.619  66.535  1.00  0.00    -0.226 C  
HETATM   11  O   UNL     1      -7.583  11.858  69.410  1.00  0.00    -0.341 OA 
HETATM   12  C   UNL     1      -8.258   6.012  70.219  1.00  0.00    -0.119 C  
HETATM   13  C   UNL     1      -7.722   9.288  69.710  1.00  0.00    -0.096 C  
HETATM   14  H   UNL     1      -6.780  11.848  69.917  1.00  0.00     0.000 HD 
HETATM   15  C   UNL     1      -8.750   7.126  71.164  1.00  0.00    -0.133 C  
HETATM   16  C   UNL     1      -9.078   8.447  70.354  1.00  0.00    -0.155 C  
HETATM   17  H   UNL     1      -8.033   6.148  75.144  1.00  0.00     0.000 HD 
HETATM   18  C   UNL     1      -7.594   7.369  72.199  1.00  0.00    -0.086 C  
HETATM   19  C   UNL     1     -10.515   8.328  69.439  1.00  0.00    -0.224 C  
HETATM   20  C   UNL     1     -11.657   7.885  70.353  1.00  0.00    -0.092 C  
HETATM   21  C   UNL     1     -11.313   6.570  71.050  1.00  0.00    -0.378 C  
HETATM   22  C   UNL     1     -10.043   6.623  71.928  1.00  0.00    -0.196 C  
HETATM   23  C   UNL     1     -10.352   7.407  73.230  1.00  0.00    -0.405 C  
HETATM   24  C   UNL     1      -9.158   7.445  74.175  1.00  0.00    -0.221 C  
HETATM   25  O   UNL     1      -8.778   6.124  74.555  1.00  0.00    -0.126 OA 
HETATM   26  C   UNL     1      -7.998   8.131  73.465  1.00  0.00    -0.247 C  
ENDROOT
BRANCH   8  27
HETATM   27  C   UNL     1      -7.963   6.720  64.957  1.00  0.00    -0.125 C  
HETATM   28  O   UNL     1      -9.180   4.859  65.943  1.00  0.00    -0.143 OA 
HETATM   29  C   UNL     1      -8.295   5.266  65.210  1.00  0.00    -0.139 C  
HETATM   30  O   UNL     1      -7.507   4.428  64.492  1.00  0.00    -0.069 OA 
ENDBRANCH   8  27
TORSDOF 1
ENDMDL
MODEL       50
REMARK 921   NORMALIZED FREE ENERGY PREDICTED BY IDOCK:   -4.70 KCAL/MOL
REMARK 922        TOTAL FREE ENERGY PREDICTED BY IDOCK:   -5.28 KCAL/MOL
REMARK 923 INTER-LIGAND FREE ENERGY PREDICTED BY IDOCK:   -4.97 KCAL/MOL
REMARK 924 INTRA-LIGAND FREE ENERGY PREDICTED BY IDOCK:   -0.31 KCAL/MOL
REMARK 927      BINDING AFFINITY PREDICTED BY RF-SCORE:    0.00 PKD
ROOT
HETATM    1  C   UNL     1      -7.971   7.027  69.751  1.00  0.00    -0.124 C  
HETATM    2  C   UNL     1      -8.497   7.598  70.938  1.00  0.00    -0.124 C  
HETATM    3  C   UNL     1      -9.501   7.372  69.857  1.00  0.00    -0.153 C  
HETATM    4  C   UNL     1      -8.745   6.309  68.287  1.00  0.00    -0.115 C  
HETATM    5  C   UNL     1      -8.980   5.614  66.800  1.00  0.00    -0.116 C  
HETATM    6  C   UNL     1      -9.403   5.757  69.347  1.00  0.00    -0.151 C  
HETATM    7  C   UNL     1     -10.079   4.574  66.524  1.00  0.00    -0.257 C  
HETATM    8  C   UNL     1      -7.608   4.890  66.357  1.00  0.00    -0.087 C  
HETATM    9  C   UNL     1     -10.948   6.382  68.589  1.00  0.00    -0.330 C  
HETATM   10  C   UNL     1      -9.318   4.427  70.011  1.00  0.00    -0.227 C  
HETATM   11  O   UNL     1     -12.023   6.625  69.513  1.00  0.00    -0.642 OA 
HETATM   12  C   UNL     1      -8.778   9.503  65.455  1.00  0.00    -0.190 C  
HETATM   13  C   UNL     1     -10.701   7.811  67.626  1.00  0.00    -0.227 C  
HETATM   14  H   UNL     1     -12.825   6.950  69.120  1.00  0.00     0.000 HD 
HETATM   15  C   UNL     1      -9.290  10.080  66.789  1.00  0.00    -0.193 C  
HETATM   16  C   UNL     1      -9.427   8.940  67.879  1.00  0.00    -0.160 C  
HETATM   17  H   UNL     1     -10.730  13.953  66.300  1.00  0.00     0.000 HD 
HETATM   18  C   UNL     1     -10.680  10.741  66.480  1.00  0.00    -0.245 C  
HETATM   19  C   UNL     1      -7.921   8.399  68.473  1.00  0.00    -0.121 C  
HETATM   20  C   UNL     1      -7.112   9.601  68.962  1.00  0.00    -0.066 C  
HETATM   21  C   UNL     1      -6.951  10.633  67.847  1.00  0.00    -0.077 C  
HETATM   22  C   UNL     1      -8.280  11.193  67.293  1.00  0.00    -0.136 C  
HETATM   23  C   UNL     1      -8.890  12.179  68.323  1.00  0.00    -0.182 C  
HETATM   24  C   UNL     1     -10.175  12.819  67.814  1.00  0.00    -0.223 C  
HETATM   25  O   UNL     1      -9.928  13.554  66.617  1.00  0.00    -0.267 OA 
HETATM   26  C   UNL     1     -11.192  11.718  67.543  1.00  0.00    -0.354 C  
ENDROOT
BRANCH   8  27
HETATM   27  C   UNL     1      -7.550   4.359  64.906  1.00  0.00    -0.073 C  
HETATM   28  O   UNL     1      -6.937   6.582  64.131  1.00  0.00    -0.044 OA 
HETATM   29  C   UNL     1      -7.175   5.412  63.887  1.00  0.00    -0.050 C  
HETATM   30  O   UNL     1      -7.093   4.904  62.632  1.00  0.00    -0.033 OA 
ENDBRANCH   8  27
TORSDOF 1
ENDMDL
MODEL       51
REMARK 921   NORMALIZED FREE ENERGY PREDICTED BY IDOCK:   -4.69 KCAL/MOL
REMARK 922        TOTAL FREE ENERGY PREDICTED BY IDOCK:   -5.28 KCAL/MOL
REMARK 923 INTER-LIGAND FREE ENERGY PREDICTED BY IDOCK:   -5.10 KCAL/MOL
REMARK 924 INTRA-LIGAND FREE ENERGY PREDICTED BY IDOCK:   -0.18 KCAL/MOL
REMARK 927      BINDING AFFINITY PREDICTED BY RF-SCORE:    0.00 PKD
ROOT
HETATM    1  C   UNL     1     -11.587  14.570  67.872  1.00  0.00    -0.371 C  
HETATM    2  C   UNL     1     -12.215  15.830  68.041  1.00  0.00     0.594 C  
HETATM    3  C   UNL     1     -11.364  15.718  66.821  1.00  0.00     0.080 C  
HETATM    4  C   UNL     1     -10.706  13.814  66.489  1.00  0.00    -0.284 C  
HETATM    5  C   UNL     1      -9.837  12.756  65.553  1.00  0.00    -0.169 C  
HETATM    6  C   UNL     1     -11.839  14.345  65.945  1.00  0.00    -0.371 C  
HETATM    7  C   UNL     1     -10.095  12.557  64.050  1.00  0.00    -0.316 C  
HETATM    8  C   UNL     1      -9.977  11.282  66.194  1.00  0.00    -0.268 C  
HETATM    9  C   UNL     1     -10.744  15.260  64.799  1.00  0.00    -0.317 C  
HETATM   10  C   UNL     1     -13.131  13.745  65.511  1.00  0.00    -0.210 C  
HETATM   11  O   UNL     1     -11.293  16.486  64.282  1.00  0.00    -1.249 OA 
HETATM   12  C   UNL     1      -6.589  14.547  67.349  1.00  0.00     0.028 C  
HETATM   13  C   UNL     1      -9.175  15.589  65.478  1.00  0.00     0.088 C  
HETATM   14  H   UNL     1     -10.725  16.961  63.688  1.00  0.00     0.000 HD 
HETATM   15  C   UNL     1      -7.339  15.875  67.572  1.00  0.00    -0.198 C  
HETATM   16  C   UNL     1      -8.862  15.737  67.163  1.00  0.00    -0.224 C  
HETATM   17  H   UNL     1      -4.682  19.008  68.236  1.00  0.00     0.000 HD 
HETATM   18  C   UNL     1      -6.609  16.947  66.688  1.00  0.00    -0.252 C  
HETATM   19  C   UNL     1      -9.772  14.818  68.278  1.00  0.00    -0.218 C  
HETATM   20  C   UNL     1      -9.577  15.393  69.681  1.00  0.00    -0.233 C  
HETATM   21  C   UNL     1      -8.095  15.434  70.047  1.00  0.00     0.322 C  
HETATM   22  C   UNL     1      -7.222  16.285  69.098  1.00  0.00    -0.213 C  
HETATM   23  C   UNL     1      -7.485  17.789  69.370  1.00  0.00     0.138 C  
HETATM   24  C   UNL     1      -6.609  18.690  68.509  1.00  0.00    -0.236 C  
HETATM   25  O   UNL     1      -5.229  18.446  68.773  1.00  0.00    -0.177 OA 
HETATM   26  C   UNL     1      -6.911  18.407  67.044  1.00  0.00    -0.209 C  
ENDROOT
BRANCH   8  27
HETATM   27  C   UNL     1      -9.069  10.183  65.591  1.00  0.00    -0.216 C  
HETATM   28  O   UNL     1     -10.477   8.481  66.611  1.00  0.00    -0.289 OA 
HETATM   29  C   UNL     1      -9.511   8.777  65.929  1.00  0.00    -0.208 C  
HETATM   30  O   UNL     1      -8.719   7.839  65.352  1.00  0.00    -0.121 OA 
ENDBRANCH   8  27
TORSDOF 1
ENDMDL
MODEL       52
REMARK 921   NORMALIZED FREE ENERGY PREDICTED BY IDOCK:   -4.64 KCAL/MOL
REMARK 922        TOTAL FREE ENERGY PREDICTED BY IDOCK:   -5.22 KCAL/MOL
REMARK 923 INTER-LIGAND FREE ENERGY PREDICTED BY IDOCK:   -5.01 KCAL/MOL
REMARK 924 INTRA-LIGAND FREE ENERGY PREDICTED BY IDOCK:   -0.21 KCAL/MOL
REMARK 927      BINDING AFFINITY PREDICTED BY RF-SCORE:    0.00 PKD
ROOT
HETATM    1  C   UNL     1      -8.455   7.748  70.841  1.00  0.00    -0.127 C  
HETATM    2  C   UNL     1      -9.314   8.451  71.724  1.00  0.00    -0.293 C  
HETATM    3  C   UNL     1      -9.980   7.918  70.500  1.00  0.00    -0.191 C  
HETATM    4  C   UNL     1      -8.763   6.696  69.407  1.00  0.00    -0.135 C  
HETATM    5  C   UNL     1      -8.549   5.727  68.079  1.00  0.00    -0.105 C  
HETATM    6  C   UNL     1      -9.634   6.263  70.364  1.00  0.00    -0.183 C  
HETATM    7  C   UNL     1      -9.458   4.528  67.758  1.00  0.00    -0.196 C  
HETATM    8  C   UNL     1      -7.060   5.110  68.138  1.00  0.00    -0.062 C  
HETATM    9  C   UNL     1     -10.968   6.551  69.143  1.00  0.00    -0.323 C  
HETATM   10  C   UNL     1      -9.629   5.090  71.282  1.00  0.00    -0.223 C  
HETATM   11  O   UNL     1     -12.263   6.820  69.710  1.00  0.00    -0.610 OA 
HETATM   12  C   UNL     1      -8.286   9.315  66.070  1.00  0.00    -0.117 C  
HETATM   13  C   UNL     1     -10.582   7.808  68.002  1.00  0.00    -0.201 C  
HETATM   14  H   UNL     1     -12.954   6.970  69.077  1.00  0.00     0.000 HD 
HETATM   15  C   UNL     1      -9.171  10.050  67.096  1.00  0.00    -0.161 C  
HETATM   16  C   UNL     1      -9.506   9.111  68.326  1.00  0.00    -0.152 C  
HETATM   17  H   UNL     1     -10.712  13.571  65.503  1.00  0.00     0.000 HD 
HETATM   18  C   UNL     1     -10.476  10.471  66.332  1.00  0.00    -0.258 C  
HETATM   19  C   UNL     1      -8.172   8.871  69.365  1.00  0.00    -0.107 C  
HETATM   20  C   UNL     1      -7.610  10.229  69.783  1.00  0.00    -0.168 C  
HETATM   21  C   UNL     1      -7.238  11.061  68.557  1.00  0.00    -0.085 C  
HETATM   22  C   UNL     1      -8.413  11.349  67.596  1.00  0.00    -0.130 C  
HETATM   23  C   UNL     1      -9.342  12.419  68.227  1.00  0.00    -0.199 C  
HETATM   24  C   UNL     1     -10.492  12.797  67.303  1.00  0.00    -0.232 C  
HETATM   25  O   UNL     1      -9.994  13.335  66.079  1.00  0.00    -0.289 OA 
HETATM   26  C   UNL     1     -11.319  11.551  67.019  1.00  0.00    -0.340 C  
ENDROOT
BRANCH   8  27
HETATM   27  C   UNL     1      -6.584   4.343  66.881  1.00  0.00    -0.046 C  
HETATM   28  O   UNL     1      -6.385   2.315  68.211  1.00  0.00    -0.028 OA 
HETATM   29  C   UNL     1      -6.285   2.882  67.137  1.00  0.00    -0.028 C  
HETATM   30  O   UNL     1      -5.910   2.231  66.008  1.00  0.00    -0.020 OA 
ENDBRANCH   8  27
TORSDOF 1
ENDMDL
MODEL       53
REMARK 921   NORMALIZED FREE ENERGY PREDICTED BY IDOCK:   -4.59 KCAL/MOL
REMARK 922        TOTAL FREE ENERGY PREDICTED BY IDOCK:   -5.17 KCAL/MOL
REMARK 923 INTER-LIGAND FREE ENERGY PREDICTED BY IDOCK:   -4.96 KCAL/MOL
REMARK 924 INTRA-LIGAND FREE ENERGY PREDICTED BY IDOCK:   -0.21 KCAL/MOL
REMARK 927      BINDING AFFINITY PREDICTED BY RF-SCORE:    0.00 PKD
ROOT
HETATM    1  C   UNL     1      -6.626  10.403  67.452  1.00  0.00    -0.067 C  
HETATM    2  C   UNL     1      -5.456   9.826  68.009  1.00  0.00    -0.039 C  
HETATM    3  C   UNL     1      -6.216   8.929  67.090  1.00  0.00    -0.059 C  
HETATM    4  C   UNL     1      -7.729   9.893  66.117  1.00  0.00    -0.107 C  
HETATM    5  C   UNL     1      -8.985   9.834  65.036  1.00  0.00    -0.247 C  
HETATM    6  C   UNL     1      -6.468   9.736  65.620  1.00  0.00    -0.082 C  
HETATM    7  C   UNL     1      -8.821   9.360  63.583  1.00  0.00    -0.198 C  
HETATM    8  C   UNL     1      -9.619  11.313  64.917  1.00  0.00    -0.266 C  
HETATM    9  C   UNL     1      -6.927   7.998  65.270  1.00  0.00    -0.063 C  
HETATM   10  C   UNL     1      -5.639  10.548  64.687  1.00  0.00    -0.120 C  
HETATM   11  O   UNL     1      -5.824   7.074  65.233  1.00  0.00    -0.034 OA 
HETATM   12  C   UNL     1     -10.948   7.927  68.116  1.00  0.00     0.123 C  
HETATM   13  C   UNL     1      -8.138   7.385  66.359  1.00  0.00    -0.118 C  
HETATM   14  H   UNL     1      -6.062   6.173  65.052  1.00  0.00     0.000 HD 
HETATM   15  C   UNL     1      -9.640   7.379  68.722  1.00  0.00    -0.147 C  
HETATM   16  C   UNL     1      -8.380   7.963  67.962  1.00  0.00    -0.123 C  
HETATM   17  H   UNL     1     -10.389   4.177  71.271  1.00  0.00     0.000 HD 
HETATM   18  C   UNL     1      -9.711   5.817  68.587  1.00  0.00    -0.165 C  
HETATM   19  C   UNL     1      -8.083   9.604  68.324  1.00  0.00    -0.105 C  
HETATM   20  C   UNL     1      -8.001   9.777  69.841  1.00  0.00    -0.184 C  
HETATM   21  C   UNL     1      -9.274   9.264  70.513  1.00  0.00    -0.311 C  
HETATM   22  C   UNL     1      -9.577   7.772  70.256  1.00  0.00    -0.175 C  
HETATM   23  C   UNL     1      -8.604   6.899  71.092  1.00  0.00    -0.131 C  
HETATM   24  C   UNL     1      -8.888   5.411  70.934  1.00  0.00    -0.138 C  
HETATM   25  O   UNL     1     -10.212   5.106  71.369  1.00  0.00    -0.201 OA 
HETATM   26  C   UNL     1      -8.729   5.037  69.467  1.00  0.00    -0.109 C  
ENDROOT
BRANCH   8  27
HETATM   27  C   UNL     1     -10.938  11.431  64.117  1.00  0.00    -0.411 C  
HETATM   28  O   UNL     1     -11.756  13.056  65.732  1.00  0.00    -0.343 OA 
HETATM   29  C   UNL     1     -11.928  12.406  64.716  1.00  0.00    -0.398 C  
HETATM   30  O   UNL     1     -13.054  12.516  63.969  1.00  0.00    -0.741 OA 
ENDBRANCH   8  27
TORSDOF 1
ENDMDL
MODEL       54
REMARK 921   NORMALIZED FREE ENERGY PREDICTED BY IDOCK:   -4.59 KCAL/MOL
REMARK 922        TOTAL FREE ENERGY PREDICTED BY IDOCK:   -5.17 KCAL/MOL
REMARK 923 INTER-LIGAND FREE ENERGY PREDICTED BY IDOCK:   -4.87 KCAL/MOL
REMARK 924 INTRA-LIGAND FREE ENERGY PREDICTED BY IDOCK:   -0.30 KCAL/MOL
REMARK 927      BINDING AFFINITY PREDICTED BY RF-SCORE:    0.00 PKD
ROOT
HETATM    1  C   UNL     1      -6.835   8.830  67.423  1.00  0.00    -0.071 C  
HETATM    2  C   UNL     1      -6.144   8.805  66.185  1.00  0.00    -0.052 C  
HETATM    3  C   UNL     1      -7.630   8.758  66.068  1.00  0.00    -0.093 C  
HETATM    4  C   UNL     1      -8.573   9.065  67.853  1.00  0.00    -0.125 C  
HETATM    5  C   UNL     1      -9.989   9.199  68.705  1.00  0.00    -0.185 C  
HETATM    6  C   UNL     1      -8.291  10.048  66.950  1.00  0.00    -0.125 C  
HETATM    7  C   UNL     1     -11.094  10.206  68.345  1.00  0.00    -0.273 C  
HETATM    8  C   UNL     1      -9.625   9.519  70.243  1.00  0.00    -0.314 C  
HETATM    9  C   UNL     1      -9.692   9.407  65.961  1.00  0.00    -0.275 C  
HETATM   10  C   UNL     1      -8.010  11.504  67.091  1.00  0.00    -0.160 C  
HETATM   11  O   UNL     1      -9.607   9.664  64.548  1.00  0.00    -0.429 OA 
HETATM   12  C   UNL     1     -10.079   5.097  68.317  1.00  0.00    -0.199 C  
HETATM   13  C   UNL     1      -9.973   7.707  66.207  1.00  0.00    -0.021 C  
HETATM   14  H   UNL     1     -10.333   9.331  64.034  1.00  0.00     0.000 HD 
HETATM   15  C   UNL     1      -9.264   5.119  67.009  1.00  0.00    -0.117 C  
HETATM   16  C   UNL     1      -8.760   6.585  66.685  1.00  0.00    -0.128 C  
HETATM   17  H   UNL     1      -9.725   1.567  64.891  1.00  0.00     0.000 HD 
HETATM   18  C   UNL     1     -10.222   4.587  65.884  1.00  0.00    -0.289 C  
HETATM   19  C   UNL     1      -7.489   7.094  67.705  1.00  0.00    -0.101 C  
HETATM   20  C   UNL     1      -6.370   6.053  67.672  1.00  0.00    -0.041 C  
HETATM   21  C   UNL     1      -6.902   4.675  68.064  1.00  0.00    -0.056 C  
HETATM   22  C   UNL     1      -8.028   4.139  67.153  1.00  0.00    -0.096 C  
HETATM   23  C   UNL     1      -7.420   3.686  65.799  1.00  0.00    -0.077 C  
HETATM   24  C   UNL     1      -8.469   3.087  64.871  1.00  0.00    -0.096 C  
HETATM   25  O   UNL     1      -9.071   1.941  65.470  1.00  0.00    -0.124 OA 
HETATM   26  C   UNL     1      -9.531   4.141  64.592  1.00  0.00    -0.168 C  
ENDROOT
BRANCH   8  27
HETATM   27  C   UNL     1     -10.800   9.474  71.250  1.00  0.00    -0.413 C  
HETATM   28  O   UNL     1     -10.329   7.126  71.675  1.00  0.00    -0.198 OA 
HETATM   29  C   UNL     1     -10.997   8.121  71.895  1.00  0.00    -0.275 C  
HETATM   30  O   UNL     1     -12.007   8.127  72.801  1.00  0.00    -0.365 OA 
ENDBRANCH   8  27
TORSDOF 1
ENDMDL
MODEL       55
REMARK 921   NORMALIZED FREE ENERGY PREDICTED BY IDOCK:   -4.56 KCAL/MOL
REMARK 922        TOTAL FREE ENERGY PREDICTED BY IDOCK:   -5.13 KCAL/MOL
REMARK 923 INTER-LIGAND FREE ENERGY PREDICTED BY IDOCK:   -4.82 KCAL/MOL
REMARK 924 INTRA-LIGAND FREE ENERGY PREDICTED BY IDOCK:   -0.31 KCAL/MOL
REMARK 927      BINDING AFFINITY PREDICTED BY RF-SCORE:    0.00 PKD
ROOT
HETATM    1  C   UNL     1      -8.337   5.828  69.113  1.00  0.00    -0.105 C  
HETATM    2  C   UNL     1      -9.293   4.879  69.556  1.00  0.00    -0.190 C  
HETATM    3  C   UNL     1      -9.796   5.835  68.526  1.00  0.00    -0.177 C  
HETATM    4  C   UNL     1      -8.314   6.995  67.736  1.00  0.00    -0.117 C  
HETATM    5  C   UNL     1      -7.858   8.191  66.681  1.00  0.00    -0.094 C  
HETATM    6  C   UNL     1      -8.740   5.816  67.199  1.00  0.00    -0.108 C  
HETATM    7  C   UNL     1      -8.137   8.129  65.170  1.00  0.00    -0.139 C  
HETATM    8  C   UNL     1      -6.261   8.386  66.797  1.00  0.00    -0.055 C  
HETATM    9  C   UNL     1     -10.209   6.731  66.600  1.00  0.00    -0.141 C  
HETATM   10  C   UNL     1      -8.061   4.770  66.384  1.00  0.00    -0.107 C  
HETATM   11  O   UNL     1     -11.387   5.928  66.405  1.00  0.00    -0.730 OA 
HETATM   12  C   UNL     1      -9.581  10.683  69.474  1.00  0.00    -0.060 C  
HETATM   13  C   UNL     1     -10.616   8.092  67.606  1.00  0.00    -0.264 C  
HETATM   14  H   UNL     1     -12.149   6.403  66.095  1.00  0.00     0.000 HD 
HETATM   15  C   UNL     1     -10.555   9.595  69.968  1.00  0.00    -0.300 C  
HETATM   16  C   UNL     1     -10.239   8.203  69.281  1.00  0.00    -0.216 C  
HETATM   17  H   UNL     1     -13.764  11.268  72.020  1.00  0.00     0.000 HD 
HETATM   18  C   UNL     1     -11.997  10.094  69.600  1.00  0.00    -0.052 C  
HETATM   19  C   UNL     1      -8.819   7.471  69.881  1.00  0.00    -0.141 C  
HETATM   20  C   UNL     1      -8.903   7.382  71.405  1.00  0.00    -0.129 C  
HETATM   21  C   UNL     1      -9.136   8.763  72.014  1.00  0.00    -0.259 C  
HETATM   22  C   UNL     1     -10.429   9.464  71.542  1.00  0.00    -0.299 C  
HETATM   23  C   UNL     1     -11.653   8.793  72.219  1.00  0.00    -0.391 C  
HETATM   24  C   UNL     1     -12.962   9.475  71.845  1.00  0.00    -0.425 C  
HETATM   25  O   UNL     1     -12.947  10.842  72.253  1.00  0.00    -0.324 OA 
HETATM   26  C   UNL     1     -13.142   9.390  70.336  1.00  0.00     0.488 C  
ENDROOT
BRANCH   8  27
HETATM   27  C   UNL     1      -5.662   9.599  66.047  1.00  0.00    -0.056 C  
HETATM   28  O   UNL     1      -6.295  11.040  67.902  1.00  0.00    -0.056 OA 
HETATM   29  C   UNL     1      -5.780  10.902  66.806  1.00  0.00    -0.080 C  
HETATM   30  O   UNL     1      -5.209  11.936  66.140  1.00  0.00    -0.294 OA 
ENDBRANCH   8  27
TORSDOF 1
ENDMDL
MODEL       56
REMARK 921   NORMALIZED FREE ENERGY PREDICTED BY IDOCK:   -4.56 KCAL/MOL
REMARK 922        TOTAL FREE ENERGY PREDICTED BY IDOCK:   -5.13 KCAL/MOL
REMARK 923 INTER-LIGAND FREE ENERGY PREDICTED BY IDOCK:   -4.91 KCAL/MOL
REMARK 924 INTRA-LIGAND FREE ENERGY PREDICTED BY IDOCK:   -0.22 KCAL/MOL
REMARK 927      BINDING AFFINITY PREDICTED BY RF-SCORE:    0.00 PKD
ROOT
HETATM    1  C   UNL     1     -10.775   6.898  69.297  1.00  0.00    -0.265 C  
HETATM    2  C   UNL     1     -10.385   5.814  70.126  1.00  0.00    -0.324 C  
HETATM    3  C   UNL     1      -9.276   6.739  69.747  1.00  0.00    -0.146 C  
HETATM    4  C   UNL     1      -9.939   8.413  68.785  1.00  0.00    -0.197 C  
HETATM    5  C   UNL     1      -9.591   9.860  68.053  1.00  0.00    -0.155 C  
HETATM    6  C   UNL     1      -9.732   8.327  70.131  1.00  0.00    -0.176 C  
HETATM    7  C   UNL     1      -8.818  10.991  68.753  1.00  0.00    -0.149 C  
HETATM    8  C   UNL     1     -10.979  10.538  67.588  1.00  0.00    -0.375 C  
HETATM    9  C   UNL     1      -7.941   8.442  69.765  1.00  0.00    -0.104 C  
HETATM   10  C   UNL     1     -10.356   9.011  71.298  1.00  0.00    -0.383 C  
HETATM   11  O   UNL     1      -7.080   7.841  70.748  1.00  0.00    -0.052 OA 
HETATM   12  C   UNL     1      -8.319   7.466  64.950  1.00  0.00    -0.029 C  
HETATM   13  C   UNL     1      -7.529   7.812  68.195  1.00  0.00    -0.108 C  
HETATM   14  H   UNL     1      -6.151   7.899  70.558  1.00  0.00     0.000 HD 
HETATM   15  C   UNL     1      -7.975   6.291  65.887  1.00  0.00    -0.116 C  
HETATM   16  C   UNL     1      -8.432   6.602  67.371  1.00  0.00    -0.120 C  
HETATM   17  H   UNL     1      -5.377   3.613  64.046  1.00  0.00     0.000 HD 
HETATM   18  C   UNL     1      -6.419   6.100  65.801  1.00  0.00    -0.043 C  
HETATM   19  C   UNL     1     -10.124   6.518  67.579  1.00  0.00    -0.193 C  
HETATM   20  C   UNL     1     -10.628   5.169  67.066  1.00  0.00    -0.201 C  
HETATM   21  C   UNL     1     -10.219   4.958  65.609  1.00  0.00    -0.155 C  
HETATM   22  C   UNL     1      -8.695   4.982  65.360  1.00  0.00    -0.146 C  
HETATM   23  C   UNL     1      -8.068   3.663  65.885  1.00  0.00    -0.093 C  
HETATM   24  C   UNL     1      -6.571   3.591  65.615  1.00  0.00    -0.037 C  
HETATM   25  O   UNL     1      -6.311   3.657  64.214  1.00  0.00    -0.022 OA 
HETATM   26  C   UNL     1      -5.893   4.758  66.320  1.00  0.00    -0.022 C  
ENDROOT
BRANCH   8  27
HETATM   27  C   UNL     1     -10.863  11.797  66.697  1.00  0.00    -0.318 C  
HETATM   28  O   UNL     1     -12.136  13.061  68.340  1.00  0.00    -0.305 OA 
HETATM   29  C   UNL     1     -11.538  13.019  67.279  1.00  0.00    -0.356 C  
HETATM   30  O   UNL     1     -11.383  14.113  66.493  1.00  0.00    -0.321 OA 
ENDBRANCH   8  27
TORSDOF 1
ENDMDL
MODEL       57
REMARK 921   NORMALIZED FREE ENERGY PREDICTED BY IDOCK:   -4.52 KCAL/MOL
REMARK 922        TOTAL FREE ENERGY PREDICTED BY IDOCK:   -5.09 KCAL/MOL
REMARK 923 INTER-LIGAND FREE ENERGY PREDICTED BY IDOCK:   -4.90 KCAL/MOL
REMARK 924 INTRA-LIGAND FREE ENERGY PREDICTED BY IDOCK:   -0.19 KCAL/MOL
REMARK 927      BINDING AFFINITY PREDICTED BY RF-SCORE:    0.00 PKD
ROOT
HETATM    1  C   UNL     1     -10.467  10.071  70.579  1.00  0.00    -0.265 C  
HETATM    2  C   UNL     1     -11.413  10.360  69.562  1.00  0.00    -0.311 C  
HETATM    3  C   UNL     1     -11.010   8.926  69.649  1.00  0.00    -0.132 C  
HETATM    4  C   UNL     1      -9.861   8.526  71.288  1.00  0.00    -0.279 C  
HETATM    5  C   UNL     1      -9.017   7.423  72.194  1.00  0.00    -0.154 C  
HETATM    6  C   UNL     1     -11.218   8.393  71.246  1.00  0.00    -0.309 C  
HETATM    7  C   UNL     1      -9.648   6.138  72.755  1.00  0.00    -0.158 C  
HETATM    8  C   UNL     1      -8.415   8.183  73.483  1.00  0.00    -0.310 C  
HETATM    9  C   UNL     1     -10.941   6.859  70.285  1.00  0.00    -0.281 C  
HETATM   10  C   UNL     1     -12.280   8.507  72.283  1.00  0.00    -0.454 C  
HETATM   11  O   UNL     1     -12.021   6.485  69.412  1.00  0.00    -0.568 OA 
HETATM   12  C   UNL     1      -6.225   7.767  69.182  1.00  0.00    -0.035 C  
HETATM   13  C   UNL     1      -9.462   6.892  69.368  1.00  0.00    -0.148 C  
HETATM   14  H   UNL     1     -11.877   5.689  68.914  1.00  0.00     0.000 HD 
HETATM   15  C   UNL     1      -7.285   8.144  68.128  1.00  0.00    -0.094 C  
HETATM   16  C   UNL     1      -8.707   8.330  68.802  1.00  0.00    -0.137 C  
HETATM   17  H   UNL     1      -5.848   7.549  64.269  1.00  0.00     0.000 HD 
HETATM   18  C   UNL     1      -7.303   6.974  67.081  1.00  0.00    -0.090 C  
HETATM   19  C   UNL     1      -8.829   9.768  69.714  1.00  0.00    -0.241 C  
HETATM   20  C   UNL     1      -8.419  10.954  68.842  1.00  0.00    -0.142 C  
HETATM   21  C   UNL     1      -7.012  10.751  68.281  1.00  0.00    -0.069 C  
HETATM   22  C   UNL     1      -6.846   9.486  67.410  1.00  0.00    -0.083 C  
HETATM   23  C   UNL     1      -7.525   9.717  66.034  1.00  0.00    -0.102 C  
HETATM   24  C   UNL     1      -7.345   8.529  65.098  1.00  0.00    -0.081 C  
HETATM   25  O   UNL     1      -5.960   8.290  64.853  1.00  0.00    -0.045 OA 
HETATM   26  C   UNL     1      -7.973   7.301  65.744  1.00  0.00    -0.122 C  
ENDROOT
BRANCH   8  27
HETATM   27  C   UNL     1      -7.417   7.378  74.350  1.00  0.00    -0.148 C  
HETATM   28  O   UNL     1      -5.788   7.482  72.546  1.00  0.00    -0.040 OA 
HETATM   29  C   UNL     1      -6.091   7.120  73.670  1.00  0.00    -0.058 C  
HETATM   30  O   UNL     1      -5.227   6.449  74.471  1.00  0.00    -0.040 OA 
ENDBRANCH   8  27
TORSDOF 1
ENDMDL
MODEL       58
REMARK 921   NORMALIZED FREE ENERGY PREDICTED BY IDOCK:   -4.42 KCAL/MOL
REMARK 922        TOTAL FREE ENERGY PREDICTED BY IDOCK:   -4.98 KCAL/MOL
REMARK 923 INTER-LIGAND FREE ENERGY PREDICTED BY IDOCK:   -4.76 KCAL/MOL
REMARK 924 INTRA-LIGAND FREE ENERGY PREDICTED BY IDOCK:   -0.22 KCAL/MOL
REMARK 927      BINDING AFFINITY PREDICTED BY RF-SCORE:    0.00 PKD
ROOT
HETATM    1  C   UNL     1      -6.545   5.230  69.597  1.00  0.00    -0.043 C  
HETATM    2  C   UNL     1      -6.102   5.505  70.916  1.00  0.00    -0.029 C  
HETATM    3  C   UNL     1      -7.378   4.737  70.836  1.00  0.00    -0.063 C  
HETATM    4  C   UNL     1      -7.824   4.141  68.935  1.00  0.00    -0.061 C  
HETATM    5  C   UNL     1      -8.850   3.350  67.900  1.00  0.00    -0.152 C  
HETATM    6  C   UNL     1      -7.142   3.383  69.841  1.00  0.00    -0.041 C  
HETATM    7  C   UNL     1      -9.258   1.878  68.084  1.00  0.00    -0.231 C  
HETATM    8  C   UNL     1      -8.224   3.421  66.415  1.00  0.00    -0.097 C  
HETATM    9  C   UNL     1      -8.754   3.076  70.653  1.00  0.00    -0.076 C  
HETATM   10  C   UNL     1      -6.103   2.326  69.699  1.00  0.00    -0.024 C  
HETATM   11  O   UNL     1      -8.679   2.773  72.058  1.00  0.00    -0.071 OA 
HETATM   12  C   UNL     1     -11.192   6.706  68.382  1.00  0.00    -0.215 C  
HETATM   13  C   UNL     1      -9.889   4.375  70.418  1.00  0.00    -0.286 C  
HETATM   14  H   UNL     1      -9.516   2.615  72.479  1.00  0.00     0.000 HD 
HETATM   15  C   UNL     1     -10.628   7.001  69.786  1.00  0.00    -0.253 C  
HETATM   16  C   UNL     1      -9.442   6.012  70.135  1.00  0.00    -0.182 C  
HETATM   17  H   UNL     1     -13.148   9.534  71.918  1.00  0.00     0.000 HD 
HETATM   18  C   UNL     1     -11.824   6.827  70.788  1.00  0.00    -0.446 C  
HETATM   19  C   UNL     1      -8.007   6.362  69.278  1.00  0.00    -0.110 C  
HETATM   20  C   UNL     1      -7.643   7.832  69.486  1.00  0.00    -0.100 C  
HETATM   21  C   UNL     1      -8.798   8.739  69.064  1.00  0.00    -0.137 C  
HETATM   22  C   UNL     1     -10.116   8.499  69.833  1.00  0.00    -0.195 C  
HETATM   23  C   UNL     1      -9.986   9.078  71.267  1.00  0.00    -0.381 C  
HETATM   24  C   UNL     1     -11.276   8.931  72.064  1.00  0.00    -0.352 C  
HETATM   25  O   UNL     1     -12.343   9.625  71.421  1.00  0.00    -0.328 OA 
HETATM   26  C   UNL     1     -11.616   7.451  72.172  1.00  0.00    -0.331 C  
ENDROOT
BRANCH   8  27
HETATM   27  C   UNL     1      -9.131   2.924  65.264  1.00  0.00    -0.149 C  
HETATM   28  O   UNL     1      -8.817   5.046  64.118  1.00  0.00    -0.131 OA 
HETATM   29  C   UNL     1      -9.310   3.933  64.151  1.00  0.00    -0.150 C  
HETATM   30  O   UNL     1     -10.075   3.450  63.141  1.00  0.00    -0.131 OA 
ENDBRANCH   8  27
TORSDOF 1
ENDMDL
MODEL       59
REMARK 921   NORMALIZED FREE ENERGY PREDICTED BY IDOCK:   -4.40 KCAL/MOL
REMARK 922        TOTAL FREE ENERGY PREDICTED BY IDOCK:   -4.96 KCAL/MOL
REMARK 923 INTER-LIGAND FREE ENERGY PREDICTED BY IDOCK:   -4.66 KCAL/MOL
REMARK 924 INTRA-LIGAND FREE ENERGY PREDICTED BY IDOCK:   -0.30 KCAL/MOL
REMARK 927      BINDING AFFINITY PREDICTED BY RF-SCORE:    0.00 PKD
ROOT
HETATM    1  C   UNL     1      -7.890   7.805  69.596  1.00  0.00    -0.107 C  
HETATM    2  C   UNL     1      -7.473   8.657  68.542  1.00  0.00    -0.093 C  
HETATM    3  C   UNL     1      -8.841   8.085  68.377  1.00  0.00    -0.134 C  
HETATM    4  C   UNL     1      -9.488   7.090  70.038  1.00  0.00    -0.161 C  
HETATM    5  C   UNL     1     -10.678   6.220  70.798  1.00  0.00    -0.312 C  
HETATM    6  C   UNL     1      -9.743   8.405  69.778  1.00  0.00    -0.180 C  
HETATM    7  C   UNL     1     -12.114   6.741  70.977  1.00  0.00    -0.426 C  
HETATM    8  C   UNL     1     -10.176   5.874  72.291  1.00  0.00    -0.222 C  
HETATM    9  C   UNL     1     -10.982   7.823  68.561  1.00  0.00     0.186 C  
HETATM   10  C   UNL     1      -9.976   9.585  70.656  1.00  0.00    -0.342 C  
HETATM   11  O   UNL     1     -11.253   8.739  67.485  1.00  0.00    -0.380 OA 
HETATM   12  C   UNL     1      -9.378   3.169  68.352  1.00  0.00    -0.244 C  
HETATM   13  C   UNL     1     -10.592   6.265  67.889  1.00  0.00    -0.327 C  
HETATM   14  H   UNL     1     -11.896   8.437  66.854  1.00  0.00     0.000 HD 
HETATM   15  C   UNL     1      -8.879   4.141  67.265  1.00  0.00    -0.126 C  
HETATM   16  C   UNL     1      -8.994   5.642  67.755  1.00  0.00    -0.107 C  
HETATM   17  H   UNL     1      -8.431   2.204  63.610  1.00  0.00     0.000 HD 
HETATM   18  C   UNL     1      -9.775   3.886  66.001  1.00  0.00    -0.172 C  
HETATM   19  C   UNL     1      -7.823   6.053  68.927  1.00  0.00    -0.096 C  
HETATM   20  C   UNL     1      -6.434   5.702  68.394  1.00  0.00    -0.046 C  
HETATM   21  C   UNL     1      -6.361   4.226  68.006  1.00  0.00    -0.037 C  
HETATM   22  C   UNL     1      -7.371   3.798  66.918  1.00  0.00    -0.071 C  
HETATM   23  C   UNL     1      -6.901   4.338  65.542  1.00  0.00    -0.057 C  
HETATM   24  C   UNL     1      -7.821   3.900  64.409  1.00  0.00    -0.085 C  
HETATM   25  O   UNL     1      -7.857   2.477  64.316  1.00  0.00    -0.075 OA 
HETATM   26  C   UNL     1      -9.219   4.435  64.683  1.00  0.00    -0.156 C  
ENDROOT
BRANCH   8  27
HETATM   27  C   UNL     1     -11.053   4.887  73.098  1.00  0.00    -0.396 C  
HETATM   28  O   UNL     1      -9.690   3.040  72.293  1.00  0.00    -0.133 OA 
HETATM   29  C   UNL     1     -10.624   3.443  72.964  1.00  0.00    -0.152 C  
HETATM   30  O   UNL     1     -11.387   2.611  73.715  1.00  0.00    -0.216 OA 
ENDBRANCH   8  27
TORSDOF 1
ENDMDL
MODEL       60
REMARK 921   NORMALIZED FREE ENERGY PREDICTED BY IDOCK:   -4.36 KCAL/MOL
REMARK 922        TOTAL FREE ENERGY PREDICTED BY IDOCK:   -4.92 KCAL/MOL
REMARK 923 INTER-LIGAND FREE ENERGY PREDICTED BY IDOCK:   -4.62 KCAL/MOL
REMARK 924 INTRA-LIGAND FREE ENERGY PREDICTED BY IDOCK:   -0.30 KCAL/MOL
REMARK 927      BINDING AFFINITY PREDICTED BY RF-SCORE:    0.00 PKD
ROOT
HETATM    1  C   UNL     1     -10.660   8.570  67.413  1.00  0.00    -0.304 C  
HETATM    2  C   UNL     1     -10.721   9.886  67.938  1.00  0.00    -0.316 C  
HETATM    3  C   UNL     1      -9.368   9.259  67.984  1.00  0.00    -0.145 C  
HETATM    4  C   UNL     1      -9.285   7.484  66.979  1.00  0.00    -0.167 C  
HETATM    5  C   UNL     1      -8.396   6.175  66.483  1.00  0.00    -0.113 C  
HETATM    6  C   UNL     1      -8.971   8.695  66.434  1.00  0.00    -0.197 C  
HETATM    7  C   UNL     1      -7.101   6.300  65.664  1.00  0.00    -0.065 C  
HETATM    8  C   UNL     1      -9.351   5.221  65.599  1.00  0.00    -0.126 C  
HETATM    9  C   UNL     1      -7.400   8.601  67.370  1.00  0.00    -0.089 C  
HETATM   10  C   UNL     1      -9.046   9.232  65.047  1.00  0.00    -0.245 C  
HETATM   11  O   UNL     1      -6.803   9.871  67.686  1.00  0.00    -0.082 OA 
HETATM   12  C   UNL     1      -8.806   4.985  70.407  1.00  0.00    -0.140 C  
HETATM   13  C   UNL     1      -7.536   7.664  68.831  1.00  0.00    -0.101 C  
HETATM   14  H   UNL     1      -5.988   9.822  68.171  1.00  0.00     0.000 HD 
HETATM   15  C   UNL     1      -8.936   6.433  70.920  1.00  0.00    -0.144 C  
HETATM   16  C   UNL     1      -8.999   7.455  69.712  1.00  0.00    -0.141 C  
HETATM   17  H   UNL     1      -8.159   6.657  75.002  1.00  0.00     0.000 HD 
HETATM   18  C   UNL     1      -7.677   6.696  71.821  1.00  0.00    -0.097 C  
HETATM   19  C   UNL     1     -10.490   7.416  68.882  1.00  0.00    -0.213 C  
HETATM   20  C   UNL     1     -11.629   7.601  69.885  1.00  0.00     0.158 C  
HETATM   21  C   UNL     1     -11.558   6.544  70.985  1.00  0.00    -0.405 C  
HETATM   22  C   UNL     1     -10.247   6.554  71.802  1.00  0.00    -0.210 C  
HETATM   23  C   UNL     1     -10.251   7.771  72.763  1.00  0.00    -0.360 C  
HETATM   24  C   UNL     1      -9.011   7.809  73.647  1.00  0.00    -0.277 C  
HETATM   25  O   UNL     1      -8.933   6.633  74.450  1.00  0.00    -0.157 OA 
HETATM   26  C   UNL     1      -7.781   7.906  72.755  1.00  0.00    -0.150 C  
ENDROOT
BRANCH   8  27
HETATM   27  C   UNL     1      -8.773   3.839  65.215  1.00  0.00    -0.116 C  
HETATM   28  O   UNL     1      -9.293   3.017  67.444  1.00  0.00    -0.192 OA 
HETATM   29  C   UNL     1      -8.842   2.819  66.330  1.00  0.00    -0.144 C  
HETATM   30  O   UNL     1      -8.366   1.608  65.946  1.00  0.00    -0.081 OA 
ENDBRANCH   8  27
TORSDOF 1
ENDMDL
MODEL       61
REMARK 921   NORMALIZED FREE ENERGY PREDICTED BY IDOCK:   -4.36 KCAL/MOL
REMARK 922        TOTAL FREE ENERGY PREDICTED BY IDOCK:   -4.92 KCAL/MOL
REMARK 923 INTER-LIGAND FREE ENERGY PREDICTED BY IDOCK:   -4.73 KCAL/MOL
REMARK 924 INTRA-LIGAND FREE ENERGY PREDICTED BY IDOCK:   -0.19 KCAL/MOL
REMARK 927      BINDING AFFINITY PREDICTED BY RF-SCORE:    0.00 PKD
ROOT
HETATM    1  C   UNL     1     -11.465   6.229  71.467  1.00  0.00    -0.351 C  
HETATM    2  C   UNL     1     -11.607   5.711  72.779  1.00  0.00    -0.289 C  
HETATM    3  C   UNL     1     -10.428   6.604  72.587  1.00  0.00    -0.237 C  
HETATM    4  C   UNL     1     -10.425   7.527  70.766  1.00  0.00    -0.217 C  
HETATM    5  C   UNL     1      -9.689   8.566  69.703  1.00  0.00    -0.179 C  
HETATM    6  C   UNL     1     -10.952   8.065  71.903  1.00  0.00    -0.321 C  
HETATM    7  C   UNL     1      -9.349  10.025  70.054  1.00  0.00    -0.165 C  
HETATM    8  C   UNL     1     -10.604   8.665  68.378  1.00  0.00    -0.169 C  
HETATM    9  C   UNL     1      -9.230   8.399  72.428  1.00  0.00    -0.275 C  
HETATM   10  C   UNL     1     -12.064   9.025  72.149  1.00  0.00    -0.412 C  
HETATM   11  O   UNL     1      -9.031   8.472  73.851  1.00  0.00    -0.205 OA 
HETATM   12  C   UNL     1      -7.086   5.423  69.139  1.00  0.00    -0.057 C  
HETATM   13  C   UNL     1      -8.086   7.271  71.758  1.00  0.00    -0.100 C  
HETATM   14  H   UNL     1      -8.138   8.645  74.123  1.00  0.00     0.000 HD 
HETATM   15  C   UNL     1      -7.326   4.860  70.553  1.00  0.00    -0.054 C  
HETATM   16  C   UNL     1      -8.476   5.662  71.290  1.00  0.00    -0.128 C  
HETATM   17  H   UNL     1      -4.260   2.287  71.690  1.00  0.00     0.000 HD 
HETATM   18  C   UNL     1      -5.962   4.993  71.319  1.00  0.00    -0.017 C  
HETATM   19  C   UNL     1     -10.031   5.309  70.681  1.00  0.00    -0.287 C  
HETATM   20  C   UNL     1     -10.248   3.796  70.700  1.00  0.00     0.328 C  
HETATM   21  C   UNL     1      -9.150   3.083  69.913  1.00  0.00    -0.196 C  
HETATM   22  C   UNL     1      -7.719   3.329  70.441  1.00  0.00    -0.043 C  
HETATM   23  C   UNL     1      -7.511   2.526  71.752  1.00  0.00    -0.040 C  
HETATM   24  C   UNL     1      -6.096   2.674  72.297  1.00  0.00    -0.013 C  
HETATM   25  O   UNL     1      -5.143   2.195  71.350  1.00  0.00     0.000 OA 
HETATM   26  C   UNL     1      -5.838   4.145  72.589  1.00  0.00    -0.015 C  
ENDROOT
BRANCH   8  27
HETATM   27  C   UNL     1      -9.990   9.421  67.176  1.00  0.00    -0.263 C  
HETATM   28  O   UNL     1     -11.674  11.159  67.428  1.00  0.00    -0.564 OA 
HETATM   29  C   UNL     1     -10.702  10.714  66.843  1.00  0.00    -0.237 C  
HETATM   30  O   UNL     1     -10.115  11.371  65.812  1.00  0.00    -0.226 OA 
ENDBRANCH   8  27
TORSDOF 1
ENDMDL
MODEL       62
REMARK 921   NORMALIZED FREE ENERGY PREDICTED BY IDOCK:   -4.34 KCAL/MOL
REMARK 922        TOTAL FREE ENERGY PREDICTED BY IDOCK:   -4.90 KCAL/MOL
REMARK 923 INTER-LIGAND FREE ENERGY PREDICTED BY IDOCK:   -4.59 KCAL/MOL
REMARK 924 INTRA-LIGAND FREE ENERGY PREDICTED BY IDOCK:   -0.31 KCAL/MOL
REMARK 927      BINDING AFFINITY PREDICTED BY RF-SCORE:    0.00 PKD
ROOT
HETATM    1  C   UNL     1     -10.213   5.223  67.205  1.00  0.00    -0.252 C  
HETATM    2  C   UNL     1      -9.791   5.085  65.858  1.00  0.00    -0.183 C  
HETATM    3  C   UNL     1      -8.683   5.143  66.856  1.00  0.00    -0.107 C  
HETATM    4  C   UNL     1      -9.350   5.071  68.783  1.00  0.00    -0.175 C  
HETATM    5  C   UNL     1      -9.005   5.066  70.405  1.00  0.00    -0.159 C  
HETATM    6  C   UNL     1      -8.966   3.981  68.059  1.00  0.00    -0.153 C  
HETATM    7  C   UNL     1      -8.064   4.040  71.060  1.00  0.00    -0.064 C  
HETATM    8  C   UNL     1     -10.392   4.928  71.217  1.00  0.00    -0.219 C  
HETATM    9  C   UNL     1      -7.240   4.521  68.344  1.00  0.00    -0.060 C  
HETATM   10  C   UNL     1      -9.372   2.548  68.090  1.00  0.00    -0.261 C  
HETATM   11  O   UNL     1      -6.296   4.092  67.346  1.00  0.00    -0.035 OA 
HETATM   12  C   UNL     1      -8.348   9.090  69.815  1.00  0.00    -0.129 C  
HETATM   13  C   UNL     1      -7.094   6.243  68.553  1.00  0.00    -0.083 C  
HETATM   14  H   UNL     1      -5.401   4.372  67.494  1.00  0.00     0.000 HD 
HETATM   15  C   UNL     1      -7.962   8.896  68.336  1.00  0.00    -0.105 C  
HETATM   16  C   UNL     1      -8.186   7.394  67.888  1.00  0.00    -0.120 C  
HETATM   17  H   UNL     1      -5.841  12.172  66.892  1.00  0.00     0.000 HD 
HETATM   18  C   UNL     1      -6.450   9.303  68.217  1.00  0.00    -0.055 C  
HETATM   19  C   UNL     1      -9.835   6.991  67.706  1.00  0.00    -0.166 C  
HETATM   20  C   UNL     1     -10.499   8.001  66.771  1.00  0.00    -0.319 C  
HETATM   21  C   UNL     1     -10.312   9.425  67.292  1.00  0.00    -0.325 C  
HETATM   22  C   UNL     1      -8.839   9.865  67.440  1.00  0.00    -0.137 C  
HETATM   23  C   UNL     1      -8.242  10.140  66.035  1.00  0.00    -0.131 C  
HETATM   24  C   UNL     1      -6.805  10.640  66.110  1.00  0.00    -0.135 C  
HETATM   25  O   UNL     1      -6.737  11.860  66.845  1.00  0.00    -0.138 OA 
HETATM   26  C   UNL     1      -5.955   9.578  66.793  1.00  0.00    -0.059 C  
ENDROOT
BRANCH   8  27
HETATM   27  C   UNL     1     -10.311   5.115  72.751  1.00  0.00    -0.242 C  
HETATM   28  O   UNL     1     -10.503   7.522  72.455  1.00  0.00    -0.214 OA 
HETATM   29  C   UNL     1     -10.392   6.559  73.194  1.00  0.00    -0.231 C  
HETATM   30  O   UNL     1     -10.359   6.683  74.544  1.00  0.00    -0.328 OA 
ENDBRANCH   8  27
TORSDOF 1
ENDMDL
MODEL       63
REMARK 921   NORMALIZED FREE ENERGY PREDICTED BY IDOCK:   -4.30 KCAL/MOL
REMARK 922        TOTAL FREE ENERGY PREDICTED BY IDOCK:   -4.86 KCAL/MOL
REMARK 923 INTER-LIGAND FREE ENERGY PREDICTED BY IDOCK:   -4.72 KCAL/MOL
REMARK 924 INTRA-LIGAND FREE ENERGY PREDICTED BY IDOCK:   -0.13 KCAL/MOL
REMARK 927      BINDING AFFINITY PREDICTED BY RF-SCORE:    0.00 PKD
ROOT
HETATM    1  C   UNL     1      -7.353   7.811  66.813  1.00  0.00    -0.089 C  
HETATM    2  C   UNL     1      -7.274   6.472  66.353  1.00  0.00    -0.073 C  
HETATM    3  C   UNL     1      -8.609   6.868  66.890  1.00  0.00    -0.116 C  
HETATM    4  C   UNL     1      -8.739   8.866  67.286  1.00  0.00    -0.125 C  
HETATM    5  C   UNL     1      -9.641  10.150  67.823  1.00  0.00    -0.168 C  
HETATM    6  C   UNL     1      -9.116   8.286  66.110  1.00  0.00    -0.238 C  
HETATM    7  C   UNL     1     -10.999  10.537  67.213  1.00  0.00    -0.325 C  
HETATM    8  C   UNL     1      -8.742  11.484  67.704  1.00  0.00    -0.142 C  
HETATM    9  C   UNL     1     -10.607   7.693  66.991  1.00  0.00    -0.336 C  
HETATM   10  C   UNL     1      -9.159   8.779  64.705  1.00  0.00     0.084 C  
HETATM   11  O   UNL     1     -11.199   6.499  66.449  1.00  0.00    -0.559 OA 
HETATM   12  C   UNL     1      -8.904   8.528  71.538  1.00  0.00    -0.260 C  
HETATM   13  C   UNL     1     -10.340   7.464  68.696  1.00  0.00    -0.215 C  
HETATM   14  H   UNL     1     -11.972   6.191  66.906  1.00  0.00     0.000 HD 
HETATM   15  C   UNL     1      -8.760   7.099  70.979  1.00  0.00    -0.141 C  
HETATM   16  C   UNL     1      -8.809   7.107  69.396  1.00  0.00    -0.136 C  
HETATM   17  H   UNL     1      -9.219   4.255  73.981  1.00  0.00     0.000 HD 
HETATM   18  C   UNL     1      -9.949   6.268  71.579  1.00  0.00    -0.208 C  
HETATM   19  C   UNL     1      -7.387   7.731  68.687  1.00  0.00    -0.087 C  
HETATM   20  C   UNL     1      -6.177   6.983  69.246  1.00  0.00    -0.034 C  
HETATM   21  C   UNL     1      -6.143   7.072  70.770  1.00  0.00    -0.032 C  
HETATM   22  C   UNL     1      -7.386   6.486  71.475  1.00  0.00    -0.087 C  
HETATM   23  C   UNL     1      -7.328   4.936  71.414  1.00  0.00    -0.073 C  
HETATM   24  C   UNL     1      -8.496   4.289  72.147  1.00  0.00    -0.107 C  
HETATM   25  O   UNL     1      -8.490   4.660  73.524  1.00  0.00    -0.102 OA 
HETATM   26  C   UNL     1      -9.793   4.747  71.495  1.00  0.00    -0.253 C  
ENDROOT
BRANCH   8  27
HETATM   27  C   UNL     1      -9.324  12.764  68.351  1.00  0.00    -0.143 C  
HETATM   28  O   UNL     1      -9.780  13.659  66.135  1.00  0.00    -0.285 OA 
HETATM   29  C   UNL     1      -9.818  13.782  67.347  1.00  0.00    -0.238 C  
HETATM   30  O   UNL     1     -10.358  14.872  67.947  1.00  0.00    -0.234 OA 
ENDBRANCH   8  27
TORSDOF 1
ENDMDL
MODEL       64
REMARK 921   NORMALIZED FREE ENERGY PREDICTED BY IDOCK:   -4.29 KCAL/MOL
REMARK 922        TOTAL FREE ENERGY PREDICTED BY IDOCK:   -4.85 KCAL/MOL
REMARK 923 INTER-LIGAND FREE ENERGY PREDICTED BY IDOCK:   -4.65 KCAL/MOL
REMARK 924 INTRA-LIGAND FREE ENERGY PREDICTED BY IDOCK:   -0.20 KCAL/MOL
REMARK 927      BINDING AFFINITY PREDICTED BY RF-SCORE:    0.00 PKD
ROOT
HETATM    1  C   UNL     1      -8.596  12.552  68.440  1.00  0.00    -0.123 C  
HETATM    2  C   UNL     1      -8.640  13.543  67.427  1.00  0.00    -0.209 C  
HETATM    3  C   UNL     1      -9.545  12.379  67.198  1.00  0.00    -0.206 C  
HETATM    4  C   UNL     1      -9.639  11.124  68.805  1.00  0.00    -0.180 C  
HETATM    5  C   UNL     1     -10.255   9.749  69.497  1.00  0.00    -0.238 C  
HETATM    6  C   UNL     1     -10.506  12.152  68.577  1.00  0.00    -0.248 C  
HETATM    7  C   UNL     1     -11.763   9.486  69.644  1.00  0.00     0.199 C  
HETATM    8  C   UNL     1      -9.668   9.630  70.995  1.00  0.00    -0.051 C  
HETATM    9  C   UNL     1     -11.279  11.089  67.302  1.00  0.00    -0.258 C  
HETATM   10  C   UNL     1     -11.304  13.025  69.483  1.00  0.00    -0.223 C  
HETATM   11  O   UNL     1     -11.952  11.797  66.247  1.00  0.00    -0.490 OA 
HETATM   12  C   UNL     1      -7.583   7.844  67.004  1.00  0.00    -0.100 C  
HETATM   13  C   UNL     1     -10.161   9.956  66.596  1.00  0.00    -0.293 C  
HETATM   14  H   UNL     1     -12.353  11.246  65.585  1.00  0.00     0.000 HD 
HETATM   15  C   UNL     1      -7.614   8.982  65.964  1.00  0.00    -0.094 C  
HETATM   16  C   UNL     1      -8.462  10.208  66.497  1.00  0.00    -0.128 C  
HETATM   17  H   UNL     1      -6.216   7.679  62.269  1.00  0.00     0.000 HD 
HETATM   18  C   UNL     1      -8.249   8.374  64.664  1.00  0.00    -0.157 C  
HETATM   19  C   UNL     1      -7.664  11.092  67.719  1.00  0.00    -0.112 C  
HETATM   20  C   UNL     1      -6.275  11.494  67.223  1.00  0.00    -0.104 C  
HETATM   21  C   UNL     1      -5.478  10.264  66.793  1.00  0.00    -0.046 C  
HETATM   22  C   UNL     1      -6.129   9.442  65.658  1.00  0.00    -0.060 C  
HETATM   23  C   UNL     1      -5.968  10.203  64.316  1.00  0.00    -0.139 C  
HETATM   24  C   UNL     1      -6.535   9.418  63.140  1.00  0.00    -0.092 C  
HETATM   25  O   UNL     1      -5.862   8.168  63.002  1.00  0.00    -0.070 OA 
HETATM   26  C   UNL     1      -8.019   9.182  63.383  1.00  0.00    -0.148 C  
ENDROOT
BRANCH   8  27
HETATM   27  C   UNL     1      -9.955   8.305  71.742  1.00  0.00    -0.284 C  
HETATM   28  O   UNL     1      -8.145   8.802  73.289  1.00  0.00    -0.407 OA 
HETATM   29  C   UNL     1      -9.041   8.062  72.922  1.00  0.00    -0.248 C  
HETATM   30  O   UNL     1      -9.345   6.914  73.577  1.00  0.00    -0.147 OA 
ENDBRANCH   8  27
TORSDOF 1
ENDMDL
MODEL       65
REMARK 921   NORMALIZED FREE ENERGY PREDICTED BY IDOCK:   -4.27 KCAL/MOL
REMARK 922        TOTAL FREE ENERGY PREDICTED BY IDOCK:   -4.82 KCAL/MOL
REMARK 923 INTER-LIGAND FREE ENERGY PREDICTED BY IDOCK:   -4.52 KCAL/MOL
REMARK 924 INTRA-LIGAND FREE ENERGY PREDICTED BY IDOCK:   -0.30 KCAL/MOL
REMARK 927      BINDING AFFINITY PREDICTED BY RF-SCORE:    0.00 PKD
ROOT
HETATM    1  C   UNL     1      -9.017   8.388  70.596  1.00  0.00    -0.168 C  
HETATM    2  C   UNL     1      -9.688   9.226  69.669  1.00  0.00    -0.192 C  
HETATM    3  C   UNL     1     -10.344   7.907  69.904  1.00  0.00    -0.224 C  
HETATM    4  C   UNL     1      -9.489   6.862  71.435  1.00  0.00    -0.160 C  
HETATM    5  C   UNL     1      -9.458   5.498  72.378  1.00  0.00    -0.160 C  
HETATM    6  C   UNL     1     -10.562   7.693  71.573  1.00  0.00    -0.239 C  
HETATM    7  C   UNL     1     -10.672   5.005  73.182  1.00  0.00    -0.314 C  
HETATM    8  C   UNL     1      -8.282   5.665  73.469  1.00  0.00    -0.112 C  
HETATM    9  C   UNL     1     -11.566   6.366  70.808  1.00  0.00    -0.338 C  
HETATM   10  C   UNL     1     -11.061   8.523  72.704  1.00  0.00    -0.217 C  
HETATM   11  O   UNL     1     -12.752   6.816  70.130  1.00  0.00    -0.406 OA 
HETATM   12  C   UNL     1      -7.765   3.778  69.037  1.00  0.00    -0.053 C  
HETATM   13  C   UNL     1     -10.647   5.360  69.725  1.00  0.00    -0.347 C  
HETATM   14  H   UNL     1     -13.273   6.128  69.732  1.00  0.00     0.000 HD 
HETATM   15  C   UNL     1      -8.466   4.758  68.075  1.00  0.00    -0.102 C  
HETATM   16  C   UNL     1      -9.241   5.880  68.880  1.00  0.00    -0.126 C  
HETATM   17  H   UNL     1      -8.530   3.264  64.192  1.00  0.00     0.000 HD 
HETATM   18  C   UNL     1      -9.453   3.896  67.210  1.00  0.00    -0.235 C  
HETATM   19  C   UNL     1      -8.200   7.029  69.593  1.00  0.00    -0.131 C  
HETATM   20  C   UNL     1      -7.267   7.595  68.523  1.00  0.00    -0.086 C  
HETATM   21  C   UNL     1      -6.494   6.474  67.832  1.00  0.00    -0.052 C  
HETATM   22  C   UNL     1      -7.380   5.421  67.131  1.00  0.00    -0.083 C  
HETATM   23  C   UNL     1      -7.962   6.027  65.827  1.00  0.00    -0.113 C  
HETATM   24  C   UNL     1      -8.800   5.019  65.049  1.00  0.00    -0.149 C  
HETATM   25  O   UNL     1      -8.008   3.892  64.677  1.00  0.00    -0.085 OA 
HETATM   26  C   UNL     1      -9.958   4.568  65.928  1.00  0.00    -0.260 C  
ENDROOT
BRANCH   8  27
HETATM   27  C   UNL     1      -7.946   4.413  74.314  1.00  0.00    -0.092 C  
HETATM   28  O   UNL     1      -6.284   3.760  72.662  1.00  0.00    -0.011 OA 
HETATM   29  C   UNL     1      -6.864   3.545  73.712  1.00  0.00    -0.044 C  
HETATM   30  O   UNL     1      -6.566   2.479  74.497  1.00  0.00    -0.022 OA 
ENDBRANCH   8  27
TORSDOF 1
ENDMDL
MODEL       66
REMARK 921   NORMALIZED FREE ENERGY PREDICTED BY IDOCK:   -4.25 KCAL/MOL
REMARK 922        TOTAL FREE ENERGY PREDICTED BY IDOCK:   -4.81 KCAL/MOL
REMARK 923 INTER-LIGAND FREE ENERGY PREDICTED BY IDOCK:   -4.60 KCAL/MOL
REMARK 924 INTRA-LIGAND FREE ENERGY PREDICTED BY IDOCK:   -0.20 KCAL/MOL
REMARK 927      BINDING AFFINITY PREDICTED BY RF-SCORE:    0.00 PKD
ROOT
HETATM    1  C   UNL     1     -10.050  10.371  68.743  1.00  0.00    -0.198 C  
HETATM    2  C   UNL     1     -11.081  10.591  67.794  1.00  0.00    -0.382 C  
HETATM    3  C   UNL     1     -10.596   9.182  67.871  1.00  0.00    -0.272 C  
HETATM    4  C   UNL     1      -9.313   8.873  69.429  1.00  0.00    -0.153 C  
HETATM    5  C   UNL     1      -8.348   7.832  70.287  1.00  0.00    -0.127 C  
HETATM    6  C   UNL     1     -10.660   8.668  69.486  1.00  0.00    -0.218 C  
HETATM    7  C   UNL     1      -8.868   6.526  70.910  1.00  0.00    -0.147 C  
HETATM    8  C   UNL     1      -7.697   8.646  71.518  1.00  0.00    -0.152 C  
HETATM    9  C   UNL     1     -10.370   7.133  68.530  1.00  0.00    -0.183 C  
HETATM   10  C   UNL     1     -11.650   8.744  70.597  1.00  0.00    -0.236 C  
HETATM   11  O   UNL     1     -11.489   6.687  67.743  1.00  0.00    -0.654 OA 
HETATM   12  C   UNL     1      -5.802   8.268  67.076  1.00  0.00    -0.046 C  
HETATM   13  C   UNL     1      -8.965   7.227  67.508  1.00  0.00    -0.122 C  
HETATM   14  H   UNL     1     -11.338   5.891  67.247  1.00  0.00     0.000 HD 
HETATM   15  C   UNL     1      -6.953   8.570  66.097  1.00  0.00    -0.076 C  
HETATM   16  C   UNL     1      -8.330   8.693  66.868  1.00  0.00    -0.108 C  
HETATM   17  H   UNL     1      -5.765   7.982  62.153  1.00  0.00     0.000 HD 
HETATM   18  C   UNL     1      -6.982   7.382  65.071  1.00  0.00    -0.051 C  
HETATM   19  C   UNL     1      -8.465  10.138  67.767  1.00  0.00    -0.114 C  
HETATM   20  C   UNL     1      -8.182  11.329  66.851  1.00  0.00    -0.153 C  
HETATM   21  C   UNL     1      -6.811  11.190  66.192  1.00  0.00    -0.004 C  
HETATM   22  C   UNL     1      -6.639   9.920  65.329  1.00  0.00    -0.105 C  
HETATM   23  C   UNL     1      -7.426  10.090  64.003  1.00  0.00    -0.135 C  
HETATM   24  C   UNL     1      -7.250   8.896  63.074  1.00  0.00    -0.092 C  
HETATM   25  O   UNL     1      -5.875   8.727  62.733  1.00  0.00    -0.082 OA 
HETATM   26  C   UNL     1      -7.763   7.650  63.780  1.00  0.00    -0.126 C  
ENDROOT
BRANCH   8  27
HETATM   27  C   UNL     1      -6.598   7.911  72.322  1.00  0.00    -0.063 C  
HETATM   28  O   UNL     1      -7.553   8.770  74.388  1.00  0.00    -0.414 OA 
HETATM   29  C   UNL     1      -6.706   8.104  73.818  1.00  0.00    -0.121 C  
HETATM   30  O   UNL     1      -5.754   7.414  74.494  1.00  0.00    -0.069 OA 
ENDBRANCH   8  27
TORSDOF 1
ENDMDL
MODEL       67
REMARK 921   NORMALIZED FREE ENERGY PREDICTED BY IDOCK:   -4.25 KCAL/MOL
REMARK 922        TOTAL FREE ENERGY PREDICTED BY IDOCK:   -4.80 KCAL/MOL
REMARK 923 INTER-LIGAND FREE ENERGY PREDICTED BY IDOCK:   -4.51 KCAL/MOL
REMARK 924 INTRA-LIGAND FREE ENERGY PREDICTED BY IDOCK:   -0.30 KCAL/MOL
REMARK 927      BINDING AFFINITY PREDICTED BY RF-SCORE:    0.00 PKD
ROOT
HETATM    1  C   UNL     1      -6.125   6.620  68.992  1.00  0.00    -0.026 C  
HETATM    2  C   UNL     1      -5.857   5.850  70.152  1.00  0.00    -0.024 C  
HETATM    3  C   UNL     1      -7.040   5.397  69.364  1.00  0.00    -0.063 C  
HETATM    4  C   UNL     1      -7.217   6.368  67.577  1.00  0.00    -0.086 C  
HETATM    5  C   UNL     1      -8.045   6.587  66.157  1.00  0.00    -0.118 C  
HETATM    6  C   UNL     1      -6.572   5.179  67.748  1.00  0.00    -0.050 C  
HETATM    7  C   UNL     1      -8.333   5.445  65.168  1.00  0.00    -0.144 C  
HETATM    8  C   UNL     1      -7.268   7.700  65.286  1.00  0.00    -0.065 C  
HETATM    9  C   UNL     1      -8.229   4.406  67.852  1.00  0.00    -0.095 C  
HETATM   10  C   UNL     1      -5.430   4.534  67.041  1.00  0.00    -0.013 C  
HETATM   11  O   UNL     1      -8.281   3.179  68.602  1.00  0.00    -0.063 OA 
HETATM   12  C   UNL     1     -10.726   8.593  68.559  1.00  0.00    -0.091 C  
HETATM   13  C   UNL     1      -9.446   5.491  68.460  1.00  0.00    -0.150 C  
HETATM   14  H   UNL     1      -9.141   2.779  68.656  1.00  0.00     0.000 HD 
HETATM   15  C   UNL     1     -10.350   7.773  69.808  1.00  0.00    -0.221 C  
HETATM   16  C   UNL     1      -9.122   6.818  69.506  1.00  0.00    -0.141 C  
HETATM   17  H   UNL     1     -13.312   8.020  72.719  1.00  0.00     0.000 HD 
HETATM   18  C   UNL     1     -11.628   6.948  70.196  1.00  0.00    -0.340 C  
HETATM   19  C   UNL     1      -7.641   7.656  69.378  1.00  0.00    -0.095 C  
HETATM   20  C   UNL     1      -7.439   8.515  70.626  1.00  0.00    -0.066 C  
HETATM   21  C   UNL     1      -8.619   9.465  70.825  1.00  0.00    -0.201 C  
HETATM   22  C   UNL     1      -9.987   8.765  70.989  1.00  0.00    -0.297 C  
HETATM   23  C   UNL     1     -10.070   8.125  72.399  1.00  0.00    -0.355 C  
HETATM   24  C   UNL     1     -11.421   7.468  72.653  1.00  0.00    -0.319 C  
HETATM   25  O   UNL     1     -12.470   8.430  72.560  1.00  0.00    -0.364 OA 
HETATM   26  C   UNL     1     -11.632   6.374  71.616  1.00  0.00    -0.363 C  
ENDROOT
BRANCH   8  27
HETATM   27  C   UNL     1      -7.992   8.204  64.014  1.00  0.00    -0.139 C  
HETATM   28  O   UNL     1      -8.974  10.015  65.307  1.00  0.00    -0.161 OA 
HETATM   29  C   UNL     1      -8.836   9.438  64.243  1.00  0.00    -0.184 C  
HETATM   30  O   UNL     1      -9.423   9.876  63.102  1.00  0.00    -0.271 OA 
ENDBRANCH   8  27
TORSDOF 1
ENDMDL
MODEL       68
REMARK 921   NORMALIZED FREE ENERGY PREDICTED BY IDOCK:   -4.21 KCAL/MOL
REMARK 922        TOTAL FREE ENERGY PREDICTED BY IDOCK:   -4.77 KCAL/MOL
REMARK 923 INTER-LIGAND FREE ENERGY PREDICTED BY IDOCK:   -4.46 KCAL/MOL
REMARK 924 INTRA-LIGAND FREE ENERGY PREDICTED BY IDOCK:   -0.31 KCAL/MOL
REMARK 927      BINDING AFFINITY PREDICTED BY RF-SCORE:    0.00 PKD
ROOT
HETATM    1  C   UNL     1     -11.283   6.596  70.713  1.00  0.00    -0.366 C  
HETATM    2  C   UNL     1     -11.470   6.216  72.067  1.00  0.00    -0.366 C  
HETATM    3  C   UNL     1     -10.219   6.985  71.802  1.00  0.00    -0.209 C  
HETATM    4  C   UNL     1     -10.136   7.731  69.904  1.00  0.00    -0.203 C  
HETATM    5  C   UNL     1      -9.314   8.600  68.756  1.00  0.00    -0.142 C  
HETATM    6  C   UNL     1     -10.617   8.415  70.982  1.00  0.00    -0.258 C  
HETATM    7  C   UNL     1      -8.852  10.051  68.972  1.00  0.00    -0.159 C  
HETATM    8  C   UNL     1     -10.216   8.652  67.419  1.00  0.00    -0.329 C  
HETATM    9  C   UNL     1      -8.873   8.650  71.488  1.00  0.00    -0.219 C  
HETATM   10  C   UNL     1     -11.643   9.484  71.128  1.00  0.00    -0.439 C  
HETATM   11  O   UNL     1      -8.670   8.839  72.899  1.00  0.00    -0.379 OA 
HETATM   12  C   UNL     1      -6.986   5.209  68.508  1.00  0.00    -0.057 C  
HETATM   13  C   UNL     1      -7.829   7.372  70.935  1.00  0.00    -0.096 C  
HETATM   14  H   UNL     1      -7.765   8.960  73.162  1.00  0.00     0.000 HD 
HETATM   15  C   UNL     1      -7.275   4.803  69.967  1.00  0.00    -0.054 C  
HETATM   16  C   UNL     1      -8.353   5.764  70.616  1.00  0.00    -0.120 C  
HETATM   17  H   UNL     1      -4.439   2.098  71.364  1.00  0.00     0.000 HD 
HETATM   18  C   UNL     1      -5.905   4.891  70.728  1.00  0.00    -0.017 C  
HETATM   19  C   UNL     1      -9.932   5.489  70.028  1.00  0.00    -0.285 C  
HETATM   20  C   UNL     1     -10.276   4.008  70.186  1.00  0.00     0.328 C  
HETATM   21  C   UNL     1      -9.242   3.135  69.478  1.00  0.00    -0.222 C  
HETATM   22  C   UNL     1      -7.796   3.307  69.994  1.00  0.00    -0.050 C  
HETATM   23  C   UNL     1      -7.658   2.615  71.375  1.00  0.00    -0.040 C  
HETATM   24  C   UNL     1      -6.236   2.693  71.916  1.00  0.00    -0.014 C  
HETATM   25  O   UNL     1      -5.326   2.049  71.026  1.00  0.00    -0.004 OA 
HETATM   26  C   UNL     1      -5.854   4.158  72.073  1.00  0.00    -0.012 C  
ENDROOT
BRANCH   8  27
HETATM   27  C   UNL     1      -9.540   9.238  66.157  1.00  0.00    -0.327 C  
HETATM   28  O   UNL     1      -8.577   7.056  65.676  1.00  0.00    -0.151 OA 
HETATM   29  C   UNL     1      -8.726   8.229  65.378  1.00  0.00    -0.113 C  
HETATM   30  O   UNL     1      -8.181   8.765  64.258  1.00  0.00    -0.154 OA 
ENDBRANCH   8  27
TORSDOF 1
ENDMDL
MODEL       69
REMARK 921   NORMALIZED FREE ENERGY PREDICTED BY IDOCK:   -4.17 KCAL/MOL
REMARK 922        TOTAL FREE ENERGY PREDICTED BY IDOCK:   -4.72 KCAL/MOL
REMARK 923 INTER-LIGAND FREE ENERGY PREDICTED BY IDOCK:   -4.53 KCAL/MOL
REMARK 924 INTRA-LIGAND FREE ENERGY PREDICTED BY IDOCK:   -0.19 KCAL/MOL
REMARK 927      BINDING AFFINITY PREDICTED BY RF-SCORE:    0.00 PKD
ROOT
HETATM    1  C   UNL     1      -9.486   8.107  71.884  1.00  0.00    -0.260 C  
HETATM    2  C   UNL     1     -10.533   9.060  71.971  1.00  0.00    -0.309 C  
HETATM    3  C   UNL     1     -10.740   8.000  70.942  1.00  0.00    -0.240 C  
HETATM    4  C   UNL     1      -9.343   6.515  71.044  1.00  0.00    -0.164 C  
HETATM    5  C   UNL     1      -8.750   5.082  70.457  1.00  0.00    -0.132 C  
HETATM    6  C   UNL     1     -10.553   6.481  71.673  1.00  0.00    -0.250 C  
HETATM    7  C   UNL     1      -9.596   3.802  70.356  1.00  0.00    -0.262 C  
HETATM    8  C   UNL     1      -7.472   4.661  71.347  1.00  0.00    -0.076 C  
HETATM    9  C   UNL     1     -11.285   6.112  70.035  1.00  0.00    -0.401 C  
HETATM   10  C   UNL     1     -11.025   5.830  72.926  1.00  0.00    -0.312 C  
HETATM   11  O   UNL     1     -12.660   6.506  69.881  1.00  0.00    -0.056 OA 
HETATM   12  C   UNL     1      -7.353   7.443  67.383  1.00  0.00    -0.102 C  
HETATM   13  C   UNL     1     -10.360   6.769  68.716  1.00  0.00    -0.211 C  
HETATM   14  H   UNL     1     -13.040   6.315  69.032  1.00  0.00     0.000 HD 
HETATM   15  C   UNL     1      -8.473   8.487  67.563  1.00  0.00    -0.128 C  
HETATM   16  C   UNL     1      -9.350   8.156  68.840  1.00  0.00    -0.147 C  
HETATM   17  H   UNL     1      -8.898  10.840  64.158  1.00  0.00     0.000 HD 
HETATM   18  C   UNL     1      -9.337   8.437  66.253  1.00  0.00    -0.283 C  
HETATM   19  C   UNL     1      -8.544   8.490  70.307  1.00  0.00    -0.137 C  
HETATM   20  C   UNL     1      -8.036   9.932  70.285  1.00  0.00    -0.115 C  
HETATM   21  C   UNL     1      -7.138  10.170  69.073  1.00  0.00    -0.072 C  
HETATM   22  C   UNL     1      -7.822   9.924  67.709  1.00  0.00    -0.094 C  
HETATM   23  C   UNL     1      -8.797  11.092  67.407  1.00  0.00    -0.139 C  
HETATM   24  C   UNL     1      -9.463  10.946  66.044  1.00  0.00    -0.203 C  
HETATM   25  O   UNL     1      -8.483  10.931  65.008  1.00  0.00    -0.127 OA 
HETATM   26  C   UNL     1     -10.252   9.644  66.026  1.00  0.00    -0.255 C  
ENDROOT
BRANCH   8  27
HETATM   27  C   UNL     1      -6.644   3.460  70.833  1.00  0.00    -0.031 C  
HETATM   28  O   UNL     1      -5.984   2.955  73.120  1.00  0.00    -0.007 OA 
HETATM   29  C   UNL     1      -5.941   2.692  71.931  1.00  0.00    -0.013 C  
HETATM   30  O   UNL     1      -5.259   1.622  71.451  1.00  0.00    -0.003 OA 
ENDBRANCH   8  27
TORSDOF 1
ENDMDL
MODEL       70
REMARK 921   NORMALIZED FREE ENERGY PREDICTED BY IDOCK:   -4.15 KCAL/MOL
REMARK 922        TOTAL FREE ENERGY PREDICTED BY IDOCK:   -4.70 KCAL/MOL
REMARK 923 INTER-LIGAND FREE ENERGY PREDICTED BY IDOCK:   -4.50 KCAL/MOL
REMARK 924 INTRA-LIGAND FREE ENERGY PREDICTED BY IDOCK:   -0.20 KCAL/MOL
REMARK 927      BINDING AFFINITY PREDICTED BY RF-SCORE:    0.00 PKD
ROOT
HETATM    1  C   UNL     1     -10.230   9.154  70.335  1.00  0.00    -0.268 C  
HETATM    2  C   UNL     1     -11.078   9.909  69.485  1.00  0.00    -0.255 C  
HETATM    3  C   UNL     1     -10.681   8.576  68.944  1.00  0.00    -0.100 C  
HETATM    4  C   UNL     1      -9.688   7.432  70.313  1.00  0.00    -0.172 C  
HETATM    5  C   UNL     1      -8.929   6.006  70.687  1.00  0.00    -0.150 C  
HETATM    6  C   UNL     1     -11.035   7.387  70.101  1.00  0.00    -0.272 C  
HETATM    7  C   UNL     1      -9.607   4.632  70.548  1.00  0.00    -0.268 C  
HETATM    8  C   UNL     1      -8.452   6.075  72.226  1.00  0.00    -0.117 C  
HETATM    9  C   UNL     1     -10.666   6.443  68.576  1.00  0.00    -0.288 C  
HETATM   10  C   UNL     1     -12.190   7.061  70.984  1.00  0.00    -0.419 C  
HETATM   11  O   UNL     1     -11.659   6.548  67.541  1.00  0.00    -0.693 OA 
HETATM   12  C   UNL     1      -5.871   7.563  68.407  1.00  0.00    -0.027 C  
HETATM   13  C   UNL     1      -9.108   6.829  67.901  1.00  0.00    -0.114 C  
HETATM   14  H   UNL     1     -11.468   6.059  66.749  1.00  0.00     0.000 HD 
HETATM   15  C   UNL     1      -6.829   8.418  67.554  1.00  0.00    -0.070 C  
HETATM   16  C   UNL     1      -8.307   8.336  68.116  1.00  0.00    -0.129 C  
HETATM   17  H   UNL     1      -5.037   9.576  63.982  1.00  0.00     0.000 HD 
HETATM   18  C   UNL     1      -6.745   7.850  66.093  1.00  0.00    -0.054 C  
HETATM   19  C   UNL     1      -8.518   9.209  69.568  1.00  0.00    -0.128 C  
HETATM   20  C   UNL     1      -8.031  10.644  69.368  1.00  0.00    -0.118 C  
HETATM   21  C   UNL     1      -6.578  10.661  68.896  1.00  0.00    -0.055 C  
HETATM   22  C   UNL     1      -6.328   9.921  67.563  1.00  0.00    -0.063 C  
HETATM   23  C   UNL     1      -6.876  10.777  66.391  1.00  0.00    -0.135 C  
HETATM   24  C   UNL     1      -6.607  10.134  65.036  1.00  0.00    -0.128 C  
HETATM   25  O   UNL     1      -5.205   9.977  64.828  1.00  0.00    -0.060 OA 
HETATM   26  C   UNL     1      -7.290   8.774  64.999  1.00  0.00    -0.089 C  
ENDROOT
BRANCH   8  27
HETATM   27  C   UNL     1      -7.538   4.926  72.713  1.00  0.00    -0.092 C  
HETATM   28  O   UNL     1      -9.278   4.213  74.256  1.00  0.00    -0.102 OA 
HETATM   29  C   UNL     1      -8.165   4.060  73.783  1.00  0.00    -0.088 C  
HETATM   30  O   UNL     1      -7.354   3.040  74.158  1.00  0.00    -0.045 OA 
ENDBRANCH   8  27
TORSDOF 1
ENDMDL
MODEL       71
REMARK 921   NORMALIZED FREE ENERGY PREDICTED BY IDOCK:   -4.14 KCAL/MOL
REMARK 922        TOTAL FREE ENERGY PREDICTED BY IDOCK:   -4.69 KCAL/MOL
REMARK 923 INTER-LIGAND FREE ENERGY PREDICTED BY IDOCK:   -4.57 KCAL/MOL
REMARK 924 INTRA-LIGAND FREE ENERGY PREDICTED BY IDOCK:   -0.12 KCAL/MOL
REMARK 927      BINDING AFFINITY PREDICTED BY RF-SCORE:    0.00 PKD
ROOT
HETATM    1  C   UNL     1      -7.745   3.866  67.719  1.00  0.00    -0.071 C  
HETATM    2  C   UNL     1      -8.666   2.821  67.988  1.00  0.00    -0.133 C  
HETATM    3  C   UNL     1      -9.277   4.062  67.430  1.00  0.00    -0.190 C  
HETATM    4  C   UNL     1      -7.884   5.422  66.816  1.00  0.00    -0.101 C  
HETATM    5  C   UNL     1      -7.544   6.900  66.146  1.00  0.00    -0.092 C  
HETATM    6  C   UNL     1      -8.458   4.486  66.006  1.00  0.00    -0.114 C  
HETATM    7  C   UNL     1      -8.072   7.340  64.769  1.00  0.00    -0.097 C  
HETATM    8  C   UNL     1      -5.941   7.050  66.038  1.00  0.00    -0.036 C  
HETATM    9  C   UNL     1      -9.953   5.543  66.004  1.00  0.00    -0.035 C  
HETATM   10  C   UNL     1      -7.982   3.769  64.791  1.00  0.00    -0.090 C  
HETATM   11  O   UNL     1     -11.189   4.848  65.766  1.00  0.00    -0.844 OA 
HETATM   12  C   UNL     1      -8.641   8.326  69.853  1.00  0.00    -0.125 C  
HETATM   13  C   UNL     1     -10.112   6.495  67.453  1.00  0.00    -0.205 C  
HETATM   14  H   UNL     1     -11.965   5.396  65.765  1.00  0.00     0.000 HD 
HETATM   15  C   UNL     1      -9.579   7.133  70.127  1.00  0.00    -0.168 C  
HETATM   16  C   UNL     1      -9.458   6.048  68.980  1.00  0.00    -0.143 C  
HETATM   17  H   UNL     1     -12.309   8.027  73.137  1.00  0.00     0.000 HD 
HETATM   18  C   UNL     1     -11.033   7.723  70.199  1.00  0.00    -0.246 C  
HETATM   19  C   UNL     1      -8.001   5.161  69.052  1.00  0.00    -0.085 C  
HETATM   20  C   UNL     1      -7.838   4.574  70.453  1.00  0.00    -0.053 C  
HETATM   21  C   UNL     1      -7.890   5.676  71.510  1.00  0.00    -0.112 C  
HETATM   22  C   UNL     1      -9.203   6.490  71.525  1.00  0.00    -0.144 C  
HETATM   23  C   UNL     1     -10.333   5.630  72.148  1.00  0.00    -0.256 C  
HETATM   24  C   UNL     1     -11.646   6.395  72.251  1.00  0.00    -0.299 C  
HETATM   25  O   UNL     1     -11.489   7.550  73.073  1.00  0.00    -0.312 OA 
HETATM   26  C   UNL     1     -12.077   6.812  70.852  1.00  0.00    -0.421 C  
ENDROOT
BRANCH   8  27
HETATM   27  C   UNL     1      -5.408   8.444  65.633  1.00  0.00    -0.031 C  
HETATM   28  O   UNL     1      -6.304   9.372  67.695  1.00  0.00    -0.057 OA 
HETATM   29  C   UNL     1      -5.702   9.527  66.647  1.00  0.00    -0.054 C  
HETATM   30  O   UNL     1      -5.186  10.726  66.280  1.00  0.00    -0.062 OA 
ENDBRANCH   8  27
TORSDOF 1
ENDMDL
MODEL       72
REMARK 921   NORMALIZED FREE ENERGY PREDICTED BY IDOCK:   -4.13 KCAL/MOL
REMARK 922        TOTAL FREE ENERGY PREDICTED BY IDOCK:   -4.68 KCAL/MOL
REMARK 923 INTER-LIGAND FREE ENERGY PREDICTED BY IDOCK:   -4.47 KCAL/MOL
REMARK 924 INTRA-LIGAND FREE ENERGY PREDICTED BY IDOCK:   -0.21 KCAL/MOL
REMARK 927      BINDING AFFINITY PREDICTED BY RF-SCORE:    0.00 PKD
ROOT
HETATM    1  C   UNL     1      -6.046  11.818  68.153  1.00  0.00    -0.050 C  
HETATM    2  C   UNL     1      -5.746  12.284  69.458  1.00  0.00    -0.088 C  
HETATM    3  C   UNL     1      -7.044  11.557  69.339  1.00  0.00    -0.037 C  
HETATM    4  C   UNL     1      -7.294  10.682  67.512  1.00  0.00    -0.091 C  
HETATM    5  C   UNL     1      -8.232   9.772  66.491  1.00  0.00    -0.120 C  
HETATM    6  C   UNL     1      -6.765  10.055  68.602  1.00  0.00    -0.053 C  
HETATM    7  C   UNL     1      -8.736   8.363  66.847  1.00  0.00    -0.137 C  
HETATM    8  C   UNL     1      -7.433   9.584  65.103  1.00  0.00    -0.109 C  
HETATM    9  C   UNL     1      -8.476   9.937  69.244  1.00  0.00    -0.158 C  
HETATM   10  C   UNL     1      -5.774   8.953  68.755  1.00  0.00    -0.041 C  
HETATM   11  O   UNL     1      -8.583   9.858  70.676  1.00  0.00    -0.368 OA 
HETATM   12  C   UNL     1     -10.432  13.240  66.156  1.00  0.00    -0.296 C  
HETATM   13  C   UNL     1      -9.504  11.219  68.672  1.00  0.00    -0.179 C  
HETATM   14  H   UNL     1      -9.470   9.798  71.010  1.00  0.00     0.000 HD 
HETATM   15  C   UNL     1     -10.022  13.735  67.557  1.00  0.00    -0.233 C  
HETATM   16  C   UNL     1      -8.939  12.774  68.198  1.00  0.00    -0.199 C  
HETATM   17  H   UNL     1     -12.637  16.659  68.943  1.00  0.00     0.000 HD 
HETATM   18  C   UNL     1     -11.336  13.764  68.416  1.00  0.00    -0.326 C  
HETATM   19  C   UNL     1      -7.398  12.934  67.484  1.00  0.00    -0.154 C  
HETATM   20  C   UNL     1      -6.983  14.405  67.507  1.00  0.00    -0.182 C  
HETATM   21  C   UNL     1      -8.029  15.273  66.810  1.00  0.00    -0.104 C  
HETATM   22  C   UNL     1      -9.440  15.204  67.436  1.00  0.00    -0.204 C  
HETATM   23  C   UNL     1      -9.449  15.998  68.769  1.00  0.00    -0.227 C  
HETATM   24  C   UNL     1     -10.830  16.024  69.412  1.00  0.00    -0.300 C  
HETATM   25  O   UNL     1     -11.775  16.643  68.542  1.00  0.00    -0.085 OA 
HETATM   26  C   UNL     1     -11.258  14.592  69.703  1.00  0.00    -0.307 C  
ENDROOT
BRANCH   8  27
HETATM   27  C   UNL     1      -8.222   8.941  63.938  1.00  0.00    -0.171 C  
HETATM   28  O   UNL     1      -6.643   7.091  63.907  1.00  0.00    -0.042 OA 
HETATM   29  C   UNL     1      -7.640   7.630  63.459  1.00  0.00    -0.119 C  
HETATM   30  O   UNL     1      -8.378   7.074  62.466  1.00  0.00    -0.088 OA 
ENDBRANCH   8  27
TORSDOF 1
ENDMDL
MODEL       73
REMARK 921   NORMALIZED FREE ENERGY PREDICTED BY IDOCK:   -4.12 KCAL/MOL
REMARK 922        TOTAL FREE ENERGY PREDICTED BY IDOCK:   -4.67 KCAL/MOL
REMARK 923 INTER-LIGAND FREE ENERGY PREDICTED BY IDOCK:   -4.41 KCAL/MOL
REMARK 924 INTRA-LIGAND FREE ENERGY PREDICTED BY IDOCK:   -0.26 KCAL/MOL
REMARK 927      BINDING AFFINITY PREDICTED BY RF-SCORE:    0.00 PKD
ROOT
HETATM    1  C   UNL     1      -9.406   5.938  66.735  1.00  0.00    -0.144 C  
HETATM    2  C   UNL     1      -8.823   6.274  65.486  1.00  0.00    -0.042 C  
HETATM    3  C   UNL     1      -7.894   6.359  66.650  1.00  0.00    -0.104 C  
HETATM    4  C   UNL     1      -8.708   5.612  68.367  1.00  0.00    -0.109 C  
HETATM    5  C   UNL     1      -8.549   5.275  69.982  1.00  0.00    -0.117 C  
HETATM    6  C   UNL     1      -7.942   4.891  67.499  1.00  0.00    -0.095 C  
HETATM    7  C   UNL     1      -7.419   4.399  70.550  1.00  0.00    -0.049 C  
HETATM    8  C   UNL     1      -9.909   4.570  70.488  1.00  0.00    -0.297 C  
HETATM    9  C   UNL     1      -6.495   5.773  68.194  1.00  0.00    -0.043 C  
HETATM   10  C   UNL     1      -7.903   3.445  67.142  1.00  0.00    -0.079 C  
HETATM   11  O   UNL     1      -5.367   5.884  67.308  1.00  0.00    -0.005 OA 
HETATM   12  C   UNL     1      -9.066   9.339  70.418  1.00  0.00    -0.288 C  
HETATM   13  C   UNL     1      -6.893   7.355  68.800  1.00  0.00    -0.072 C  
HETATM   14  H   UNL     1      -4.617   6.342  67.669  1.00  0.00     0.000 HD 
HETATM   15  C   UNL     1      -8.486   9.647  69.023  1.00  0.00    -0.131 C  
HETATM   16  C   UNL     1      -8.204   8.310  68.224  1.00  0.00    -0.128 C  
HETATM   17  H   UNL     1      -7.301  13.625  68.732  1.00  0.00     0.000 HD 
HETATM   18  C   UNL     1      -7.162  10.455  69.264  1.00  0.00    -0.100 C  
HETATM   19  C   UNL     1      -9.628   7.549  67.671  1.00  0.00    -0.171 C  
HETATM   20  C   UNL     1     -10.462   8.556  66.879  1.00  0.00    -0.345 C  
HETATM   21  C   UNL     1     -10.764   9.791  67.726  1.00  0.00    -0.329 C  
HETATM   22  C   UNL     1      -9.514  10.550  68.224  1.00  0.00    -0.158 C  
HETATM   23  C   UNL     1      -8.882  11.330  67.040  1.00  0.00    -0.153 C  
HETATM   24  C   UNL     1      -7.676  12.153  67.474  1.00  0.00    -0.159 C  
HETATM   25  O   UNL     1      -8.054  13.111  68.461  1.00  0.00    -0.144 OA 
HETATM   26  C   UNL     1      -6.624  11.212  68.045  1.00  0.00    -0.058 C  
ENDROOT
BRANCH   8  27
HETATM   27  C   UNL     1     -10.049   4.363  72.015  1.00  0.00    -0.256 C  
HETATM   28  O   UNL     1     -11.639   6.202  72.104  1.00  0.00    -0.299 OA 
HETATM   29  C   UNL     1     -11.012   5.325  72.673  1.00  0.00    -0.260 C  
HETATM   30  O   UNL     1     -11.142   5.091  74.003  1.00  0.00    -0.276 OA 
ENDBRANCH   8  27
TORSDOF 1
ENDMDL
MODEL       74
REMARK 921   NORMALIZED FREE ENERGY PREDICTED BY IDOCK:   -3.99 KCAL/MOL
REMARK 922        TOTAL FREE ENERGY PREDICTED BY IDOCK:   -4.54 KCAL/MOL
REMARK 923 INTER-LIGAND FREE ENERGY PREDICTED BY IDOCK:   -4.34 KCAL/MOL
REMARK 924 INTRA-LIGAND FREE ENERGY PREDICTED BY IDOCK:   -0.20 KCAL/MOL
REMARK 927      BINDING AFFINITY PREDICTED BY RF-SCORE:    0.00 PKD
ROOT
HETATM    1  C   UNL     1     -10.754   7.333  69.531  1.00  0.00    -0.244 C  
HETATM    2  C   UNL     1     -11.496   6.275  70.115  1.00  0.00    -0.452 C  
HETATM    3  C   UNL     1     -10.048   6.291  70.472  1.00  0.00    -0.230 C  
HETATM    4  C   UNL     1      -9.093   7.976  69.826  1.00  0.00    -0.149 C  
HETATM    5  C   UNL     1      -7.696   8.861  69.717  1.00  0.00    -0.078 C  
HETATM    6  C   UNL     1      -9.646   7.829  71.064  1.00  0.00    -0.170 C  
HETATM    7  C   UNL     1      -6.873   9.287  70.944  1.00  0.00    -0.103 C  
HETATM    8  C   UNL     1      -8.029  10.239  68.947  1.00  0.00    -0.113 C  
HETATM    9  C   UNL     1      -8.198   6.787  71.480  1.00  0.00    -0.111 C  
HETATM   10  C   UNL     1     -10.241   8.794  72.030  1.00  0.00    -0.401 C  
HETATM   11  O   UNL     1      -8.425   5.817  72.517  1.00  0.00    -0.117 OA 
HETATM   12  C   UNL     1      -6.699   6.085  66.839  1.00  0.00    -0.058 C  
HETATM   13  C   UNL     1      -7.523   5.981  70.093  1.00  0.00    -0.090 C  
HETATM   14  H   UNL     1      -7.674   5.276  72.732  1.00  0.00     0.000 HD 
HETATM   15  C   UNL     1      -7.574   4.987  67.475  1.00  0.00    -0.087 C  
HETATM   16  C   UNL     1      -8.418   5.570  68.682  1.00  0.00    -0.104 C  
HETATM   17  H   UNL     1      -6.447   1.208  66.150  1.00  0.00     0.000 HD 
HETATM   18  C   UNL     1      -6.591   3.864  67.961  1.00  0.00    -0.042 C  
HETATM   19  C   UNL     1      -9.707   6.568  68.176  1.00  0.00    -0.126 C  
HETATM   20  C   UNL     1     -10.560   5.810  67.158  1.00  0.00    -0.365 C  
HETATM   21  C   UNL     1      -9.706   5.337  65.983  1.00  0.00    -0.159 C  
HETATM   22  C   UNL     1      -8.545   4.395  66.371  1.00  0.00    -0.112 C  
HETATM   23  C   UNL     1      -9.114   2.994  66.717  1.00  0.00    -0.179 C  
HETATM   24  C   UNL     1      -8.015   1.994  67.051  1.00  0.00    -0.067 C  
HETATM   25  O   UNL     1      -7.133   1.832  65.942  1.00  0.00    -0.048 OA 
HETATM   26  C   UNL     1      -7.239   2.508  68.256  1.00  0.00    -0.048 C  
ENDROOT
BRANCH   8  27
HETATM   27  C   UNL     1      -6.816  11.117  68.555  1.00  0.00    -0.065 C  
HETATM   28  O   UNL     1      -8.183  12.234  66.881  1.00  0.00    -0.172 OA 
HETATM   29  C   UNL     1      -7.112  12.105  67.449  1.00  0.00    -0.146 C  
HETATM   30  O   UNL     1      -6.041  12.885  67.159  1.00  0.00    -0.304 OA 
ENDBRANCH   8  27
TORSDOF 1
ENDMDL
MODEL       75
REMARK 921   NORMALIZED FREE ENERGY PREDICTED BY IDOCK:   -3.96 KCAL/MOL
REMARK 922        TOTAL FREE ENERGY PREDICTED BY IDOCK:   -4.50 KCAL/MOL
REMARK 923 INTER-LIGAND FREE ENERGY PREDICTED BY IDOCK:   -4.19 KCAL/MOL
REMARK 924 INTRA-LIGAND FREE ENERGY PREDICTED BY IDOCK:   -0.31 KCAL/MOL
REMARK 927      BINDING AFFINITY PREDICTED BY RF-SCORE:    0.00 PKD
ROOT
HETATM    1  C   UNL     1     -10.486   6.943  68.092  1.00  0.00    -0.243 C  
HETATM    2  C   UNL     1     -11.140   6.276  67.024  1.00  0.00    -0.379 C  
HETATM    3  C   UNL     1      -9.672   6.022  67.112  1.00  0.00    -0.148 C  
HETATM    4  C   UNL     1      -8.839   6.785  68.813  1.00  0.00    -0.131 C  
HETATM    5  C   UNL     1      -7.492   7.018  69.751  1.00  0.00    -0.098 C  
HETATM    6  C   UNL     1      -9.298   5.507  68.685  1.00  0.00    -0.149 C  
HETATM    7  C   UNL     1      -6.607   5.865  70.252  1.00  0.00    -0.044 C  
HETATM    8  C   UNL     1      -7.937   7.806  71.087  1.00  0.00    -0.090 C  
HETATM    9  C   UNL     1      -7.781   5.161  67.719  1.00  0.00    -0.088 C  
HETATM   10  C   UNL     1      -9.868   4.533  69.657  1.00  0.00    -0.288 C  
HETATM   11  O   UNL     1      -7.895   4.080  66.776  1.00  0.00    -0.091 OA 
HETATM   12  C   UNL     1      -6.573   9.870  66.922  1.00  0.00    -0.067 C  
HETATM   13  C   UNL     1      -7.168   6.566  66.895  1.00  0.00    -0.078 C  
HETATM   14  H   UNL     1      -7.108   3.901  66.275  1.00  0.00     0.000 HD 
HETATM   15  C   UNL     1      -7.354   9.141  65.811  1.00  0.00    -0.090 C  
HETATM   16  C   UNL     1      -8.139   7.897  66.399  1.00  0.00    -0.108 C  
HETATM   17  H   UNL     1      -6.155  10.423  62.039  1.00  0.00     0.000 HD 
HETATM   18  C   UNL     1      -6.292   8.690  64.747  1.00  0.00    -0.065 C  
HETATM   19  C   UNL     1      -9.501   8.344  67.325  1.00  0.00    -0.196 C  
HETATM   20  C   UNL     1     -10.387   9.275  66.498  1.00  0.00    -0.270 C  
HETATM   21  C   UNL     1      -9.596  10.492  66.021  1.00  0.00    -0.242 C  
HETATM   22  C   UNL     1      -8.371  10.156  65.142  1.00  0.00    -0.163 C  
HETATM   23  C   UNL     1      -8.854   9.727  63.731  1.00  0.00    -0.259 C  
HETATM   24  C   UNL     1      -7.691   9.440  62.790  1.00  0.00    -0.117 C  
HETATM   25  O   UNL     1      -6.881  10.602  62.627  1.00  0.00    -0.125 OA 
HETATM   26  C   UNL     1      -6.858   8.308  63.376  1.00  0.00    -0.085 C  
ENDROOT
BRANCH   8  27
HETATM   27  C   UNL     1      -6.794   8.308  72.000  1.00  0.00    -0.089 C  
HETATM   28  O   UNL     1      -6.693  10.372  70.717  1.00  0.00    -0.340 OA 
HETATM   29  C   UNL     1      -6.284   9.685  71.636  1.00  0.00     0.145 C  
HETATM   30  O   UNL     1      -5.312  10.111  72.481  1.00  0.00    -0.296 OA 
ENDBRANCH   8  27
TORSDOF 1
ENDMDL
MODEL       76
REMARK 921   NORMALIZED FREE ENERGY PREDICTED BY IDOCK:   -3.95 KCAL/MOL
REMARK 922        TOTAL FREE ENERGY PREDICTED BY IDOCK:   -4.49 KCAL/MOL
REMARK 923 INTER-LIGAND FREE ENERGY PREDICTED BY IDOCK:   -4.27 KCAL/MOL
REMARK 924 INTRA-LIGAND FREE ENERGY PREDICTED BY IDOCK:   -0.22 KCAL/MOL
REMARK 927      BINDING AFFINITY PREDICTED BY RF-SCORE:    0.00 PKD
ROOT
HETATM    1  C   UNL     1     -10.376   9.011  69.080  1.00  0.00    -0.229 C  
HETATM    2  C   UNL     1     -10.756   9.610  70.309  1.00  0.00    -0.335 C  
HETATM    3  C   UNL     1      -9.287   9.409  70.141  1.00  0.00    -0.276 C  
HETATM    4  C   UNL     1      -8.783   8.797  68.260  1.00  0.00    -0.135 C  
HETATM    5  C   UNL     1      -7.604   8.358  67.180  1.00  0.00    -0.093 C  
HETATM    6  C   UNL     1      -8.803  10.099  68.669  1.00  0.00    -0.136 C  
HETATM    7  C   UNL     1      -6.407   9.258  66.831  1.00  0.00    -0.066 C  
HETATM    8  C   UNL     1      -8.309   8.044  65.763  1.00  0.00    -0.142 C  
HETATM    9  C   UNL     1      -7.234   9.748  69.545  1.00  0.00    -0.087 C  
HETATM   10  C   UNL     1      -9.051  11.381  67.953  1.00  0.00    -0.164 C  
HETATM   11  O   UNL     1      -6.972  10.589  70.682  1.00  0.00    -0.440 OA 
HETATM   12  C   UNL     1      -7.587   4.839  69.323  1.00  0.00    -0.056 C  
HETATM   13  C   UNL     1      -7.087   8.083  70.030  1.00  0.00    -0.049 C  
HETATM   14  H   UNL     1      -6.159  10.406  71.137  1.00  0.00     0.000 HD 
HETATM   15  C   UNL     1      -8.067   5.526  70.616  1.00  0.00    -0.115 C  
HETATM   16  C   UNL     1      -8.422   7.046  70.347  1.00  0.00    -0.141 C  
HETATM   17  H   UNL     1      -7.258   3.179  73.956  1.00  0.00     0.000 HD 
HETATM   18  C   UNL     1      -6.892   5.393  71.649  1.00  0.00    -0.065 C  
HETATM   19  C   UNL     1      -9.877   7.247  69.477  1.00  0.00    -0.163 C  
HETATM   20  C   UNL     1     -10.997   6.486  70.186  1.00  0.00    -0.374 C  
HETATM   21  C   UNL     1     -10.628   5.012  70.352  1.00  0.00    -0.142 C  
HETATM   22  C   UNL     1      -9.340   4.761  71.167  1.00  0.00    -0.206 C  
HETATM   23  C   UNL     1      -9.627   5.014  72.671  1.00  0.00    -0.165 C  
HETATM   24  C   UNL     1      -8.413   4.724  73.544  1.00  0.00    -0.106 C  
HETATM   25  O   UNL     1      -8.016   3.360  73.411  1.00  0.00    -0.071 OA 
HETATM   26  C   UNL     1      -7.274   5.637  73.112  1.00  0.00    -0.094 C  
ENDROOT
BRANCH   8  27
HETATM   27  C   UNL     1      -7.409   7.414  64.674  1.00  0.00    -0.082 C  
HETATM   28  O   UNL     1      -8.049   9.188  63.137  1.00  0.00    -0.145 OA 
HETATM   29  C   UNL     1      -7.412   8.175  63.366  1.00  0.00    -0.124 C  
HETATM   30  O   UNL     1      -6.583   7.619  62.448  1.00  0.00    -0.070 OA 
ENDBRANCH   8  27
TORSDOF 1
ENDMDL
MODEL       77
REMARK 921   NORMALIZED FREE ENERGY PREDICTED BY IDOCK:   -3.72 KCAL/MOL
REMARK 922        TOTAL FREE ENERGY PREDICTED BY IDOCK:   -4.25 KCAL/MOL
REMARK 923 INTER-LIGAND FREE ENERGY PREDICTED BY IDOCK:   -4.07 KCAL/MOL
REMARK 924 INTRA-LIGAND FREE ENERGY PREDICTED BY IDOCK:   -0.18 KCAL/MOL
REMARK 927      BINDING AFFINITY PREDICTED BY RF-SCORE:    0.00 PKD
ROOT
HETATM    1  C   UNL     1      -8.355   8.430  68.687  1.00  0.00    -0.120 C  
HETATM    2  C   UNL     1      -7.588   7.522  67.912  1.00  0.00    -0.110 C  
HETATM    3  C   UNL     1      -8.640   6.885  68.757  1.00  0.00    -0.124 C  
HETATM    4  C   UNL     1      -9.879   8.248  69.637  1.00  0.00    -0.184 C  
HETATM    5  C   UNL     1     -11.180   8.557  70.617  1.00  0.00    -0.278 C  
HETATM    6  C   UNL     1     -10.127   7.639  68.442  1.00  0.00    -0.208 C  
HETATM    7  C   UNL     1     -12.578   7.967  70.368  1.00  0.00     0.591 C  
HETATM    8  C   UNL     1     -11.410  10.153  70.664  1.00  0.00    -0.433 C  
HETATM    9  C   UNL     1     -10.567   6.145  69.405  1.00  0.00    -0.286 C  
HETATM   10  C   UNL     1     -10.879   8.058  67.227  1.00  0.00    -0.159 C  
HETATM   11  O   UNL     1     -10.398   4.899  68.706  1.00  0.00    -0.108 OA 
HETATM   12  C   UNL     1      -8.542   7.630  73.644  1.00  0.00    -0.263 C  
HETATM   13  C   UNL     1      -9.733   6.052  70.930  1.00  0.00    -0.207 C  
HETATM   14  H   UNL     1     -10.626   4.124  69.206  1.00  0.00     0.000 HD 
HETATM   15  C   UNL     1      -7.701   6.706  72.742  1.00  0.00    -0.100 C  
HETATM   16  C   UNL     1      -8.203   6.775  71.242  1.00  0.00    -0.119 C  
HETATM   17  H   UNL     1      -5.360   4.117  75.007  1.00  0.00     0.000 HD 
HETATM   18  C   UNL     1      -7.856   5.257  73.326  1.00  0.00    -0.104 C  
HETATM   19  C   UNL     1      -7.781   8.234  70.463  1.00  0.00    -0.081 C  
HETATM   20  C   UNL     1      -6.276   8.461  70.602  1.00  0.00    -0.036 C  
HETATM   21  C   UNL     1      -5.863   8.457  72.072  1.00  0.00    -0.048 C  
HETATM   22  C   UNL     1      -6.181   7.146  72.825  1.00  0.00    -0.056 C  
HETATM   23  C   UNL     1      -5.180   6.046  72.385  1.00  0.00    -0.022 C  
HETATM   24  C   UNL     1      -5.397   4.739  73.136  1.00  0.00    -0.009 C  
HETATM   25  O   UNL     1      -5.225   4.933  74.538  1.00  0.00    -0.015 OA 
HETATM   26  C   UNL     1      -6.809   4.244  72.853  1.00  0.00    -0.056 C  
ENDROOT
BRANCH   8  27
HETATM   27  C   UNL     1     -12.446  10.667  71.691  1.00  0.00    -0.416 C  
HETATM   28  O   UNL     1     -12.382  12.859  70.639  1.00  0.00    -0.358 OA 
HETATM   29  C   UNL     1     -12.825  12.119  71.499  1.00  0.00    -0.289 C  
HETATM   30  O   UNL     1     -13.764  12.525  72.389  1.00  0.00    -0.472 OA 
ENDBRANCH   8  27
TORSDOF 1
ENDMDL
MODEL       78
REMARK 921   NORMALIZED FREE ENERGY PREDICTED BY IDOCK:   -3.68 KCAL/MOL
REMARK 922        TOTAL FREE ENERGY PREDICTED BY IDOCK:   -4.20 KCAL/MOL
REMARK 923 INTER-LIGAND FREE ENERGY PREDICTED BY IDOCK:   -3.92 KCAL/MOL
REMARK 924 INTRA-LIGAND FREE ENERGY PREDICTED BY IDOCK:   -0.28 KCAL/MOL
REMARK 927      BINDING AFFINITY PREDICTED BY RF-SCORE:    0.00 PKD
ROOT
HETATM    1  C   UNL     1      -6.662   6.030  67.701  1.00  0.00    -0.058 C  
HETATM    2  C   UNL     1      -6.040   4.761  67.576  1.00  0.00    -0.027 C  
HETATM    3  C   UNL     1      -7.529   4.719  67.665  1.00  0.00    -0.078 C  
HETATM    4  C   UNL     1      -8.378   6.573  67.574  1.00  0.00    -0.121 C  
HETATM    5  C   UNL     1      -9.748   7.508  67.579  1.00  0.00    -0.190 C  
HETATM    6  C   UNL     1      -8.178   5.762  66.496  1.00  0.00    -0.106 C  
HETATM    7  C   UNL     1     -10.902   7.312  66.581  1.00  0.00     0.077 C  
HETATM    8  C   UNL     1      -9.309   9.050  67.402  1.00  0.00    -0.167 C  
HETATM    9  C   UNL     1      -9.612   4.787  67.084  1.00  0.00    -0.167 C  
HETATM   10  C   UNL     1      -7.936   6.037  65.052  1.00  0.00    -0.125 C  
HETATM   11  O   UNL     1      -9.615   3.406  66.683  1.00  0.00    -0.347 OA 
HETATM   12  C   UNL     1      -9.733   6.706  71.621  1.00  0.00    -0.170 C  
HETATM   13  C   UNL     1      -9.827   4.872  68.810  1.00  0.00    -0.231 C  
HETATM   14  H   UNL     1     -10.358   2.900  66.988  1.00  0.00     0.000 HD 
HETATM   15  C   UNL     1      -8.994   5.365  71.437  1.00  0.00    -0.151 C  
HETATM   16  C   UNL     1      -8.554   5.167  69.929  1.00  0.00    -0.108 C  
HETATM   17  H   UNL     1      -9.463   2.921  74.772  1.00  0.00     0.000 HD 
HETATM   18  C   UNL     1      -9.997   4.244  71.887  1.00  0.00    -0.255 C  
HETATM   19  C   UNL     1      -7.245   6.166  69.480  1.00  0.00    -0.078 C  
HETATM   20  C   UNL     1      -6.098   5.968  70.470  1.00  0.00    -0.030 C  
HETATM   21  C   UNL     1      -6.563   6.243  71.899  1.00  0.00    -0.062 C  
HETATM   22  C   UNL     1      -7.722   5.342  72.381  1.00  0.00    -0.102 C  
HETATM   23  C   UNL     1      -7.178   3.919  72.672  1.00  0.00    -0.058 C  
HETATM   24  C   UNL     1      -8.258   2.991  73.213  1.00  0.00    -0.072 C  
HETATM   25  O   UNL     1      -8.790   3.501  74.434  1.00  0.00    -0.086 OA 
HETATM   26  C   UNL     1      -9.366   2.878  72.176  1.00  0.00    -0.171 C  
ENDROOT
BRANCH   8  27
HETATM   27  C   UNL     1     -10.423  10.107  67.591  1.00  0.00    -0.293 C  
HETATM   28  O   UNL     1     -10.297   9.789  70.000  1.00  0.00    -0.227 OA 
HETATM   29  C   UNL     1     -10.793  10.349  69.038  1.00  0.00    -0.234 C  
HETATM   30  O   UNL     1     -11.741  11.309  69.169  1.00  0.00    -0.283 OA 
ENDBRANCH   8  27
TORSDOF 1
ENDMDL
MODEL       79
REMARK 921   NORMALIZED FREE ENERGY PREDICTED BY IDOCK:   -3.65 KCAL/MOL
REMARK 922        TOTAL FREE ENERGY PREDICTED BY IDOCK:   -4.17 KCAL/MOL
REMARK 923 INTER-LIGAND FREE ENERGY PREDICTED BY IDOCK:   -3.87 KCAL/MOL
REMARK 924 INTRA-LIGAND FREE ENERGY PREDICTED BY IDOCK:   -0.30 KCAL/MOL
REMARK 927      BINDING AFFINITY PREDICTED BY RF-SCORE:    0.00 PKD
ROOT
HETATM    1  C   UNL     1     -10.538   6.258  68.407  1.00  0.00    -0.316 C  
HETATM    2  C   UNL     1     -11.080   6.569  67.134  1.00  0.00    -0.434 C  
HETATM    3  C   UNL     1      -9.589   6.534  67.184  1.00  0.00    -0.162 C  
HETATM    4  C   UNL     1      -8.875   5.824  68.959  1.00  0.00    -0.111 C  
HETATM    5  C   UNL     1      -7.574   5.430  69.910  1.00  0.00    -0.073 C  
HETATM    6  C   UNL     1      -9.097   5.055  67.854  1.00  0.00    -0.126 C  
HETATM    7  C   UNL     1      -6.485   4.436  69.473  1.00  0.00    -0.033 C  
HETATM    8  C   UNL     1      -8.128   4.845  71.307  1.00  0.00    -0.105 C  
HETATM    9  C   UNL     1      -7.562   5.776  67.163  1.00  0.00    -0.099 C  
HETATM   10  C   UNL     1      -9.462   3.623  67.673  1.00  0.00    -0.234 C  
HETATM   11  O   UNL     1      -7.496   5.802  65.726  1.00  0.00    -0.075 OA 
HETATM   12  C   UNL     1      -7.244   9.513  70.358  1.00  0.00    -0.130 C  
HETATM   13  C   UNL     1      -7.230   7.373  67.771  1.00  0.00    -0.091 C  
HETATM   14  H   UNL     1      -6.700   6.176  65.368  1.00  0.00     0.000 HD 
HETATM   15  C   UNL     1      -7.902   9.800  68.994  1.00  0.00    -0.087 C  
HETATM   16  C   UNL     1      -8.436   8.464  68.334  1.00  0.00    -0.135 C  
HETATM   17  H   UNL     1      -7.030  13.653  67.687  1.00  0.00     0.000 HD 
HETATM   18  C   UNL     1      -6.796  10.471  68.104  1.00  0.00    -0.072 C  
HETATM   19  C   UNL     1      -9.838   7.857  69.095  1.00  0.00    -0.174 C  
HETATM   20  C   UNL     1     -10.895   8.960  69.154  1.00  0.00    -0.091 C  
HETATM   21  C   UNL     1     -10.347  10.196  69.866  1.00  0.00    -0.308 C  
HETATM   22  C   UNL     1      -9.098  10.818  69.201  1.00  0.00    -0.109 C  
HETATM   23  C   UNL     1      -9.523  11.564  67.909  1.00  0.00    -0.178 C  
HETATM   24  C   UNL     1      -8.347  12.257  67.233  1.00  0.00    -0.182 C  
HETATM   25  O   UNL     1      -7.764  13.221  68.108  1.00  0.00    -0.120 OA 
HETATM   26  C   UNL     1      -7.311  11.205  66.862  1.00  0.00    -0.138 C  
ENDROOT
BRANCH   8  27
HETATM   27  C   UNL     1      -7.077   4.613  72.419  1.00  0.00    -0.074 C  
HETATM   28  O   UNL     1      -7.490   6.859  73.259  1.00  0.00    -0.078 OA 
HETATM   29  C   UNL     1      -6.896   5.798  73.342  1.00  0.00    -0.084 C  
HETATM   30  O   UNL     1      -5.999   5.546  74.328  1.00  0.00    -0.053 OA 
ENDBRANCH   8  27
TORSDOF 1
ENDMDL
MODEL       80
REMARK 921   NORMALIZED FREE ENERGY PREDICTED BY IDOCK:   -3.58 KCAL/MOL
REMARK 922        TOTAL FREE ENERGY PREDICTED BY IDOCK:   -4.10 KCAL/MOL
REMARK 923 INTER-LIGAND FREE ENERGY PREDICTED BY IDOCK:   -4.31 KCAL/MOL
REMARK 924 INTRA-LIGAND FREE ENERGY PREDICTED BY IDOCK:    0.21 KCAL/MOL
REMARK 927      BINDING AFFINITY PREDICTED BY RF-SCORE:    0.00 PKD
ROOT
HETATM    1  C   UNL     1      -8.748  15.734  69.702  1.00  0.00    -0.044 C  
HETATM    2  C   UNL     1      -8.022  14.601  70.149  1.00  0.00     0.699 C  
HETATM    3  C   UNL     1      -7.690  15.048  68.764  1.00  0.00    -0.141 C  
HETATM    4  C   UNL     1      -8.564  16.828  68.278  1.00  0.00    -0.226 C  
HETATM    5  C   UNL     1      -8.807  18.031  67.164  1.00  0.00    -0.249 C  
HETATM    6  C   UNL     1      -7.308  16.700  68.797  1.00  0.00    -0.220 C  
HETATM    7  C   UNL     1      -7.656  18.815  66.510  1.00  0.00    -0.267 C  
HETATM    8  C   UNL     1      -9.744  19.160  67.834  1.00  0.00    -0.403 C  
HETATM    9  C   UNL     1      -6.782  16.144  67.134  1.00  0.00    -0.192 C  
HETATM   10  C   UNL     1      -6.469  17.589  69.648  1.00  0.00    -0.147 C  
HETATM   11  O   UNL     1      -5.624  15.290  67.117  1.00  0.00    -0.284 OA 
HETATM   12  C   UNL     1     -11.313  15.273  65.406  1.00  0.00    -0.253 C  
HETATM   13  C   UNL     1      -8.062  15.374  66.240  1.00  0.00     0.368 C  
HETATM   14  H   UNL     1      -5.351  15.001  66.255  1.00  0.00     0.000 HD 
HETATM   15  C   UNL     1     -10.527  14.074  65.972  1.00  0.00    -0.307 C  
HETATM   16  C   UNL     1      -9.394  14.561  66.965  1.00  0.00    -0.249 C  
HETATM   17  H   UNL     1     -11.366  10.592  63.854  1.00  0.00     0.000 HD 
HETATM   18  C   UNL     1      -9.914  13.325  64.735  1.00  0.00    -0.150 C  
HETATM   19  C   UNL     1     -10.008  15.107  68.461  1.00  0.00    -0.223 C  
HETATM   20  C   UNL     1     -10.906  14.025  69.061  1.00  0.00    -0.268 C  
HETATM   21  C   UNL     1     -12.022  13.648  68.088  1.00  0.00    -0.390 C  
HETATM   22  C   UNL     1     -11.531  13.108  66.727  1.00  0.00    -0.386 C  
HETATM   23  C   UNL     1     -10.998  11.662  66.911  1.00  0.00    -0.342 C  
HETATM   24  C   UNL     1     -10.552  11.042  65.593  1.00  0.00    -0.197 C  
HETATM   25  O   UNL     1     -11.644  10.979  64.676  1.00  0.00     0.190 OA 
HETATM   26  C   UNL     1      -9.436  11.895  65.007  1.00  0.00    -0.028 C  
ENDROOT
BRANCH   8  27
HETATM   27  C   UNL     1     -10.264  20.270  66.891  1.00  0.00    -0.504 C  
HETATM   28  O   UNL     1     -11.013  18.568  65.323  1.00  0.00    -0.551 OA 
HETATM   29  C   UNL     1     -10.901  19.743  65.624  1.00  0.00    -0.232 C  
HETATM   30  O   UNL     1     -11.381  20.740  64.840  1.00  0.00     0.682 OA 
ENDBRANCH   8  27
TORSDOF 1
ENDMDL
MODEL       81
REMARK 921   NORMALIZED FREE ENERGY PREDICTED BY IDOCK:   -3.55 KCAL/MOL
REMARK 922        TOTAL FREE ENERGY PREDICTED BY IDOCK:   -4.07 KCAL/MOL
REMARK 923 INTER-LIGAND FREE ENERGY PREDICTED BY IDOCK:   -4.25 KCAL/MOL
REMARK 924 INTRA-LIGAND FREE ENERGY PREDICTED BY IDOCK:    0.19 KCAL/MOL
REMARK 927      BINDING AFFINITY PREDICTED BY RF-SCORE:    0.00 PKD
ROOT
HETATM    1  C   UNL     1      -9.807   9.963  66.547  1.00  0.00    -0.274 C  
HETATM    2  C   UNL     1     -10.657   8.831  66.461  1.00  0.00    -0.019 C  
HETATM    3  C   UNL     1     -10.870   9.679  67.670  1.00  0.00    -0.276 C  
HETATM    4  C   UNL     1      -9.813  11.425  67.605  1.00  0.00    -0.189 C  
HETATM    5  C   UNL     1      -9.401  12.861  68.324  1.00  0.00    -0.194 C  
HETATM    6  C   UNL     1     -11.101  11.286  67.177  1.00  0.00    -0.364 C  
HETATM    7  C   UNL     1     -10.438  13.911  68.758  1.00  0.00    -0.229 C  
HETATM    8  C   UNL     1      -8.403  13.654  67.334  1.00  0.00    -0.198 C  
HETATM    9  C   UNL     1     -11.584  11.276  68.944  1.00  0.00    -0.319 C  
HETATM   10  C   UNL     1     -11.902  11.982  66.132  1.00  0.00    -0.225 C  
HETATM   11  O   UNL     1     -12.812  10.585  69.234  1.00  0.00    -0.617 OA 
HETATM   12  C   UNL     1      -7.064  10.466  70.727  1.00  0.00     0.546 C  
HETATM   13  C   UNL     1     -10.333  10.661  69.985  1.00  0.00     0.016 C  
HETATM   14  H   UNL     1     -13.063  10.580  70.150  1.00  0.00     0.000 HD 
HETATM   15  C   UNL     1      -7.985   9.243  70.547  1.00  0.00    -0.188 C  
HETATM   16  C   UNL     1      -9.121   9.546  69.487  1.00  0.00    -0.193 C  
HETATM   17  H   UNL     1      -7.351   6.429  73.546  1.00  0.00     0.000 HD 
HETATM   18  C   UNL     1      -8.595   8.938  71.962  1.00  0.00    -0.004 C  
HETATM   19  C   UNL     1      -8.543   9.583  67.881  1.00  0.00    -0.119 C  
HETATM   20  C   UNL     1      -7.781   8.290  67.591  1.00  0.00    -0.099 C  
HETATM   21  C   UNL     1      -6.653   8.089  68.601  1.00  0.00    -0.057 C  
HETATM   22  C   UNL     1      -7.116   8.006  70.072  1.00  0.00    -0.049 C  
HETATM   23  C   UNL     1      -7.787   6.630  70.322  1.00  0.00    -0.107 C  
HETATM   24  C   UNL     1      -8.214   6.454  71.773  1.00  0.00    -0.113 C  
HETATM   25  O   UNL     1      -7.085   6.539  72.640  1.00  0.00    -0.073 OA 
HETATM   26  C   UNL     1      -9.215   7.547  72.122  1.00  0.00    -0.171 C  
ENDROOT
BRANCH   8  27
HETATM   27  C   UNL     1      -7.734  14.925  67.909  1.00  0.00    -0.151 C  
HETATM   28  O   UNL     1      -9.479  16.284  66.896  1.00  0.00    -0.219 OA 
HETATM   29  C   UNL     1      -8.463  16.205  67.564  1.00  0.00    -0.162 C  
HETATM   30  O   UNL     1      -7.873  17.294  68.116  1.00  0.00    -0.205 OA 
ENDBRANCH   8  27
TORSDOF 1
ENDMDL
MODEL       82
REMARK 921   NORMALIZED FREE ENERGY PREDICTED BY IDOCK:   -3.54 KCAL/MOL
REMARK 922        TOTAL FREE ENERGY PREDICTED BY IDOCK:   -4.06 KCAL/MOL
REMARK 923 INTER-LIGAND FREE ENERGY PREDICTED BY IDOCK:   -3.87 KCAL/MOL
REMARK 924 INTRA-LIGAND FREE ENERGY PREDICTED BY IDOCK:   -0.19 KCAL/MOL
REMARK 927      BINDING AFFINITY PREDICTED BY RF-SCORE:    0.00 PKD
ROOT
HETATM    1  C   UNL     1     -10.417   7.858  68.319  1.00  0.00    -0.212 C  
HETATM    2  C   UNL     1     -11.215   7.444  67.222  1.00  0.00     0.160 C  
HETATM    3  C   UNL     1      -9.886   8.008  66.847  1.00  0.00    -0.318 C  
HETATM    4  C   UNL     1      -8.682   8.335  68.462  1.00  0.00    -0.133 C  
HETATM    5  C   UNL     1      -7.227   8.854  69.066  1.00  0.00    -0.072 C  
HETATM    6  C   UNL     1      -8.679   7.194  67.716  1.00  0.00    -0.125 C  
HETATM    7  C   UNL     1      -5.876   8.273  68.615  1.00  0.00    -0.040 C  
HETATM    8  C   UNL     1      -7.245   8.659  70.667  1.00  0.00    -0.058 C  
HETATM    9  C   UNL     1      -7.764   8.142  66.445  1.00  0.00    -0.092 C  
HETATM   10  C   UNL     1      -8.363   5.774  68.037  1.00  0.00    -0.103 C  
HETATM   11  O   UNL     1      -7.921   7.662  65.098  1.00  0.00    -0.117 OA 
HETATM   12  C   UNL     1      -8.758  12.601  68.291  1.00  0.00    -0.169 C  
HETATM   13  C   UNL     1      -8.124   9.845  66.481  1.00  0.00    -0.117 C  
HETATM   14  H   UNL     1      -7.447   8.154  64.438  1.00  0.00     0.000 HD 
HETATM   15  C   UNL     1      -9.659  12.089  67.151  1.00  0.00    -0.195 C  
HETATM   16  C   UNL     1      -9.603  10.509  67.055  1.00  0.00    -0.202 C  
HETATM   17  H   UNL     1     -10.857  15.204  64.667  1.00  0.00     0.000 HD 
HETATM   18  C   UNL     1      -9.126  12.756  65.833  1.00  0.00     0.212 C  
HETATM   19  C   UNL     1     -10.445   9.734  68.322  1.00  0.00    -0.255 C  
HETATM   20  C   UNL     1     -11.871  10.281  68.387  1.00  0.00     0.311 C  
HETATM   21  C   UNL     1     -11.860  11.799  68.553  1.00  0.00    -0.365 C  
HETATM   22  C   UNL     1     -11.147  12.564  67.415  1.00  0.00    -0.317 C  
HETATM   23  C   UNL     1     -12.046  12.556  66.151  1.00  0.00    -0.357 C  
HETATM   24  C   UNL     1     -11.431  13.348  65.004  1.00  0.00    -0.311 C  
HETATM   25  O   UNL     1     -11.241  14.710  65.382  1.00  0.00    -0.323 OA 
HETATM   26  C   UNL     1     -10.091  12.722  64.644  1.00  0.00    -0.256 C  
ENDROOT
BRANCH   8  27
HETATM   27  C   UNL     1      -6.060   9.277  71.447  1.00  0.00    -0.072 C  
HETATM   28  O   UNL     1      -7.175   8.736  73.540  1.00  0.00    -0.358 OA 
HETATM   29  C   UNL     1      -6.221   9.212  72.949  1.00  0.00     0.188 C  
HETATM   30  O   UNL     1      -5.148   9.724  73.602  1.00  0.00    -0.175 OA 
ENDBRANCH   8  27
TORSDOF 1
ENDMDL
MODEL       83
REMARK 921   NORMALIZED FREE ENERGY PREDICTED BY IDOCK:   -3.50 KCAL/MOL
REMARK 922        TOTAL FREE ENERGY PREDICTED BY IDOCK:   -4.01 KCAL/MOL
REMARK 923 INTER-LIGAND FREE ENERGY PREDICTED BY IDOCK:   -3.71 KCAL/MOL
REMARK 924 INTRA-LIGAND FREE ENERGY PREDICTED BY IDOCK:   -0.30 KCAL/MOL
REMARK 927      BINDING AFFINITY PREDICTED BY RF-SCORE:    0.00 PKD
ROOT
HETATM    1  C   UNL     1     -10.334   4.467  66.789  1.00  0.00    -0.090 C  
HETATM    2  C   UNL     1     -10.246   4.534  65.375  1.00  0.00    -0.224 C  
HETATM    3  C   UNL     1      -8.932   4.541  66.082  1.00  0.00    -0.120 C  
HETATM    4  C   UNL     1      -9.110   4.175  68.083  1.00  0.00    -0.175 C  
HETATM    5  C   UNL     1      -8.382   3.987  69.561  1.00  0.00    -0.076 C  
HETATM    6  C   UNL     1      -8.872   3.217  67.141  1.00  0.00    -0.154 C  
HETATM    7  C   UNL     1      -7.272   2.955  69.825  1.00  0.00    -0.044 C  
HETATM    8  C   UNL     1      -9.524   3.649  70.648  1.00  0.00    -0.242 C  
HETATM    9  C   UNL     1      -7.149   3.836  67.086  1.00  0.00    -0.063 C  
HETATM   10  C   UNL     1      -9.204   1.768  67.064  1.00  0.00    -0.050 C  
HETATM   11  O   UNL     1      -6.460   3.607  65.844  1.00  0.00    -0.032 OA 
HETATM   12  C   UNL     1      -8.039   8.090  69.408  1.00  0.00    -0.118 C  
HETATM   13  C   UNL     1      -7.022   5.523  67.497  1.00  0.00    -0.066 C  
HETATM   14  H   UNL     1      -5.567   3.928  65.816  1.00  0.00     0.000 HD 
HETATM   15  C   UNL     1      -8.016   8.115  67.866  1.00  0.00    -0.127 C  
HETATM   16  C   UNL     1      -8.285   6.670  67.277  1.00  0.00    -0.121 C  
HETATM   17  H   UNL     1      -6.432  11.689  66.443  1.00  0.00     0.000 HD 
HETATM   18  C   UNL     1      -6.594   8.639  67.455  1.00  0.00    -0.058 C  
HETATM   19  C   UNL     1      -9.913   6.179  67.432  1.00  0.00    -0.166 C  
HETATM   20  C   UNL     1     -10.821   7.251  66.832  1.00  0.00    -0.265 C  
HETATM   21  C   UNL     1     -10.567   8.606  67.490  1.00  0.00    -0.292 C  
HETATM   22  C   UNL     1      -9.119   9.126  67.349  1.00  0.00    -0.142 C  
HETATM   23  C   UNL     1      -8.891   9.620  65.896  1.00  0.00    -0.180 C  
HETATM   24  C   UNL     1      -7.499  10.207  65.701  1.00  0.00    -0.144 C  
HETATM   25  O   UNL     1      -7.301  11.324  66.565  1.00  0.00    -0.143 OA 
HETATM   26  C   UNL     1      -6.470   9.128  66.008  1.00  0.00    -0.068 C  
ENDROOT
BRANCH   8  27
HETATM   27  C   UNL     1      -9.081   3.643  72.130  1.00  0.00    -0.151 C  
HETATM   28  O   UNL     1      -9.597   6.015  72.281  1.00  0.00    -0.151 OA 
HETATM   29  C   UNL     1      -9.202   4.990  72.808  1.00  0.00    -0.132 C  
HETATM   30  O   UNL     1      -8.844   4.939  74.115  1.00  0.00    -0.113 OA 
ENDBRANCH   8  27
TORSDOF 1
ENDMDL
MODEL       84
REMARK 921   NORMALIZED FREE ENERGY PREDICTED BY IDOCK:   -3.48 KCAL/MOL
REMARK 922        TOTAL FREE ENERGY PREDICTED BY IDOCK:   -3.99 KCAL/MOL
REMARK 923 INTER-LIGAND FREE ENERGY PREDICTED BY IDOCK:   -4.39 KCAL/MOL
REMARK 924 INTRA-LIGAND FREE ENERGY PREDICTED BY IDOCK:    0.40 KCAL/MOL
REMARK 927      BINDING AFFINITY PREDICTED BY RF-SCORE:    0.00 PKD
ROOT
HETATM    1  C   UNL     1      -8.877   5.261  69.238  1.00  0.00    -0.115 C  
HETATM    2  C   UNL     1      -9.937   4.489  68.698  1.00  0.00    -0.111 C  
HETATM    3  C   UNL     1      -9.959   5.931  68.316  1.00  0.00    -0.177 C  
HETATM    4  C   UNL     1      -8.275   6.928  68.897  1.00  0.00    -0.121 C  
HETATM    5  C   UNL     1      -7.415   8.344  68.957  1.00  0.00    -0.093 C  
HETATM    6  C   UNL     1      -8.447   6.352  67.673  1.00  0.00    -0.117 C  
HETATM    7  C   UNL     1      -7.040   9.153  67.703  1.00  0.00    -0.082 C  
HETATM    8  C   UNL     1      -6.009   8.051  69.692  1.00  0.00    -0.029 C  
HETATM    9  C   UNL     1      -9.528   7.772  67.263  1.00  0.00    -0.148 C  
HETATM   10  C   UNL     1      -7.498   5.758  66.690  1.00  0.00    -0.084 C  
HETATM   11  O   UNL     1     -10.523   7.508  66.258  1.00  0.00    -0.424 OA 
HETATM   12  C   UNL     1     -10.126   9.339  71.896  1.00  0.00    -0.004 C  
HETATM   13  C   UNL     1     -10.307   8.456  68.661  1.00  0.00    -0.222 C  
HETATM   14  H   UNL     1     -11.084   8.244  66.046  1.00  0.00     0.000 HD 
HETATM   15  C   UNL     1     -11.224   8.431  71.307  1.00  0.00    -0.309 C  
HETATM   16  C   UNL     1     -10.660   7.578  70.098  1.00  0.00    -0.241 C  
HETATM   17  H   UNL     1     -14.986   9.510  72.722  1.00  0.00     0.000 HD 
HETATM   18  C   UNL     1     -12.380   9.385  70.838  1.00  0.00    -0.263 C  
HETATM   19  C   UNL     1      -9.623   6.317  70.598  1.00  0.00    -0.189 C  
HETATM   20  C   UNL     1     -10.334   5.468  71.651  1.00  0.00    -0.277 C  
HETATM   21  C   UNL     1     -10.790   6.333  72.825  1.00  0.00    -0.281 C  
HETATM   22  C   UNL     1     -11.765   7.469  72.444  1.00  0.00    -0.335 C  
HETATM   23  C   UNL     1     -13.164   6.867  72.148  1.00  0.00    -0.021 C  
HETATM   24  C   UNL     1     -14.195   7.941  71.825  1.00  0.00    -0.451 C  
HETATM   25  O   UNL     1     -14.342   8.840  72.923  1.00  0.00    -0.520 OA 
HETATM   26  C   UNL     1     -13.731   8.705  70.593  1.00  0.00     0.668 C  
ENDROOT
BRANCH   8  27
HETATM   27  C   UNL     1      -5.144   9.287  70.037  1.00  0.00    -0.029 C  
HETATM   28  O   UNL     1      -7.132  10.436  70.843  1.00  0.00    -0.202 OA 
HETATM   29  C   UNL     1      -5.930  10.432  70.637  1.00  0.00    -0.105 C  
HETATM   30  O   UNL     1      -5.137  11.481  70.965  1.00  0.00    -0.109 OA 
ENDBRANCH   8  27
TORSDOF 1
ENDMDL
MODEL       85
REMARK 921   NORMALIZED FREE ENERGY PREDICTED BY IDOCK:   -3.26 KCAL/MOL
REMARK 922        TOTAL FREE ENERGY PREDICTED BY IDOCK:   -3.76 KCAL/MOL
REMARK 923 INTER-LIGAND FREE ENERGY PREDICTED BY IDOCK:   -3.64 KCAL/MOL
REMARK 924 INTRA-LIGAND FREE ENERGY PREDICTED BY IDOCK:   -0.12 KCAL/MOL
REMARK 927      BINDING AFFINITY PREDICTED BY RF-SCORE:    0.00 PKD
ROOT
HETATM    1  C   UNL     1      -6.619   9.162  67.609  1.00  0.00    -0.064 C  
HETATM    2  C   UNL     1      -5.657   9.389  66.592  1.00  0.00    -0.046 C  
HETATM    3  C   UNL     1      -7.058   9.238  66.101  1.00  0.00    -0.091 C  
HETATM    4  C   UNL     1      -8.424   9.181  67.617  1.00  0.00    -0.116 C  
HETATM    5  C   UNL     1     -10.007   9.061  68.096  1.00  0.00    -0.206 C  
HETATM    6  C   UNL     1      -8.056  10.314  66.951  1.00  0.00    -0.119 C  
HETATM    7  C   UNL     1     -11.108  10.018  67.607  1.00  0.00    -0.222 C  
HETATM    8  C   UNL     1     -10.057   9.164  69.705  1.00  0.00    -0.211 C  
HETATM    9  C   UNL     1      -9.098   9.722  65.566  1.00  0.00    -0.196 C  
HETATM   10  C   UNL     1      -7.993  11.748  67.349  1.00  0.00    -0.155 C  
HETATM   11  O   UNL     1      -8.713  10.205  64.267  1.00  0.00    -0.174 OA 
HETATM   12  C   UNL     1      -9.514   5.079  67.160  1.00  0.00    -0.146 C  
HETATM   13  C   UNL     1      -9.225   7.987  65.507  1.00  0.00     0.092 C  
HETATM   14  H   UNL     1      -9.253   9.898  63.548  1.00  0.00     0.000 HD 
HETATM   15  C   UNL     1      -8.422   5.374  66.112  1.00  0.00    -0.120 C  
HETATM   16  C   UNL     1      -8.034   6.909  66.121  1.00  0.00    -0.110 C  
HETATM   17  H   UNL     1      -7.945   2.173  63.496  1.00  0.00     0.000 HD 
HETATM   18  C   UNL     1      -9.018   4.948  64.723  1.00  0.00    -0.125 C  
HETATM   19  C   UNL     1      -7.109   7.355  67.486  1.00  0.00    -0.088 C  
HETATM   20  C   UNL     1      -5.899   6.429  67.597  1.00  0.00    -0.013 C  
HETATM   21  C   UNL     1      -6.340   4.967  67.658  1.00  0.00    -0.040 C  
HETATM   22  C   UNL     1      -7.147   4.489  66.431  1.00  0.00    -0.075 C  
HETATM   23  C   UNL     1      -6.188   4.307  65.225  1.00  0.00    -0.027 C  
HETATM   24  C   UNL     1      -6.909   3.776  63.993  1.00  0.00    -0.045 C  
HETATM   25  O   UNL     1      -7.495   2.505  64.265  1.00  0.00    -0.060 OA 
HETATM   26  C   UNL     1      -7.993   4.769  63.598  1.00  0.00    -0.091 C  
ENDROOT
BRANCH   8  27
HETATM   27  C   UNL     1     -11.422   8.865  70.370  1.00  0.00    -0.182 C  
HETATM   28  O   UNL     1     -11.703  11.237  70.829  1.00  0.00    -0.276 OA 
HETATM   29  C   UNL     1     -12.127  10.096  70.893  1.00  0.00    -0.356 C  
HETATM   30  O   UNL     1     -13.337   9.803  71.432  1.00  0.00    -0.379 OA 
ENDBRANCH   8  27
TORSDOF 1
ENDMDL
MODEL       86
REMARK 921   NORMALIZED FREE ENERGY PREDICTED BY IDOCK:   -3.24 KCAL/MOL
REMARK 922        TOTAL FREE ENERGY PREDICTED BY IDOCK:   -3.74 KCAL/MOL
REMARK 923 INTER-LIGAND FREE ENERGY PREDICTED BY IDOCK:   -3.54 KCAL/MOL
REMARK 924 INTRA-LIGAND FREE ENERGY PREDICTED BY IDOCK:   -0.20 KCAL/MOL
REMARK 927      BINDING AFFINITY PREDICTED BY RF-SCORE:    0.00 PKD
ROOT
HETATM    1  C   UNL     1      -9.379   8.375  65.997  1.00  0.00    -0.244 C  
HETATM    2  C   UNL     1      -9.021   8.983  64.767  1.00  0.00    -0.146 C  
HETATM    3  C   UNL     1      -7.867   8.537  65.600  1.00  0.00    -0.102 C  
HETATM    4  C   UNL     1      -8.441   7.437  67.221  1.00  0.00    -0.118 C  
HETATM    5  C   UNL     1      -8.018   6.586  68.580  1.00  0.00    -0.110 C  
HETATM    6  C   UNL     1      -8.087   6.907  66.015  1.00  0.00    -0.119 C  
HETATM    7  C   UNL     1      -7.042   5.397  68.556  1.00  0.00    -0.062 C  
HETATM    8  C   UNL     1      -9.363   6.000  69.249  1.00  0.00    -0.146 C  
HETATM    9  C   UNL     1      -6.351   7.265  66.476  1.00  0.00    -0.044 C  
HETATM   10  C   UNL     1      -8.485   5.664  65.299  1.00  0.00    -0.147 C  
HETATM   11  O   UNL     1      -5.455   7.456  65.367  1.00  0.00    -0.028 OA 
HETATM   12  C   UNL     1      -7.407  10.332  70.185  1.00  0.00    -0.115 C  
HETATM   13  C   UNL     1      -6.203   8.619  67.559  1.00  0.00    -0.053 C  
HETATM   14  H   UNL     1      -4.555   7.642  65.606  1.00  0.00     0.000 HD 
HETATM   15  C   UNL     1      -7.092  10.960  68.813  1.00  0.00    -0.083 C  
HETATM   16  C   UNL     1      -7.331   9.915  67.647  1.00  0.00    -0.090 C  
HETATM   17  H   UNL     1      -5.058  14.564  69.242  1.00  0.00     0.000 HD 
HETATM   18  C   UNL     1      -5.590  11.413  68.870  1.00  0.00    -0.042 C  
HETATM   19  C   UNL     1      -8.985   9.622  67.343  1.00  0.00    -0.141 C  
HETATM   20  C   UNL     1      -9.698  10.953  67.111  1.00  0.00    -0.199 C  
HETATM   21  C   UNL     1      -9.492  11.891  68.299  1.00  0.00    -0.197 C  
HETATM   22  C   UNL     1      -8.016  12.230  68.601  1.00  0.00    -0.050 C  
HETATM   23  C   UNL     1      -7.488  13.223  67.532  1.00  0.00    -0.163 C  
HETATM   24  C   UNL     1      -6.051  13.650  67.805  1.00  0.00    -0.136 C  
HETATM   25  O   UNL     1      -5.954  14.298  69.072  1.00  0.00    -0.086 OA 
HETATM   26  C   UNL     1      -5.165  12.412  67.789  1.00  0.00    -0.089 C  
ENDROOT
BRANCH   8  27
HETATM   27  C   UNL     1      -9.209   5.350  70.644  1.00  0.00    -0.183 C  
HETATM   28  O   UNL     1     -11.520   5.919  71.150  1.00  0.00    -0.237 OA 
HETATM   29  C   UNL     1     -10.464   5.412  71.486  1.00  0.00    -0.223 C  
HETATM   30  O   UNL     1     -10.307   4.798  72.685  1.00  0.00    -0.185 OA 
ENDBRANCH   8  27
TORSDOF 1
ENDMDL
MODEL       87
REMARK 921   NORMALIZED FREE ENERGY PREDICTED BY IDOCK:   -3.22 KCAL/MOL
REMARK 922        TOTAL FREE ENERGY PREDICTED BY IDOCK:   -3.71 KCAL/MOL
REMARK 923 INTER-LIGAND FREE ENERGY PREDICTED BY IDOCK:   -3.40 KCAL/MOL
REMARK 924 INTRA-LIGAND FREE ENERGY PREDICTED BY IDOCK:   -0.31 KCAL/MOL
REMARK 927      BINDING AFFINITY PREDICTED BY RF-SCORE:    0.00 PKD
ROOT
HETATM    1  C   UNL     1      -7.574   9.124  69.134  1.00  0.00    -0.073 C  
HETATM    2  C   UNL     1      -7.352  10.361  68.477  1.00  0.00    -0.086 C  
HETATM    3  C   UNL     1      -8.521   9.586  67.968  1.00  0.00    -0.119 C  
HETATM    4  C   UNL     1      -8.950   7.956  69.120  1.00  0.00    -0.145 C  
HETATM    5  C   UNL     1      -9.904   6.630  69.402  1.00  0.00    -0.160 C  
HETATM    6  C   UNL     1      -9.524   9.184  69.276  1.00  0.00    -0.158 C  
HETATM    7  C   UNL     1     -11.431   6.713  69.567  1.00  0.00    -0.323 C  
HETATM    8  C   UNL     1      -9.384   5.909  70.748  1.00  0.00    -0.180 C  
HETATM    9  C   UNL     1     -10.529   8.796  67.796  1.00  0.00    -0.229 C  
HETATM   10  C   UNL     1     -10.081   9.898  70.458  1.00  0.00    -0.207 C  
HETATM   11  O   UNL     1     -10.988   9.941  67.056  1.00  0.00    -0.177 OA 
HETATM   12  C   UNL     1      -7.782   5.003  66.267  1.00  0.00    -0.092 C  
HETATM   13  C   UNL     1      -9.731   7.702  66.702  1.00  0.00    -0.283 C  
HETATM   14  H   UNL     1     -11.509   9.740  66.287  1.00  0.00     0.000 HD 
HETATM   15  C   UNL     1      -7.510   6.378  65.627  1.00  0.00    -0.082 C  
HETATM   16  C   UNL     1      -8.023   7.547  66.565  1.00  0.00    -0.107 C  
HETATM   17  H   UNL     1      -6.453   5.992  61.621  1.00  0.00     0.000 HD 
HETATM   18  C   UNL     1      -8.266   6.383  64.251  1.00  0.00    -0.005 C  
HETATM   19  C   UNL     1      -7.038   7.780  67.940  1.00  0.00    -0.086 C  
HETATM   20  C   UNL     1      -5.587   7.962  67.494  1.00  0.00    -0.037 C  
HETATM   21  C   UNL     1      -5.126   6.772  66.654  1.00  0.00    -0.017 C  
HETATM   22  C   UNL     1      -5.954   6.531  65.372  1.00  0.00    -0.033 C  
HETATM   23  C   UNL     1      -5.590   7.609  64.317  1.00  0.00    -0.033 C  
HETATM   24  C   UNL     1      -6.326   7.395  63.001  1.00  0.00    -0.054 C  
HETATM   25  O   UNL     1      -5.994   6.125  62.443  1.00  0.00    -0.025 OA 
HETATM   26  C   UNL     1      -7.824   7.468  63.264  1.00  0.00    -0.126 C  
ENDROOT
BRANCH   8  27
HETATM   27  C   UNL     1     -10.007   4.531  71.074  1.00  0.00    -0.257 C  
HETATM   28  O   UNL     1      -8.347   3.460  69.653  1.00  0.00    -0.051 OA 
HETATM   29  C   UNL     1      -9.308   3.372  70.398  1.00  0.00    -0.170 C  
HETATM   30  O   UNL     1      -9.853   2.178  70.737  1.00  0.00    -0.082 OA 
ENDBRANCH   8  27
TORSDOF 1
ENDMDL
MODEL       88
REMARK 921   NORMALIZED FREE ENERGY PREDICTED BY IDOCK:   -3.18 KCAL/MOL
REMARK 922        TOTAL FREE ENERGY PREDICTED BY IDOCK:   -3.67 KCAL/MOL
REMARK 923 INTER-LIGAND FREE ENERGY PREDICTED BY IDOCK:   -3.38 KCAL/MOL
REMARK 924 INTRA-LIGAND FREE ENERGY PREDICTED BY IDOCK:   -0.30 KCAL/MOL
REMARK 927      BINDING AFFINITY PREDICTED BY RF-SCORE:    0.00 PKD
ROOT
HETATM    1  C   UNL     1      -5.966   6.006  68.769  1.00  0.00    -0.020 C  
HETATM    2  C   UNL     1      -5.476   6.725  69.889  1.00  0.00    -0.015 C  
HETATM    3  C   UNL     1      -6.838   6.144  70.070  1.00  0.00    -0.057 C  
HETATM    4  C   UNL     1      -7.377   4.903  68.541  1.00  0.00    -0.066 C  
HETATM    5  C   UNL     1      -8.505   3.894  67.863  1.00  0.00    -0.105 C  
HETATM    6  C   UNL     1      -6.782   4.490  69.697  1.00  0.00    -0.041 C  
HETATM    7  C   UNL     1      -9.087   2.673  68.595  1.00  0.00    -0.211 C  
HETATM    8  C   UNL     1      -7.893   3.299  66.494  1.00  0.00    -0.081 C  
HETATM    9  C   UNL     1      -8.410   4.720  70.503  1.00  0.00    -0.095 C  
HETATM   10  C   UNL     1      -5.882   3.348  70.021  1.00  0.00    -0.018 C  
HETATM   11  O   UNL     1      -8.356   4.990  71.916  1.00  0.00    -0.116 OA 
HETATM   12  C   UNL     1     -10.412   7.417  66.898  1.00  0.00    -0.379 C  
HETATM   13  C   UNL     1      -9.380   5.944  69.734  1.00  0.00    -0.171 C  
HETATM   14  H   UNL     1      -9.200   5.110  72.334  1.00  0.00     0.000 HD 
HETATM   15  C   UNL     1      -9.798   8.174  68.093  1.00  0.00    -0.194 C  
HETATM   16  C   UNL     1      -8.738   7.271  68.847  1.00  0.00    -0.128 C  
HETATM   17  H   UNL     1     -11.963  11.620  68.961  1.00  0.00     0.000 HD 
HETATM   18  C   UNL     1     -10.995   8.552  69.037  1.00  0.00     0.082 C  
HETATM   19  C   UNL     1      -7.282   7.083  67.976  1.00  0.00    -0.095 C  
HETATM   20  C   UNL     1      -6.738   8.462  67.602  1.00  0.00    -0.066 C  
HETATM   21  C   UNL     1      -7.777   9.258  66.815  1.00  0.00    -0.094 C  
HETATM   22  C   UNL     1      -9.106   9.498  67.566  1.00  0.00    -0.142 C  
HETATM   23  C   UNL     1      -8.889  10.575  68.661  1.00  0.00    -0.147 C  
HETATM   24  C   UNL     1     -10.177  10.908  69.402  1.00  0.00    -0.122 C  
HETATM   25  O   UNL     1     -11.159  11.412  68.498  1.00  0.00    -0.199 OA 
HETATM   26  C   UNL     1     -10.694   9.642  70.071  1.00  0.00    -0.298 C  
ENDROOT
BRANCH   8  27
HETATM   27  C   UNL     1      -8.867   2.497  65.599  1.00  0.00    -0.127 C  
HETATM   28  O   UNL     1      -9.409   4.536  64.387  1.00  0.00    -0.153 OA 
HETATM   29  C   UNL     1      -9.561   3.338  64.550  1.00  0.00    -0.154 C  
HETATM   30  O   UNL     1     -10.375   2.598  63.757  1.00  0.00    -0.165 OA 
ENDBRANCH   8  27
TORSDOF 1
ENDMDL
MODEL       89
REMARK 921   NORMALIZED FREE ENERGY PREDICTED BY IDOCK:   -3.13 KCAL/MOL
REMARK 922        TOTAL FREE ENERGY PREDICTED BY IDOCK:   -3.62 KCAL/MOL
REMARK 923 INTER-LIGAND FREE ENERGY PREDICTED BY IDOCK:   -3.43 KCAL/MOL
REMARK 924 INTRA-LIGAND FREE ENERGY PREDICTED BY IDOCK:   -0.19 KCAL/MOL
REMARK 927      BINDING AFFINITY PREDICTED BY RF-SCORE:    0.00 PKD
ROOT
HETATM    1  C   UNL     1     -10.685   7.034  69.499  1.00  0.00    -0.263 C  
HETATM    2  C   UNL     1     -11.434   6.243  70.408  1.00  0.00    -0.414 C  
HETATM    3  C   UNL     1     -10.165   6.797  70.963  1.00  0.00    -0.217 C  
HETATM    4  C   UNL     1      -9.271   8.136  69.708  1.00  0.00    -0.151 C  
HETATM    5  C   UNL     1      -8.018   9.179  69.405  1.00  0.00    -0.097 C  
HETATM    6  C   UNL     1     -10.139   8.474  70.705  1.00  0.00    -0.237 C  
HETATM    7  C   UNL     1      -7.646  10.340  70.344  1.00  0.00     0.227 C  
HETATM    8  C   UNL     1      -8.274   9.875  67.973  1.00  0.00    -0.113 C  
HETATM    9  C   UNL     1      -8.762   8.171  71.874  1.00  0.00    -0.154 C  
HETATM   10  C   UNL     1     -11.100   9.599  70.874  1.00  0.00    -0.422 C  
HETATM   11  O   UNL     1      -9.164   7.804  73.205  1.00  0.00    -0.203 OA 
HETATM   12  C   UNL     1      -5.903   5.714  68.701  1.00  0.00    -0.019 C  
HETATM   13  C   UNL     1      -7.621   6.995  71.287  1.00  0.00    -0.086 C  
HETATM   14  H   UNL     1      -8.450   7.646  73.811  1.00  0.00     0.000 HD 
HETATM   15  C   UNL     1      -6.789   4.881  69.649  1.00  0.00    -0.052 C  
HETATM   16  C   UNL     1      -8.011   5.740  70.176  1.00  0.00    -0.100 C  
HETATM   17  H   UNL     1      -4.883   1.362  70.785  1.00  0.00     0.000 HD 
HETATM   18  C   UNL     1      -5.863   4.426  70.833  1.00  0.00    -0.013 C  
HETATM   19  C   UNL     1      -9.205   6.002  68.985  1.00  0.00    -0.125 C  
HETATM   20  C   UNL     1      -9.628   4.659  68.392  1.00  0.00    -0.212 C  
HETATM   21  C   UNL     1      -8.419   3.909  67.835  1.00  0.00    -0.105 C  
HETATM   22  C   UNL     1      -7.318   3.604  68.875  1.00  0.00    -0.053 C  
HETATM   23  C   UNL     1      -7.793   2.455  69.802  1.00  0.00    -0.050 C  
HETATM   24  C   UNL     1      -6.727   2.058  70.816  1.00  0.00    -0.032 C  
HETATM   25  O   UNL     1      -5.548   1.609  70.153  1.00  0.00    -0.015 OA 
HETATM   26  C   UNL     1      -6.403   3.269  71.680  1.00  0.00    -0.015 C  
ENDROOT
BRANCH   8  27
HETATM   27  C   UNL     1      -7.113  10.727  67.406  1.00  0.00    -0.091 C  
HETATM   28  O   UNL     1      -8.486  12.723  67.635  1.00  0.00    -0.154 OA 
HETATM   29  C   UNL     1      -7.431  12.203  67.314  1.00  0.00    -0.152 C  
HETATM   30  O   UNL     1      -6.380  12.925  66.853  1.00  0.00    -0.109 OA 
ENDBRANCH   8  27
TORSDOF 1
ENDMDL
MODEL       90
REMARK 921   NORMALIZED FREE ENERGY PREDICTED BY IDOCK:   -3.12 KCAL/MOL
REMARK 922        TOTAL FREE ENERGY PREDICTED BY IDOCK:   -3.61 KCAL/MOL
REMARK 923 INTER-LIGAND FREE ENERGY PREDICTED BY IDOCK:   -3.45 KCAL/MOL
REMARK 924 INTRA-LIGAND FREE ENERGY PREDICTED BY IDOCK:   -0.16 KCAL/MOL
REMARK 927      BINDING AFFINITY PREDICTED BY RF-SCORE:    0.00 PKD
ROOT
HETATM    1  C   UNL     1     -10.293   9.132  68.903  1.00  0.00    -0.232 C  
HETATM    2  C   UNL     1     -11.398   9.552  68.118  1.00  0.00     0.244 C  
HETATM    3  C   UNL     1     -10.776   8.268  67.682  1.00  0.00    -0.195 C  
HETATM    4  C   UNL     1      -9.375   7.581  68.997  1.00  0.00    -0.146 C  
HETATM    5  C   UNL     1      -8.263   6.422  69.409  1.00  0.00    -0.118 C  
HETATM    6  C   UNL     1     -10.690   7.220  69.013  1.00  0.00    -0.183 C  
HETATM    7  C   UNL     1      -8.616   4.931  69.544  1.00  0.00    -0.101 C  
HETATM    8  C   UNL     1      -7.618   6.822  70.832  1.00  0.00    -0.088 C  
HETATM    9  C   UNL     1     -10.315   6.156  67.570  1.00  0.00    -0.208 C  
HETATM   10  C   UNL     1     -11.612   6.794  70.103  1.00  0.00    -0.397 C  
HETATM   11  O   UNL     1     -11.433   5.890  66.704  1.00  0.00    -0.578 OA 
HETATM   12  C   UNL     1      -5.976   8.229  66.497  1.00  0.00    -0.045 C  
HETATM   13  C   UNL     1      -8.992   6.757  66.612  1.00  0.00    -0.154 C  
HETATM   14  H   UNL     1     -11.238   5.339  65.955  1.00  0.00     0.000 HD 
HETATM   15  C   UNL     1      -7.210   8.722  65.715  1.00  0.00    -0.084 C  
HETATM   16  C   UNL     1      -8.542   8.415  66.515  1.00  0.00    -0.128 C  
HETATM   17  H   UNL     1      -6.219   9.680  61.789  1.00  0.00     0.000 HD 
HETATM   18  C   UNL     1      -7.189   7.970  64.337  1.00  0.00    -0.085 C  
HETATM   19  C   UNL     1      -8.757   9.432  67.868  1.00  0.00    -0.120 C  
HETATM   20  C   UNL     1      -8.647  10.890  67.424  1.00  0.00    -0.127 C  
HETATM   21  C   UNL     1      -7.313  11.143  66.725  1.00  0.00    -0.146 C  
HETATM   22  C   UNL     1      -7.074  10.281  65.466  1.00  0.00    -0.142 C  
HETATM   23  C   UNL     1      -7.956  10.813  64.305  1.00  0.00     0.206 C  
HETATM   24  C   UNL     1      -7.724  10.045  63.010  1.00  0.00    -0.143 C  
HETATM   25  O   UNL     1      -6.364  10.159  62.597  1.00  0.00    -0.116 OA 
HETATM   26  C   UNL     1      -8.071   8.581  63.244  1.00  0.00    -0.162 C  
ENDROOT
BRANCH   8  27
HETATM   27  C   UNL     1      -6.405   5.981  71.297  1.00  0.00    -0.044 C  
HETATM   28  O   UNL     1      -7.787   4.971  73.026  1.00  0.00    -0.095 OA 
HETATM   29  C   UNL     1      -6.710   5.068  72.464  1.00  0.00    -0.061 C  
HETATM   30  O   UNL     1      -5.638   4.317  72.819  1.00  0.00    -0.006 OA 
ENDBRANCH   8  27
TORSDOF 1
ENDMDL
MODEL       91
REMARK 921   NORMALIZED FREE ENERGY PREDICTED BY IDOCK:   -3.07 KCAL/MOL
REMARK 922        TOTAL FREE ENERGY PREDICTED BY IDOCK:   -3.56 KCAL/MOL
REMARK 923 INTER-LIGAND FREE ENERGY PREDICTED BY IDOCK:   -3.25 KCAL/MOL
REMARK 924 INTRA-LIGAND FREE ENERGY PREDICTED BY IDOCK:   -0.31 KCAL/MOL
REMARK 927      BINDING AFFINITY PREDICTED BY RF-SCORE:    0.00 PKD
ROOT
HETATM    1  C   UNL     1      -9.095   9.894  65.550  1.00  0.00    -0.232 C  
HETATM    2  C   UNL     1      -9.023  11.175  66.156  1.00  0.00    -0.205 C  
HETATM    3  C   UNL     1      -7.803  10.334  66.330  1.00  0.00    -0.118 C  
HETATM    4  C   UNL     1      -7.858   8.622  65.218  1.00  0.00    -0.107 C  
HETATM    5  C   UNL     1      -7.123   7.212  64.748  1.00  0.00    -0.068 C  
HETATM    6  C   UNL     1      -7.288   9.792  64.807  1.00  0.00    -0.130 C  
HETATM    7  C   UNL     1      -5.723   7.166  64.112  1.00  0.00    -0.033 C  
HETATM    8  C   UNL     1      -8.083   6.473  63.683  1.00  0.00    -0.014 C  
HETATM    9  C   UNL     1      -5.895   9.395  65.927  1.00  0.00    -0.054 C  
HETATM   10  C   UNL     1      -7.087  10.403  63.464  1.00  0.00    -0.011 C  
HETATM   11  O   UNL     1      -5.158  10.533  66.407  1.00  0.00    -0.041 OA 
HETATM   12  C   UNL     1      -8.250   5.909  68.491  1.00  0.00    -0.109 C  
HETATM   13  C   UNL     1      -6.375   8.421  67.287  1.00  0.00    -0.057 C  
HETATM   14  H   UNL     1      -4.435  10.328  66.988  1.00  0.00     0.000 HD 
HETATM   15  C   UNL     1      -8.223   7.331  69.086  1.00  0.00    -0.122 C  
HETATM   16  C   UNL     1      -7.960   8.409  67.956  1.00  0.00    -0.119 C  
HETATM   17  H   UNL     1      -7.991   7.218  73.239  1.00  0.00     0.000 HD 
HETATM   18  C   UNL     1      -7.075   7.339  70.157  1.00  0.00    -0.065 C  
HETATM   19  C   UNL     1      -9.310   8.655  66.942  1.00  0.00    -0.216 C  
HETATM   20  C   UNL     1     -10.534   8.973  67.801  1.00  0.00    -0.305 C  
HETATM   21  C   UNL     1     -10.780   7.864  68.823  1.00  0.00    -0.082 C  
HETATM   22  C   UNL     1      -9.608   7.619  69.799  1.00  0.00    -0.163 C  
HETATM   23  C   UNL     1      -9.556   8.771  70.837  1.00  0.00    -0.275 C  
HETATM   24  C   UNL     1      -8.459   8.561  71.873  1.00  0.00    -0.170 C  
HETATM   25  O   UNL     1      -8.676   7.349  72.593  1.00  0.00    -0.118 OA 
HETATM   26  C   UNL     1      -7.117   8.501  71.155  1.00  0.00    -0.073 C  
ENDROOT
BRANCH   8  27
HETATM   27  C   UNL     1      -7.679   5.036  63.277  1.00  0.00    -0.070 C  
HETATM   28  O   UNL     1      -8.960   4.161  65.151  1.00  0.00    -0.124 OA 
HETATM   29  C   UNL     1      -8.250   3.965  64.180  1.00  0.00    -0.091 C  
HETATM   30  O   UNL     1      -7.911   2.717  63.772  1.00  0.00    -0.077 OA 
ENDBRANCH   8  27
TORSDOF 1
ENDMDL
MODEL       92
REMARK 921   NORMALIZED FREE ENERGY PREDICTED BY IDOCK:   -3.01 KCAL/MOL
REMARK 922        TOTAL FREE ENERGY PREDICTED BY IDOCK:   -3.50 KCAL/MOL
REMARK 923 INTER-LIGAND FREE ENERGY PREDICTED BY IDOCK:   -3.30 KCAL/MOL
REMARK 924 INTRA-LIGAND FREE ENERGY PREDICTED BY IDOCK:   -0.20 KCAL/MOL
REMARK 927      BINDING AFFINITY PREDICTED BY RF-SCORE:    0.00 PKD
ROOT
HETATM    1  C   UNL     1     -10.317   6.767  68.694  1.00  0.00    -0.202 C  
HETATM    2  C   UNL     1     -11.265   6.095  67.881  1.00  0.00    -0.137 C  
HETATM    3  C   UNL     1     -10.106   5.258  68.307  1.00  0.00    -0.219 C  
HETATM    4  C   UNL     1      -8.923   6.191  69.685  1.00  0.00    -0.134 C  
HETATM    5  C   UNL     1      -7.588   6.150  70.668  1.00  0.00    -0.093 C  
HETATM    6  C   UNL     1      -9.953   5.352  69.994  1.00  0.00    -0.303 C  
HETATM    7  C   UNL     1      -7.355   5.056  71.724  1.00  0.00    -0.076 C  
HETATM    8  C   UNL     1      -7.525   7.536  71.492  1.00  0.00    -0.079 C  
HETATM    9  C   UNL     1      -8.848   3.973  69.513  1.00  0.00    -0.091 C  
HETATM   10  C   UNL     1     -10.876   5.268  71.160  1.00  0.00    -0.131 C  
HETATM   11  O   UNL     1      -9.522   2.783  69.065  1.00  0.00    -0.161 OA 
HETATM   12  C   UNL     1      -5.537   6.749  67.145  1.00  0.00    -0.013 C  
HETATM   13  C   UNL     1      -7.669   4.436  68.318  1.00  0.00    -0.075 C  
HETATM   14  H   UNL     1      -8.949   2.068  68.815  1.00  0.00     0.000 HD 
HETATM   15  C   UNL     1      -6.629   6.069  66.296  1.00  0.00    -0.048 C  
HETATM   16  C   UNL     1      -7.890   5.710  67.184  1.00  0.00    -0.101 C  
HETATM   17  H   UNL     1      -5.147   4.914  62.584  1.00  0.00     0.000 HD 
HETATM   18  C   UNL     1      -5.976   4.776  65.690  1.00  0.00    -0.023 C  
HETATM   19  C   UNL     1      -8.813   7.079  67.616  1.00  0.00    -0.119 C  
HETATM   20  C   UNL     1      -9.172   7.863  66.354  1.00  0.00    -0.241 C  
HETATM   21  C   UNL     1      -7.913   8.244  65.578  1.00  0.00    -0.120 C  
HETATM   22  C   UNL     1      -7.053   7.044  65.121  1.00  0.00    -0.060 C  
HETATM   23  C   UNL     1      -7.753   6.334  63.933  1.00  0.00    -0.107 C  
HETATM   24  C   UNL     1      -6.927   5.175  63.390  1.00  0.00    -0.046 C  
HETATM   25  O   UNL     1      -5.662   5.638  62.922  1.00  0.00    -0.014 OA 
HETATM   26  C   UNL     1      -6.724   4.158  64.504  1.00  0.00    -0.044 C  
ENDROOT
BRANCH   8  27
HETATM   27  C   UNL     1      -6.238   7.788  72.313  1.00  0.00    -0.041 C  
HETATM   28  O   UNL     1      -7.584   8.727  74.108  1.00  0.00    -0.419 OA 
HETATM   29  C   UNL     1      -6.492   8.420  73.664  1.00  0.00    -0.114 C  
HETATM   30  O   UNL     1      -5.348   8.589  74.372  1.00  0.00    -0.088 OA 
ENDBRANCH   8  27
TORSDOF 1
ENDMDL
MODEL       93
REMARK 921   NORMALIZED FREE ENERGY PREDICTED BY IDOCK:   -3.00 KCAL/MOL
REMARK 922        TOTAL FREE ENERGY PREDICTED BY IDOCK:   -3.49 KCAL/MOL
REMARK 923 INTER-LIGAND FREE ENERGY PREDICTED BY IDOCK:   -3.39 KCAL/MOL
REMARK 924 INTRA-LIGAND FREE ENERGY PREDICTED BY IDOCK:   -0.09 KCAL/MOL
REMARK 927      BINDING AFFINITY PREDICTED BY RF-SCORE:    0.00 PKD
ROOT
HETATM    1  C   UNL     1      -6.271   9.198  67.227  1.00  0.00    -0.058 C  
HETATM    2  C   UNL     1      -5.432   8.292  66.528  1.00  0.00    -0.028 C  
HETATM    3  C   UNL     1      -6.883   7.946  66.499  1.00  0.00    -0.070 C  
HETATM    4  C   UNL     1      -8.062   9.416  67.285  1.00  0.00    -0.110 C  
HETATM    5  C   UNL     1      -9.578   9.964  67.671  1.00  0.00    -0.172 C  
HETATM    6  C   UNL     1      -7.758   9.295  65.960  1.00  0.00    -0.096 C  
HETATM    7  C   UNL     1     -10.715  10.085  66.641  1.00  0.00    -0.128 C  
HETATM    8  C   UNL     1      -9.437  11.441  68.303  1.00  0.00    -0.187 C  
HETATM    9  C   UNL     1      -8.965   7.919  65.909  1.00  0.00    -0.123 C  
HETATM   10  C   UNL     1      -7.627  10.287  64.857  1.00  0.00    -0.119 C  
HETATM   11  O   UNL     1      -8.729   6.942  64.879  1.00  0.00    -0.354 OA 
HETATM   12  C   UNL     1      -9.258   7.286  70.786  1.00  0.00    -0.156 C  
HETATM   13  C   UNL     1      -9.124   7.099  67.436  1.00  0.00    -0.124 C  
HETATM   14  H   UNL     1      -9.354   6.228  64.852  1.00  0.00     0.000 HD 
HETATM   15  C   UNL     1      -8.294   6.368  70.008  1.00  0.00    -0.130 C  
HETATM   16  C   UNL     1      -7.884   7.024  68.627  1.00  0.00    -0.119 C  
HETATM   17  H   UNL     1      -8.176   2.556  71.672  1.00  0.00     0.000 HD 
HETATM   18  C   UNL     1      -9.055   5.013  69.789  1.00  0.00    -0.155 C  
HETATM   19  C   UNL     1      -6.799   8.330  68.804  1.00  0.00    -0.062 C  
HETATM   20  C   UNL     1      -5.597   7.876  69.632  1.00  0.00    -0.023 C  
HETATM   21  C   UNL     1      -6.050   7.321  70.982  1.00  0.00    -0.036 C  
HETATM   22  C   UNL     1      -7.003   6.109  70.890  1.00  0.00    -0.068 C  
HETATM   23  C   UNL     1      -6.196   4.852  70.473  1.00  0.00    -0.019 C  
HETATM   24  C   UNL     1      -7.065   3.602  70.422  1.00  0.00    -0.037 C  
HETATM   25  O   UNL     1      -7.633   3.336  71.703  1.00  0.00    -0.050 OA 
HETATM   26  C   UNL     1      -8.174   3.821  69.402  1.00  0.00    -0.066 C  
ENDROOT
BRANCH   8  27
HETATM   27  C   UNL     1     -10.718  12.048  68.923  1.00  0.00    -0.222 C  
HETATM   28  O   UNL     1     -10.741  10.268  70.582  1.00  0.00    -0.258 OA 
HETATM   29  C   UNL     1     -11.239  11.278  70.117  1.00  0.00    -0.067 C  
HETATM   30  O   UNL     1     -12.337  11.859  70.660  1.00  0.00    -0.356 OA 
ENDBRANCH   8  27
TORSDOF 1
ENDMDL
MODEL       94
REMARK 921   NORMALIZED FREE ENERGY PREDICTED BY IDOCK:   -2.85 KCAL/MOL
REMARK 922        TOTAL FREE ENERGY PREDICTED BY IDOCK:   -3.33 KCAL/MOL
REMARK 923 INTER-LIGAND FREE ENERGY PREDICTED BY IDOCK:   -3.14 KCAL/MOL
REMARK 924 INTRA-LIGAND FREE ENERGY PREDICTED BY IDOCK:   -0.19 KCAL/MOL
REMARK 927      BINDING AFFINITY PREDICTED BY RF-SCORE:    0.00 PKD
ROOT
HETATM    1  C   UNL     1     -11.014   7.352  69.739  1.00  0.00    -0.215 C  
HETATM    2  C   UNL     1     -11.961   6.935  68.769  1.00  0.00     1.200 C  
HETATM    3  C   UNL     1     -10.537   6.838  68.332  1.00  0.00    -0.270 C  
HETATM    4  C   UNL     1      -9.220   7.194  69.851  1.00  0.00    -0.141 C  
HETATM    5  C   UNL     1      -7.648   7.314  70.366  1.00  0.00    -0.088 C  
HETATM    6  C   UNL     1      -9.667   5.956  69.492  1.00  0.00    -0.190 C  
HETATM    7  C   UNL     1      -6.624   6.178  70.211  1.00  0.00    -0.045 C  
HETATM    8  C   UNL     1      -7.658   7.646  71.945  1.00  0.00    -0.086 C  
HETATM    9  C   UNL     1      -8.533   6.068  68.058  1.00  0.00    -0.115 C  
HETATM   10  C   UNL     1      -9.873   4.693  70.253  1.00  0.00    -0.314 C  
HETATM   11  O   UNL     1      -8.919   5.284  66.915  1.00  0.00    -0.111 OA 
HETATM   12  C   UNL     1      -7.750  10.922  68.378  1.00  0.00    -0.116 C  
HETATM   13  C   UNL     1      -8.248   7.707  67.546  1.00  0.00    -0.121 C  
HETATM   14  H   UNL     1      -8.331   5.342  66.172  1.00  0.00     0.000 HD 
HETATM   15  C   UNL     1      -8.830  10.441  67.388  1.00  0.00    -0.133 C  
HETATM   16  C   UNL     1      -9.356   9.001  67.785  1.00  0.00    -0.156 C  
HETATM   17  H   UNL     1      -8.934  12.844  63.993  1.00  0.00     0.000 HD 
HETATM   18  C   UNL     1      -8.155  10.428  65.971  1.00  0.00    -0.143 C  
HETATM   19  C   UNL     1     -10.359   9.014  69.166  1.00  0.00    -0.229 C  
HETATM   20  C   UNL     1     -11.484  10.028  68.961  1.00  0.00    -0.069 C  
HETATM   21  C   UNL     1     -10.915  11.413  68.654  1.00  0.00    -0.267 C  
HETATM   22  C   UNL     1     -10.030  11.476  67.390  1.00  0.00    -0.209 C  
HETATM   23  C   UNL     1     -10.930  11.401  66.128  1.00  0.00    -0.294 C  
HETATM   24  C   UNL     1     -10.125  11.521  64.841  1.00  0.00    -0.268 C  
HETATM   25  O   UNL     1      -9.436  12.769  64.796  1.00  0.00     0.170 OA 
HETATM   26  C   UNL     1      -9.123  10.376  64.784  1.00  0.00    -0.247 C  
ENDROOT
BRANCH   8  27
HETATM   27  C   UNL     1      -6.294   8.006  72.579  1.00  0.00    -0.071 C  
HETATM   28  O   UNL     1      -7.447   8.842  74.551  1.00  0.00    -0.419 OA 
HETATM   29  C   UNL     1      -6.406   8.622  73.956  1.00  0.00    -0.097 C  
HETATM   30  O   UNL     1      -5.192   8.887  74.499  1.00  0.00    -0.093 OA 
ENDBRANCH   8  27
TORSDOF 1
ENDMDL
MODEL       95
REMARK 921   NORMALIZED FREE ENERGY PREDICTED BY IDOCK:   -2.73 KCAL/MOL
REMARK 922        TOTAL FREE ENERGY PREDICTED BY IDOCK:   -3.20 KCAL/MOL
REMARK 923 INTER-LIGAND FREE ENERGY PREDICTED BY IDOCK:   -2.89 KCAL/MOL
REMARK 924 INTRA-LIGAND FREE ENERGY PREDICTED BY IDOCK:   -0.31 KCAL/MOL
REMARK 927      BINDING AFFINITY PREDICTED BY RF-SCORE:    0.00 PKD
ROOT
HETATM    1  C   UNL     1      -7.919   7.129  70.108  1.00  0.00    -0.113 C  
HETATM    2  C   UNL     1      -8.134   7.639  71.414  1.00  0.00    -0.096 C  
HETATM    3  C   UNL     1      -9.072   8.163  70.379  1.00  0.00    -0.150 C  
HETATM    4  C   UNL     1      -8.890   7.199  68.588  1.00  0.00    -0.126 C  
HETATM    5  C   UNL     1      -9.383   7.024  67.015  1.00  0.00    -0.174 C  
HETATM    6  C   UNL     1      -9.778   6.853  69.565  1.00  0.00    -0.159 C  
HETATM    7  C   UNL     1     -10.844   6.750  66.618  1.00  0.00    -0.142 C  
HETATM    8  C   UNL     1      -8.544   5.816  66.353  1.00  0.00    -0.125 C  
HETATM    9  C   UNL     1     -10.769   8.301  69.043  1.00  0.00    -0.079 C  
HETATM   10  C   UNL     1     -10.398   5.557  69.956  1.00  0.00    -0.358 C  
HETATM   11  O   UNL     1     -11.613   8.860  70.065  1.00  0.00    -0.461 OA 
HETATM   12  C   UNL     1      -7.203  10.470  66.425  1.00  0.00    -0.129 C  
HETATM   13  C   UNL     1      -9.800   9.573  68.355  1.00  0.00    -0.175 C  
HETATM   14  H   UNL     1     -12.127   9.612  69.795  1.00  0.00     0.000 HD 
HETATM   15  C   UNL     1      -7.409  10.949  67.875  1.00  0.00    -0.088 C  
HETATM   16  C   UNL     1      -8.143   9.840  68.735  1.00  0.00    -0.102 C  
HETATM   17  H   UNL     1      -6.691  15.032  68.228  1.00  0.00     0.000 HD 
HETATM   18  C   UNL     1      -8.267  12.261  67.790  1.00  0.00    -0.161 C  
HETATM   19  C   UNL     1      -7.137   8.515  69.115  1.00  0.00    -0.064 C  
HETATM   20  C   UNL     1      -5.854   9.029  69.769  1.00  0.00    -0.032 C  
HETATM   21  C   UNL     1      -5.153  10.039  68.862  1.00  0.00    -0.036 C  
HETATM   22  C   UNL     1      -5.998  11.284  68.514  1.00  0.00    -0.042 C  
HETATM   23  C   UNL     1      -6.071  12.217  69.751  1.00  0.00    -0.141 C  
HETATM   24  C   UNL     1      -6.840  13.499  69.459  1.00  0.00     0.048 C  
HETATM   25  O   UNL     1      -6.210  14.232  68.410  1.00  0.00    -0.087 OA 
HETATM   26  C   UNL     1      -8.260  13.132  69.051  1.00  0.00     0.360 C  
ENDROOT
BRANCH   8  27
HETATM   27  C   UNL     1      -8.703   5.625  64.826  1.00  0.00    -0.005 C  
HETATM   28  O   UNL     1      -7.016   7.337  64.451  1.00  0.00    -0.048 OA 
HETATM   29  C   UNL     1      -7.803   6.521  64.004  1.00  0.00    -0.108 C  
HETATM   30  O   UNL     1      -7.938   6.300  62.673  1.00  0.00    -0.094 OA 
ENDBRANCH   8  27
TORSDOF 1
ENDMDL
MODEL       96
REMARK 921   NORMALIZED FREE ENERGY PREDICTED BY IDOCK:   -2.67 KCAL/MOL
REMARK 922        TOTAL FREE ENERGY PREDICTED BY IDOCK:   -3.13 KCAL/MOL
REMARK 923 INTER-LIGAND FREE ENERGY PREDICTED BY IDOCK:   -3.79 KCAL/MOL
REMARK 924 INTRA-LIGAND FREE ENERGY PREDICTED BY IDOCK:    0.66 KCAL/MOL
REMARK 927      BINDING AFFINITY PREDICTED BY RF-SCORE:    0.00 PKD
ROOT
HETATM    1  C   UNL     1      -8.592  10.952  68.976  1.00  0.00    -0.110 C  
HETATM    2  C   UNL     1      -9.700  11.204  69.824  1.00  0.00     0.677 C  
HETATM    3  C   UNL     1      -9.997  10.324  68.657  1.00  0.00    -0.183 C  
HETATM    4  C   UNL     1      -8.318   9.781  67.630  1.00  0.00    -0.114 C  
HETATM    5  C   UNL     1      -7.632   8.947  66.372  1.00  0.00    -0.092 C  
HETATM    6  C   UNL     1      -8.879   9.048  68.635  1.00  0.00    -0.137 C  
HETATM    7  C   UNL     1      -7.828   7.437  66.160  1.00  0.00    -0.107 C  
HETATM    8  C   UNL     1      -6.033   9.149  66.443  1.00  0.00    -0.059 C  
HETATM    9  C   UNL     1     -10.161   8.552  67.426  1.00  0.00    -0.234 C  
HETATM   10  C   UNL     1      -8.313   8.101  69.636  1.00  0.00    -0.125 C  
HETATM   11  O   UNL     1     -11.430   8.189  67.999  1.00  0.00     0.152 OA 
HETATM   12  C   UNL     1      -9.135  12.040  64.101  1.00  0.00     0.561 C  
HETATM   13  C   UNL     1     -10.424   9.747  66.188  1.00  0.00    -0.128 C  
HETATM   14  H   UNL     1     -12.095   7.932  67.372  1.00  0.00     0.000 HD 
HETATM   15  C   UNL     1     -10.284  12.319  65.089  1.00  0.00    -0.305 C  
HETATM   16  C   UNL     1     -10.134  11.430  66.392  1.00  0.00    -0.255 C  
HETATM   17  H   UNL     1     -13.332  14.496  63.277  1.00  0.00     0.000 HD 
HETATM   18  C   UNL     1     -11.615  11.985  64.325  1.00  0.00    -0.435 C  
HETATM   19  C   UNL     1      -8.874  11.955  67.416  1.00  0.00    -0.171 C  
HETATM   20  C   UNL     1      -9.060  13.441  67.722  1.00  0.00    -0.202 C  
HETATM   21  C   UNL     1      -9.124  14.255  66.430  1.00  0.00    -0.171 C  
HETATM   22  C   UNL     1     -10.272  13.855  65.477  1.00  0.00    -0.348 C  
HETATM   23  C   UNL     1     -11.618  14.373  66.048  1.00  0.00    -0.364 C  
HETATM   24  C   UNL     1     -12.790  14.066  65.124  1.00  0.00    -0.334 C  
HETATM   25  O   UNL     1     -12.601  14.687  63.854  1.00  0.00    -0.834 OA 
HETATM   26  C   UNL     1     -12.891  12.557  64.950  1.00  0.00    -0.216 C  
ENDROOT
BRANCH   8  27
HETATM   27  C   UNL     1      -5.221   8.624  65.236  1.00  0.00    -0.034 C  
HETATM   28  O   UNL     1      -6.980   9.385  63.739  1.00  0.00    -0.091 OA 
HETATM   29  C   UNL     1      -5.897   8.852  63.902  1.00  0.00    -0.071 C  
HETATM   30  O   UNL     1      -5.140   8.417  62.864  1.00  0.00    -0.060 OA 
ENDBRANCH   8  27
TORSDOF 1
ENDMDL
MODEL       97
REMARK 921   NORMALIZED FREE ENERGY PREDICTED BY IDOCK:   -2.58 KCAL/MOL
REMARK 922        TOTAL FREE ENERGY PREDICTED BY IDOCK:   -3.04 KCAL/MOL
REMARK 923 INTER-LIGAND FREE ENERGY PREDICTED BY IDOCK:   -3.22 KCAL/MOL
REMARK 924 INTRA-LIGAND FREE ENERGY PREDICTED BY IDOCK:    0.19 KCAL/MOL
REMARK 927      BINDING AFFINITY PREDICTED BY RF-SCORE:    0.00 PKD
ROOT
HETATM    1  C   UNL     1      -9.228   4.689  70.586  1.00  0.00    -0.197 C  
HETATM    2  C   UNL     1      -9.425   3.766  69.528  1.00  0.00    -0.257 C  
HETATM    3  C   UNL     1      -8.050   4.338  69.606  1.00  0.00    -0.062 C  
HETATM    4  C   UNL     1      -7.750   5.445  71.295  1.00  0.00    -0.103 C  
HETATM    5  C   UNL     1      -6.735   6.373  72.222  1.00  0.00    -0.068 C  
HETATM    6  C   UNL     1      -7.453   4.119  71.179  1.00  0.00    -0.048 C  
HETATM    7  C   UNL     1      -5.368   5.878  72.724  1.00  0.00    -0.026 C  
HETATM    8  C   UNL     1      -7.529   6.812  73.556  1.00  0.00    -0.082 C  
HETATM    9  C   UNL     1      -5.990   4.630  70.204  1.00  0.00    -0.017 C  
HETATM   10  C   UNL     1      -7.410   3.001  72.162  1.00  0.00    -0.051 C  
HETATM   11  O   UNL     1      -5.510   3.648  69.269  1.00  0.00    -0.015 OA 
HETATM   12  C   UNL     1      -7.496   9.246  69.368  1.00  0.00    -0.078 C  
HETATM   13  C   UNL     1      -6.227   6.137  69.366  1.00  0.00    -0.033 C  
HETATM   14  H   UNL     1      -4.751   3.914  68.763  1.00  0.00     0.000 HD 
HETATM   15  C   UNL     1      -7.768   8.201  68.267  1.00  0.00    -0.114 C  
HETATM   16  C   UNL     1      -7.762   6.736  68.869  1.00  0.00    -0.110 C  
HETATM   17  H   UNL     1      -7.454   9.890  64.478  1.00  0.00     0.000 HD 
HETATM   18  C   UNL     1      -6.633   8.380  67.198  1.00  0.00    -0.058 C  
HETATM   19  C   UNL     1      -9.149   6.392  69.802  1.00  0.00    -0.141 C  
HETATM   20  C   UNL     1     -10.399   6.696  68.977  1.00  0.00    -0.216 C  
HETATM   21  C   UNL     1     -10.384   8.142  68.486  1.00  0.00    -0.230 C  
HETATM   22  C   UNL     1      -9.172   8.507  67.600  1.00  0.00    -0.147 C  
HETATM   23  C   UNL     1      -9.354   7.873  66.195  1.00  0.00    -0.188 C  
HETATM   24  C   UNL     1      -8.222   8.244  65.247  1.00  0.00    -0.148 C  
HETATM   25  O   UNL     1      -8.161   9.658  65.070  1.00  0.00    -0.116 OA 
HETATM   26  C   UNL     1      -6.910   7.741  65.834  1.00  0.00    -0.057 C  
ENDROOT
BRANCH   8  27
HETATM   27  C   UNL     1      -6.830   7.857  74.457  1.00  0.00    -0.146 C  
HETATM   28  O   UNL     1      -6.498   9.288  72.518  1.00  0.00    -0.307 OA 
HETATM   29  C   UNL     1      -6.366   9.090  73.713  1.00  0.00     0.133 C  
HETATM   30  O   UNL     1      -5.795  10.002  74.539  1.00  0.00    -0.341 OA 
ENDBRANCH   8  27
TORSDOF 1
ENDMDL
MODEL       98
REMARK 921   NORMALIZED FREE ENERGY PREDICTED BY IDOCK:   -2.13 KCAL/MOL
REMARK 922        TOTAL FREE ENERGY PREDICTED BY IDOCK:   -2.56 KCAL/MOL
REMARK 923 INTER-LIGAND FREE ENERGY PREDICTED BY IDOCK:   -2.37 KCAL/MOL
REMARK 924 INTRA-LIGAND FREE ENERGY PREDICTED BY IDOCK:   -0.19 KCAL/MOL
REMARK 927      BINDING AFFINITY PREDICTED BY RF-SCORE:    0.00 PKD
ROOT
HETATM    1  C   UNL     1      -6.667  14.485  67.677  1.00  0.00    -0.194 C  
HETATM    2  C   UNL     1      -6.016  15.054  68.801  1.00  0.00    -0.084 C  
HETATM    3  C   UNL     1      -7.503  14.997  68.906  1.00  0.00    -0.143 C  
HETATM    4  C   UNL     1      -8.362  13.934  67.390  1.00  0.00    -0.208 C  
HETATM    5  C   UNL     1      -9.735  13.344  66.672  1.00  0.00    -0.275 C  
HETATM    6  C   UNL     1      -8.014  13.409  68.600  1.00  0.00    -0.056 C  
HETATM    7  C   UNL     1     -10.750  12.451  67.406  1.00  0.00    -0.257 C  
HETATM    8  C   UNL     1      -9.301  12.491  65.374  1.00  0.00     0.210 C  
HETATM    9  C   UNL     1      -9.496  14.242  69.279  1.00  0.00     0.224 C  
HETATM   10  C   UNL     1      -7.594  12.046  69.031  1.00  0.00     0.056 C  
HETATM   11  O   UNL     1      -9.426  14.560  70.681  1.00  0.00     0.831 OA 
HETATM   12  C   UNL     1     -10.222  17.247  65.443  1.00  0.00     0.099 C  
HETATM   13  C   UNL     1      -9.930  15.679  68.398  1.00  0.00    -0.210 C  
HETATM   14  H   UNL     1     -10.195  14.993  71.033  1.00  0.00     0.000 HD 
HETATM   15  C   UNL     1      -9.446  17.812  66.649  1.00  0.00    -0.299 C  
HETATM   16  C   UNL     1      -8.814  16.642  67.509  1.00  0.00    -0.202 C  
HETATM   17  H   UNL     1     -10.297  21.842  67.231  1.00  0.00     0.000 HD 
HETATM   18  C   UNL     1     -10.480  18.640  67.490  1.00  0.00    -0.473 C  
HETATM   19  C   UNL     1      -7.474  15.905  66.752  1.00  0.00    -0.184 C  
HETATM   20  C   UNL     1      -6.459  16.981  66.367  1.00  0.00    -0.176 C  
HETATM   21  C   UNL     1      -7.107  18.041  65.478  1.00  0.00     0.017 C  
HETATM   22  C   UNL     1      -8.303  18.775  66.123  1.00  0.00    -0.195 C  
HETATM   23  C   UNL     1      -7.779  19.773  67.190  1.00  0.00    -0.299 C  
HETATM   24  C   UNL     1      -8.905  20.579  67.825  1.00  0.00    -0.093 C  
HETATM   25  O   UNL     1      -9.595  21.339  66.835  1.00  0.00     0.081 OA 
HETATM   26  C   UNL     1      -9.870  19.616  68.502  1.00  0.00    -0.519 C  
ENDROOT
BRANCH   8  27
HETATM   27  C   UNL     1     -10.446  12.029  64.441  1.00  0.00    -0.353 C  
HETATM   28  O   UNL     1      -8.801  11.131  62.890  1.00  0.00    -0.242 OA 
HETATM   29  C   UNL     1      -9.966  11.330  63.188  1.00  0.00    -0.365 C  
HETATM   30  O   UNL     1     -10.994  10.903  62.415  1.00  0.00     0.935 OA 
ENDBRANCH   8  27
TORSDOF 1
ENDMDL
MODEL       99
REMARK 921   NORMALIZED FREE ENERGY PREDICTED BY IDOCK:   -2.12 KCAL/MOL
REMARK 922        TOTAL FREE ENERGY PREDICTED BY IDOCK:   -2.55 KCAL/MOL
REMARK 923 INTER-LIGAND FREE ENERGY PREDICTED BY IDOCK:   -2.27 KCAL/MOL
REMARK 924 INTRA-LIGAND FREE ENERGY PREDICTED BY IDOCK:   -0.29 KCAL/MOL
REMARK 927      BINDING AFFINITY PREDICTED BY RF-SCORE:    0.00 PKD
ROOT
HETATM    1  C   UNL     1     -12.025  14.395  69.034  1.00  0.00    -0.342 C  
HETATM    2  C   UNL     1     -11.985  13.089  69.586  1.00  0.00    -0.367 C  
HETATM    3  C   UNL     1     -10.675  13.590  69.078  1.00  0.00    -0.180 C  
HETATM    4  C   UNL     1     -10.736  15.560  68.545  1.00  0.00    -0.259 C  
HETATM    5  C   UNL     1      -9.949  16.895  67.956  1.00  0.00    -0.279 C  
HETATM    6  C   UNL     1     -10.360  15.105  69.775  1.00  0.00    -0.225 C  
HETATM    7  C   UNL     1      -8.671  17.467  68.593  1.00  0.00    -0.261 C  
HETATM    8  C   UNL     1     -10.988  18.128  67.939  1.00  0.00    -0.084 C  
HETATM    9  C   UNL     1      -8.772  14.619  69.003  1.00  0.00    -0.097 C  
HETATM   10  C   UNL     1     -10.439  15.693  71.141  1.00  0.00     0.458 C  
HETATM   11  O   UNL     1      -8.086  13.535  69.655  1.00  0.00     0.167 OA 
HETATM   12  C   UNL     1     -10.324  14.956  64.339  1.00  0.00     0.528 C  
HETATM   13  C   UNL     1      -8.928  14.247  67.309  1.00  0.00    -0.221 C  
HETATM   14  H   UNL     1      -7.262  13.283  69.254  1.00  0.00     0.000 HD 
HETATM   15  C   UNL     1     -10.345  13.561  64.994  1.00  0.00    -0.379 C  
HETATM   16  C   UNL     1     -10.376  13.681  66.573  1.00  0.00    -0.282 C  
HETATM   17  H   UNL     1      -9.440  10.587  62.228  1.00  0.00     0.000 HD 
HETATM   18  C   UNL     1      -9.047  12.825  64.506  1.00  0.00     1.303 C  
HETATM   19  C   UNL     1     -11.889  14.193  67.174  1.00  0.00    -0.454 C  
HETATM   20  C   UNL     1     -12.985  13.282  66.620  1.00  0.00     1.147 C  
HETATM   21  C   UNL     1     -12.952  13.263  65.093  1.00  0.00    -0.231 C  
HETATM   22  C   UNL     1     -11.620  12.769  64.485  1.00  0.00    -0.397 C  
HETATM   23  C   UNL     1     -11.518  11.231  64.656  1.00  0.00     0.024 C  
HETATM   24  C   UNL     1     -10.253  10.666  64.022  1.00  0.00    -0.264 C  
HETATM   25  O   UNL     1     -10.229  10.940  62.623  1.00  0.00    -0.084 OA 
HETATM   26  C   UNL     1      -9.045  11.304  64.694  1.00  0.00    -0.015 C  
ENDROOT
BRANCH   8  27
HETATM   27  C   UNL     1     -10.513  19.417  67.227  1.00  0.00    -0.579 C  
HETATM   28  O   UNL     1     -10.941  18.369  65.074  1.00  0.00    -0.644 OA 
HETATM   29  C   UNL     1     -10.571  19.335  65.718  1.00  0.00    -0.366 C  
HETATM   30  O   UNL     1     -10.187  20.494  65.127  1.00  0.00     0.118 OA 
ENDBRANCH   8  27
TORSDOF 1
ENDMDL
MODEL      100
REMARK 921   NORMALIZED FREE ENERGY PREDICTED BY IDOCK:   -1.81 KCAL/MOL
REMARK 922        TOTAL FREE ENERGY PREDICTED BY IDOCK:   -2.22 KCAL/MOL
REMARK 923 INTER-LIGAND FREE ENERGY PREDICTED BY IDOCK:   -1.91 KCAL/MOL
REMARK 924 INTRA-LIGAND FREE ENERGY PREDICTED BY IDOCK:   -0.31 KCAL/MOL
REMARK 927      BINDING AFFINITY PREDICTED BY RF-SCORE:    0.00 PKD
ROOT
HETATM    1  C   UNL     1      -9.121  13.996  69.244  1.00  0.00     0.427 C  
HETATM    2  C   UNL     1      -8.436  14.937  68.434  1.00  0.00    -0.153 C  
HETATM    3  C   UNL     1      -9.869  14.731  68.072  1.00  0.00    -0.218 C  
HETATM    4  C   UNL     1     -10.867  13.577  69.428  1.00  0.00    -0.032 C  
HETATM    5  C   UNL     1     -12.280  12.853  69.908  1.00  0.00    -0.258 C  
HETATM    6  C   UNL     1     -10.821  14.940  69.461  1.00  0.00    -0.272 C  
HETATM    7  C   UNL     1     -13.589  13.629  70.127  1.00  0.00     1.481 C  
HETATM    8  C   UNL     1     -12.011  12.096  71.307  1.00  0.00     0.527 C  
HETATM    9  C   UNL     1     -12.025  14.918  68.082  1.00  0.00    -0.202 C  
HETATM   10  C   UNL     1     -10.893  15.929  70.572  1.00  0.00    -0.283 C  
HETATM   11  O   UNL     1     -11.995  16.077  67.230  1.00  0.00     0.410 OA 
HETATM   12  C   UNL     1     -11.396  10.176  66.902  1.00  0.00     0.466 C  
HETATM   13  C   UNL     1     -11.898  13.490  67.094  1.00  0.00    -0.430 C  
HETATM   14  H   UNL     1     -12.619  16.066  66.515  1.00  0.00     0.000 HD 
HETATM   15  C   UNL     1     -10.603  11.219  66.091  1.00  0.00    -0.312 C  
HETATM   16  C   UNL     1     -10.457  12.571  66.904  1.00  0.00    -0.244 C  
HETATM   17  H   UNL     1     -10.200  10.048  62.119  1.00  0.00     0.000 HD 
HETATM   18  C   UNL     1     -11.402  11.443  64.758  1.00  0.00    -0.131 C  
HETATM   19  C   UNL     1      -9.348  12.455  68.197  1.00  0.00    -0.209 C  
HETATM   20  C   UNL     1      -8.015  11.925  67.670  1.00  0.00    -0.146 C  
HETATM   21  C   UNL     1      -8.208  10.586  66.961  1.00  0.00    -0.125 C  
HETATM   22  C   UNL     1      -9.171  10.632  65.754  1.00  0.00    -0.218 C  
HETATM   23  C   UNL     1      -8.466  11.333  64.562  1.00  0.00     0.448 C  
HETATM   24  C   UNL     1      -9.338  11.359  63.314  1.00  0.00    -0.251 C  
HETATM   25  O   UNL     1      -9.656  10.032  62.898  1.00  0.00    -0.267 OA 
HETATM   26  C   UNL     1     -10.618  12.121  63.630  1.00  0.00    -0.504 C  
ENDROOT
BRANCH   8  27
HETATM   27  C   UNL     1     -13.147  11.181  71.822  1.00  0.00    -0.536 C  
HETATM   28  O   UNL     1     -12.225   9.335  70.534  1.00  0.00    -0.125 OA 
HETATM   29  C   UNL     1     -13.072   9.764  71.297  1.00  0.00    -0.381 C  
HETATM   30  O   UNL     1     -14.058   8.980  71.799  1.00  0.00    -0.374 OA 
ENDBRANCH   8  27
TORSDOF 1
ENDMDL
MODEL      101
REMARK 921   NORMALIZED FREE ENERGY PREDICTED BY IDOCK:   -1.76 KCAL/MOL
REMARK 922        TOTAL FREE ENERGY PREDICTED BY IDOCK:   -2.17 KCAL/MOL
REMARK 923 INTER-LIGAND FREE ENERGY PREDICTED BY IDOCK:   -1.95 KCAL/MOL
REMARK 924 INTRA-LIGAND FREE ENERGY PREDICTED BY IDOCK:   -0.22 KCAL/MOL
REMARK 927      BINDING AFFINITY PREDICTED BY RF-SCORE:    0.00 PKD
ROOT
HETATM    1  C   UNL     1      -9.597  12.527  69.231  1.00  0.00     0.767 C  
HETATM    2  C   UNL     1      -9.902  11.143  69.195  1.00  0.00    -0.074 C  
HETATM    3  C   UNL     1      -8.961  11.601  68.132  1.00  0.00    -0.182 C  
HETATM    4  C   UNL     1      -8.352  13.532  68.395  1.00  0.00    -0.140 C  
HETATM    5  C   UNL     1      -7.445  14.817  67.871  1.00  0.00    -0.156 C  
HETATM    6  C   UNL     1      -7.678  12.440  68.860  1.00  0.00     0.072 C  
HETATM    7  C   UNL     1      -5.927  14.737  67.641  1.00  0.00    -0.060 C  
HETATM    8  C   UNL     1      -7.640  16.032  68.914  1.00  0.00    -0.192 C  
HETATM    9  C   UNL     1      -7.125  12.168  67.135  1.00  0.00    -0.120 C  
HETATM   10  C   UNL     1      -6.784  12.224  70.031  1.00  0.00     0.327 C  
HETATM   11  O   UNL     1      -6.803  10.804  66.808  1.00  0.00    -0.098 OA 
HETATM   12  C   UNL     1     -10.418  15.174  65.040  1.00  0.00    -0.418 C  
HETATM   13  C   UNL     1      -8.252  12.778  65.958  1.00  0.00     1.145 C  
HETATM   14  H   UNL     1      -6.517  10.663  65.914  1.00  0.00     0.000 HD 
HETATM   15  C   UNL     1     -10.759  13.671  65.086  1.00  0.00    -0.359 C  
HETATM   16  C   UNL     1      -9.942  12.945  66.232  1.00  0.00    -0.271 C  
HETATM   17  H   UNL     1     -12.854  12.498  61.689  1.00  0.00     0.000 HD 
HETATM   18  C   UNL     1     -10.393  13.092  63.674  1.00  0.00     0.188 C  
HETATM   19  C   UNL     1     -10.514  13.316  67.797  1.00  0.00    -0.242 C  
HETATM   20  C   UNL     1     -12.016  13.039  67.863  1.00  0.00    -0.338 C  
HETATM   21  C   UNL     1     -12.758  13.822  66.782  1.00  0.00     0.114 C  
HETATM   22  C   UNL     1     -12.314  13.501  65.337  1.00  0.00    -0.517 C  
HETATM   23  C   UNL     1     -12.872  12.113  64.926  1.00  0.00     0.244 C  
HETATM   24  C   UNL     1     -12.523  11.758  63.486  1.00  0.00    -0.389 C  
HETATM   25  O   UNL     1     -13.072  12.720  62.587  1.00  0.00     0.360 OA 
HETATM   26  C   UNL     1     -11.007  11.727  63.346  1.00  0.00    -0.458 C  
ENDROOT
BRANCH   8  27
HETATM   27  C   UNL     1      -7.044  17.398  68.496  1.00  0.00    -0.219 C  
HETATM   28  O   UNL     1      -9.251  18.403  68.685  1.00  0.00    -0.323 OA 
HETATM   29  C   UNL     1      -8.063  18.515  68.441  1.00  0.00    -0.323 C  
HETATM   30  O   UNL     1      -7.500  19.704  68.112  1.00  0.00    -0.288 OA 
ENDBRANCH   8  27
TORSDOF 1
ENDMDL
MODEL      102
REMARK 921   NORMALIZED FREE ENERGY PREDICTED BY IDOCK:   -1.76 KCAL/MOL
REMARK 922        TOTAL FREE ENERGY PREDICTED BY IDOCK:   -2.17 KCAL/MOL
REMARK 923 INTER-LIGAND FREE ENERGY PREDICTED BY IDOCK:   -2.36 KCAL/MOL
REMARK 924 INTRA-LIGAND FREE ENERGY PREDICTED BY IDOCK:    0.18 KCAL/MOL
REMARK 927      BINDING AFFINITY PREDICTED BY RF-SCORE:    0.00 PKD
ROOT
HETATM    1  C   UNL     1      -7.591   7.766  68.023  1.00  0.00    -0.120 C  
HETATM    2  C   UNL     1      -6.781   6.998  67.147  1.00  0.00    -0.060 C  
HETATM    3  C   UNL     1      -7.980   6.283  67.674  1.00  0.00    -0.113 C  
HETATM    4  C   UNL     1      -9.242   7.512  68.705  1.00  0.00    -0.145 C  
HETATM    5  C   UNL     1     -10.647   7.705  69.565  1.00  0.00    -0.227 C  
HETATM    6  C   UNL     1      -9.357   7.229  67.376  1.00  0.00    -0.148 C  
HETATM    7  C   UNL     1     -12.030   7.328  69.009  1.00  0.00     1.261 C  
HETATM    8  C   UNL     1     -10.779   9.259  69.977  1.00  0.00    -0.259 C  
HETATM    9  C   UNL     1     -10.024   5.600  67.879  1.00  0.00    -0.143 C  
HETATM   10  C   UNL     1      -9.901   7.995  66.220  1.00  0.00    -0.162 C  
HETATM   11  O   UNL     1      -9.837   4.544  66.920  1.00  0.00    -0.193 OA 
HETATM   12  C   UNL     1      -8.529   5.840  72.568  1.00  0.00    -0.117 C  
HETATM   13  C   UNL     1      -9.422   5.069  69.424  1.00  0.00    -0.206 C  
HETATM   14  H   UNL     1     -10.183   3.699  67.181  1.00  0.00     0.000 HD 
HETATM   15  C   UNL     1      -7.629   5.078  71.575  1.00  0.00    -0.096 C  
HETATM   16  C   UNL     1      -7.908   5.548  70.088  1.00  0.00    -0.089 C  
HETATM   17  H   UNL     1      -5.802   1.815  73.397  1.00  0.00     0.000 HD 
HETATM   18  C   UNL     1      -7.958   3.554  71.760  1.00  0.00    -0.062 C  
HETATM   19  C   UNL     1      -7.288   7.102  69.751  1.00  0.00    -0.085 C  
HETATM   20  C   UNL     1      -5.807   7.144  70.125  1.00  0.00    -0.024 C  
HETATM   21  C   UNL     1      -5.607   6.753  71.588  1.00  0.00    -0.036 C  
HETATM   22  C   UNL     1      -6.111   5.338  71.949  1.00  0.00    -0.026 C  
HETATM   23  C   UNL     1      -5.130   4.282  71.375  1.00  0.00     0.000 C  
HETATM   24  C   UNL     1      -5.534   2.861  71.748  1.00  0.00    -0.008 C  
HETATM   25  O   UNL     1      -5.550   2.701  73.165  1.00  0.00     0.000 OA 
HETATM   26  C   UNL     1      -6.921   2.585  71.182  1.00  0.00    -0.032 C  
ENDROOT
BRANCH   8  27
HETATM   27  C   UNL     1     -11.916   9.613  70.965  1.00  0.00    -0.427 C  
HETATM   28  O   UNL     1     -11.146   7.855  72.459  1.00  0.00    -0.304 OA 
HETATM   29  C   UNL     1     -11.928   8.756  72.211  1.00  0.00    -0.345 C  
HETATM   30  O   UNL     1     -12.911   9.119  73.072  1.00  0.00    -0.194 OA 
ENDBRANCH   8  27
TORSDOF 1
ENDMDL
MODEL      103
REMARK 921   NORMALIZED FREE ENERGY PREDICTED BY IDOCK:   -1.68 KCAL/MOL
REMARK 922        TOTAL FREE ENERGY PREDICTED BY IDOCK:   -2.09 KCAL/MOL
REMARK 923 INTER-LIGAND FREE ENERGY PREDICTED BY IDOCK:   -2.00 KCAL/MOL
REMARK 924 INTRA-LIGAND FREE ENERGY PREDICTED BY IDOCK:   -0.09 KCAL/MOL
REMARK 927      BINDING AFFINITY PREDICTED BY RF-SCORE:    0.00 PKD
ROOT
HETATM    1  C   UNL     1     -11.731  13.724  67.805  1.00  0.00    -0.393 C  
HETATM    2  C   UNL     1     -12.230  12.700  68.649  1.00  0.00     0.031 C  
HETATM    3  C   UNL     1     -11.244  13.613  69.296  1.00  0.00    -0.284 C  
HETATM    4  C   UNL     1     -10.766  15.216  68.125  1.00  0.00    -0.254 C  
HETATM    5  C   UNL     1      -9.905  16.619  67.923  1.00  0.00    -0.248 C  
HETATM    6  C   UNL     1     -11.750  15.217  69.069  1.00  0.00    -0.358 C  
HETATM    7  C   UNL     1      -9.983  17.801  68.903  1.00  0.00    -0.332 C  
HETATM    8  C   UNL     1     -10.292  17.248  66.489  1.00  0.00    -0.308 C  
HETATM    9  C   UNL     1     -10.417  15.332  70.319  1.00  0.00    -0.191 C  
HETATM   10  C   UNL     1     -13.032  15.963  69.196  1.00  0.00     1.421 C  
HETATM   11  O   UNL     1     -10.751  14.804  71.615  1.00  0.00    -0.182 OA 
HETATM   12  C   UNL     1      -6.742  14.052  67.297  1.00  0.00     0.224 C  
HETATM   13  C   UNL     1      -8.925  14.611  69.787  1.00  0.00     0.451 C  
HETATM   14  H   UNL     1     -10.060  14.863  72.264  1.00  0.00     0.000 HD 
HETATM   15  C   UNL     1      -7.361  12.943  68.170  1.00  0.00    -0.119 C  
HETATM   16  C   UNL     1      -8.823  13.340  68.632  1.00  0.00     0.038 C  
HETATM   17  H   UNL     1      -4.480  10.189  69.366  1.00  0.00     0.000 HD 
HETATM   18  C   UNL     1      -6.404  12.767  69.403  1.00  0.00    -0.110 C  
HETATM   19  C   UNL     1      -9.969  13.247  67.370  1.00  0.00    -0.233 C  
HETATM   20  C   UNL     1      -9.898  11.862  66.727  1.00  0.00    -0.214 C  
HETATM   21  C   UNL     1      -8.482  11.565  66.237  1.00  0.00    -0.108 C  
HETATM   22  C   UNL     1      -7.401  11.594  67.340  1.00  0.00    -0.128 C  
HETATM   23  C   UNL     1      -7.528  10.318  68.215  1.00  0.00    -0.086 C  
HETATM   24  C   UNL     1      -6.450  10.250  69.289  1.00  0.00    -0.049 C  
HETATM   25  O   UNL     1      -5.153  10.232  68.695  1.00  0.00    -0.039 OA 
HETATM   26  C   UNL     1      -6.586  11.467  70.193  1.00  0.00     0.099 C  
ENDROOT
BRANCH   8  27
HETATM   27  C   UNL     1      -9.442  18.450  66.014  1.00  0.00    -0.035 C  
HETATM   28  O   UNL     1      -7.472  17.024  65.972  1.00  0.00    -0.278 OA 
HETATM   29  C   UNL     1      -7.983  18.116  65.798  1.00  0.00     0.150 C  
HETATM   30  O   UNL     1      -7.276  19.181  65.344  1.00  0.00    -0.466 OA 
ENDBRANCH   8  27
TORSDOF 1
ENDMDL
MODEL      104
REMARK 921   NORMALIZED FREE ENERGY PREDICTED BY IDOCK:   -1.63 KCAL/MOL
REMARK 922        TOTAL FREE ENERGY PREDICTED BY IDOCK:   -2.03 KCAL/MOL
REMARK 923 INTER-LIGAND FREE ENERGY PREDICTED BY IDOCK:   -1.84 KCAL/MOL
REMARK 924 INTRA-LIGAND FREE ENERGY PREDICTED BY IDOCK:   -0.19 KCAL/MOL
REMARK 927      BINDING AFFINITY PREDICTED BY RF-SCORE:    0.00 PKD
ROOT
HETATM    1  C   UNL     1      -8.057  14.040  70.003  1.00  0.00     1.373 C  
HETATM    2  C   UNL     1      -8.147  12.641  69.788  1.00  0.00     1.903 C  
HETATM    3  C   UNL     1      -7.511  13.403  68.674  1.00  0.00    -0.104 C  
HETATM    4  C   UNL     1      -7.167  15.358  69.149  1.00  0.00    -0.171 C  
HETATM    5  C   UNL     1      -6.588  16.846  68.702  1.00  0.00    -0.173 C  
HETATM    6  C   UNL     1      -6.257  14.354  69.306  1.00  0.00    -0.110 C  
HETATM    7  C   UNL     1      -5.149  17.075  68.211  1.00  0.00    -0.119 C  
HETATM    8  C   UNL     1      -6.762  17.853  69.950  1.00  0.00     0.269 C  
HETATM    9  C   UNL     1      -6.012  14.424  67.493  1.00  0.00     0.107 C  
HETATM   10  C   UNL     1      -5.130  14.148  70.258  1.00  0.00    -0.091 C  
HETATM   11  O   UNL     1      -5.554  13.198  66.894  1.00  0.00    -0.309 OA 
HETATM   12  C   UNL     1     -10.071  17.036  66.508  1.00  0.00    -0.318 C  
HETATM   13  C   UNL     1      -7.426  14.973  66.639  1.00  0.00     0.672 C  
HETATM   14  H   UNL     1      -5.427  13.234  65.953  1.00  0.00     0.000 HD 
HETATM   15  C   UNL     1     -10.161  15.505  66.360  1.00  0.00    -0.300 C  
HETATM   16  C   UNL     1      -9.036  14.790  67.216  1.00  0.00    -0.214 C  
HETATM   17  H   UNL     1     -12.668  14.441  63.215  1.00  0.00     0.000 HD 
HETATM   18  C   UNL     1      -9.990  15.198  64.830  1.00  0.00    -0.041 C  
HETATM   19  C   UNL     1      -9.345  14.835  68.895  1.00  0.00    -0.184 C  
HETATM   20  C   UNL     1     -10.745  14.284  69.164  1.00  0.00    -0.239 C  
HETATM   21  C   UNL     1     -11.794  15.058  68.368  1.00  0.00    -0.298 C  
HETATM   22  C   UNL     1     -11.593  15.022  66.836  1.00  0.00    -0.229 C  
HETATM   23  C   UNL     1     -11.999  13.624  66.299  1.00  0.00    -0.461 C  
HETATM   24  C   UNL     1     -11.885  13.537  64.783  1.00  0.00    -0.381 C  
HETATM   25  O   UNL     1     -12.739  14.496  64.161  1.00  0.00    -0.711 OA 
HETATM   26  C   UNL     1     -10.439  13.802  64.387  1.00  0.00    -0.265 C  
ENDROOT
BRANCH   8  27
HETATM   27  C   UNL     1      -6.476  19.347  69.672  1.00  0.00    -0.329 C  
HETATM   28  O   UNL     1      -5.435  19.542  71.862  1.00  0.00    -0.398 OA 
HETATM   29  C   UNL     1      -5.766  20.053  70.806  1.00  0.00    -0.308 C  
HETATM   30  O   UNL     1      -5.495  21.349  70.513  1.00  0.00    -0.413 OA 
ENDBRANCH   8  27
TORSDOF 1
ENDMDL
MODEL      105
REMARK 921   NORMALIZED FREE ENERGY PREDICTED BY IDOCK:   -1.37 KCAL/MOL
REMARK 922        TOTAL FREE ENERGY PREDICTED BY IDOCK:   -1.76 KCAL/MOL
REMARK 923 INTER-LIGAND FREE ENERGY PREDICTED BY IDOCK:   -2.57 KCAL/MOL
REMARK 924 INTRA-LIGAND FREE ENERGY PREDICTED BY IDOCK:    0.81 KCAL/MOL
REMARK 927      BINDING AFFINITY PREDICTED BY RF-SCORE:    0.00 PKD
ROOT
HETATM    1  C   UNL     1      -7.765  13.008  66.803  1.00  0.00     0.381 C  
HETATM    2  C   UNL     1      -7.260  14.160  67.460  1.00  0.00    -0.188 C  
HETATM    3  C   UNL     1      -7.578  13.016  68.364  1.00  0.00    -0.133 C  
HETATM    4  C   UNL     1      -8.041  11.309  67.345  1.00  0.00    -0.135 C  
HETATM    5  C   UNL     1      -8.475   9.709  67.382  1.00  0.00    -0.125 C  
HETATM    6  C   UNL     1      -6.791  11.627  67.789  1.00  0.00    -0.079 C  
HETATM    7  C   UNL     1      -7.659   8.633  68.118  1.00  0.00    -0.097 C  
HETATM    8  C   UNL     1      -8.579   9.178  65.862  1.00  0.00    -0.168 C  
HETATM    9  C   UNL     1      -7.371  11.163  69.462  1.00  0.00    -0.018 C  
HETATM   10  C   UNL     1      -5.425  11.297  67.294  1.00  0.00    -0.056 C  
HETATM   11  O   UNL     1      -6.677  11.805  70.546  1.00  0.00    -0.438 OA 
HETATM   12  C   UNL     1     -12.179  11.207  68.389  1.00  0.00     0.143 C  
HETATM   13  C   UNL     1      -9.083  11.395  69.675  1.00  0.00     1.001 C  
HETATM   14  H   UNL     1      -6.978  11.565  71.414  1.00  0.00     0.000 HD 
HETATM   15  C   UNL     1     -11.585  12.476  69.031  1.00  0.00    -0.365 C  
HETATM   16  C   UNL     1     -10.019  12.543  68.800  1.00  0.00    -0.028 C  
HETATM   17  H   UNL     1     -14.321  14.293  71.585  1.00  0.00     0.000 HD 
HETATM   18  C   UNL     1     -11.929  12.399  70.561  1.00  0.00    -0.284 C  
HETATM   19  C   UNL     1      -9.598  12.931  67.192  1.00  0.00    -0.225 C  
HETATM   20  C   UNL     1     -10.321  14.213  66.778  1.00  0.00    -0.274 C  
HETATM   21  C   UNL     1     -11.831  14.063  66.954  1.00  0.00    -0.458 C  
HETATM   22  C   UNL     1     -12.281  13.751  68.398  1.00  0.00    -0.181 C  
HETATM   23  C   UNL     1     -12.156  15.033  69.263  1.00  0.00    -0.282 C  
HETATM   24  C   UNL     1     -12.643  14.813  70.689  1.00  0.00    -0.354 C  
HETATM   25  O   UNL     1     -14.017  14.430  70.695  1.00  0.00     0.133 OA 
HETATM   26  C   UNL     1     -11.799  13.719  71.329  1.00  0.00     0.164 C  
ENDROOT
BRANCH   8  27
HETATM   27  C   UNL     1      -9.176   7.764  65.667  1.00  0.00     0.081 C  
HETATM   28  O   UNL     1     -10.701   8.169  67.519  1.00  0.00    -0.242 OA 
HETATM   29  C   UNL     1     -10.285   7.433  66.642  1.00  0.00    -0.177 C  
HETATM   30  O   UNL     1     -10.813   6.204  66.418  1.00  0.00    -0.164 OA 
ENDBRANCH   8  27
TORSDOF 1
ENDMDL
MODEL      106
REMARK 921   NORMALIZED FREE ENERGY PREDICTED BY IDOCK:   -1.13 KCAL/MOL
REMARK 922        TOTAL FREE ENERGY PREDICTED BY IDOCK:   -1.50 KCAL/MOL
REMARK 923 INTER-LIGAND FREE ENERGY PREDICTED BY IDOCK:   -1.45 KCAL/MOL
REMARK 924 INTRA-LIGAND FREE ENERGY PREDICTED BY IDOCK:   -0.05 KCAL/MOL
REMARK 927      BINDING AFFINITY PREDICTED BY RF-SCORE:    0.00 PKD
ROOT
HETATM    1  C   UNL     1      -7.107   9.757  69.082  1.00  0.00    -0.067 C  
HETATM    2  C   UNL     1      -7.146  11.051  69.662  1.00  0.00    -0.089 C  
HETATM    3  C   UNL     1      -8.469  10.367  69.576  1.00  0.00    -0.115 C  
HETATM    4  C   UNL     1      -8.313   8.419  68.986  1.00  0.00    -0.119 C  
HETATM    5  C   UNL     1      -9.058   6.980  68.631  1.00  0.00    -0.132 C  
HETATM    6  C   UNL     1      -8.339   8.831  70.286  1.00  0.00    -0.139 C  
HETATM    7  C   UNL     1      -9.978   6.244  69.619  1.00  0.00    -0.201 C  
HETATM    8  C   UNL     1      -7.920   5.903  68.247  1.00  0.00    -0.109 C  
HETATM    9  C   UNL     1     -10.140   9.083  70.070  1.00  0.00    -0.196 C  
HETATM   10  C   UNL     1      -7.753   8.276  71.538  1.00  0.00    -0.114 C  
HETATM   11  O   UNL     1     -10.725  10.067  70.941  1.00  0.00    -0.332 OA 
HETATM   12  C   UNL     1     -10.113   8.910  65.146  1.00  0.00     1.222 C  
HETATM   13  C   UNL     1     -10.580   9.452  68.427  1.00  0.00    -0.247 C  
HETATM   14  H   UNL     1     -11.659  10.198  70.828  1.00  0.00     0.000 HD 
HETATM   15  C   UNL     1     -10.076  10.302  65.807  1.00  0.00    -0.325 C  
HETATM   16  C   UNL     1      -9.531  10.206  67.291  1.00  0.00    -0.178 C  
HETATM   17  H   UNL     1     -12.204  13.088  63.567  1.00  0.00     0.000 HD 
HETATM   18  C   UNL     1     -11.549  10.844  65.778  1.00  0.00     0.847 C  
HETATM   19  C   UNL     1      -7.850   9.917  67.367  1.00  0.00    -0.098 C  
HETATM   20  C   UNL     1      -7.121  10.965  66.527  1.00  0.00    -0.139 C  
HETATM   21  C   UNL     1      -7.638  10.961  65.090  1.00  0.00     0.233 C  
HETATM   22  C   UNL     1      -9.147  11.257  64.949  1.00  0.00    -0.059 C  
HETATM   23  C   UNL     1      -9.398  12.769  65.194  1.00  0.00     0.427 C  
HETATM   24  C   UNL     1     -10.863  13.145  65.010  1.00  0.00    -0.315 C  
HETATM   25  O   UNL     1     -11.290  12.853  63.681  1.00  0.00    -0.428 OA 
HETATM   26  C   UNL     1     -11.697  12.352  66.007  1.00  0.00    -0.469 C  
ENDROOT
BRANCH   8  27
HETATM   27  C   UNL     1      -8.417   4.553  67.679  1.00  0.00    -0.103 C  
HETATM   28  O   UNL     1      -7.991   3.505  69.833  1.00  0.00    -0.050 OA 
HETATM   29  C   UNL     1      -8.376   3.419  68.680  1.00  0.00    -0.073 C  
HETATM   30  O   UNL     1      -8.855   2.261  68.162  1.00  0.00    -0.085 OA 
ENDBRANCH   8  27
TORSDOF 1
ENDMDL
MODEL      107
REMARK 921   NORMALIZED FREE ENERGY PREDICTED BY IDOCK:   -0.81 KCAL/MOL
REMARK 922        TOTAL FREE ENERGY PREDICTED BY IDOCK:   -1.16 KCAL/MOL
REMARK 923 INTER-LIGAND FREE ENERGY PREDICTED BY IDOCK:   -0.97 KCAL/MOL
REMARK 924 INTRA-LIGAND FREE ENERGY PREDICTED BY IDOCK:   -0.20 KCAL/MOL
REMARK 927      BINDING AFFINITY PREDICTED BY RF-SCORE:    0.00 PKD
ROOT
HETATM    1  C   UNL     1      -6.058  14.864  67.297  1.00  0.00     0.347 C  
HETATM    2  C   UNL     1      -5.148  15.741  67.941  1.00  0.00    -0.137 C  
HETATM    3  C   UNL     1      -6.282  15.284  68.796  1.00  0.00    -0.090 C  
HETATM    4  C   UNL     1      -7.401  13.825  67.909  1.00  0.00    -0.155 C  
HETATM    5  C   UNL     1      -8.687  12.780  67.984  1.00  0.00    -0.194 C  
HETATM    6  C   UNL     1      -6.354  13.590  68.751  1.00  0.00    -0.093 C  
HETATM    7  C   UNL     1      -8.865  11.748  69.110  1.00  0.00     0.403 C  
HETATM    8  C   UNL     1      -8.715  11.915  66.623  1.00  0.00    -0.185 C  
HETATM    9  C   UNL     1      -7.476  14.058  70.121  1.00  0.00     0.853 C  
HETATM   10  C   UNL     1      -5.376  12.472  68.864  1.00  0.00    -0.058 C  
HETATM   11  O   UNL     1      -6.821  14.572  71.294  1.00  0.00     0.021 OA 
HETATM   12  C   UNL     1     -10.906  16.183  67.294  1.00  0.00    -0.235 C  
HETATM   13  C   UNL     1      -8.712  15.180  69.630  1.00  0.00    -0.052 C  
HETATM   14  H   UNL     1      -7.403  14.815  72.004  1.00  0.00     0.000 HD 
HETATM   15  C   UNL     1      -9.854  17.103  67.944  1.00  0.00    -0.283 C  
HETATM   16  C   UNL     1      -8.551  16.287  68.322  1.00  0.00    -0.196 C  
HETATM   17  H   UNL     1     -11.509  20.772  68.997  1.00  0.00     0.000 HD 
HETATM   18  C   UNL     1     -10.531  17.714  69.221  1.00  0.00    -0.026 C  
HETATM   19  C   UNL     1      -7.612  15.859  66.961  1.00  0.00    -0.264 C  
HETATM   20  C   UNL     1      -7.317  17.114  66.140  1.00  0.00    -0.281 C  
HETATM   21  C   UNL     1      -8.614  17.818  65.743  1.00  0.00     0.288 C  
HETATM   22  C   UNL     1      -9.490  18.267  66.933  1.00  0.00    -0.290 C  
HETATM   23  C   UNL     1      -8.846  19.508  67.605  1.00  0.00    -0.367 C  
HETATM   24  C   UNL     1      -9.693  20.044  68.752  1.00  0.00    -0.171 C  
HETATM   25  O   UNL     1     -10.981  20.437  68.281  1.00  0.00     0.199 OA 
HETATM   26  C   UNL     1      -9.838  18.951  69.802  1.00  0.00     0.460 C  
ENDROOT
BRANCH   8  27
HETATM   27  C   UNL     1      -9.962  11.026  66.401  1.00  0.00    -0.264 C  
HETATM   28  O   UNL     1      -8.558   9.044  66.547  1.00  0.00    -0.116 OA 
HETATM   29  C   UNL     1      -9.660   9.544  66.399  1.00  0.00    -0.213 C  
HETATM   30  O   UNL     1     -10.779   8.794  66.243  1.00  0.00     0.134 OA 
ENDBRANCH   8  27
TORSDOF 1
ENDMDL
MODEL      108
REMARK 921   NORMALIZED FREE ENERGY PREDICTED BY IDOCK:   -0.77 KCAL/MOL
REMARK 922        TOTAL FREE ENERGY PREDICTED BY IDOCK:   -1.13 KCAL/MOL
REMARK 923 INTER-LIGAND FREE ENERGY PREDICTED BY IDOCK:   -0.84 KCAL/MOL
REMARK 924 INTRA-LIGAND FREE ENERGY PREDICTED BY IDOCK:   -0.29 KCAL/MOL
REMARK 927      BINDING AFFINITY PREDICTED BY RF-SCORE:    0.00 PKD
ROOT
HETATM    1  C   UNL     1     -12.472  11.658  69.712  1.00  0.00    -0.088 C  
HETATM    2  C   UNL     1     -12.248  11.527  71.106  1.00  0.00    -0.287 C  
HETATM    3  C   UNL     1     -11.269  12.403  70.398  1.00  0.00     0.811 C  
HETATM    4  C   UNL     1     -11.794  12.767  68.459  1.00  0.00    -0.345 C  
HETATM    5  C   UNL     1     -11.457  13.505  67.013  1.00  0.00    -0.369 C  
HETATM    6  C   UNL     1     -12.120  13.572  69.511  1.00  0.00    -0.352 C  
HETATM    7  C   UNL     1     -11.242  15.021  66.874  1.00  0.00    -0.323 C  
HETATM    8  C   UNL     1     -12.648  13.162  65.981  1.00  0.00    -0.192 C  
HETATM    9  C   UNL     1     -10.384  14.152  69.481  1.00  0.00     0.185 C  
HETATM   10  C   UNL     1     -13.266  14.487  69.768  1.00  0.00     0.781 C  
HETATM   11  O   UNL     1      -9.885  14.641  70.739  1.00  0.00     0.411 OA 
HETATM   12  C   UNL     1      -8.653  10.506  66.655  1.00  0.00    -0.133 C  
HETATM   13  C   UNL     1      -9.280  12.956  68.865  1.00  0.00     0.304 C  
HETATM   14  H   UNL     1      -8.984  14.941  70.724  1.00  0.00     0.000 HD 
HETATM   15  C   UNL     1      -8.496  10.356  68.181  1.00  0.00    -0.121 C  
HETATM   16  C   UNL     1      -9.549  11.258  68.947  1.00  0.00    -0.119 C  
HETATM   17  H   UNL     1      -4.943   8.418  69.144  1.00  0.00     0.000 HD 
HETATM   18  C   UNL     1      -7.026  10.789  68.519  1.00  0.00    -0.068 C  
HETATM   19  C   UNL     1     -11.140  10.647  68.860  1.00  0.00    -0.314 C  
HETATM   20  C   UNL     1     -11.146   9.191  69.327  1.00  0.00     0.001 C  
HETATM   21  C   UNL     1     -10.166   8.356  68.505  1.00  0.00    -0.228 C  
HETATM   22  C   UNL     1      -8.699   8.834  68.574  1.00  0.00    -0.135 C  
HETATM   23  C   UNL     1      -8.100   8.454  69.954  1.00  0.00    -0.119 C  
HETATM   24  C   UNL     1      -6.632   8.842  70.069  1.00  0.00    -0.038 C  
HETATM   25  O   UNL     1      -5.859   8.176  69.072  1.00  0.00    -0.033 OA 
HETATM   26  C   UNL     1      -6.511  10.349  69.893  1.00  0.00    -0.109 C  
ENDROOT
BRANCH   8  27
HETATM   27  C   UNL     1     -12.423  13.582  64.509  1.00  0.00    -0.344 C  
HETATM   28  O   UNL     1     -11.558  11.361  64.021  1.00  0.00    -0.272 OA 
HETATM   29  C   UNL     1     -11.844  12.484  63.644  1.00  0.00    -0.530 C  
HETATM   30  O   UNL     1     -11.698  12.872  62.353  1.00  0.00     1.185 OA 
ENDBRANCH   8  27
TORSDOF 1
ENDMDL
MODEL      109
REMARK 921   NORMALIZED FREE ENERGY PREDICTED BY IDOCK:    0.54 KCAL/MOL
REMARK 922        TOTAL FREE ENERGY PREDICTED BY IDOCK:    0.27 KCAL/MOL
REMARK 923 INTER-LIGAND FREE ENERGY PREDICTED BY IDOCK:    0.58 KCAL/MOL
REMARK 924 INTRA-LIGAND FREE ENERGY PREDICTED BY IDOCK:   -0.31 KCAL/MOL
REMARK 927      BINDING AFFINITY PREDICTED BY RF-SCORE:    0.00 PKD
ROOT
HETATM    1  C   UNL     1      -7.037  11.668  66.627  1.00  0.00    -0.025 C  
HETATM    2  C   UNL     1      -7.685  11.044  65.531  1.00  0.00     0.153 C  
HETATM    3  C   UNL     1      -8.601  11.508  66.614  1.00  0.00    -0.176 C  
HETATM    4  C   UNL     1      -7.647  12.629  68.028  1.00  0.00    -0.132 C  
HETATM    5  C   UNL     1      -7.725  13.503  69.435  1.00  0.00     0.474 C  
HETATM    6  C   UNL     1      -8.284  13.143  66.937  1.00  0.00     0.020 C  
HETATM    7  C   UNL     1      -8.676  14.696  69.631  1.00  0.00     0.318 C  
HETATM    8  C   UNL     1      -6.256  14.092  69.746  1.00  0.00    -0.138 C  
HETATM    9  C   UNL     1      -9.855  12.801  67.813  1.00  0.00    -0.220 C  
HETATM   10  C   UNL     1      -8.072  14.373  66.125  1.00  0.00     1.517 C  
HETATM   11  O   UNL     1     -10.996  12.597  66.960  1.00  0.00    -0.251 OA 
HETATM   12  C   UNL     1      -7.929   9.785  71.200  1.00  0.00     0.702 C  
HETATM   13  C   UNL     1      -9.736  11.464  68.921  1.00  0.00    -0.105 C  
HETATM   14  H   UNL     1     -11.810  12.419  67.414  1.00  0.00     0.000 HD 
HETATM   15  C   UNL     1      -8.571   9.138  69.957  1.00  0.00    -0.172 C  
HETATM   16  C   UNL     1      -8.622  10.163  68.751  1.00  0.00    -0.133 C  
HETATM   17  H   UNL     1     -10.443   5.551  70.927  1.00  0.00     0.000 HD 
HETATM   18  C   UNL     1     -10.014   8.694  70.386  1.00  0.00    -0.212 C  
HETATM   19  C   UNL     1      -7.092  10.444  68.049  1.00  0.00    -0.082 C  
HETATM   20  C   UNL     1      -6.459   9.106  67.670  1.00  0.00    -0.063 C  
HETATM   21  C   UNL     1      -6.369   8.187  68.887  1.00  0.00    -0.040 C  
HETATM   22  C   UNL     1      -7.728   7.860  69.546  1.00  0.00    -0.104 C  
HETATM   23  C   UNL     1      -8.502   6.854  68.655  1.00  0.00    -0.121 C  
HETATM   24  C   UNL     1      -9.829   6.438  69.276  1.00  0.00    -0.147 C  
HETATM   25  O   UNL     1      -9.615   5.810  70.539  1.00  0.00    -0.166 OA 
HETATM   26  C   UNL     1     -10.691   7.680  69.458  1.00  0.00    -0.211 C  
ENDROOT
BRANCH   8  27
HETATM   27  C   UNL     1      -6.064  14.764  71.126  1.00  0.00     0.100 C  
HETATM   28  O   UNL     1      -5.694  12.577  72.124  1.00  0.00    -0.038 OA 
HETATM   29  C   UNL     1      -5.773  13.787  72.244  1.00  0.00     0.060 C  
HETATM   30  O   UNL     1      -5.570  14.412  73.430  1.00  0.00    -0.227 OA 
ENDBRANCH   8  27
TORSDOF 1
ENDMDL
MODEL      110
REMARK 921   NORMALIZED FREE ENERGY PREDICTED BY IDOCK:    1.69 KCAL/MOL
REMARK 922        TOTAL FREE ENERGY PREDICTED BY IDOCK:    1.48 KCAL/MOL
REMARK 923 INTER-LIGAND FREE ENERGY PREDICTED BY IDOCK:    1.62 KCAL/MOL
REMARK 924 INTRA-LIGAND FREE ENERGY PREDICTED BY IDOCK:   -0.14 KCAL/MOL
REMARK 927      BINDING AFFINITY PREDICTED BY RF-SCORE:    0.00 PKD
ROOT
HETATM    1  C   UNL     1     -11.657  11.444  69.861  1.00  0.00    -0.402 C  
HETATM    2  C   UNL     1     -11.080  11.520  71.155  1.00  0.00     2.382 C  
HETATM    3  C   UNL     1     -10.096  11.530  70.033  1.00  0.00     1.369 C  
HETATM    4  C   UNL     1     -10.987  11.689  68.203  1.00  0.00    -0.275 C  
HETATM    5  C   UNL     1     -10.835  11.782  66.554  1.00  0.00    -0.323 C  
HETATM    6  C   UNL     1     -10.530  12.747  68.934  1.00  0.00    -0.106 C  
HETATM    7  C   UNL     1      -9.987  12.853  65.848  1.00  0.00    -0.273 C  
HETATM    8  C   UNL     1     -12.309  11.939  65.918  1.00  0.00     0.792 C  
HETATM    9  C   UNL     1      -8.845  12.249  68.421  1.00  0.00    -0.137 C  
HETATM   10  C   UNL     1     -10.951  14.173  69.025  1.00  0.00    -0.286 C  
HETATM   11  O   UNL     1      -7.794  12.641  69.322  1.00  0.00    -0.304 OA 
HETATM   12  C   UNL     1     -10.075   7.743  66.853  1.00  0.00    -0.356 C  
HETATM   13  C   UNL     1      -8.708  10.542  68.106  1.00  0.00    -0.130 C  
HETATM   14  H   UNL     1      -6.920  12.382  69.056  1.00  0.00     0.000 HD 
HETATM   15  C   UNL     1      -9.519   7.868  68.286  1.00  0.00    -0.149 C  
HETATM   16  C   UNL     1      -9.704   9.342  68.834  1.00  0.00    -0.166 C  
HETATM   17  H   UNL     1      -7.213   4.557  69.299  1.00  0.00     0.000 HD 
HETATM   18  C   UNL     1      -8.001   7.479  68.205  1.00  0.00    -0.123 C  
HETATM   19  C   UNL     1     -11.324   9.710  69.228  1.00  0.00    -0.003 C  
HETATM   20  C   UNL     1     -11.864   8.644  70.181  1.00  0.00     0.284 C  
HETATM   21  C   UNL     1     -11.726   7.251  69.568  1.00  0.00     0.308 C  
HETATM   22  C   UNL     1     -10.276   6.842  69.226  1.00  0.00    -0.197 C  
HETATM   23  C   UNL     1      -9.515   6.506  70.535  1.00  0.00    -0.173 C  
HETATM   24  C   UNL     1      -8.092   6.032  70.267  1.00  0.00    -0.111 C  
HETATM   25  O   UNL     1      -8.101   4.852  69.466  1.00  0.00    -0.073 OA 
HETATM   26  C   UNL     1      -7.339   7.141  69.545  1.00  0.00    -0.089 C  
ENDROOT
BRANCH   8  27
HETATM   27  C   UNL     1     -12.407  11.831  64.378  1.00  0.00    -0.119 C  
HETATM   28  O   UNL     1     -12.839  14.222  64.253  1.00  0.00    -0.598 OA 
HETATM   29  C   UNL     1     -12.688  13.150  63.693  1.00  0.00     0.008 C  
HETATM   30  O   UNL     1     -12.727  13.027  62.343  1.00  0.00     0.875 OA 
ENDBRANCH   8  27
TORSDOF 1
ENDMDL
MODEL      111
REMARK 921   NORMALIZED FREE ENERGY PREDICTED BY IDOCK:    3.14 KCAL/MOL
REMARK 922        TOTAL FREE ENERGY PREDICTED BY IDOCK:    3.02 KCAL/MOL
REMARK 923 INTER-LIGAND FREE ENERGY PREDICTED BY IDOCK:    3.20 KCAL/MOL
REMARK 924 INTRA-LIGAND FREE ENERGY PREDICTED BY IDOCK:   -0.18 KCAL/MOL
REMARK 927      BINDING AFFINITY PREDICTED BY RF-SCORE:    0.00 PKD
ROOT
HETATM    1  C   UNL     1      -8.833  10.599  67.516  1.00  0.00    -0.132 C  
HETATM    2  C   UNL     1      -9.847  11.015  66.616  1.00  0.00    -0.235 C  
HETATM    3  C   UNL     1     -10.321  10.137  67.725  1.00  0.00    -0.253 C  
HETATM    4  C   UNL     1      -8.880   9.792  69.130  1.00  0.00    -0.160 C  
HETATM    5  C   UNL     1      -8.431   9.068  70.552  1.00  0.00    -0.226 C  
HETATM    6  C   UNL     1      -9.805  10.793  69.202  1.00  0.00    -0.194 C  
HETATM    7  C   UNL     1      -9.180   9.284  71.878  1.00  0.00     0.370 C  
HETATM    8  C   UNL     1      -6.905   9.484  70.870  1.00  0.00    -0.083 C  
HETATM    9  C   UNL     1     -11.019   9.505  69.673  1.00  0.00    -0.212 C  
HETATM   10  C   UNL     1      -9.789  12.144  69.827  1.00  0.00     1.682 C  
HETATM   11  O   UNL     1     -12.388   9.815  69.357  1.00  0.00    -0.078 OA 
HETATM   12  C   UNL     1      -8.294   5.657  68.245  1.00  0.00    -0.102 C  
HETATM   13  C   UNL     1     -10.632   7.938  69.021  1.00  0.00    -0.177 C  
HETATM   14  H   UNL     1     -13.017   9.147  69.601  1.00  0.00     0.000 HD 
HETATM   15  C   UNL     1      -9.351   6.183  67.255  1.00  0.00    -0.117 C  
HETATM   16  C   UNL     1      -9.727   7.687  67.580  1.00  0.00    -0.197 C  
HETATM   17  H   UNL     1     -11.038   3.075  65.064  1.00  0.00     0.000 HD 
HETATM   18  C   UNL     1     -10.599   5.242  67.401  1.00  0.00    -0.168 C  
HETATM   19  C   UNL     1      -8.499   8.790  67.147  1.00  0.00    -0.110 C  
HETATM   20  C   UNL     1      -8.119   8.570  65.683  1.00  0.00    -0.119 C  
HETATM   21  C   UNL     1      -7.696   7.122  65.446  1.00  0.00    -0.111 C  
HETATM   22  C   UNL     1      -8.780   6.074  65.781  1.00  0.00    -0.155 C  
HETATM   23  C   UNL     1      -9.871   6.094  64.678  1.00  0.00     2.086 C  
HETATM   24  C   UNL     1     -10.944   5.038  64.913  1.00  0.00     0.800 C  
HETATM   25  O   UNL     1     -10.369   3.733  64.918  1.00  0.00    -0.164 OA 
HETATM   26  C   UNL     1     -11.612   5.313  66.253  1.00  0.00     1.428 C  
ENDROOT
BRANCH   8  27
HETATM   27  C   UNL     1      -6.223   8.745  72.047  1.00  0.00    -0.075 C  
HETATM   28  O   UNL     1      -6.253   6.686  70.753  1.00  0.00    -0.031 OA 
HETATM   29  C   UNL     1      -5.965   7.279  71.778  1.00  0.00    -0.037 C  
HETATM   30  O   UNL     1      -5.331   6.673  72.812  1.00  0.00    -0.036 OA 
ENDBRANCH   8  27
TORSDOF 1
ENDMDL
MODEL      112
REMARK 921   NORMALIZED FREE ENERGY PREDICTED BY IDOCK:    3.22 KCAL/MOL
REMARK 922        TOTAL FREE ENERGY PREDICTED BY IDOCK:    3.10 KCAL/MOL
REMARK 923 INTER-LIGAND FREE ENERGY PREDICTED BY IDOCK:    3.35 KCAL/MOL
REMARK 924 INTRA-LIGAND FREE ENERGY PREDICTED BY IDOCK:   -0.25 KCAL/MOL
REMARK 927      BINDING AFFINITY PREDICTED BY RF-SCORE:    0.00 PKD
ROOT
HETATM    1  C   UNL     1      -7.653   8.697  71.337  1.00  0.00    -0.136 C  
HETATM    2  C   UNL     1      -8.118   9.907  70.762  1.00  0.00     0.426 C  
HETATM    3  C   UNL     1      -9.194   8.993  71.245  1.00  0.00    -0.314 C  
HETATM    4  C   UNL     1      -8.465   7.403  72.297  1.00  0.00    -0.129 C  
HETATM    5  C   UNL     1      -8.759   6.010  73.147  1.00  0.00    -0.121 C  
HETATM    6  C   UNL     1      -8.876   8.576  72.858  1.00  0.00    -0.159 C  
HETATM    7  C   UNL     1      -9.682   5.955  74.376  1.00  0.00    -0.220 C  
HETATM    8  C   UNL     1      -7.347   5.427  73.666  1.00  0.00    -0.087 C  
HETATM    9  C   UNL     1     -10.591   8.003  72.568  1.00  0.00    -0.329 C  
HETATM   10  C   UNL     1      -8.473   9.304  74.093  1.00  0.00     2.238 C  
HETATM   11  O   UNL     1     -11.567   9.051  72.431  1.00  0.00    -0.272 OA 
HETATM   12  C   UNL     1      -9.422   4.408  69.409  1.00  0.00    -0.251 C  
HETATM   13  C   UNL     1     -10.725   6.927  71.207  1.00  0.00    -0.249 C  
HETATM   14  H   UNL     1     -12.456   8.753  72.280  1.00  0.00     0.000 HD 
HETATM   15  C   UNL     1      -9.856   5.762  68.813  1.00  0.00    -0.181 C  
HETATM   16  C   UNL     1      -9.650   6.930  69.863  1.00  0.00    -0.156 C  
HETATM   17  H   UNL     1     -12.012   5.235  65.294  1.00  0.00     0.000 HD 
HETATM   18  C   UNL     1     -11.369   5.608  68.425  1.00  0.00     0.716 C  
HETATM   19  C   UNL     1      -8.009   7.341  70.090  1.00  0.00    -0.112 C  
HETATM   20  C   UNL     1      -7.372   7.636  68.732  1.00  0.00    -0.091 C  
HETATM   21  C   UNL     1      -7.538   6.447  67.788  1.00  0.00    -0.102 C  
HETATM   22  C   UNL     1      -9.005   6.049  67.508  1.00  0.00    -0.111 C  
HETATM   23  C   UNL     1      -9.645   7.090  66.553  1.00  0.00    -0.201 C  
HETATM   24  C   UNL     1     -11.078   6.726  66.184  1.00  0.00     1.523 C  
HETATM   25  O   UNL     1     -11.118   5.462  65.524  1.00  0.00     0.341 OA 
HETATM   26  C   UNL     1     -11.909   6.668  67.459  1.00  0.00     1.455 C  
ENDROOT
BRANCH   8  27
HETATM   27  C   UNL     1      -7.379   4.017  74.303  1.00  0.00    -0.067 C  
HETATM   28  O   UNL     1      -6.243   3.123  72.347  1.00  0.00    -0.012 OA 
HETATM   29  C   UNL     1      -6.742   2.947  73.445  1.00  0.00    -0.026 C  
HETATM   30  O   UNL     1      -6.750   1.733  74.050  1.00  0.00    -0.020 OA 
ENDBRANCH   8  27
TORSDOF 1
ENDMDL
MODEL      113
REMARK 921   NORMALIZED FREE ENERGY PREDICTED BY IDOCK:    3.59 KCAL/MOL
REMARK 922        TOTAL FREE ENERGY PREDICTED BY IDOCK:    3.49 KCAL/MOL
REMARK 923 INTER-LIGAND FREE ENERGY PREDICTED BY IDOCK:    3.80 KCAL/MOL
REMARK 924 INTRA-LIGAND FREE ENERGY PREDICTED BY IDOCK:   -0.31 KCAL/MOL
REMARK 927      BINDING AFFINITY PREDICTED BY RF-SCORE:    0.00 PKD
ROOT
HETATM    1  C   UNL     1      -9.977  17.433  67.278  1.00  0.00    -0.302 C  
HETATM    2  C   UNL     1     -11.153  18.053  66.785  1.00  0.00     0.361 C  
HETATM    3  C   UNL     1     -11.394  16.927  67.733  1.00  0.00     0.153 C  
HETATM    4  C   UNL     1      -9.678  16.254  68.611  1.00  0.00    -0.235 C  
HETATM    5  C   UNL     1      -8.940  15.204  69.661  1.00  0.00    -0.059 C  
HETATM    6  C   UNL     1     -10.500  17.201  69.149  1.00  0.00    -0.296 C  
HETATM    7  C   UNL     1      -9.333  15.083  71.143  1.00  0.00     2.587 C  
HETATM    8  C   UNL     1      -7.361  15.535  69.680  1.00  0.00    -0.163 C  
HETATM    9  C   UNL     1     -11.635  15.831  69.584  1.00  0.00    -0.358 C  
HETATM   10  C   UNL     1     -10.256  18.357  70.055  1.00  0.00     1.081 C  
HETATM   11  O   UNL     1     -13.019  16.204  69.702  1.00  0.00    -0.436 OA 
HETATM   12  C   UNL     1      -9.559  12.466  66.645  1.00  0.00    -0.230 C  
HETATM   13  C   UNL     1     -11.507  14.475  68.501  1.00  0.00    -0.327 C  
HETATM   14  H   UNL     1     -13.608  15.493  69.927  1.00  0.00     0.000 HD 
HETATM   15  C   UNL     1     -10.793  13.215  66.104  1.00  0.00    -0.293 C  
HETATM   16  C   UNL     1     -10.993  14.591  66.863  1.00  0.00    -0.316 C  
HETATM   17  H   UNL     1     -13.134  10.733  63.722  1.00  0.00     0.000 HD 
HETATM   18  C   UNL     1     -12.020  12.261  66.326  1.00  0.00    -0.307 C  
HETATM   19  C   UNL     1      -9.846  15.772  66.415  1.00  0.00    -0.296 C  
HETATM   20  C   UNL     1      -9.844  15.921  64.894  1.00  0.00     0.637 C  
HETATM   21  C   UNL     1      -9.573  14.577  64.220  1.00  0.00     2.730 C  
HETATM   22  C   UNL     1     -10.602  13.474  64.553  1.00  0.00    -0.439 C  
HETATM   23  C   UNL     1     -11.925  13.760  63.793  1.00  0.00    -0.365 C  
HETATM   24  C   UNL     1     -12.967  12.674  64.027  1.00  0.00    -0.036 C  
HETATM   25  O   UNL     1     -12.483  11.411  63.576  1.00  0.00    -0.163 OA 
HETATM   26  C   UNL     1     -13.274  12.607  65.517  1.00  0.00     1.267 C  
ENDROOT
BRANCH   8  27
HETATM   27  C   UNL     1      -6.459  14.533  70.438  1.00  0.00    -0.111 C  
HETATM   28  O   UNL     1      -6.471  13.072  68.494  1.00  0.00    -0.072 OA 
HETATM   29  C   UNL     1      -6.103  13.304  69.632  1.00  0.00    -0.118 C  
HETATM   30  O   UNL     1      -5.279  12.467  70.310  1.00  0.00    -0.089 OA 
ENDBRANCH   8  27
TORSDOF 1
ENDMDL
MODEL      114
REMARK 921   NORMALIZED FREE ENERGY PREDICTED BY IDOCK:    3.98 KCAL/MOL
REMARK 922        TOTAL FREE ENERGY PREDICTED BY IDOCK:    3.91 KCAL/MOL
REMARK 923 INTER-LIGAND FREE ENERGY PREDICTED BY IDOCK:    3.12 KCAL/MOL
REMARK 924 INTRA-LIGAND FREE ENERGY PREDICTED BY IDOCK:    0.79 KCAL/MOL
REMARK 927      BINDING AFFINITY PREDICTED BY RF-SCORE:    0.00 PKD
ROOT
HETATM    1  C   UNL     1      -9.827  15.635  69.811  1.00  0.00    -0.260 C  
HETATM    2  C   UNL     1     -10.067  14.433  70.524  1.00  0.00     1.354 C  
HETATM    3  C   UNL     1      -8.899  14.385  69.596  1.00  0.00     0.582 C  
HETATM    4  C   UNL     1      -8.443  16.210  68.804  1.00  0.00    -0.236 C  
HETATM    5  C   UNL     1      -7.475  17.126  67.818  1.00  0.00    -0.183 C  
HETATM    6  C   UNL     1      -7.876  15.695  69.933  1.00  0.00     0.180 C  
HETATM    7  C   UNL     1      -5.947  17.200  67.973  1.00  0.00    -0.127 C  
HETATM    8  C   UNL     1      -7.972  18.659  67.905  1.00  0.00    -0.278 C  
HETATM    9  C   UNL     1      -6.889  14.617  68.829  1.00  0.00    -0.095 C  
HETATM   10  C   UNL     1      -7.306  16.322  71.158  1.00  0.00     3.988 C  
HETATM   11  O   UNL     1      -6.449  13.382  69.420  1.00  0.00    -0.107 OA 
HETATM   12  C   UNL     1      -9.631  15.332  64.799  1.00  0.00     1.054 C  
HETATM   13  C   UNL     1      -7.695  14.267  67.327  1.00  0.00    -0.145 C  
HETATM   14  H   UNL     1      -5.938  12.823  68.848  1.00  0.00     0.000 HD 
HETATM   15  C   UNL     1      -9.922  14.074  65.640  1.00  0.00    -0.309 C  
HETATM   16  C   UNL     1      -9.404  14.258  67.125  1.00  0.00    -0.233 C  
HETATM   17  H   UNL     1     -11.033  10.874  63.225  1.00  0.00     0.000 HD 
HETATM   18  C   UNL     1      -9.186  12.885  64.926  1.00  0.00     0.852 C  
HETATM   19  C   UNL     1     -10.371  15.325  68.042  1.00  0.00    -0.244 C  
HETATM   20  C   UNL     1     -11.829  14.872  67.967  1.00  0.00    -0.296 C  
HETATM   21  C   UNL     1     -12.294  14.784  66.515  1.00  0.00     0.096 C  
HETATM   22  C   UNL     1     -11.483  13.802  65.640  1.00  0.00    -0.318 C  
HETATM   23  C   UNL     1     -11.869  12.345  66.011  1.00  0.00    -0.459 C  
HETATM   24  C   UNL     1     -11.151  11.322  65.142  1.00  0.00    -0.079 C  
HETATM   25  O   UNL     1     -11.482  11.512  63.767  1.00  0.00    -0.402 OA 
HETATM   26  C   UNL     1      -9.650  11.485  65.338  1.00  0.00    -0.249 C  
ENDROOT
BRANCH   8  27
HETATM   27  C   UNL     1      -7.335  19.645  66.897  1.00  0.00    -0.246 C  
HETATM   28  O   UNL     1      -7.299  17.885  65.218  1.00  0.00    -0.278 OA 
HETATM   29  C   UNL     1      -7.064  19.037  65.539  1.00  0.00    -0.147 C  
HETATM   30  O   UNL     1      -6.544  19.939  64.669  1.00  0.00    -0.302 OA 
ENDBRANCH   8  27
TORSDOF 1
ENDMDL
MODEL      115
REMARK 921   NORMALIZED FREE ENERGY PREDICTED BY IDOCK:    4.56 KCAL/MOL
REMARK 922        TOTAL FREE ENERGY PREDICTED BY IDOCK:    4.52 KCAL/MOL
REMARK 923 INTER-LIGAND FREE ENERGY PREDICTED BY IDOCK:    4.77 KCAL/MOL
REMARK 924 INTRA-LIGAND FREE ENERGY PREDICTED BY IDOCK:   -0.25 KCAL/MOL
REMARK 927      BINDING AFFINITY PREDICTED BY RF-SCORE:    0.00 PKD
ROOT
HETATM    1  C   UNL     1      -6.614  15.797  66.883  1.00  0.00     0.206 C  
HETATM    2  C   UNL     1      -7.083  16.902  66.128  1.00  0.00    -0.054 C  
HETATM    3  C   UNL     1      -7.755  16.719  67.447  1.00  0.00    -0.192 C  
HETATM    4  C   UNL     1      -6.863  15.288  68.597  1.00  0.00    -0.109 C  
HETATM    5  C   UNL     1      -6.817  14.434  70.018  1.00  0.00    -0.028 C  
HETATM    6  C   UNL     1      -6.571  16.619  68.658  1.00  0.00    -0.159 C  
HETATM    7  C   UNL     1      -6.726  15.106  71.399  1.00  0.00     1.251 C  
HETATM    8  C   UNL     1      -5.556  13.430  69.965  1.00  0.00    -0.114 C  
HETATM    9  C   UNL     1      -8.144  16.823  69.574  1.00  0.00     0.362 C  
HETATM   10  C   UNL     1      -5.335  17.371  69.012  1.00  0.00    -0.155 C  
HETATM   11  O   UNL     1      -8.744  18.126  69.467  1.00  0.00     0.367 OA 
HETATM   12  C   UNL     1     -10.024  12.427  68.386  1.00  0.00    -0.210 C  
HETATM   13  C   UNL     1      -9.331  15.620  69.157  1.00  0.00    -0.252 C  
HETATM   14  H   UNL     1      -9.560  18.232  69.942  1.00  0.00     0.000 HD 
HETATM   15  C   UNL     1     -10.454  13.636  67.532  1.00  0.00    -0.241 C  
HETATM   16  C   UNL     1      -9.394  14.807  67.642  1.00  0.00    -0.195 C  
HETATM   17  H   UNL     1     -14.411  13.275  66.298  1.00  0.00     0.000 HD 
HETATM   18  C   UNL     1     -11.856  14.085  68.078  1.00  0.00    -0.403 C  
HETATM   19  C   UNL     1      -7.949  14.482  66.794  1.00  0.00     0.225 C  
HETATM   20  C   UNL     1      -8.286  14.112  65.350  1.00  0.00     3.720 C  
HETATM   21  C   UNL     1      -9.254  12.931  65.306  1.00  0.00     0.589 C  
HETATM   22  C   UNL     1     -10.600  13.177  66.023  1.00  0.00    -0.291 C  
HETATM   23  C   UNL     1     -11.476  14.121  65.158  1.00  0.00    -0.336 C  
HETATM   24  C   UNL     1     -12.848  14.358  65.777  1.00  0.00    -0.155 C  
HETATM   25  O   UNL     1     -13.555  13.127  65.912  1.00  0.00     0.432 OA 
HETATM   26  C   UNL     1     -12.660  14.997  67.146  1.00  0.00     0.998 C  
ENDROOT
BRANCH   8  27
HETATM   27  C   UNL     1      -5.456  12.393  71.108  1.00  0.00    -0.071 C  
HETATM   28  O   UNL     1      -6.154  10.646  69.565  1.00  0.00    -0.043 OA 
HETATM   29  C   UNL     1      -5.810  10.984  70.684  1.00  0.00    -0.105 C  
HETATM   30  O   UNL     1      -5.673  10.095  71.698  1.00  0.00    -0.266 OA 
ENDBRANCH   8  27
TORSDOF 1
ENDMDL
MODEL      116
REMARK 921   NORMALIZED FREE ENERGY PREDICTED BY IDOCK:    4.92 KCAL/MOL
REMARK 922        TOTAL FREE ENERGY PREDICTED BY IDOCK:    4.90 KCAL/MOL
REMARK 923 INTER-LIGAND FREE ENERGY PREDICTED BY IDOCK:    5.08 KCAL/MOL
REMARK 924 INTRA-LIGAND FREE ENERGY PREDICTED BY IDOCK:   -0.18 KCAL/MOL
REMARK 927      BINDING AFFINITY PREDICTED BY RF-SCORE:    0.00 PKD
ROOT
HETATM    1  C   UNL     1      -7.274  12.200  68.787  1.00  0.00    -0.103 C  
HETATM    2  C   UNL     1      -7.291  13.035  69.934  1.00  0.00     1.031 C  
HETATM    3  C   UNL     1      -8.639  12.674  69.407  1.00  0.00     1.213 C  
HETATM    4  C   UNL     1      -8.559  11.266  67.931  1.00  0.00    -0.134 C  
HETATM    5  C   UNL     1      -9.359  10.307  66.840  1.00  0.00    -0.183 C  
HETATM    6  C   UNL     1      -8.735  10.987  69.255  1.00  0.00     0.085 C  
HETATM    7  C   UNL     1     -10.467   9.319  67.243  1.00  0.00    -0.334 C  
HETATM    8  C   UNL     1      -8.269   9.408  66.062  1.00  0.00    -0.111 C  
HETATM    9  C   UNL     1     -10.461  11.563  69.047  1.00  0.00    -0.145 C  
HETATM   10  C   UNL     1      -8.379   9.814  70.100  1.00  0.00    -0.201 C  
HETATM   11  O   UNL     1     -11.082  12.066  70.243  1.00  0.00    -0.315 OA 
HETATM   12  C   UNL     1      -9.750  13.823  64.727  1.00  0.00     0.270 C  
HETATM   13  C   UNL     1     -10.632  12.748  67.783  1.00  0.00    -0.231 C  
HETATM   14  H   UNL     1     -11.977  12.366  70.135  1.00  0.00     0.000 HD 
HETATM   15  C   UNL     1      -9.694  14.692  65.999  1.00  0.00    -0.340 C  
HETATM   16  C   UNL     1      -9.375  13.806  67.272  1.00  0.00    -0.239 C  
HETATM   17  H   UNL     1     -11.251  18.486  65.299  1.00  0.00     0.000 HD 
HETATM   18  C   UNL     1     -11.100  15.380  66.125  1.00  0.00    -0.230 C  
HETATM   19  C   UNL     1      -7.751  13.283  67.331  1.00  0.00    -0.148 C  
HETATM   20  C   UNL     1      -6.828  14.493  67.196  1.00  0.00     0.358 C  
HETATM   21  C   UNL     1      -7.134  15.266  65.915  1.00  0.00     4.401 C  
HETATM   22  C   UNL     1      -8.579  15.803  65.819  1.00  0.00     0.451 C  
HETATM   23  C   UNL     1      -8.739  17.018  66.770  1.00  0.00    -0.272 C  
HETATM   24  C   UNL     1     -10.128  17.639  66.680  1.00  0.00    -0.335 C  
HETATM   25  O   UNL     1     -10.385  18.099  65.355  1.00  0.00    -0.537 OA 
HETATM   26  C   UNL     1     -11.157  16.586  67.069  1.00  0.00     0.106 C  
ENDROOT
BRANCH   8  27
HETATM   27  C   UNL     1      -8.788   8.595  64.852  1.00  0.00    -0.076 C  
HETATM   28  O   UNL     1      -9.160  10.668  63.635  1.00  0.00    -0.199 OA 
HETATM   29  C   UNL     1      -9.203   9.451  63.676  1.00  0.00     0.116 C  
HETATM   30  O   UNL     1      -9.614   8.706  62.620  1.00  0.00     1.183 OA 
ENDBRANCH   8  27
TORSDOF 1
ENDMDL
MODEL      117
REMARK 921   NORMALIZED FREE ENERGY PREDICTED BY IDOCK:    4.97 KCAL/MOL
REMARK 922        TOTAL FREE ENERGY PREDICTED BY IDOCK:    4.96 KCAL/MOL
REMARK 923 INTER-LIGAND FREE ENERGY PREDICTED BY IDOCK:    4.52 KCAL/MOL
REMARK 924 INTRA-LIGAND FREE ENERGY PREDICTED BY IDOCK:    0.44 KCAL/MOL
REMARK 927      BINDING AFFINITY PREDICTED BY RF-SCORE:    0.00 PKD
ROOT
HETATM    1  C   UNL     1     -11.096   6.136  68.898  1.00  0.00    -0.417 C  
HETATM    2  C   UNL     1     -11.480   4.920  69.519  1.00  0.00     3.513 C  
HETATM    3  C   UNL     1     -10.013   5.067  69.291  1.00  0.00    -0.277 C  
HETATM    4  C   UNL     1      -9.497   6.934  68.645  1.00  0.00    -0.134 C  
HETATM    5  C   UNL     1      -8.314   7.994  68.171  1.00  0.00    -0.127 C  
HETATM    6  C   UNL     1      -9.500   6.543  69.952  1.00  0.00    -0.161 C  
HETATM    7  C   UNL     1      -7.097   8.340  69.045  1.00  0.00    -0.065 C  
HETATM    8  C   UNL     1      -9.007   9.415  67.850  1.00  0.00    -0.126 C  
HETATM    9  C   UNL     1      -7.948   5.643  69.585  1.00  0.00    -0.095 C  
HETATM   10  C   UNL     1      -9.717   7.278  71.229  1.00  0.00    -0.168 C  
HETATM   11  O   UNL     1      -7.684   4.514  70.437  1.00  0.00    -0.052 OA 
HETATM   12  C   UNL     1      -8.384   5.805  64.681  1.00  0.00    -0.102 C  
HETATM   13  C   UNL     1      -7.835   5.134  67.925  1.00  0.00    -0.091 C  
HETATM   14  H   UNL     1      -6.880   4.047  70.247  1.00  0.00     0.000 HD 
HETATM   15  C   UNL     1      -8.867   4.526  65.394  1.00  0.00    -0.137 C  
HETATM   16  C   UNL     1      -9.192   4.820  66.916  1.00  0.00    -0.130 C  
HETATM   17  H   UNL     1      -8.139   1.147  63.078  1.00  0.00     0.000 HD 
HETATM   18  C   UNL     1      -7.706   3.478  65.254  1.00  0.00    -0.081 C  
HETATM   19  C   UNL     1     -10.633   5.710  67.130  1.00  0.00    -0.344 C  
HETATM   20  C   UNL     1     -11.774   5.004  66.398  1.00  0.00     2.628 C  
HETATM   21  C   UNL     1     -11.433   4.815  64.921  1.00  0.00     0.909 C  
HETATM   22  C   UNL     1     -10.160   3.981  64.658  1.00  0.00    -0.215 C  
HETATM   23  C   UNL     1     -10.460   2.484  64.936  1.00  0.00     0.892 C  
HETATM   24  C   UNL     1      -9.262   1.593  64.637  1.00  0.00    -0.129 C  
HETATM   25  O   UNL     1      -8.887   1.703  63.265  1.00  0.00    -0.084 OA 
HETATM   26  C   UNL     1      -8.102   2.023  65.524  1.00  0.00    -0.080 C  
ENDROOT
BRANCH   8  27
HETATM   27  C   UNL     1      -8.106  10.485  67.190  1.00  0.00    -0.120 C  
HETATM   28  O   UNL     1      -7.467  11.288  69.395  1.00  0.00    -0.085 OA 
HETATM   29  C   UNL     1      -7.380  11.366  68.182  1.00  0.00    -0.092 C  
HETATM   30  O   UNL     1      -6.569  12.265  67.571  1.00  0.00    -0.110 OA 
ENDBRANCH   8  27
TORSDOF 1
ENDMDL
MODEL      118
REMARK 921   NORMALIZED FREE ENERGY PREDICTED BY IDOCK:    5.14 KCAL/MOL
REMARK 922        TOTAL FREE ENERGY PREDICTED BY IDOCK:    5.14 KCAL/MOL
REMARK 923 INTER-LIGAND FREE ENERGY PREDICTED BY IDOCK:    5.36 KCAL/MOL
REMARK 924 INTRA-LIGAND FREE ENERGY PREDICTED BY IDOCK:   -0.22 KCAL/MOL
REMARK 927      BINDING AFFINITY PREDICTED BY RF-SCORE:    0.00 PKD
ROOT
HETATM    1  C   UNL     1     -12.000  11.618  67.737  1.00  0.00    -0.119 C  
HETATM    2  C   UNL     1     -12.201  10.224  67.907  1.00  0.00     2.318 C  
HETATM    3  C   UNL     1     -11.083  10.795  68.714  1.00  0.00    -0.312 C  
HETATM    4  C   UNL     1     -11.014  12.834  68.635  1.00  0.00    -0.295 C  
HETATM    5  C   UNL     1     -10.283  14.248  69.101  1.00  0.00    -0.100 C  
HETATM    6  C   UNL     1     -11.667  12.120  69.598  1.00  0.00    -0.396 C  
HETATM    7  C   UNL     1     -10.086  14.645  70.573  1.00  0.00     0.866 C  
HETATM    8  C   UNL     1     -11.099  15.477  68.449  1.00  0.00    -0.315 C  
HETATM    9  C   UNL     1     -10.021  11.778  70.323  1.00  0.00     2.869 C  
HETATM   10  C   UNL     1     -12.866  12.407  70.433  1.00  0.00     0.183 C  
HETATM   11  O   UNL     1      -9.938  10.567  71.096  1.00  0.00     0.693 OA 
HETATM   12  C   UNL     1      -7.407  13.128  66.372  1.00  0.00     1.793 C  
HETATM   13  C   UNL     1      -8.745  11.778  69.139  1.00  0.00     0.392 C  
HETATM   14  H   UNL     1      -9.084  10.389  71.472  1.00  0.00     0.000 HD 
HETATM   15  C   UNL     1      -7.709  11.627  66.542  1.00  0.00    -0.003 C  
HETATM   16  C   UNL     1      -8.971  11.409  67.474  1.00  0.00    -0.150 C  
HETATM   17  H   UNL     1      -4.547   9.291  65.180  1.00  0.00     0.000 HD 
HETATM   18  C   UNL     1      -6.422  10.986  67.171  1.00  0.00    -0.084 C  
HETATM   19  C   UNL     1     -10.443  11.812  66.709  1.00  0.00    -0.260 C  
HETATM   20  C   UNL     1     -10.542  11.062  65.381  1.00  0.00    -0.270 C  
HETATM   21  C   UNL     1      -9.334  11.367  64.496  1.00  0.00    -0.095 C  
HETATM   22  C   UNL     1      -7.972  10.987  65.116  1.00  0.00     0.250 C  
HETATM   23  C   UNL     1      -7.802   9.446  65.075  1.00  0.00    -0.115 C  
HETATM   24  C   UNL     1      -6.448   9.003  65.616  1.00  0.00    -0.067 C  
HETATM   25  O   UNL     1      -5.391   9.567  64.842  1.00  0.00    -0.047 OA 
HETATM   26  C   UNL     1      -6.329   9.460  67.063  1.00  0.00    -0.066 C  
ENDROOT
BRANCH   8  27
HETATM   27  C   UNL     1     -10.457  16.878  68.589  1.00  0.00    -0.352 C  
HETATM   28  O   UNL     1     -10.532  17.138  66.171  1.00  0.00    -0.332 OA 
HETATM   29  C   UNL     1     -10.247  17.586  67.268  1.00  0.00    -0.335 C  
HETATM   30  O   UNL     1      -9.721  18.825  67.430  1.00  0.00    -0.295 OA 
ENDBRANCH   8  27
TORSDOF 1
ENDMDL
MODEL      119
REMARK 921   NORMALIZED FREE ENERGY PREDICTED BY IDOCK:    5.62 KCAL/MOL
REMARK 922        TOTAL FREE ENERGY PREDICTED BY IDOCK:    5.64 KCAL/MOL
REMARK 923 INTER-LIGAND FREE ENERGY PREDICTED BY IDOCK:    0.90 KCAL/MOL
REMARK 924 INTRA-LIGAND FREE ENERGY PREDICTED BY IDOCK:    4.75 KCAL/MOL
REMARK 927      BINDING AFFINITY PREDICTED BY RF-SCORE:    0.00 PKD
ROOT
HETATM    1  C   UNL     1      -9.888  14.053  66.224  1.00  0.00    -0.318 C  
HETATM    2  C   UNL     1      -9.111  14.610  65.176  1.00  0.00     1.542 C  
HETATM    3  C   UNL     1      -8.327  13.865  66.204  1.00  0.00     1.171 C  
HETATM    4  C   UNL     1      -9.513  12.866  67.532  1.00  0.00    -0.198 C  
HETATM    5  C   UNL     1      -9.639  11.880  68.859  1.00  0.00     0.068 C  
HETATM    6  C   UNL     1      -8.999  12.319  66.393  1.00  0.00    -0.117 C  
HETATM    7  C   UNL     1      -8.976  10.495  68.942  1.00  0.00    -0.175 C  
HETATM    8  C   UNL     1     -11.203  11.605  69.138  1.00  0.00    -0.325 C  
HETATM    9  C   UNL     1      -7.396  12.231  67.274  1.00  0.00    -0.140 C  
HETATM   10  C   UNL     1      -9.473  11.239  65.484  1.00  0.00    -0.255 C  
HETATM   11  O   UNL     1      -6.234  12.250  66.426  1.00  0.00    -0.417 OA 
HETATM   12  C   UNL     1      -8.630  15.298  70.927  1.00  0.00     2.426 C  
HETATM   13  C   UNL     1      -7.224  13.462  68.492  1.00  0.00    -0.110 C  
HETATM   14  H   UNL     1      -5.403  12.204  66.884  1.00  0.00     0.000 HD 
HETATM   15  C   UNL     1      -7.854  15.891  69.735  1.00  0.00     0.184 C  
HETATM   16  C   UNL     1      -8.023  14.986  68.447  1.00  0.00    -0.131 C  
HETATM   17  H   UNL     1      -5.242  18.882  70.978  1.00  0.00     0.000 HD 
HETATM   18  C   UNL     1      -6.350  15.968  70.181  1.00  0.00    -0.008 C  
HETATM   19  C   UNL     1      -9.573  15.110  67.743  1.00  0.00    -0.203 C  
HETATM   20  C   UNL     1      -9.892  16.582  67.486  1.00  0.00    -0.248 C  
HETATM   21  C   UNL     1      -9.784  17.391  68.778  1.00  0.00    -0.282 C  
HETATM   22  C   UNL     1      -8.391  17.353  69.444  1.00  0.00     0.398 C  
HETATM   23  C   UNL     1      -7.409  18.237  68.630  1.00  0.00    -0.303 C  
HETATM   24  C   UNL     1      -6.026  18.295  69.267  1.00  0.00    -0.238 C  
HETATM   25  O   UNL     1      -6.104  18.845  70.581  1.00  0.00    -0.066 OA 
HETATM   26  C   UNL     1      -5.461  16.883  69.333  1.00  0.00    -0.153 C  
ENDROOT
BRANCH   8  27
HETATM   27  C   UNL     1     -11.547  10.877  70.459  1.00  0.00    -0.397 C  
HETATM   28  O   UNL     1      -9.534   9.531  70.226  1.00  0.00    -0.228 OA 
HETATM   29  C   UNL     1     -10.536   9.823  70.855  1.00  0.00    -0.274 C  
HETATM   30  O   UNL     1     -10.846   9.234  72.036  1.00  0.00    -0.309 OA 
ENDBRANCH   8  27
TORSDOF 1
ENDMDL
MODEL      120
REMARK 921   NORMALIZED FREE ENERGY PREDICTED BY IDOCK:    6.62 KCAL/MOL
REMARK 922        TOTAL FREE ENERGY PREDICTED BY IDOCK:    6.70 KCAL/MOL
REMARK 923 INTER-LIGAND FREE ENERGY PREDICTED BY IDOCK:    6.90 KCAL/MOL
REMARK 924 INTRA-LIGAND FREE ENERGY PREDICTED BY IDOCK:   -0.19 KCAL/MOL
REMARK 927      BINDING AFFINITY PREDICTED BY RF-SCORE:    0.00 PKD
ROOT
HETATM    1  C   UNL     1     -12.230   9.602  68.978  1.00  0.00     1.396 C  
HETATM    2  C   UNL     1     -12.465   8.436  69.751  1.00  0.00     1.834 C  
HETATM    3  C   UNL     1     -11.169   9.119  70.033  1.00  0.00    -0.168 C  
HETATM    4  C   UNL     1     -11.006  10.923  69.093  1.00  0.00    -0.290 C  
HETATM    5  C   UNL     1     -10.113  12.287  68.784  1.00  0.00    -0.082 C  
HETATM    6  C   UNL     1     -11.471  10.755  70.364  1.00  0.00    -0.397 C  
HETATM    7  C   UNL     1      -9.577  13.208  69.893  1.00  0.00     2.444 C  
HETATM    8  C   UNL     1     -10.982  13.254  67.830  1.00  0.00    -0.278 C  
HETATM    9  C   UNL     1      -9.728  10.502  70.865  1.00  0.00     2.103 C  
HETATM   10  C   UNL     1     -12.441  11.518  71.197  1.00  0.00    -0.442 C  
HETATM   11  O   UNL     1      -9.545   9.704  72.048  1.00  0.00     0.261 OA 
HETATM   12  C   UNL     1      -7.969   9.775  66.321  1.00  0.00    -0.109 C  
HETATM   13  C   UNL     1      -8.743   9.848  69.587  1.00  0.00    -0.218 C  
HETATM   14  H   UNL     1      -8.641   9.572  72.308  1.00  0.00     0.000 HD 
HETATM   15  C   UNL     1      -8.310   8.526  67.158  1.00  0.00    -0.111 C  
HETATM   16  C   UNL     1      -9.348   8.880  68.300  1.00  0.00    -0.149 C  
HETATM   17  H   UNL     1      -5.656   5.419  66.373  1.00  0.00     0.000 HD 
HETATM   18  C   UNL     1      -6.954   8.015  67.762  1.00  0.00    -0.078 C  
HETATM   19  C   UNL     1     -10.926   9.147  67.708  1.00  0.00    -0.033 C  
HETATM   20  C   UNL     1     -11.354   7.950  66.859  1.00  0.00     1.315 C  
HETATM   21  C   UNL     1     -10.354   7.702  65.731  1.00  0.00     1.631 C  
HETATM   22  C   UNL     1      -8.912   7.413  66.204  1.00  0.00    -0.182 C  
HETATM   23  C   UNL     1      -8.841   5.977  66.786  1.00  0.00    -0.120 C  
HETATM   24  C   UNL     1      -7.429   5.601  67.216  1.00  0.00    -0.084 C  
HETATM   25  O   UNL     1      -6.537   5.653  66.105  1.00  0.00    -0.048 OA 
HETATM   26  C   UNL     1      -6.972   6.578  68.291  1.00  0.00    -0.080 C  
ENDROOT
BRANCH   8  27
HETATM   27  C   UNL     1     -10.248  14.488  67.252  1.00  0.00    -0.255 C  
HETATM   28  O   UNL     1     -11.704  15.944  68.547  1.00  0.00    -0.383 OA 
HETATM   29  C   UNL     1     -10.782  15.808  67.762  1.00  0.00    -0.307 C  
HETATM   30  O   UNL     1     -10.091  16.865  67.268  1.00  0.00    -0.272 OA 
ENDBRANCH   8  27
TORSDOF 1
ENDMDL
MODEL      121
REMARK 921   NORMALIZED FREE ENERGY PREDICTED BY IDOCK:    7.96 KCAL/MOL
REMARK 922        TOTAL FREE ENERGY PREDICTED BY IDOCK:    8.12 KCAL/MOL
REMARK 923 INTER-LIGAND FREE ENERGY PREDICTED BY IDOCK:    8.31 KCAL/MOL
REMARK 924 INTRA-LIGAND FREE ENERGY PREDICTED BY IDOCK:   -0.19 KCAL/MOL
REMARK 927      BINDING AFFINITY PREDICTED BY RF-SCORE:    0.00 PKD
ROOT
HETATM    1  C   UNL     1      -7.684  18.155  66.435  1.00  0.00    -0.295 C  
HETATM    2  C   UNL     1      -8.576  18.942  65.662  1.00  0.00     0.609 C  
HETATM    3  C   UNL     1      -9.104  18.530  66.995  1.00  0.00    -0.281 C  
HETATM    4  C   UNL     1      -7.690  17.635  68.164  1.00  0.00    -0.244 C  
HETATM    5  C   UNL     1      -7.285  16.917  69.603  1.00  0.00     0.221 C  
HETATM    6  C   UNL     1      -7.981  18.967  68.189  1.00  0.00    -0.334 C  
HETATM    7  C   UNL     1      -7.476  17.603  70.966  1.00  0.00     5.221 C  
HETATM    8  C   UNL     1      -5.720  16.531  69.552  1.00  0.00    -0.169 C  
HETATM    9  C   UNL     1      -9.490  18.520  69.125  1.00  0.00    -0.054 C  
HETATM   10  C   UNL     1      -7.171  20.176  68.507  1.00  0.00    -0.236 C  
HETATM   11  O   UNL     1     -10.581  19.450  68.999  1.00  0.00    -0.423 OA 
HETATM   12  C   UNL     1      -9.367  13.710  68.067  1.00  0.00    -0.208 C  
HETATM   13  C   UNL     1     -10.069  16.921  68.754  1.00  0.00    -0.295 C  
HETATM   14  H   UNL     1     -11.364  19.218  69.483  1.00  0.00     0.000 HD 
HETATM   15  C   UNL     1     -10.267  14.605  67.192  1.00  0.00    -0.256 C  
HETATM   16  C   UNL     1      -9.793  16.115  67.259  1.00  0.00    -0.241 C  
HETATM   17  H   UNL     1     -13.717  12.592  66.028  1.00  0.00     0.000 HD 
HETATM   18  C   UNL     1     -11.726  14.443  67.749  1.00  0.00    -0.407 C  
HETATM   19  C   UNL     1      -8.349  16.400  66.396  1.00  0.00    -0.363 C  
HETATM   20  C   UNL     1      -8.507  15.884  64.966  1.00  0.00     4.013 C  
HETATM   21  C   UNL     1      -8.892  14.406  64.964  1.00  0.00     2.971 C  
HETATM   22  C   UNL     1     -10.215  14.087  65.696  1.00  0.00    -0.351 C  
HETATM   23  C   UNL     1     -11.410  14.555  64.824  1.00  0.00    -0.397 C  
HETATM   24  C   UNL     1     -12.752  14.214  65.459  1.00  0.00    -0.443 C  
HETATM   25  O   UNL     1     -12.879  12.804  65.632  1.00  0.00    -0.458 OA 
HETATM   26  C   UNL     1     -12.842  14.910  66.809  1.00  0.00     1.364 C  
ENDROOT
BRANCH   8  27
HETATM   27  C   UNL     1      -5.190  15.661  70.717  1.00  0.00    -0.160 C  
HETATM   28  O   UNL     1      -6.499  13.783  69.892  1.00  0.00    -0.125 OA 
HETATM   29  C   UNL     1      -5.721  14.244  70.709  1.00  0.00    -0.187 C  
HETATM   30  O   UNL     1      -5.206  13.499  71.718  1.00  0.00    -0.166 OA 
ENDBRANCH   8  27
TORSDOF 1
ENDMDL
MODEL      122
REMARK 921   NORMALIZED FREE ENERGY PREDICTED BY IDOCK:    9.23 KCAL/MOL
REMARK 922        TOTAL FREE ENERGY PREDICTED BY IDOCK:    9.46 KCAL/MOL
REMARK 923 INTER-LIGAND FREE ENERGY PREDICTED BY IDOCK:    9.72 KCAL/MOL
REMARK 924 INTRA-LIGAND FREE ENERGY PREDICTED BY IDOCK:   -0.26 KCAL/MOL
REMARK 927      BINDING AFFINITY PREDICTED BY RF-SCORE:    0.00 PKD
ROOT
HETATM    1  C   UNL     1     -12.237   8.667  71.775  1.00  0.00    -0.403 C  
HETATM    2  C   UNL     1     -12.482   8.883  73.155  1.00  0.00     0.948 C  
HETATM    3  C   UNL     1     -11.055   8.618  72.809  1.00  0.00     0.112 C  
HETATM    4  C   UNL     1     -10.723   8.582  70.796  1.00  0.00    -0.254 C  
HETATM    5  C   UNL     1      -9.660   8.402  69.536  1.00  0.00    -0.170 C  
HETATM    6  C   UNL     1     -10.580   9.688  71.581  1.00  0.00     0.093 C  
HETATM    7  C   UNL     1      -8.393   9.260  69.377  1.00  0.00    -0.127 C  
HETATM    8  C   UNL     1     -10.470   8.608  68.157  1.00  0.00    -0.241 C  
HETATM    9  C   UNL     1      -9.013   8.948  72.172  1.00  0.00     0.035 C  
HETATM   10  C   UNL     1     -10.727  11.146  71.315  1.00  0.00     3.211 C  
HETATM   11  O   UNL     1      -8.600   9.366  73.485  1.00  0.00     1.229 OA 
HETATM   12  C   UNL     1      -9.908   4.402  70.494  1.00  0.00    -0.285 C  
HETATM   13  C   UNL     1      -9.021   7.208  72.112  1.00  0.00    -0.142 C  
HETATM   14  H   UNL     1      -7.787   8.981  73.791  1.00  0.00     0.000 HD 
HETATM   15  C   UNL     1     -10.239   4.691  71.972  1.00  0.00    -0.258 C  
HETATM   16  C   UNL     1     -10.442   6.243  72.210  1.00  0.00    -0.227 C  
HETATM   17  H   UNL     1      -9.509   1.359  74.355  1.00  0.00     0.000 HD 
HETATM   18  C   UNL     1      -9.031   4.141  72.810  1.00  0.00    -0.118 C  
HETATM   19  C   UNL     1     -11.911   6.830  71.571  1.00  0.00    -0.396 C  
HETATM   20  C   UNL     1     -13.066   5.985  72.107  1.00  0.00     0.555 C  
HETATM   21  C   UNL     1     -12.851   4.508  71.783  1.00  0.00     5.137 C  
HETATM   22  C   UNL     1     -11.556   3.905  72.370  1.00  0.00     1.013 C  
HETATM   23  C   UNL     1     -11.731   3.700  73.897  1.00  0.00     0.358 C  
HETATM   24  C   UNL     1     -10.510   3.048  74.534  1.00  0.00    -0.155 C  
HETATM   25  O   UNL     1     -10.271   1.765  73.958  1.00  0.00    -0.088 OA 
HETATM   26  C   UNL     1      -9.304   3.949  74.305  1.00  0.00    -0.115 C  
ENDROOT
BRANCH   8  27
HETATM   27  C   UNL     1      -9.705   8.274  66.854  1.00  0.00    -0.291 C  
HETATM   28  O   UNL     1     -10.873   6.143  66.730  1.00  0.00    -0.319 OA 
HETATM   29  C   UNL     1     -10.068   6.930  66.263  1.00  0.00     0.154 C  
HETATM   30  O   UNL     1      -9.410   6.687  65.102  1.00  0.00     0.468 OA 
ENDBRANCH   8  27
TORSDOF 1
ENDMDL
MODEL      123
REMARK 921   NORMALIZED FREE ENERGY PREDICTED BY IDOCK:    9.89 KCAL/MOL
REMARK 922        TOTAL FREE ENERGY PREDICTED BY IDOCK:   10.16 KCAL/MOL
REMARK 923 INTER-LIGAND FREE ENERGY PREDICTED BY IDOCK:   10.39 KCAL/MOL
REMARK 924 INTRA-LIGAND FREE ENERGY PREDICTED BY IDOCK:   -0.23 KCAL/MOL
REMARK 927      BINDING AFFINITY PREDICTED BY RF-SCORE:    0.00 PKD
ROOT
HETATM    1  C   UNL     1     -10.451  14.250  69.830  1.00  0.00     0.205 C  
HETATM    2  C   UNL     1      -9.886  13.665  70.992  1.00  0.00     5.913 C  
HETATM    3  C   UNL     1      -8.935  13.833  69.855  1.00  0.00     1.982 C  
HETATM    4  C   UNL     1      -9.727  14.916  68.316  1.00  0.00    -0.215 C  
HETATM    5  C   UNL     1      -9.543  15.585  66.810  1.00  0.00    -0.251 C  
HETATM    6  C   UNL     1      -8.986  15.446  69.331  1.00  0.00    -0.258 C  
HETATM    7  C   UNL     1      -8.414  16.569  66.461  1.00  0.00    -0.328 C  
HETATM    8  C   UNL     1     -10.902  16.369  66.436  1.00  0.00    -0.065 C  
HETATM    9  C   UNL     1      -7.516  14.741  68.496  1.00  0.00    -0.117 C  
HETATM   10  C   UNL     1      -8.971  16.785  69.983  1.00  0.00     1.509 C  
HETATM   11  O   UNL     1      -6.403  14.457  69.363  1.00  0.00    -0.107 OA 
HETATM   12  C   UNL     1     -10.001  11.697  65.525  1.00  0.00    -0.277 C  
HETATM   13  C   UNL     1      -7.883  13.317  67.566  1.00  0.00    -0.173 C  
HETATM   14  H   UNL     1      -5.641  14.091  68.930  1.00  0.00     0.000 HD 
HETATM   15  C   UNL     1      -9.443  11.109  66.836  1.00  0.00    -0.203 C  
HETATM   16  C   UNL     1      -9.192  12.252  67.903  1.00  0.00    -0.190 C  
HETATM   17  H   UNL     1      -8.215   7.168  66.315  1.00  0.00     0.000 HD 
HETATM   18  C   UNL     1      -8.104  10.381  66.459  1.00  0.00    -0.122 C  
HETATM   19  C   UNL     1     -10.635  12.869  68.573  1.00  0.00    -0.270 C  
HETATM   20  C   UNL     1     -11.471  11.711  69.120  1.00  0.00    -0.364 C  
HETATM   21  C   UNL     1     -11.742  10.678  68.028  1.00  0.00    -0.029 C  
HETATM   22  C   UNL     1     -10.474  10.051  67.408  1.00  0.00    -0.316 C  
HETATM   23  C   UNL     1      -9.854   9.046  68.415  1.00  0.00    -0.183 C  
HETATM   24  C   UNL     1      -8.630   8.342  67.844  1.00  0.00    -0.132 C  
HETATM   25  O   UNL     1      -8.978   7.608  66.671  1.00  0.00    -0.141 OA 
HETATM   26  C   UNL     1      -7.580   9.390  67.503  1.00  0.00    -0.091 C  
ENDROOT
BRANCH   8  27
HETATM   27  C   UNL     1     -11.017  16.888  64.983  1.00  0.00    -0.055 C  
HETATM   28  O   UNL     1     -12.976  15.486  64.650  1.00  0.00     0.254 OA 
HETATM   29  C   UNL     1     -12.180  16.300  64.216  1.00  0.00     0.765 C  
HETATM   30  O   UNL     1     -12.275  16.807  62.962  1.00  0.00     3.649 OA 
ENDBRANCH   8  27
TORSDOF 1
ENDMDL
MODEL      124
REMARK 921   NORMALIZED FREE ENERGY PREDICTED BY IDOCK:   11.27 KCAL/MOL
REMARK 922        TOTAL FREE ENERGY PREDICTED BY IDOCK:   11.63 KCAL/MOL
REMARK 923 INTER-LIGAND FREE ENERGY PREDICTED BY IDOCK:    9.76 KCAL/MOL
REMARK 924 INTRA-LIGAND FREE ENERGY PREDICTED BY IDOCK:    1.87 KCAL/MOL
REMARK 927      BINDING AFFINITY PREDICTED BY RF-SCORE:    0.00 PKD
ROOT
HETATM    1  C   UNL     1      -6.668  13.991  68.941  1.00  0.00    -0.105 C  
HETATM    2  C   UNL     1      -6.674  14.363  70.310  1.00  0.00    -0.005 C  
HETATM    3  C   UNL     1      -7.986  13.878  69.790  1.00  0.00     0.935 C  
HETATM    4  C   UNL     1      -7.853  13.109  67.904  1.00  0.00    -0.151 C  
HETATM    5  C   UNL     1      -8.602  12.404  66.603  1.00  0.00    -0.076 C  
HETATM    6  C   UNL     1      -7.759  12.371  69.047  1.00  0.00     0.170 C  
HETATM    7  C   UNL     1      -9.407  11.097  66.704  1.00  0.00    -0.194 C  
HETATM    8  C   UNL     1      -7.488  12.115  65.474  1.00  0.00     2.305 C  
HETATM    9  C   UNL     1      -9.576  12.538  69.191  1.00  0.00     0.564 C  
HETATM   10  C   UNL     1      -7.042  11.109  69.382  1.00  0.00    -0.110 C  
HETATM   11  O   UNL     1     -10.091  12.443  70.531  1.00  0.00     2.803 OA 
HETATM   12  C   UNL     1     -10.031  16.212  65.940  1.00  0.00    -0.384 C  
HETATM   13  C   UNL     1     -10.183  13.995  68.458  1.00  0.00    -0.237 C  
HETATM   14  H   UNL     1     -11.034  12.530  70.606  1.00  0.00     0.000 HD 
HETATM   15  C   UNL     1      -9.955  16.591  67.432  1.00  0.00    -0.267 C  
HETATM   16  C   UNL     1      -9.265  15.438  68.271  1.00  0.00    -0.188 C  
HETATM   17  H   UNL     1     -12.344  19.892  68.268  1.00  0.00     0.000 HD 
HETATM   18  C   UNL     1     -11.433  16.828  67.903  1.00  0.00     0.213 C  
HETATM   19  C   UNL     1      -7.580  15.344  68.014  1.00  0.00    -0.135 C  
HETATM   20  C   UNL     1      -6.956  16.718  68.257  1.00  0.00    -0.161 C  
HETATM   21  C   UNL     1      -7.612  17.774  67.369  1.00  0.00    -0.213 C  
HETATM   22  C   UNL     1      -9.133  17.937  67.582  1.00  0.00    -0.250 C  
HETATM   23  C   UNL     1      -9.386  18.686  68.917  1.00  0.00    -0.274 C  
HETATM   24  C   UNL     1     -10.869  18.937  69.162  1.00  0.00     1.187 C  
HETATM   25  O   UNL     1     -11.420  19.735  68.116  1.00  0.00     0.704 OA 
HETATM   26  C   UNL     1     -11.587  17.596  69.220  1.00  0.00     2.264 C  
ENDROOT
BRANCH   8  27
HETATM   27  C   UNL     1      -8.013  11.651  64.094  1.00  0.00     1.782 C  
HETATM   28  O   UNL     1     -10.189  12.605  64.617  1.00  0.00    -0.313 OA 
HETATM   29  C   UNL     1      -9.460  12.012  63.841  1.00  0.00     0.079 C  
HETATM   30  O   UNL     1      -9.875  11.627  62.609  1.00  0.00    -0.183 OA 
ENDBRANCH   8  27
TORSDOF 1
ENDMDL
MODEL      125
REMARK 921   NORMALIZED FREE ENERGY PREDICTED BY IDOCK:   11.84 KCAL/MOL
REMARK 922        TOTAL FREE ENERGY PREDICTED BY IDOCK:   12.22 KCAL/MOL
REMARK 923 INTER-LIGAND FREE ENERGY PREDICTED BY IDOCK:   11.96 KCAL/MOL
REMARK 924 INTRA-LIGAND FREE ENERGY PREDICTED BY IDOCK:    0.26 KCAL/MOL
REMARK 927      BINDING AFFINITY PREDICTED BY RF-SCORE:    0.00 PKD
ROOT
HETATM    1  C   UNL     1      -8.288  13.887  68.348  1.00  0.00    -0.157 C  
HETATM    2  C   UNL     1      -9.255  14.806  68.830  1.00  0.00    -0.177 C  
HETATM    3  C   UNL     1      -9.698  13.382  68.826  1.00  0.00     0.002 C  
HETATM    4  C   UNL     1      -8.185  12.086  68.380  1.00  0.00    -0.151 C  
HETATM    5  C   UNL     1      -7.675  10.524  68.150  1.00  0.00    -0.096 C  
HETATM    6  C   UNL     1      -8.544  12.446  69.646  1.00  0.00     1.885 C  
HETATM    7  C   UNL     1      -7.838   9.423  69.211  1.00  0.00    -0.085 C  
HETATM    8  C   UNL     1      -6.096  10.551  67.823  1.00  0.00    -0.048 C  
HETATM    9  C   UNL     1      -9.982  11.329  69.451  1.00  0.00     0.166 C  
HETATM   10  C   UNL     1      -7.784  12.558  70.922  1.00  0.00     6.230 C  
HETATM   11  O   UNL     1     -11.125  11.664  70.258  1.00  0.00    -0.425 OA 
HETATM   12  C   UNL     1      -9.656  10.890  64.555  1.00  0.00    -0.312 C  
HETATM   13  C   UNL     1     -10.492  11.163  67.795  1.00  0.00    -0.225 C  
HETATM   14  H   UNL     1     -11.871  11.085  70.157  1.00  0.00     0.000 HD 
HETATM   15  C   UNL     1     -10.642  11.938  65.108  1.00  0.00    -0.333 C  
HETATM   16  C   UNL     1     -10.246  12.359  66.583  1.00  0.00    -0.241 C  
HETATM   17  H   UNL     1     -14.031  12.227  62.713  1.00  0.00     0.000 HD 
HETATM   18  C   UNL     1     -12.062  11.270  65.071  1.00  0.00     0.997 C  
HETATM   19  C   UNL     1      -8.860  13.354  66.643  1.00  0.00    -0.076 C  
HETATM   20  C   UNL     1      -9.058  14.549  65.711  1.00  0.00     0.322 C  
HETATM   21  C   UNL     1      -9.364  14.080  64.289  1.00  0.00     3.096 C  
HETATM   22  C   UNL     1     -10.632  13.207  64.161  1.00  0.00    -0.384 C  
HETATM   23  C   UNL     1     -11.890  14.106  64.297  1.00  0.00    -0.420 C  
HETATM   24  C   UNL     1     -13.181  13.318  64.118  1.00  0.00     0.958 C  
HETATM   25  O   UNL     1     -13.226  12.718  62.825  1.00  0.00     0.296 OA 
HETATM   26  C   UNL     1     -13.244  12.237  65.189  1.00  0.00     1.349 C  
ENDROOT
BRANCH   8  27
HETATM   27  C   UNL     1      -5.467   9.212  67.369  1.00  0.00    -0.041 C  
HETATM   28  O   UNL     1      -7.277   8.920  65.769  1.00  0.00    -0.083 OA 
HETATM   29  C   UNL     1      -6.245   8.514  66.275  1.00  0.00    -0.053 C  
HETATM   30  O   UNL     1      -5.645   7.367  65.872  1.00  0.00    -0.031 OA 
ENDBRANCH   8  27
TORSDOF 1
ENDMDL
MODEL      126
REMARK 921   NORMALIZED FREE ENERGY PREDICTED BY IDOCK:   11.99 KCAL/MOL
REMARK 922        TOTAL FREE ENERGY PREDICTED BY IDOCK:   12.38 KCAL/MOL
REMARK 923 INTER-LIGAND FREE ENERGY PREDICTED BY IDOCK:   12.52 KCAL/MOL
REMARK 924 INTRA-LIGAND FREE ENERGY PREDICTED BY IDOCK:   -0.14 KCAL/MOL
REMARK 927      BINDING AFFINITY PREDICTED BY RF-SCORE:    0.00 PKD
ROOT
HETATM    1  C   UNL     1      -5.790  16.819  67.558  1.00  0.00    -0.177 C  
HETATM    2  C   UNL     1      -5.488  18.022  68.248  1.00  0.00    -0.160 C  
HETATM    3  C   UNL     1      -6.695  17.303  68.749  1.00  0.00    -0.203 C  
HETATM    4  C   UNL     1      -6.925  15.459  67.904  1.00  0.00    -0.161 C  
HETATM    5  C   UNL     1      -7.795  14.053  67.782  1.00  0.00    -0.176 C  
HETATM    6  C   UNL     1      -6.276  15.693  69.082  1.00  0.00    -0.119 C  
HETATM    7  C   UNL     1      -8.115  13.155  68.989  1.00  0.00     0.323 C  
HETATM    8  C   UNL     1      -7.044  13.083  66.735  1.00  0.00     0.778 C  
HETATM    9  C   UNL     1      -7.930  15.900  69.840  1.00  0.00     0.400 C  
HETATM   10  C   UNL     1      -5.158  14.998  69.778  1.00  0.00    -0.090 C  
HETATM   11  O   UNL     1      -7.962  16.735  71.011  1.00  0.00     4.500 OA 
HETATM   12  C   UNL     1     -10.399  16.389  65.604  1.00  0.00    -0.371 C  
HETATM   13  C   UNL     1      -9.127  16.468  68.711  1.00  0.00    -0.256 C  
HETATM   14  H   UNL     1      -8.820  16.843  71.404  1.00  0.00     0.000 HD 
HETATM   15  C   UNL     1      -9.986  17.680  66.337  1.00  0.00    -0.337 C  
HETATM   16  C   UNL     1      -8.770  17.408  67.315  1.00  0.00    -0.232 C  
HETATM   17  H   UNL     1     -12.859  20.655  65.877  1.00  0.00     0.000 HD 
HETATM   18  C   UNL     1     -11.253  18.163  67.129  1.00  0.00     0.424 C  
HETATM   19  C   UNL     1      -7.292  17.178  66.493  1.00  0.00    -0.311 C  
HETATM   20  C   UNL     1      -7.051  18.356  65.550  1.00  0.00    -0.110 C  
HETATM   21  C   UNL     1      -8.223  18.524  64.584  1.00  0.00     4.772 C  
HETATM   22  C   UNL     1      -9.586  18.777  65.266  1.00  0.00     1.611 C  
HETATM   23  C   UNL     1      -9.627  20.231  65.806  1.00  0.00    -0.120 C  
HETATM   24  C   UNL     1     -10.971  20.571  66.439  1.00  0.00     1.008 C  
HETATM   25  O   UNL     1     -12.021  20.443  65.482  1.00  0.00     1.518 OA 
HETATM   26  C   UNL     1     -11.215  19.619  67.602  1.00  0.00     0.086 C  
ENDROOT
BRANCH   8  27
HETATM   27  C   UNL     1      -7.805  11.802  66.319  1.00  0.00     0.193 C  
HETATM   28  O   UNL     1      -6.260  10.469  67.642  1.00  0.00    -0.055 OA 
HETATM   29  C   UNL     1      -7.231  10.533  66.909  1.00  0.00    -0.106 C  
HETATM   30  O   UNL     1      -7.945   9.435  66.557  1.00  0.00    -0.106 OA 
ENDBRANCH   8  27
TORSDOF 1
ENDMDL
MODEL      127
REMARK 921   NORMALIZED FREE ENERGY PREDICTED BY IDOCK:   13.69 KCAL/MOL
REMARK 922        TOTAL FREE ENERGY PREDICTED BY IDOCK:   14.19 KCAL/MOL
REMARK 923 INTER-LIGAND FREE ENERGY PREDICTED BY IDOCK:   14.12 KCAL/MOL
REMARK 924 INTRA-LIGAND FREE ENERGY PREDICTED BY IDOCK:    0.07 KCAL/MOL
REMARK 927      BINDING AFFINITY PREDICTED BY RF-SCORE:    0.00 PKD
ROOT
HETATM    1  C   UNL     1     -12.156  11.453  66.260  1.00  0.00     1.197 C  
HETATM    2  C   UNL     1     -12.344  10.258  67.001  1.00  0.00     4.911 C  
HETATM    3  C   UNL     1     -11.080  10.989  67.308  1.00  0.00    -0.359 C  
HETATM    4  C   UNL     1     -10.992  12.823  66.417  1.00  0.00    -0.305 C  
HETATM    5  C   UNL     1     -10.159  14.232  66.150  1.00  0.00    -0.325 C  
HETATM    6  C   UNL     1     -11.456  12.601  67.680  1.00  0.00    -0.390 C  
HETATM    7  C   UNL     1      -9.669  15.147  67.285  1.00  0.00    -0.210 C  
HETATM    8  C   UNL     1     -11.064  15.186  65.215  1.00  0.00    -0.389 C  
HETATM    9  C   UNL     1      -9.706  12.412  68.186  1.00  0.00    -0.214 C  
HETATM   10  C   UNL     1     -12.463  13.299  68.527  1.00  0.00     0.352 C  
HETATM   11  O   UNL     1      -9.494  11.592  69.349  1.00  0.00    -0.345 OA 
HETATM   12  C   UNL     1      -7.892  11.882  63.636  1.00  0.00     2.624 C  
HETATM   13  C   UNL     1      -8.687  11.836  66.898  1.00  0.00    -0.189 C  
HETATM   14  H   UNL     1      -8.587  11.493  69.611  1.00  0.00     0.000 HD 
HETATM   15  C   UNL     1      -8.183  10.598  64.437  1.00  0.00     0.010 C  
HETATM   16  C   UNL     1      -9.241  10.876  65.582  1.00  0.00    -0.227 C  
HETATM   17  H   UNL     1      -5.390   7.633  63.589  1.00  0.00     0.000 HD 
HETATM   18  C   UNL     1      -6.809  10.132  65.037  1.00  0.00    -0.132 C  
HETATM   19  C   UNL     1     -10.827  11.089  64.986  1.00  0.00    -0.194 C  
HETATM   20  C   UNL     1     -11.197   9.897  64.104  1.00  0.00     4.532 C  
HETATM   21  C   UNL     1     -10.181   9.723  62.976  1.00  0.00     1.690 C  
HETATM   22  C   UNL     1      -8.730   9.486  63.451  1.00  0.00    -0.235 C  
HETATM   23  C   UNL     1      -8.599   8.039  63.996  1.00  0.00     0.250 C  
HETATM   24  C   UNL     1      -7.174   7.714  64.425  1.00  0.00    -0.077 C  
HETATM   25  O   UNL     1      -6.279   7.835  63.321  1.00  0.00    -0.061 OA 
HETATM   26  C   UNL     1      -6.766   8.681  65.528  1.00  0.00    -0.063 C  
ENDROOT
BRANCH   8  27
HETATM   27  C   UNL     1     -10.382  16.465  64.675  1.00  0.00     0.760 C  
HETATM   28  O   UNL     1     -11.436  17.758  66.446  1.00  0.00     0.928 OA 
HETATM   29  C   UNL     1     -10.707  17.710  65.470  1.00  0.00    -0.037 C  
HETATM   30  O   UNL     1     -10.062  18.804  64.994  1.00  0.00     0.615 OA 
ENDBRANCH   8  27
TORSDOF 1
ENDMDL
MODEL      128
REMARK 921   NORMALIZED FREE ENERGY PREDICTED BY IDOCK:   14.22 KCAL/MOL
REMARK 922        TOTAL FREE ENERGY PREDICTED BY IDOCK:   14.75 KCAL/MOL
REMARK 923 INTER-LIGAND FREE ENERGY PREDICTED BY IDOCK:   14.74 KCAL/MOL
REMARK 924 INTRA-LIGAND FREE ENERGY PREDICTED BY IDOCK:    0.00 KCAL/MOL
REMARK 927      BINDING AFFINITY PREDICTED BY RF-SCORE:    0.00 PKD
ROOT
HETATM    1  C   UNL     1      -8.763  13.896  69.125  1.00  0.00     0.353 C  
HETATM    2  C   UNL     1      -9.167  15.123  68.539  1.00  0.00    -0.192 C  
HETATM    3  C   UNL     1     -10.244  14.096  68.639  1.00  0.00    -0.238 C  
HETATM    4  C   UNL     1      -9.680  12.462  69.725  1.00  0.00     1.978 C  
HETATM    5  C   UNL     1     -10.061  10.975  70.353  1.00  0.00     1.456 C  
HETATM    6  C   UNL     1     -10.330  13.544  70.241  1.00  0.00     1.992 C  
HETATM    7  C   UNL     1     -11.269  10.738  71.275  1.00  0.00     0.860 C  
HETATM    8  C   UNL     1      -8.791  10.440  71.191  1.00  0.00     3.078 C  
HETATM    9  C   UNL     1     -11.847  12.889  69.451  1.00  0.00    -0.312 C  
HETATM   10  C   UNL     1     -10.338  14.172  71.591  1.00  0.00     4.163 C  
HETATM   11  O   UNL     1     -12.842  13.877  69.133  1.00  0.00    -0.125 OA 
HETATM   12  C   UNL     1      -9.558   9.708  66.464  1.00  0.00    -0.252 C  
HETATM   13  C   UNL     1     -11.515  11.945  68.026  1.00  0.00    -0.389 C  
HETATM   14  H   UNL     1     -13.629  13.537  68.723  1.00  0.00     0.000 HD 
HETATM   15  C   UNL     1      -9.939  11.082  65.879  1.00  0.00    -0.289 C  
HETATM   16  C   UNL     1     -10.127  12.152  67.031  1.00  0.00    -0.219 C  
HETATM   17  H   UNL     1     -11.024  10.762  61.875  1.00  0.00     0.000 HD 
HETATM   18  C   UNL     1     -11.274  10.867  65.081  1.00  0.00     0.225 C  
HETATM   19  C   UNL     1      -8.650  12.648  67.728  1.00  0.00    -0.179 C  
HETATM   20  C   UNL     1      -7.704  13.117  66.623  1.00  0.00     0.666 C  
HETATM   21  C   UNL     1      -7.504  12.018  65.580  1.00  0.00     1.681 C  
HETATM   22  C   UNL     1      -8.801  11.553  64.882  1.00  0.00     0.285 C  
HETATM   23  C   UNL     1      -9.257  12.638  63.871  1.00  0.00     1.258 C  
HETATM   24  C   UNL     1     -10.500  12.217  63.098  1.00  0.00    -0.166 C  
HETATM   25  O   UNL     1     -10.248  11.025  62.357  1.00  0.00     0.135 OA 
HETATM   26  C   UNL     1     -11.631  11.978  64.089  1.00  0.00    -0.460 C  
ENDROOT
BRANCH   8  27
HETATM   27  C   UNL     1      -8.863   8.976  71.685  1.00  0.00    -0.113 C  
HETATM   28  O   UNL     1      -9.105   8.225  69.384  1.00  0.00    -0.152 OA 
HETATM   29  C   UNL     1      -9.026   7.965  70.572  1.00  0.00    -0.145 C  
HETATM   30  O   UNL     1      -9.044   6.691  71.035  1.00  0.00    -0.155 OA 
ENDBRANCH   8  27
TORSDOF 1
ENDMDL
MODEL      129
REMARK 921   NORMALIZED FREE ENERGY PREDICTED BY IDOCK:   14.69 KCAL/MOL
REMARK 922        TOTAL FREE ENERGY PREDICTED BY IDOCK:   15.24 KCAL/MOL
REMARK 923 INTER-LIGAND FREE ENERGY PREDICTED BY IDOCK:   15.46 KCAL/MOL
REMARK 924 INTRA-LIGAND FREE ENERGY PREDICTED BY IDOCK:   -0.21 KCAL/MOL
REMARK 927      BINDING AFFINITY PREDICTED BY RF-SCORE:    0.00 PKD
ROOT
HETATM    1  C   UNL     1     -13.451  15.005  69.885  1.00  0.00     0.838 C  
HETATM    2  C   UNL     1     -13.937  14.085  70.849  1.00  0.00     0.307 C  
HETATM    3  C   UNL     1     -12.470  14.347  70.922  1.00  0.00    -0.424 C  
HETATM    4  C   UNL     1     -11.877  15.869  69.698  1.00  0.00    -0.298 C  
HETATM    5  C   UNL     1     -10.655  16.824  69.111  1.00  0.00    -0.343 C  
HETATM    6  C   UNL     1     -12.215  16.022  71.011  1.00  0.00    -0.328 C  
HETATM    7  C   UNL     1      -9.734  17.659  70.016  1.00  0.00     1.246 C  
HETATM    8  C   UNL     1     -11.295  17.889  68.082  1.00  0.00     0.671 C  
HETATM    9  C   UNL     1     -10.586  15.291  71.415  1.00  0.00     0.429 C  
HETATM   10  C   UNL     1     -12.798  17.155  71.781  1.00  0.00     5.096 C  
HETATM   11  O   UNL     1     -10.514  14.634  72.693  1.00  0.00     1.439 OA 
HETATM   12  C   UNL     1      -9.693  13.466  66.927  1.00  0.00    -0.253 C  
HETATM   13  C   UNL     1     -10.009  14.199  70.188  1.00  0.00     1.298 C  
HETATM   14  H   UNL     1      -9.669  14.255  72.903  1.00  0.00     0.000 HD 
HETATM   15  C   UNL     1     -10.296  12.509  67.974  1.00  0.00    -0.226 C  
HETATM   16  C   UNL     1     -11.031  13.319  69.119  1.00  0.00    -0.208 C  
HETATM   17  H   UNL     1      -8.832   8.643  67.500  1.00  0.00     0.000 HD 
HETATM   18  C   UNL     1      -9.098  11.673  68.550  1.00  0.00    -0.157 C  
HETATM   19  C   UNL     1     -12.512  13.999  68.611  1.00  0.00     0.190 C  
HETATM   20  C   UNL     1     -13.383  12.904  67.997  1.00  0.00     5.146 C  
HETATM   21  C   UNL     1     -12.650  12.207  66.852  1.00  0.00     1.627 C  
HETATM   22  C   UNL     1     -11.319  11.535  67.257  1.00  0.00    -0.359 C  
HETATM   23  C   UNL     1     -11.621  10.238  68.053  1.00  0.00     0.105 C  
HETATM   24  C   UNL     1     -10.350   9.489  68.432  1.00  0.00    -0.206 C  
HETATM   25  O   UNL     1      -9.625   9.111  67.263  1.00  0.00    -0.143 OA 
HETATM   26  C   UNL     1      -9.490  10.396  69.301  1.00  0.00    -0.214 C  
ENDROOT
BRANCH   8  27
HETATM   27  C   UNL     1     -10.295  18.738  67.263  1.00  0.00    -0.469 C  
HETATM   28  O   UNL     1     -11.234  20.759  68.238  1.00  0.00     1.067 OA 
HETATM   29  C   UNL     1     -10.428  20.227  67.494  1.00  0.00    -0.183 C  
HETATM   30  O   UNL     1      -9.511  20.939  66.794  1.00  0.00    -0.188 OA 
ENDBRANCH   8  27
TORSDOF 1
ENDMDL
MODEL      130
REMARK 921   NORMALIZED FREE ENERGY PREDICTED BY IDOCK:   17.23 KCAL/MOL
REMARK 922        TOTAL FREE ENERGY PREDICTED BY IDOCK:   17.93 KCAL/MOL
REMARK 923 INTER-LIGAND FREE ENERGY PREDICTED BY IDOCK:   18.20 KCAL/MOL
REMARK 924 INTRA-LIGAND FREE ENERGY PREDICTED BY IDOCK:   -0.28 KCAL/MOL
REMARK 927      BINDING AFFINITY PREDICTED BY RF-SCORE:    0.00 PKD
ROOT
HETATM    1  C   UNL     1      -6.767   6.921  67.118  1.00  0.00    -0.063 C  
HETATM    2  C   UNL     1      -6.611   7.497  65.831  1.00  0.00    -0.046 C  
HETATM    3  C   UNL     1      -7.848   7.913  66.553  1.00  0.00    -0.098 C  
HETATM    4  C   UNL     1      -7.886   7.269  68.490  1.00  0.00    -0.122 C  
HETATM    5  C   UNL     1      -8.677   7.199  69.946  1.00  0.00    -0.142 C  
HETATM    6  C   UNL     1      -7.419   8.487  68.091  1.00  0.00    -0.097 C  
HETATM    7  C   UNL     1      -9.128   8.450  70.719  1.00  0.00    -0.180 C  
HETATM    8  C   UNL     1      -7.749   6.386  70.986  1.00  0.00    -0.101 C  
HETATM    9  C   UNL     1      -9.170   8.985  67.890  1.00  0.00    -0.141 C  
HETATM   10  C   UNL     1      -6.384   9.406  68.641  1.00  0.00    -0.048 C  
HETATM   11  O   UNL     1      -9.398  10.033  66.931  1.00  0.00    -0.154 OA 
HETATM   12  C   UNL     1     -11.036   4.426  68.015  1.00  0.00     2.197 C  
HETATM   13  C   UNL     1     -10.217   7.645  67.518  1.00  0.00    -0.294 C  
HETATM   14  H   UNL     1     -10.306  10.291  66.826  1.00  0.00     0.000 HD 
HETATM   15  C   UNL     1     -10.779   5.050  66.629  1.00  0.00    -0.162 C  
HETATM   16  C   UNL     1      -9.703   6.208  66.723  1.00  0.00    -0.191 C  
HETATM   17  H   UNL     1     -13.670   3.855  63.885  1.00  0.00     0.000 HD 
HETATM   18  C   UNL     1     -12.163   5.600  66.130  1.00  0.00     3.694 C  
HETATM   19  C   UNL     1      -8.117   5.627  66.964  1.00  0.00    -0.102 C  
HETATM   20  C   UNL     1      -7.791   4.592  65.887  1.00  0.00    -0.095 C  
HETATM   21  C   UNL     1      -8.821   3.464  65.893  1.00  0.00    -0.135 C  
HETATM   22  C   UNL     1     -10.275   3.920  65.639  1.00  0.00     0.009 C  
HETATM   23  C   UNL     1     -10.447   4.273  64.138  1.00  0.00    -0.014 C  
HETATM   24  C   UNL     1     -11.878   4.673  63.803  1.00  0.00     2.558 C  
HETATM   25  O   UNL     1     -12.777   3.605  64.094  1.00  0.00     5.318 OA 
HETATM   26  C   UNL     1     -12.247   5.898  64.629  1.00  0.00     7.059 C  
ENDROOT
BRANCH   8  27
HETATM   27  C   UNL     1      -8.395   6.025  72.345  1.00  0.00    -0.116 C  
HETATM   28  O   UNL     1      -8.946   3.819  71.482  1.00  0.00    -0.099 OA 
HETATM   29  C   UNL     1      -8.963   4.624  72.396  1.00  0.00    -0.125 C  
HETATM   30  O   UNL     1      -9.484   4.327  73.612  1.00  0.00    -0.109 OA 
ENDBRANCH   8  27
TORSDOF 1
ENDMDL
MODEL      131
REMARK 921   NORMALIZED FREE ENERGY PREDICTED BY IDOCK:   19.27 KCAL/MOL
REMARK 922        TOTAL FREE ENERGY PREDICTED BY IDOCK:   20.09 KCAL/MOL
REMARK 923 INTER-LIGAND FREE ENERGY PREDICTED BY IDOCK:   20.03 KCAL/MOL
REMARK 924 INTRA-LIGAND FREE ENERGY PREDICTED BY IDOCK:    0.06 KCAL/MOL
REMARK 927      BINDING AFFINITY PREDICTED BY RF-SCORE:    0.00 PKD
ROOT
HETATM    1  C   UNL     1     -11.354  15.921  68.080  1.00  0.00    -0.284 C  
HETATM    2  C   UNL     1     -12.034  15.442  69.228  1.00  0.00    -0.335 C  
HETATM    3  C   UNL     1     -11.060  16.541  69.494  1.00  0.00    -0.245 C  
HETATM    4  C   UNL     1     -10.315  17.366  67.782  1.00  0.00    -0.358 C  
HETATM    5  C   UNL     1      -9.323  18.482  67.060  1.00  0.00    -0.288 C  
HETATM    6  C   UNL     1     -11.402  17.839  68.456  1.00  0.00     0.880 C  
HETATM    7  C   UNL     1      -9.421  19.993  67.331  1.00  0.00    -0.508 C  
HETATM    8  C   UNL     1      -9.482  18.340  65.461  1.00  0.00     0.910 C  
HETATM    9  C   UNL     1     -10.224  18.529  69.677  1.00  0.00     0.572 C  
HETATM   10  C   UNL     1     -12.624  18.571  68.022  1.00  0.00     5.969 C  
HETATM   11  O   UNL     1     -10.754  18.702  71.003  1.00  0.00     1.188 OA 
HETATM   12  C   UNL     1      -6.331  15.891  68.206  1.00  0.00    -0.121 C  
HETATM   13  C   UNL     1      -8.743  17.619  69.778  1.00  0.00     1.332 C  
HETATM   14  H   UNL     1     -10.143  19.059  71.636  1.00  0.00     0.000 HD 
HETATM   15  C   UNL     1      -7.139  15.355  69.404  1.00  0.00    -0.193 C  
HETATM   16  C   UNL     1      -8.608  15.946  69.402  1.00  0.00    -0.195 C  
HETATM   17  H   UNL     1      -4.660  13.489  72.176  1.00  0.00     0.000 HD 
HETATM   18  C   UNL     1      -6.356  15.787  70.694  1.00  0.00     0.396 C  
HETATM   19  C   UNL     1      -9.598  15.268  68.188  1.00  0.00    -0.204 C  
HETATM   20  C   UNL     1      -9.565  13.744  68.305  1.00  0.00    -0.219 C  
HETATM   21  C   UNL     1      -8.130  13.227  68.227  1.00  0.00    -0.156 C  
HETATM   22  C   UNL     1      -7.191  13.773  69.326  1.00  0.00     0.041 C  
HETATM   23  C   UNL     1      -7.526  13.085  70.676  1.00  0.00     3.603 C  
HETATM   24  C   UNL     1      -6.594  13.532  71.795  1.00  0.00     2.372 C  
HETATM   25  O   UNL     1      -5.241  13.210  71.478  1.00  0.00    -0.167 OA 
HETATM   26  C   UNL     1      -6.737  15.037  71.975  1.00  0.00     1.860 C  
ENDROOT
BRANCH   8  27
HETATM   27  C   UNL     1      -8.485  19.149  64.597  1.00  0.00     4.220 C  
HETATM   28  O   UNL     1      -6.634  18.059  65.739  1.00  0.00    -0.260 OA 
HETATM   29  C   UNL     1      -7.034  18.848  64.901  1.00  0.00     0.603 C  
HETATM   30  O   UNL     1      -6.189  19.543  64.099  1.00  0.00    -0.386 OA 
ENDBRANCH   8  27
TORSDOF 1
ENDMDL
MODEL      132
REMARK 921   NORMALIZED FREE ENERGY PREDICTED BY IDOCK:   20.58 KCAL/MOL
REMARK 922        TOTAL FREE ENERGY PREDICTED BY IDOCK:   21.48 KCAL/MOL
REMARK 923 INTER-LIGAND FREE ENERGY PREDICTED BY IDOCK:   21.79 KCAL/MOL
REMARK 924 INTRA-LIGAND FREE ENERGY PREDICTED BY IDOCK:   -0.31 KCAL/MOL
REMARK 927      BINDING AFFINITY PREDICTED BY RF-SCORE:    0.00 PKD
ROOT
HETATM    1  C   UNL     1      -7.943  18.902  65.595  1.00  0.00     0.281 C  
HETATM    2  C   UNL     1      -7.097  20.008  65.864  1.00  0.00    -0.317 C  
HETATM    3  C   UNL     1      -6.969  18.877  66.829  1.00  0.00    -0.212 C  
HETATM    4  C   UNL     1      -8.005  17.218  66.243  1.00  0.00    -0.330 C  
HETATM    5  C   UNL     1      -8.459  15.651  66.540  1.00  0.00    -0.311 C  
HETATM    6  C   UNL     1      -6.689  17.446  65.962  1.00  0.00    -0.199 C  
HETATM    7  C   UNL     1      -7.450  14.513  66.768  1.00  0.00     0.726 C  
HETATM    8  C   UNL     1      -9.374  15.149  65.310  1.00  0.00     0.406 C  
HETATM    9  C   UNL     1      -6.340  17.000  67.703  1.00  0.00    -0.146 C  
HETATM   10  C   UNL     1      -5.807  17.029  64.837  1.00  0.00     3.269 C  
HETATM   11  O   UNL     1      -5.143  17.580  68.251  1.00  0.00    -0.137 OA 
HETATM   12  C   UNL     1     -10.988  17.385  69.293  1.00  0.00     0.367 C  
HETATM   13  C   UNL     1      -7.671  17.345  68.771  1.00  0.00    -0.258 C  
HETATM   14  H   UNL     1      -4.962  17.349  69.154  1.00  0.00     0.000 HD 
HETATM   15  C   UNL     1     -10.065  18.602  69.500  1.00  0.00     0.243 C  
HETATM   16  C   UNL     1      -8.849  18.565  68.485  1.00  0.00    -0.351 C  
HETATM   17  H   UNL     1     -10.942  20.567  73.060  1.00  0.00     0.000 HD 
HETATM   18  C   UNL     1      -9.565  18.529  70.986  1.00  0.00     4.290 C  
HETATM   19  C   UNL     1      -9.305  18.945  66.884  1.00  0.00    -0.333 C  
HETATM   20  C   UNL     1     -10.053  20.278  66.877  1.00  0.00    -0.565 C  
HETATM   21  C   UNL     1     -11.255  20.229  67.818  1.00  0.00     0.759 C  
HETATM   22  C   UNL     1     -10.904  19.929  69.292  1.00  0.00     0.900 C  
HETATM   23  C   UNL     1     -10.264  21.188  69.933  1.00  0.00     1.483 C  
HETATM   24  C   UNL     1      -9.948  20.984  71.409  1.00  0.00     3.396 C  
HETATM   25  O   UNL     1     -11.139  20.695  72.139  1.00  0.00     7.170 OA 
HETATM   26  C   UNL     1      -8.968  19.827  71.541  1.00  0.00     3.058 C  
ENDROOT
BRANCH   8  27
HETATM   27  C   UNL     1     -10.075  13.782  65.490  1.00  0.00    -0.303 C  
HETATM   28  O   UNL     1     -11.827  14.865  66.784  1.00  0.00    -0.304 OA 
HETATM   29  C   UNL     1     -11.354  13.854  66.296  1.00  0.00    -0.324 C  
HETATM   30  O   UNL     1     -11.963  12.647  66.399  1.00  0.00    -0.464 OA 
ENDBRANCH   8  27
TORSDOF 1
ENDMDL
MODEL      133
REMARK 921   NORMALIZED FREE ENERGY PREDICTED BY IDOCK:   21.69 KCAL/MOL
REMARK 922        TOTAL FREE ENERGY PREDICTED BY IDOCK:   22.66 KCAL/MOL
REMARK 923 INTER-LIGAND FREE ENERGY PREDICTED BY IDOCK:   22.84 KCAL/MOL
REMARK 924 INTRA-LIGAND FREE ENERGY PREDICTED BY IDOCK:   -0.19 KCAL/MOL
REMARK 927      BINDING AFFINITY PREDICTED BY RF-SCORE:    0.00 PKD
ROOT
HETATM    1  C   UNL     1      -8.173   8.931  68.061  1.00  0.00    -0.110 C  
HETATM    2  C   UNL     1      -8.183   7.845  67.149  1.00  0.00    -0.118 C  
HETATM    3  C   UNL     1      -7.486   9.068  66.654  1.00  0.00    -0.086 C  
HETATM    4  C   UNL     1      -7.271  10.494  68.099  1.00  0.00    -0.087 C  
HETATM    5  C   UNL     1      -6.721  11.995  68.540  1.00  0.00    -0.066 C  
HETATM    6  C   UNL     1      -6.334   9.546  67.804  1.00  0.00    -0.057 C  
HETATM    7  C   UNL     1      -5.255  12.433  68.380  1.00  0.00    -0.055 C  
HETATM    8  C   UNL     1      -7.047  12.213  70.105  1.00  0.00     1.123 C  
HETATM    9  C   UNL     1      -5.936  10.541  66.319  1.00  0.00    -0.094 C  
HETATM   10  C   UNL     1      -5.288   8.869  68.618  1.00  0.00    -0.037 C  
HETATM   11  O   UNL     1      -5.374   9.797  65.223  1.00  0.00    -0.046 OA 
HETATM   12  C   UNL     1     -10.005  13.317  66.431  1.00  0.00    -0.288 C  
HETATM   13  C   UNL     1      -7.293  11.462  65.737  1.00  0.00     0.421 C  
HETATM   14  H   UNL     1      -5.168  10.313  64.452  1.00  0.00     0.000 HD 
HETATM   15  C   UNL     1     -10.014  12.083  65.508  1.00  0.00    -0.267 C  
HETATM   16  C   UNL     1      -8.938  11.020  65.978  1.00  0.00    -0.209 C  
HETATM   17  H   UNL     1     -12.188  12.816  62.037  1.00  0.00     0.000 HD 
HETATM   18  C   UNL     1      -9.697  12.609  64.063  1.00  0.00     0.137 C  
HETATM   19  C   UNL     1      -9.393  10.194  67.401  1.00  0.00    -0.167 C  
HETATM   20  C   UNL     1     -10.786   9.593  67.210  1.00  0.00    -0.284 C  
HETATM   21  C   UNL     1     -11.794  10.676  66.829  1.00  0.00     1.479 C  
HETATM   22  C   UNL     1     -11.460  11.434  65.526  1.00  0.00     0.031 C  
HETATM   23  C   UNL     1     -11.756  10.518  64.309  1.00  0.00     2.759 C  
HETATM   24  C   UNL     1     -11.506  11.226  62.983  1.00  0.00     0.525 C  
HETATM   25  O   UNL     1     -12.344  12.375  62.864  1.00  0.00    -0.133 OA 
HETATM   26  C   UNL     1     -10.044  11.646  62.923  1.00  0.00    -0.175 C  
ENDROOT
BRANCH   8  27
HETATM   27  C   UNL     1      -6.803  13.634  70.665  1.00  0.00     0.932 C  
HETATM   28  O   UNL     1      -7.732  12.936  72.802  1.00  0.00    10.327 OA 
HETATM   29  C   UNL     1      -7.232  13.802  72.106  1.00  0.00     5.194 C  
HETATM   30  O   UNL     1      -6.967  15.046  72.577  1.00  0.00     2.195 OA 
ENDBRANCH   8  27
TORSDOF 1
ENDMDL
MODEL      134
REMARK 921   NORMALIZED FREE ENERGY PREDICTED BY IDOCK:   24.43 KCAL/MOL
REMARK 922        TOTAL FREE ENERGY PREDICTED BY IDOCK:   25.55 KCAL/MOL
REMARK 923 INTER-LIGAND FREE ENERGY PREDICTED BY IDOCK:   25.51 KCAL/MOL
REMARK 924 INTRA-LIGAND FREE ENERGY PREDICTED BY IDOCK:    0.04 KCAL/MOL
REMARK 927      BINDING AFFINITY PREDICTED BY RF-SCORE:    0.00 PKD
ROOT
HETATM    1  C   UNL     1     -11.204  13.408  68.531  1.00  0.00    -0.316 C  
HETATM    2  C   UNL     1     -11.466  14.182  67.371  1.00  0.00    -0.369 C  
HETATM    3  C   UNL     1     -11.509  12.706  67.158  1.00  0.00    -0.406 C  
HETATM    4  C   UNL     1     -11.391  11.652  68.902  1.00  0.00    -0.328 C  
HETATM    5  C   UNL     1     -11.360  10.184  69.673  1.00  0.00    -0.289 C  
HETATM    6  C   UNL     1     -12.559  12.017  68.298  1.00  0.00     1.344 C  
HETATM    7  C   UNL     1     -12.469   9.130  69.517  1.00  0.00     1.822 C  
HETATM    8  C   UNL     1     -11.265  10.450  71.261  1.00  0.00     0.198 C  
HETATM    9  C   UNL     1     -12.245  10.672  67.096  1.00  0.00     2.838 C  
HETATM   10  C   UNL     1     -13.919  12.320  68.824  1.00  0.00     9.542 C  
HETATM   11  O   UNL     1     -12.849  10.859  65.804  1.00  0.00     4.116 OA 
HETATM   12  C   UNL     1      -7.498  10.027  68.245  1.00  0.00    -0.079 C  
HETATM   13  C   UNL     1     -10.551  10.335  66.882  1.00  0.00    -0.282 C  
HETATM   14  H   UNL     1     -12.686  10.162  65.180  1.00  0.00     0.000 HD 
HETATM   15  C   UNL     1      -7.819  10.928  67.037  1.00  0.00    -0.132 C  
HETATM   16  C   UNL     1      -9.297  11.488  67.129  1.00  0.00    -0.177 C  
HETATM   17  H   UNL     1      -4.941  10.531  64.058  1.00  0.00     0.000 HD 
HETATM   18  C   UNL     1      -7.628  10.037  65.758  1.00  0.00    -0.120 C  
HETATM   19  C   UNL     1      -9.480  12.697  68.319  1.00  0.00    -0.203 C  
HETATM   20  C   UNL     1      -8.439  13.792  68.089  1.00  0.00    -0.173 C  
HETATM   21  C   UNL     1      -7.029  13.203  68.083  1.00  0.00    -0.108 C  
HETATM   22  C   UNL     1      -6.786  12.130  66.999  1.00  0.00    -0.067 C  
HETATM   23  C   UNL     1      -6.668  12.817  65.613  1.00  0.00     5.155 C  
HETATM   24  C   UNL     1      -6.365  11.821  64.502  1.00  0.00     3.586 C  
HETATM   25  O   UNL     1      -5.130  11.153  64.751  1.00  0.00    -0.258 OA 
HETATM   26  C   UNL     1      -7.497  10.804  64.438  1.00  0.00     0.337 C  
ENDROOT
BRANCH   8  27
HETATM   27  C   UNL     1     -11.013   9.209  72.151  1.00  0.00    -0.119 C  
HETATM   28  O   UNL     1     -13.386   9.121  72.677  1.00  0.00    -0.454 OA 
HETATM   29  C   UNL     1     -12.264   8.663  72.802  1.00  0.00    -0.039 C  
HETATM   30  O   UNL     1     -12.014   7.553  73.540  1.00  0.00     0.492 OA 
ENDBRANCH   8  27
TORSDOF 1
ENDMDL
MODEL      135
REMARK 921   NORMALIZED FREE ENERGY PREDICTED BY IDOCK:   24.94 KCAL/MOL
REMARK 922        TOTAL FREE ENERGY PREDICTED BY IDOCK:   26.09 KCAL/MOL
REMARK 923 INTER-LIGAND FREE ENERGY PREDICTED BY IDOCK:   26.29 KCAL/MOL
REMARK 924 INTRA-LIGAND FREE ENERGY PREDICTED BY IDOCK:   -0.20 KCAL/MOL
REMARK 927      BINDING AFFINITY PREDICTED BY RF-SCORE:    0.00 PKD
ROOT
HETATM    1  C   UNL     1     -12.082  14.082  65.194  1.00  0.00    -0.418 C  
HETATM    2  C   UNL     1     -13.262  13.309  65.337  1.00  0.00     0.309 C  
HETATM    3  C   UNL     1     -12.917  14.143  66.525  1.00  0.00     0.599 C  
HETATM    4  C   UNL     1     -11.372  15.428  66.164  1.00  0.00    -0.082 C  
HETATM    5  C   UNL     1     -10.357  16.617  66.718  1.00  0.00    -0.295 C  
HETATM    6  C   UNL     1     -12.690  15.747  66.020  1.00  0.00     2.314 C  
HETATM    7  C   UNL     1     -10.862  17.943  67.310  1.00  0.00    -0.188 C  
HETATM    8  C   UNL     1      -9.382  17.052  65.509  1.00  0.00     0.492 C  
HETATM    9  C   UNL     1     -12.765  15.850  67.847  1.00  0.00     2.138 C  
HETATM   10  C   UNL     1     -13.410  16.704  65.134  1.00  0.00     6.564 C  
HETATM   11  O   UNL     1     -14.064  15.608  68.416  1.00  0.00     5.356 OA 
HETATM   12  C   UNL     1      -8.517  13.501  68.687  1.00  0.00    -0.017 C  
HETATM   13  C   UNL     1     -11.606  14.816  68.632  1.00  0.00    -0.345 C  
HETATM   14  H   UNL     1     -14.103  15.661  69.364  1.00  0.00     0.000 HD 
HETATM   15  C   UNL     1      -9.813  12.669  68.757  1.00  0.00     0.016 C  
HETATM   16  C   UNL     1     -10.976  13.371  67.943  1.00  0.00    -0.276 C  
HETATM   17  H   UNL     1      -9.552   9.720  71.681  1.00  0.00     0.000 HD 
HETATM   18  C   UNL     1     -10.178  12.548  70.279  1.00  0.00     3.021 C  
HETATM   19  C   UNL     1     -10.771  13.257  66.253  1.00  0.00    -0.293 C  
HETATM   20  C   UNL     1     -10.570  11.791  65.868  1.00  0.00    -0.314 C  
HETATM   21  C   UNL     1      -9.390  11.190  66.630  1.00  0.00    -0.194 C  
HETATM   22  C   UNL     1      -9.533  11.225  68.167  1.00  0.00    -0.184 C  
HETATM   23  C   UNL     1     -10.562  10.152  68.611  1.00  0.00    -0.236 C  
HETATM   24  C   UNL     1     -10.708  10.089  70.126  1.00  0.00    -0.307 C  
HETATM   25  O   UNL     1      -9.461   9.760  70.736  1.00  0.00    -0.144 OA 
HETATM   26  C   UNL     1     -11.184  11.446  70.626  1.00  0.00     0.625 C  
ENDROOT
BRANCH   8  27
HETATM   27  C   UNL     1      -8.218  18.003  65.874  1.00  0.00     0.034 C  
HETATM   28  O   UNL     1      -6.889  17.047  64.076  1.00  0.00     6.701 OA 
HETATM   29  C   UNL     1      -6.999  17.840  64.994  1.00  0.00     1.638 C  
HETATM   30  O   UNL     1      -6.014  18.716  65.315  1.00  0.00    -0.218 OA 
ENDBRANCH   8  27
TORSDOF 1
ENDMDL
MODEL      136
REMARK 921   NORMALIZED FREE ENERGY PREDICTED BY IDOCK:   26.44 KCAL/MOL
REMARK 922        TOTAL FREE ENERGY PREDICTED BY IDOCK:   27.68 KCAL/MOL
REMARK 923 INTER-LIGAND FREE ENERGY PREDICTED BY IDOCK:   24.88 KCAL/MOL
REMARK 924 INTRA-LIGAND FREE ENERGY PREDICTED BY IDOCK:    2.80 KCAL/MOL
REMARK 927      BINDING AFFINITY PREDICTED BY RF-SCORE:    0.00 PKD
ROOT
HETATM    1  C   UNL     1      -6.744  13.835  70.810  1.00  0.00     0.711 C  
HETATM    2  C   UNL     1      -7.339  13.984  72.089  1.00  0.00     4.894 C  
HETATM    3  C   UNL     1      -7.944  12.916  71.240  1.00  0.00     9.341 C  
HETATM    4  C   UNL     1      -6.883  12.569  69.532  1.00  0.00     0.089 C  
HETATM    5  C   UNL     1      -6.707  11.720  68.118  1.00  0.00    -0.064 C  
HETATM    6  C   UNL     1      -6.712  11.883  70.699  1.00  0.00     1.398 C  
HETATM    7  C   UNL     1      -6.628  10.185  68.065  1.00  0.00    -0.058 C  
HETATM    8  C   UNL     1      -5.362  12.227  67.387  1.00  0.00    -0.116 C  
HETATM    9  C   UNL     1      -8.262  10.997  70.291  1.00  0.00     1.880 C  
HETATM   10  C   UNL     1      -5.538  11.202  71.311  1.00  0.00     0.104 C  
HETATM   11  O   UNL     1      -8.983  10.481  71.425  1.00  0.00     2.151 OA 
HETATM   12  C   UNL     1      -9.774  14.143  66.814  1.00  0.00    -0.283 C  
HETATM   13  C   UNL     1      -9.349  11.946  69.317  1.00  0.00     0.621 C  
HETATM   14  H   UNL     1      -9.788  10.022  71.214  1.00  0.00     0.000 HD 
HETATM   15  C   UNL     1     -10.344  14.329  68.234  1.00  0.00    -0.242 C  
HETATM   16  C   UNL     1      -9.393  13.666  69.313  1.00  0.00     0.606 C  
HETATM   17  H   UNL     1     -14.294  15.631  68.112  1.00  0.00     0.000 HD 
HETATM   18  C   UNL     1     -11.760  13.651  68.234  1.00  0.00    -0.398 C  
HETATM   19  C   UNL     1      -7.956  14.551  69.569  1.00  0.00     0.137 C  
HETATM   20  C   UNL     1      -8.310  16.002  69.893  1.00  0.00     0.568 C  
HETATM   21  C   UNL     1      -9.166  16.610  68.783  1.00  0.00    -0.253 C  
HETATM   22  C   UNL     1     -10.502  15.877  68.529  1.00  0.00    -0.241 C  
HETATM   23  C   UNL     1     -11.492  16.203  69.679  1.00  0.00    -0.290 C  
HETATM   24  C   UNL     1     -12.856  15.561  69.460  1.00  0.00     0.375 C  
HETATM   25  O   UNL     1     -13.442  16.032  68.248  1.00  0.00     3.276 OA 
HETATM   26  C   UNL     1     -12.678  14.050  69.394  1.00  0.00     0.320 C  
ENDROOT
BRANCH   8  27
HETATM   27  C   UNL     1      -5.126  11.709  65.948  1.00  0.00     0.353 C  
HETATM   28  O   UNL     1      -7.393  10.829  65.908  1.00  0.00    -0.146 OA 
HETATM   29  C   UNL     1      -6.324  11.005  65.350  1.00  0.00     0.212 C  
HETATM   30  O   UNL     1      -6.097  10.601  64.076  1.00  0.00    -0.065 OA 
ENDBRANCH   8  27
TORSDOF 1
ENDMDL
MODEL      137
REMARK 921   NORMALIZED FREE ENERGY PREDICTED BY IDOCK:   26.58 KCAL/MOL
REMARK 922        TOTAL FREE ENERGY PREDICTED BY IDOCK:   27.83 KCAL/MOL
REMARK 923 INTER-LIGAND FREE ENERGY PREDICTED BY IDOCK:   28.13 KCAL/MOL
REMARK 924 INTRA-LIGAND FREE ENERGY PREDICTED BY IDOCK:   -0.30 KCAL/MOL
REMARK 927      BINDING AFFINITY PREDICTED BY RF-SCORE:    0.00 PKD
ROOT
HETATM    1  C   UNL     1     -12.683  13.500  66.563  1.00  0.00     0.020 C  
HETATM    2  C   UNL     1     -13.435  14.079  67.617  1.00  0.00     5.062 C  
HETATM    3  C   UNL     1     -11.959  14.078  67.834  1.00  0.00    -0.387 C  
HETATM    4  C   UNL     1     -10.919  13.482  66.181  1.00  0.00    -0.289 C  
HETATM    5  C   UNL     1      -9.458  13.175  65.459  1.00  0.00     0.156 C  
HETATM    6  C   UNL     1     -11.206  14.780  66.486  1.00  0.00    -0.342 C  
HETATM    7  C   UNL     1      -8.334  14.220  65.361  1.00  0.00     3.731 C  
HETATM    8  C   UNL     1      -9.733  12.723  63.935  1.00  0.00     0.363 C  
HETATM    9  C   UNL     1      -9.881  14.676  67.746  1.00  0.00    -0.216 C  
HETATM   10  C   UNL     1     -11.422  15.993  65.649  1.00  0.00     0.345 C  
HETATM   11  O   UNL     1     -10.026  15.581  68.855  1.00  0.00    -0.199 OA 
HETATM   12  C   UNL     1      -9.549   9.761  67.764  1.00  0.00    -0.157 C  
HETATM   13  C   UNL     1      -9.655  13.063  68.360  1.00  0.00    -0.178 C  
HETATM   14  H   UNL     1      -9.339  15.526  69.509  1.00  0.00     0.000 HD 
HETATM   15  C   UNL     1     -10.425  10.416  68.850  1.00  0.00    -0.232 C  
HETATM   16  C   UNL     1     -10.887  11.863  68.402  1.00  0.00    -0.263 C  
HETATM   17  H   UNL     1     -10.208   8.309  72.431  1.00  0.00     0.000 HD 
HETATM   18  C   UNL     1      -9.545  10.478  70.149  1.00  0.00     0.460 C  
HETATM   19  C   UNL     1     -12.085  11.835  67.186  1.00  0.00     0.292 C  
HETATM   20  C   UNL     1     -13.244  10.949  67.643  1.00  0.00     8.153 C  
HETATM   21  C   UNL     1     -12.749   9.547  67.991  1.00  0.00     7.162 C  
HETATM   22  C   UNL     1     -11.691   9.501  69.115  1.00  0.00     0.479 C  
HETATM   23  C   UNL     1     -12.381   9.759  70.480  1.00  0.00    -0.173 C  
HETATM   24  C   UNL     1     -11.404   9.666  71.645  1.00  0.00    -0.265 C  
HETATM   25  O   UNL     1     -10.818   8.367  71.704  1.00  0.00    -0.235 OA 
HETATM   26  C   UNL     1     -10.316  10.714  71.452  1.00  0.00     3.048 C  
ENDROOT
BRANCH   8  27
HETATM   27  C   UNL     1      -8.514  12.188  63.147  1.00  0.00     1.985 C  
HETATM   28  O   UNL     1      -8.719  10.057  64.302  1.00  0.00    -0.172 OA 
HETATM   29  C   UNL     1      -8.147  10.761  63.488  1.00  0.00     0.111 C  
HETATM   30  O   UNL     1      -7.101  10.311  62.751  1.00  0.00    -0.131 OA 
ENDBRANCH   8  27
TORSDOF 1
ENDMDL
MODEL      138
REMARK 921   NORMALIZED FREE ENERGY PREDICTED BY IDOCK:   33.04 KCAL/MOL
REMARK 922        TOTAL FREE ENERGY PREDICTED BY IDOCK:   34.67 KCAL/MOL
REMARK 923 INTER-LIGAND FREE ENERGY PREDICTED BY IDOCK:   31.22 KCAL/MOL
REMARK 924 INTRA-LIGAND FREE ENERGY PREDICTED BY IDOCK:    3.45 KCAL/MOL
REMARK 927      BINDING AFFINITY PREDICTED BY RF-SCORE:    0.00 PKD
ROOT
HETATM    1  C   UNL     1     -12.154  16.757  66.191  1.00  0.00     2.850 C  
HETATM    2  C   UNL     1     -13.541  16.819  66.482  1.00  0.00     9.699 C  
HETATM    3  C   UNL     1     -12.703  17.797  67.235  1.00  0.00     5.964 C  
HETATM    4  C   UNL     1     -10.768  17.844  66.585  1.00  0.00    -0.137 C  
HETATM    5  C   UNL     1      -9.243  18.481  66.716  1.00  0.00    -0.297 C  
HETATM    6  C   UNL     1     -11.755  18.671  66.133  1.00  0.00     2.504 C  
HETATM    7  C   UNL     1      -8.950  19.987  66.608  1.00  0.00    -0.446 C  
HETATM    8  C   UNL     1      -8.312  17.800  65.589  1.00  0.00     0.502 C  
HETATM    9  C   UNL     1     -11.579  19.584  67.710  1.00  0.00     1.238 C  
HETATM   10  C   UNL     1     -11.984  19.358  64.832  1.00  0.00     4.867 C  
HETATM   11  O   UNL     1     -12.757  20.291  68.138  1.00  0.00     3.042 OA 
HETATM   12  C   UNL     1      -9.024  16.091  70.065  1.00  0.00     0.686 C  
HETATM   13  C   UNL     1     -11.021  18.579  69.017  1.00  0.00     1.187 C  
HETATM   14  H   UNL     1     -12.666  20.765  68.956  1.00  0.00     0.000 HD 
HETATM   15  C   UNL     1     -10.547  16.135  70.299  1.00  0.00    -0.151 C  
HETATM   16  C   UNL     1     -11.277  16.880  69.108  1.00  0.00     0.081 C  
HETATM   17  H   UNL     1     -11.501  15.066  74.205  1.00  0.00     0.000 HD 
HETATM   18  C   UNL     1     -10.764  16.889  71.658  1.00  0.00     1.950 C  
HETATM   19  C   UNL     1     -11.333  15.953  67.675  1.00  0.00    -0.151 C  
HETATM   20  C   UNL     1     -11.936  14.583  67.985  1.00  0.00    -0.305 C  
HETATM   21  C   UNL     1     -11.146  13.883  69.089  1.00  0.00    -0.284 C  
HETATM   22  C   UNL     1     -11.093  14.653  70.427  1.00  0.00    -0.106 C  
HETATM   23  C   UNL     1     -12.469  14.546  71.136  1.00  0.00    -0.411 C  
HETATM   24  C   UNL     1     -12.469  15.233  72.495  1.00  0.00    -0.363 C  
HETATM   25  O   UNL     1     -11.500  14.637  73.357  1.00  0.00     0.149 OA 
HETATM   26  C   UNL     1     -12.145  16.707  72.296  1.00  0.00    -0.055 C  
ENDROOT
BRANCH   8  27
HETATM   27  C   UNL     1      -6.797  18.102  65.675  1.00  0.00    -0.241 C  
HETATM   28  O   UNL     1      -7.287  20.485  65.693  1.00  0.00    -0.172 OA 
HETATM   29  C   UNL     1      -6.473  19.579  65.723  1.00  0.00    -0.227 C  
HETATM   30  O   UNL     1      -5.141  19.807  65.839  1.00  0.00    -0.157 OA 
ENDBRANCH   8  27
TORSDOF 1
ENDMDL
MODEL      139
REMARK 921   NORMALIZED FREE ENERGY PREDICTED BY IDOCK:   34.42 KCAL/MOL
REMARK 922        TOTAL FREE ENERGY PREDICTED BY IDOCK:   36.12 KCAL/MOL
REMARK 923 INTER-LIGAND FREE ENERGY PREDICTED BY IDOCK:   35.29 KCAL/MOL
REMARK 924 INTRA-LIGAND FREE ENERGY PREDICTED BY IDOCK:    0.83 KCAL/MOL
REMARK 927      BINDING AFFINITY PREDICTED BY RF-SCORE:    0.00 PKD
ROOT
HETATM    1  C   UNL     1      -9.149  10.495  66.556  1.00  0.00    -0.175 C  
HETATM    2  C   UNL     1      -8.262  11.396  65.915  1.00  0.00     0.086 C  
HETATM    3  C   UNL     1      -7.611  10.458  66.875  1.00  0.00    -0.107 C  
HETATM    4  C   UNL     1      -8.885   9.019  67.560  1.00  0.00    -0.128 C  
HETATM    5  C   UNL     1      -9.139   7.684  68.511  1.00  0.00    -0.131 C  
HETATM    6  C   UNL     1      -8.062   8.871  66.482  1.00  0.00    -0.107 C  
HETATM    7  C   UNL     1      -8.306   6.397  68.393  1.00  0.00    -0.116 C  
HETATM    8  C   UNL     1     -10.667   7.205  68.313  1.00  0.00    -0.202 C  
HETATM    9  C   UNL     1      -6.691   8.672  67.679  1.00  0.00    -0.066 C  
HETATM   10  C   UNL     1      -8.161   8.062  65.236  1.00  0.00    -0.138 C  
HETATM   11  O   UNL     1      -5.391   9.036  67.180  1.00  0.00    -0.039 OA 
HETATM   12  C   UNL     1      -9.130  10.434  71.580  1.00  0.00     5.077 C  
HETATM   13  C   UNL     1      -6.973   9.509  69.179  1.00  0.00    -0.057 C  
HETATM   14  H   UNL     1      -4.680   8.933  67.801  1.00  0.00     0.000 HD 
HETATM   15  C   UNL     1      -8.217  11.412  70.814  1.00  0.00     5.074 C  
HETATM   16  C   UNL     1      -7.967  10.905  69.334  1.00  0.00    -0.027 C  
HETATM   17  H   UNL     1      -6.420  14.132  73.399  1.00  0.00     0.000 HD 
HETATM   18  C   UNL     1      -6.874  11.487  71.623  1.00  0.00     4.485 C  
HETATM   19  C   UNL     1      -9.331  11.092  68.325  1.00  0.00    -0.172 C  
HETATM   20  C   UNL     1      -9.810  12.542  68.390  1.00  0.00    -0.202 C  
HETATM   21  C   UNL     1     -10.105  12.950  69.832  1.00  0.00     1.884 C  
HETATM   22  C   UNL     1      -8.897  12.843  70.789  1.00  0.00     8.582 C  
HETATM   23  C   UNL     1      -7.911  14.006  70.502  1.00  0.00     2.232 C  
HETATM   24  C   UNL     1      -6.722  13.998  71.455  1.00  0.00     1.410 C  
HETATM   25  O   UNL     1      -7.161  14.137  72.805  1.00  0.00     2.481 OA 
HETATM   26  C   UNL     1      -5.974  12.682  71.289  1.00  0.00     0.641 C  
ENDROOT
BRANCH   8  27
HETATM   27  C   UNL     1     -11.169   6.100  69.272  1.00  0.00    -0.438 C  
HETATM   28  O   UNL     1     -10.176   4.413  67.827  1.00  0.00    -0.018 OA 
HETATM   29  C   UNL     1     -10.801   4.700  68.833  1.00  0.00     1.374 C  
HETATM   30  O   UNL     1     -11.221   3.759  69.715  1.00  0.00     4.091 OA 
ENDBRANCH   8  27
TORSDOF 1
ENDMDL
MODEL      140
REMARK 921   NORMALIZED FREE ENERGY PREDICTED BY IDOCK:   37.18 KCAL/MOL
REMARK 922        TOTAL FREE ENERGY PREDICTED BY IDOCK:   39.05 KCAL/MOL
REMARK 923 INTER-LIGAND FREE ENERGY PREDICTED BY IDOCK:   34.06 KCAL/MOL
REMARK 924 INTRA-LIGAND FREE ENERGY PREDICTED BY IDOCK:    4.99 KCAL/MOL
REMARK 927      BINDING AFFINITY PREDICTED BY RF-SCORE:    0.00 PKD
ROOT
HETATM    1  C   UNL     1      -8.113  13.874  67.039  1.00  0.00    -0.016 C  
HETATM    2  C   UNL     1      -7.102  13.014  67.537  1.00  0.00    -0.158 C  
HETATM    3  C   UNL     1      -8.143  12.337  66.710  1.00  0.00    -0.025 C  
HETATM    4  C   UNL     1      -9.412  13.654  65.804  1.00  0.00     0.011 C  
HETATM    5  C   UNL     1     -10.717  13.915  64.815  1.00  0.00    -0.437 C  
HETATM    6  C   UNL     1      -8.282  13.152  65.229  1.00  0.00     3.606 C  
HETATM    7  C   UNL     1     -10.799  13.384  63.374  1.00  0.00     0.799 C  
HETATM    8  C   UNL     1     -10.939  15.508  64.680  1.00  0.00    -0.341 C  
HETATM    9  C   UNL     1      -9.216  11.596  64.982  1.00  0.00     0.045 C  
HETATM   10  C   UNL     1      -7.339  13.689  64.209  1.00  0.00    17.373 C  
HETATM   11  O   UNL     1      -8.408  10.408  64.907  1.00  0.00    -0.168 OA 
HETATM   12  C   UNL     1     -12.877  12.675  68.098  1.00  0.00     2.118 C  
HETATM   13  C   UNL     1     -10.460  11.356  66.176  1.00  0.00    -0.303 C  
HETATM   14  H   UNL     1      -8.892   9.601  64.780  1.00  0.00     0.000 HD 
HETATM   15  C   UNL     1     -11.721  11.806  68.635  1.00  0.00    -0.389 C  
HETATM   16  C   UNL     1     -10.413  12.011  67.766  1.00  0.00    -0.223 C  
HETATM   17  H   UNL     1     -13.104   8.980  71.358  1.00  0.00     0.000 HD 
HETATM   18  C   UNL     1     -12.220  10.319  68.568  1.00  0.00     1.061 C  
HETATM   19  C   UNL     1      -9.659  13.518  68.041  1.00  0.00    -0.221 C  
HETATM   20  C   UNL     1      -9.417  13.694  69.540  1.00  0.00     1.020 C  
HETATM   21  C   UNL     1     -10.725  13.558  70.318  1.00  0.00     1.209 C  
HETATM   22  C   UNL     1     -11.437  12.199  70.144  1.00  0.00    -0.066 C  
HETATM   23  C   UNL     1     -10.673  11.113  70.945  1.00  0.00     1.955 C  
HETATM   24  C   UNL     1     -11.357   9.754  70.868  1.00  0.00    -0.365 C  
HETATM   25  O   UNL     1     -12.676   9.828  71.405  1.00  0.00    -0.333 OA 
HETATM   26  C   UNL     1     -11.418   9.321  69.410  1.00  0.00     0.246 C  
ENDROOT
BRANCH   8  27
HETATM   27  C   UNL     1     -12.235  15.962  63.968  1.00  0.00     0.391 C  
HETATM   28  O   UNL     1     -12.350  13.813  62.835  1.00  0.00    -0.528 OA 
HETATM   29  C   UNL     1     -12.819  14.918  63.042  1.00  0.00     2.873 C  
HETATM   30  O   UNL     1     -13.975  15.334  62.467  1.00  0.00     4.921 OA 
ENDBRANCH   8  27
TORSDOF 1
ENDMDL
MODEL      141
REMARK 921   NORMALIZED FREE ENERGY PREDICTED BY IDOCK:   39.02 KCAL/MOL
REMARK 922        TOTAL FREE ENERGY PREDICTED BY IDOCK:   40.99 KCAL/MOL
REMARK 923 INTER-LIGAND FREE ENERGY PREDICTED BY IDOCK:   40.87 KCAL/MOL
REMARK 924 INTRA-LIGAND FREE ENERGY PREDICTED BY IDOCK:    0.13 KCAL/MOL
REMARK 927      BINDING AFFINITY PREDICTED BY RF-SCORE:    0.00 PKD
ROOT
HETATM    1  C   UNL     1      -9.338   8.187  64.202  1.00  0.00     1.690 C  
HETATM    2  C   UNL     1      -9.453   6.777  64.312  1.00  0.00     2.350 C  
HETATM    3  C   UNL     1     -10.122   7.544  65.403  1.00  0.00     2.075 C  
HETATM    4  C   UNL     1     -10.155   9.554  65.052  1.00  0.00     0.360 C  
HETATM    5  C   UNL     1     -10.593  11.074  65.549  1.00  0.00    -0.267 C  
HETATM    6  C   UNL     1     -11.158   8.694  64.710  1.00  0.00     8.566 C  
HETATM    7  C   UNL     1     -12.042  11.462  65.887  1.00  0.00     1.194 C  
HETATM    8  C   UNL     1     -10.140  12.127  64.414  1.00  0.00    -0.300 C  
HETATM    9  C   UNL     1     -11.616   8.678  66.483  1.00  0.00     3.842 C  
HETATM   10  C   UNL     1     -12.173   8.704  63.621  1.00  0.00    20.928 C  
HETATM   11  O   UNL     1     -12.296   7.489  66.924  1.00  0.00     3.289 OA 
HETATM   12  C   UNL     1      -7.415  10.650  68.136  1.00  0.00    -0.090 C  
HETATM   13  C   UNL     1     -10.262   8.974  67.536  1.00  0.00    -0.302 C  
HETATM   14  H   UNL     1     -12.533   7.480  67.844  1.00  0.00     0.000 HD 
HETATM   15  C   UNL     1      -7.538   9.114  68.169  1.00  0.00    -0.084 C  
HETATM   16  C   UNL     1      -8.628   8.615  67.134  1.00  0.00    -0.123 C  
HETATM   17  H   UNL     1      -5.597   7.520  71.486  1.00  0.00     0.000 HD 
HETATM   18  C   UNL     1      -7.935   8.734  69.640  1.00  0.00    -0.096 C  
HETATM   19  C   UNL     1      -8.109   8.727  65.512  1.00  0.00    -0.115 C  
HETATM   20  C   UNL     1      -6.767   8.011  65.362  1.00  0.00    -0.055 C  
HETATM   21  C   UNL     1      -5.737   8.584  66.334  1.00  0.00    -0.047 C  
HETATM   22  C   UNL     1      -6.130   8.475  67.824  1.00  0.00    -0.048 C  
HETATM   23  C   UNL     1      -5.973   7.003  68.289  1.00  0.00    -0.025 C  
HETATM   24  C   UNL     1      -6.285   6.833  69.770  1.00  0.00    -0.037 C  
HETATM   25  O   UNL     1      -5.402   7.626  70.562  1.00  0.00    -0.023 OA 
HETATM   26  C   UNL     1      -7.725   7.264  70.017  1.00  0.00    -0.096 C  
ENDROOT
BRANCH   8  27
HETATM   27  C   UNL     1     -10.268  13.626  64.777  1.00  0.00    -0.363 C  
HETATM   28  O   UNL     1     -12.405  13.710  63.619  1.00  0.00    -0.691 OA 
HETATM   29  C   UNL     1     -11.537  14.270  64.266  1.00  0.00    -0.282 C  
HETATM   30  O   UNL     1     -11.637  15.570  64.637  1.00  0.00    -0.383 OA 
ENDBRANCH   8  27
TORSDOF 1
ENDMDL
MODEL      142
REMARK 921   NORMALIZED FREE ENERGY PREDICTED BY IDOCK:   40.46 KCAL/MOL
REMARK 922        TOTAL FREE ENERGY PREDICTED BY IDOCK:   42.52 KCAL/MOL
REMARK 923 INTER-LIGAND FREE ENERGY PREDICTED BY IDOCK:   42.76 KCAL/MOL
REMARK 924 INTRA-LIGAND FREE ENERGY PREDICTED BY IDOCK:   -0.24 KCAL/MOL
REMARK 927      BINDING AFFINITY PREDICTED BY RF-SCORE:    0.00 PKD
ROOT
HETATM    1  C   UNL     1      -8.482  14.165  66.330  1.00  0.00     0.431 C  
HETATM    2  C   UNL     1      -8.861  15.028  65.270  1.00  0.00     1.904 C  
HETATM    3  C   UNL     1      -9.967  14.664  66.202  1.00  0.00    -0.323 C  
HETATM    4  C   UNL     1      -9.312  13.647  67.847  1.00  0.00    -0.206 C  
HETATM    5  C   UNL     1      -9.663  12.896  69.283  1.00  0.00     0.714 C  
HETATM    6  C   UNL     1      -9.479  15.000  67.792  1.00  0.00    -0.195 C  
HETATM    7  C   UNL     1     -10.398  13.595  70.439  1.00  0.00     2.165 C  
HETATM    8  C   UNL     1      -8.281  12.373  69.931  1.00  0.00     2.441 C  
HETATM    9  C   UNL     1     -11.278  14.687  67.924  1.00  0.00    -0.304 C  
HETATM   10  C   UNL     1      -8.809  16.132  68.490  1.00  0.00    -0.200 C  
HETATM   11  O   UNL     1     -12.116  15.709  67.356  1.00  0.00     0.042 OA 
HETATM   12  C   UNL     1     -11.064   9.885  66.844  1.00  0.00     0.099 C  
HETATM   13  C   UNL     1     -11.748  13.145  67.268  1.00  0.00    -0.425 C  
HETATM   14  H   UNL     1     -13.049  15.547  67.424  1.00  0.00     0.000 HD 
HETATM   15  C   UNL     1     -11.396  10.856  65.694  1.00  0.00     0.356 C  
HETATM   16  C   UNL     1     -10.888  12.318  66.028  1.00  0.00    -0.310 C  
HETATM   17  H   UNL     1     -14.086   9.154  63.015  1.00  0.00     0.000 HD 
HETATM   18  C   UNL     1     -12.956  10.823  65.524  1.00  0.00     7.546 C  
HETATM   19  C   UNL     1      -9.191  12.476  65.924  1.00  0.00     0.044 C  
HETATM   20  C   UNL     1      -8.723  11.976  64.558  1.00  0.00     1.160 C  
HETATM   21  C   UNL     1      -9.179  10.538  64.322  1.00  0.00    -0.281 C  
HETATM   22  C   UNL     1     -10.710  10.336  64.363  1.00  0.00     0.832 C  
HETATM   23  C   UNL     1     -11.338  10.907  63.065  1.00  0.00     1.044 C  
HETATM   24  C   UNL     1     -12.844  10.686  63.009  1.00  0.00     4.327 C  
HETATM   25  O   UNL     1     -13.146   9.292  63.050  1.00  0.00    11.712 OA 
HETATM   26  C   UNL     1     -13.483  11.387  64.200  1.00  0.00     1.951 C  
ENDROOT
BRANCH   8  27
HETATM   27  C   UNL     1      -8.408  11.459  71.173  1.00  0.00     7.662 C  
HETATM   28  O   UNL     1      -7.606   9.579  69.854  1.00  0.00    -0.090 OA 
HETATM   29  C   UNL     1      -7.998  10.026  70.918  1.00  0.00     0.906 C  
HETATM   30  O   UNL     1      -8.082   9.263  72.036  1.00  0.00    -0.240 OA 
ENDBRANCH   8  27
TORSDOF 1
ENDMDL
MODEL      143
REMARK 921   NORMALIZED FREE ENERGY PREDICTED BY IDOCK:   41.09 KCAL/MOL
REMARK 922        TOTAL FREE ENERGY PREDICTED BY IDOCK:   43.18 KCAL/MOL
REMARK 923 INTER-LIGAND FREE ENERGY PREDICTED BY IDOCK:   40.84 KCAL/MOL
REMARK 924 INTRA-LIGAND FREE ENERGY PREDICTED BY IDOCK:    2.35 KCAL/MOL
REMARK 927      BINDING AFFINITY PREDICTED BY RF-SCORE:    0.00 PKD
ROOT
HETATM    1  C   UNL     1      -8.656  12.071  68.679  1.00  0.00    -0.011 C  
HETATM    2  C   UNL     1      -8.374  12.940  69.763  1.00  0.00     2.152 C  
HETATM    3  C   UNL     1      -9.803  12.524  69.653  1.00  0.00     1.497 C  
HETATM    4  C   UNL     1     -10.097  11.073  68.248  1.00  0.00    -0.191 C  
HETATM    5  C   UNL     1     -11.141  10.059  67.454  1.00  0.00    -0.157 C  
HETATM    6  C   UNL     1      -9.877  10.832  69.573  1.00  0.00    -0.049 C  
HETATM    7  C   UNL     1     -12.050   9.052  68.180  1.00  0.00     3.675 C  
HETATM    8  C   UNL     1     -10.287   9.167  66.415  1.00  0.00    -0.235 C  
HETATM    9  C   UNL     1     -11.610  11.351  69.857  1.00  0.00    -0.323 C  
HETATM   10  C   UNL     1      -9.251   9.696  70.305  1.00  0.00    -0.285 C  
HETATM   11  O   UNL     1     -11.881  11.873  71.170  1.00  0.00    -0.179 OA 
HETATM   12  C   UNL     1     -12.248  13.494  65.467  1.00  0.00    -0.490 C  
HETATM   13  C   UNL     1     -12.179  12.490  68.670  1.00  0.00     0.041 C  
HETATM   14  H   UNL     1     -12.779  12.143  71.317  1.00  0.00     0.000 HD 
HETATM   15  C   UNL     1     -11.863  14.403  66.650  1.00  0.00    -0.417 C  
HETATM   16  C   UNL     1     -11.160  13.567  67.796  1.00  0.00    -0.291 C  
HETATM   17  H   UNL     1     -13.692  18.128  66.344  1.00  0.00     0.000 HD 
HETATM   18  C   UNL     1     -13.197  15.054  67.159  1.00  0.00     3.413 C  
HETATM   19  C   UNL     1      -9.570  13.093  67.398  1.00  0.00    -0.219 C  
HETATM   20  C   UNL     1      -8.768  14.324  66.977  1.00  0.00    -0.231 C  
HETATM   21  C   UNL     1      -9.456  15.048  65.821  1.00  0.00    -0.260 C  
HETATM   22  C   UNL     1     -10.887  15.540  66.133  1.00  0.00    -0.295 C  
HETATM   23  C   UNL     1     -10.813  16.779  67.063  1.00  0.00    -0.066 C  
HETATM   24  C   UNL     1     -12.190  17.356  67.362  1.00  0.00     3.117 C  
HETATM   25  O   UNL     1     -12.833  17.768  66.157  1.00  0.00     7.252 OA 
HETATM   26  C   UNL     1     -13.026  16.287  68.053  1.00  0.00     3.382 C  
ENDROOT
BRANCH   8  27
HETATM   27  C   UNL     1     -11.101   8.302  65.424  1.00  0.00     6.068 C  
HETATM   28  O   UNL     1     -11.953   6.991  67.287  1.00  0.00     1.259 OA 
HETATM   29  C   UNL     1     -11.912   7.213  66.090  1.00  0.00     5.552 C  
HETATM   30  O   UNL     1     -12.644   6.501  65.197  1.00  0.00     7.124 OA 
ENDBRANCH   8  27
TORSDOF 1
ENDMDL
MODEL      144
REMARK 921   NORMALIZED FREE ENERGY PREDICTED BY IDOCK:   52.11 KCAL/MOL
REMARK 922        TOTAL FREE ENERGY PREDICTED BY IDOCK:   54.85 KCAL/MOL
REMARK 923 INTER-LIGAND FREE ENERGY PREDICTED BY IDOCK:   52.68 KCAL/MOL
REMARK 924 INTRA-LIGAND FREE ENERGY PREDICTED BY IDOCK:    2.17 KCAL/MOL
REMARK 927      BINDING AFFINITY PREDICTED BY RF-SCORE:    0.00 PKD
ROOT
HETATM    1  C   UNL     1     -11.318  17.938  70.091  1.00  0.00     2.919 C  
HETATM    2  C   UNL     1     -12.645  18.394  69.882  1.00  0.00    14.270 C  
HETATM    3  C   UNL     1     -12.276  17.177  69.103  1.00  0.00     2.806 C  
HETATM    4  C   UNL     1     -10.460  16.415  69.642  1.00  0.00    -0.278 C  
HETATM    5  C   UNL     1      -9.290  15.258  69.437  1.00  0.00    -0.228 C  
HETATM    6  C   UNL     1     -11.653  16.012  70.168  1.00  0.00    -0.324 C  
HETATM    7  C   UNL     1      -9.569  13.750  69.560  1.00  0.00     0.843 C  
HETATM    8  C   UNL     1      -8.105  15.544  70.494  1.00  0.00     1.478 C  
HETATM    9  C   UNL     1     -11.925  15.101  68.603  1.00  0.00    -0.240 C  
HETATM   10  C   UNL     1     -12.039  15.458  71.495  1.00  0.00    -0.437 C  
HETATM   11  O   UNL     1     -13.305  14.881  68.260  1.00  0.00     1.882 OA 
HETATM   12  C   UNL     1      -8.409  17.400  66.030  1.00  0.00    -0.141 C  
HETATM   13  C   UNL     1     -11.116  15.829  67.245  1.00  0.00    -0.211 C  
HETATM   14  H   UNL     1     -13.446  14.409  67.448  1.00  0.00     0.000 HD 
HETATM   15  C   UNL     1      -9.851  17.925  65.885  1.00  0.00    -0.063 C  
HETATM   16  C   UNL     1     -10.731  17.502  67.132  1.00  0.00    -0.191 C  
HETATM   17  H   UNL     1     -10.580  19.275  62.018  1.00  0.00     0.000 HD 
HETATM   18  C   UNL     1     -10.415  17.306  64.557  1.00  0.00     2.085 C  
HETATM   19  C   UNL     1     -10.351  18.381  68.545  1.00  0.00    -0.326 C  
HETATM   20  C   UNL     1     -10.422  19.878  68.241  1.00  0.00    -0.436 C  
HETATM   21  C   UNL     1      -9.498  20.237  67.078  1.00  0.00    -0.546 C  
HETATM   22  C   UNL     1      -9.816  19.504  65.756  1.00  0.00    -0.165 C  
HETATM   23  C   UNL     1     -11.096  20.114  65.126  1.00  0.00     0.502 C  
HETATM   24  C   UNL     1     -11.434  19.477  63.784  1.00  0.00     9.098 C  
HETATM   25  O   UNL     1     -10.369  19.672  62.856  1.00  0.00    14.015 OA 
HETATM   26  C   UNL     1     -11.667  17.988  63.996  1.00  0.00     6.632 C  
ENDROOT
BRANCH   8  27
HETATM   27  C   UNL     1      -6.818  14.702  70.327  1.00  0.00     0.025 C  
HETATM   28  O   UNL     1      -7.500  14.133  68.062  1.00  0.00    -0.111 OA 
HETATM   29  C   UNL     1      -6.692  14.046  68.970  1.00  0.00    -0.109 C  
HETATM   30  O   UNL     1      -5.535  13.350  68.844  1.00  0.00    -0.071 OA 
ENDBRANCH   8  27
TORSDOF 1
ENDMDL
MODEL      145
REMARK 921   NORMALIZED FREE ENERGY PREDICTED BY IDOCK:   89.54 KCAL/MOL
REMARK 922        TOTAL FREE ENERGY PREDICTED BY IDOCK:   94.46 KCAL/MOL
REMARK 923 INTER-LIGAND FREE ENERGY PREDICTED BY IDOCK:   94.56 KCAL/MOL
REMARK 924 INTRA-LIGAND FREE ENERGY PREDICTED BY IDOCK:   -0.09 KCAL/MOL
REMARK 927      BINDING AFFINITY PREDICTED BY RF-SCORE:    0.00 PKD
ROOT
HETATM    1  C   UNL     1     -11.699  16.918  71.422  1.00  0.00     0.739 C  
HETATM    2  C   UNL     1     -13.003  17.429  71.646  1.00  0.00     8.090 C  
HETATM    3  C   UNL     1     -12.955  16.180  70.832  1.00  0.00     0.726 C  
HETATM    4  C   UNL     1     -11.092  15.349  70.769  1.00  0.00    -0.371 C  
HETATM    5  C   UNL     1     -10.096  14.137  70.231  1.00  0.00     1.387 C  
HETATM    6  C   UNL     1     -12.057  15.011  71.672  1.00  0.00    -0.410 C  
HETATM    7  C   UNL     1     -10.372  12.646  70.492  1.00  0.00     3.779 C  
HETATM    8  C   UNL     1      -8.620  14.393  70.828  1.00  0.00     3.113 C  
HETATM    9  C   UNL     1     -12.862  14.080  70.317  1.00  0.00    -0.107 C  
HETATM   10  C   UNL     1     -12.002  14.504  73.071  1.00  0.00    -0.007 C  
HETATM   11  O   UNL     1     -14.285  13.915  70.455  1.00  0.00     0.535 OA 
HETATM   12  C   UNL     1     -10.316  16.164  66.650  1.00  0.00    -0.297 C  
HETATM   13  C   UNL     1     -12.523  14.742  68.744  1.00  0.00     0.122 C  
HETATM   14  H   UNL     1     -14.703  13.432  69.753  1.00  0.00     0.000 HD 
HETATM   15  C   UNL     1     -11.706  16.749  66.971  1.00  0.00     1.204 C  
HETATM   16  C   UNL     1     -12.138  16.393  68.452  1.00  0.00     0.664 C  
HETATM   17  H   UNL     1     -13.624  18.048  63.515  1.00  0.00     0.000 HD 
HETATM   18  C   UNL     1     -12.698  16.128  65.925  1.00  0.00     3.269 C  
HETATM   19  C   UNL     1     -11.282  17.285  69.630  1.00  0.00     0.837 C  
HETATM   20  C   UNL     1     -11.397  18.776  69.313  1.00  0.00     3.046 C  
HETATM   21  C   UNL     1     -10.898  19.068  67.900  1.00  0.00    -0.287 C  
HETATM   22  C   UNL     1     -11.660  18.322  66.783  1.00  0.00     1.687 C  
HETATM   23  C   UNL     1     -13.054  18.975  66.588  1.00  0.00     8.833 C  
HETATM   24  C   UNL     1     -13.839  18.326  65.455  1.00  0.00    18.478 C  
HETATM   25  O   UNL     1     -13.134  18.453  64.222  1.00  0.00    11.938 OA 
HETATM   26  C   UNL     1     -14.041  16.853  65.785  1.00  0.00    11.399 C  
ENDROOT
BRANCH   8  27
HETATM   27  C   UNL     1      -7.490  13.490  70.276  1.00  0.00     1.685 C  
HETATM   28  O   UNL     1      -7.497  12.232  72.358  1.00  0.00     9.726 OA 
HETATM   29  C   UNL     1      -7.047  12.412  71.240  1.00  0.00     5.122 C  
HETATM   30  O   UNL     1      -6.086  11.615  70.710  1.00  0.00    -0.342 OA 
ENDBRANCH   8  27
TORSDOF 1
ENDMDL
MODEL      146
REMARK 921   NORMALIZED FREE ENERGY PREDICTED BY IDOCK:   92.52 KCAL/MOL
REMARK 922        TOTAL FREE ENERGY PREDICTED BY IDOCK:   97.62 KCAL/MOL
REMARK 923 INTER-LIGAND FREE ENERGY PREDICTED BY IDOCK:   97.88 KCAL/MOL
REMARK 924 INTRA-LIGAND FREE ENERGY PREDICTED BY IDOCK:   -0.25 KCAL/MOL
REMARK 927      BINDING AFFINITY PREDICTED BY RF-SCORE:    0.00 PKD
ROOT
HETATM    1  C   UNL     1      -8.888  15.446  69.909  1.00  0.00     0.136 C  
HETATM    2  C   UNL     1      -7.856  14.627  69.386  1.00  0.00    -0.028 C  
HETATM    3  C   UNL     1      -7.964  15.974  68.753  1.00  0.00    -0.196 C  
HETATM    4  C   UNL     1      -9.280  17.197  69.721  1.00  0.00     0.949 C  
HETATM    5  C   UNL     1     -10.027  18.674  69.830  1.00  0.00     0.764 C  
HETATM    6  C   UNL     1      -7.940  17.155  69.970  1.00  0.00     1.786 C  
HETATM    7  C   UNL     1      -9.255  20.000  69.935  1.00  0.00     0.773 C  
HETATM    8  C   UNL     1     -10.993  18.657  71.122  1.00  0.00     3.545 C  
HETATM    9  C   UNL     1      -7.719  18.097  68.416  1.00  0.00    -0.295 C  
HETATM   10  C   UNL     1      -7.127  17.420  71.190  1.00  0.00     4.542 C  
HETATM   11  O   UNL     1      -6.445  17.916  67.771  1.00  0.00    -0.182 OA 
HETATM   12  C   UNL     1     -12.244  17.279  66.649  1.00  0.00     3.879 C  
HETATM   13  C   UNL     1      -8.984  17.801  67.258  1.00  0.00    -0.246 C  
HETATM   14  H   UNL     1      -6.331  18.404  66.964  1.00  0.00     0.000 HD 
HETATM   15  C   UNL     1     -11.113  16.353  66.159  1.00  0.00     0.184 C  
HETATM   16  C   UNL     1      -9.905  16.350  67.182  1.00  0.00    -0.249 C  
HETATM   17  H   UNL     1     -11.683  15.258  62.186  1.00  0.00     0.000 HD 
HETATM   18  C   UNL     1     -10.669  16.904  64.758  1.00  0.00     0.223 C  
HETATM   19  C   UNL     1     -10.246  15.487  68.615  1.00  0.00    -0.216 C  
HETATM   20  C   UNL     1     -10.729  14.083  68.254  1.00  0.00    -0.262 C  
HETATM   21  C   UNL     1     -11.940  14.150  67.324  1.00  0.00    -0.449 C  
HETATM   22  C   UNL     1     -11.684  14.884  65.990  1.00  0.00    -0.173 C  
HETATM   23  C   UNL     1     -10.832  13.979  65.061  1.00  0.00    -0.401 C  
HETATM   24  C   UNL     1     -10.593  14.618  63.699  1.00  0.00     2.807 C  
HETATM   25  O   UNL     1     -11.832  14.859  63.036  1.00  0.00     1.102 OA 
HETATM   26  C   UNL     1      -9.851  15.932  63.901  1.00  0.00     5.737 C  
ENDROOT
BRANCH   8  27
HETATM   27  C   UNL     1     -11.943  19.868  71.284  1.00  0.00    12.714 C  
HETATM   28  O   UNL     1     -13.823  18.462  70.646  1.00  0.00    21.212 OA 
HETATM   29  C   UNL     1     -13.392  19.549  70.989  1.00  0.00    27.585 C  
HETATM   30  O   UNL     1     -14.201  20.620  71.181  1.00  0.00    12.631 OA 
ENDBRANCH   8  27
TORSDOF 1
ENDMDL
