MODEL        1
REMARK 921   NORMALIZED FREE ENERGY PREDICTED BY IDOCK:   -8.21 KCAL/MOL
REMARK 922        TOTAL FREE ENERGY PREDICTED BY IDOCK:  -14.84 KCAL/MOL
REMARK 923 INTER-LIGAND FREE ENERGY PREDICTED BY IDOCK:  -13.48 KCAL/MOL
REMARK 924 INTRA-LIGAND FREE ENERGY PREDICTED BY IDOCK:   -1.35 KCAL/MOL
REMARK 927      BINDING AFFINITY PREDICTED BY RF-SCORE:    0.00 PKD
ROOT
HETATM    1  C   UNL     1     -12.012   6.920  71.719  1.00  0.00    -0.372 C  
HETATM    2  C   UNL     1     -11.395   7.215  70.370  1.00  0.00    -0.289 A  
HETATM    3  C   UNL     1     -11.254   6.160  69.477  1.00  0.00    -0.482 A  
HETATM    4  C   UNL     1     -10.711   6.348  68.215  1.00  0.00    -0.285 A  
HETATM    5  N   UNL     1     -10.737   5.264  67.331  1.00  0.00    -0.173 NA 
HETATM    6  C   UNL     1     -10.389   7.658  67.815  1.00  0.00    -0.282 A  
HETATM    7  H2  UNL     1     -11.696   4.928  67.239  1.00  0.00     0.000 HD 
HETATM    8  C   UNL     1      -9.951   7.954  66.502  1.00  0.00    -0.267 A  
HETATM    9  H1  UNL     1     -10.338   5.402  66.403  1.00  0.00     0.000 HD 
HETATM   10  C   UNL     1      -9.616   9.248  66.109  1.00  0.00    -0.327 A  
HETATM   11  C   UNL     1      -9.697  10.285  67.019  1.00  0.00    -0.217 A  
HETATM   12  C   UNL     1     -10.132  10.028  68.322  1.00  0.00    -0.182 A  
HETATM   13  C   UNL     1     -10.514   8.727  68.741  1.00  0.00    -0.191 A  
HETATM   14  N   UNL     1     -11.018   8.476  69.998  1.00  0.00    -0.229 NA 
ENDROOT
BRANCH  14  15
HETATM   15  C   UNL     1     -11.226   9.601  70.952  1.00  0.00    -0.352 C  
BRANCH  15  16
HETATM   16  C   UNL     1     -12.478  10.395  70.585  1.00  0.00    -0.437 C  
BRANCH  16  17
HETATM   17  C   UNL     1     -12.997  11.206  71.769  1.00  0.00    -0.526 C  
BRANCH  17  18
HETATM   18  C   UNL     1     -12.929  12.717  71.530  1.00  0.00    -0.388 C  
BRANCH  18  19
HETATM   19  C   UNL     1     -13.888  13.489  72.433  1.00  0.00    -0.687 C  
BRANCH  19  20
HETATM   20  C   UNL     1     -14.101  14.938  71.989  1.00  0.00    -0.613 C  
BRANCH  20  21
HETATM   21  C   UNL     1     -13.159  15.940  72.669  1.00  0.00    -0.557 C  
BRANCH  21  22
HETATM   22  C   UNL     1     -11.813  16.076  71.952  1.00  0.00    -0.619 C  
BRANCH  22  23
HETATM   23  C   UNL     1     -11.922  15.935  70.430  1.00  0.00    -0.336 C  
BRANCH  23  24
HETATM   24  C   UNL     1     -10.548  15.763  69.781  1.00  0.00    -0.312 C  
BRANCH  24  25
HETATM   25  N   UNL     1     -10.633  15.971  68.312  1.00  0.00    -0.271 NA 
HETATM   26  C   UNL     1     -10.993  14.936  67.491  1.00  0.00    -0.302 A  
HETATM   27  C   UNL     1     -11.142  15.158  66.119  1.00  0.00    -0.311 A  
HETATM   28  C   UNL     1     -11.318  13.534  67.952  1.00  0.00    -0.320 C  
HETATM   29  C   UNL     1     -10.906  16.401  65.553  1.00  0.00    -0.215 A  
HETATM   30  N   UNL     1     -11.219  16.564  64.201  1.00  0.00    -1.413 NA 
HETATM   31  C   UNL     1     -10.599  17.471  66.411  1.00  0.00    -0.195 A  
HETATM   32  H1  UNL     1     -11.046  17.479  63.784  1.00  0.00     0.000 HD 
HETATM   33  C   UNL     1     -10.424  17.235  67.802  1.00  0.00    -0.371 A  
HETATM   34  H2  UNL     1     -12.193  16.303  64.046  1.00  0.00     0.000 HD 
HETATM   35  C   UNL     1     -10.062  18.332  68.626  1.00  0.00    -0.407 A  
HETATM   36  C   UNL     1      -9.923  19.623  68.122  1.00  0.00    -0.547 A  
HETATM   37  C   UNL     1     -10.135  19.855  66.776  1.00  0.00    -0.586 A  
HETATM   38  C   UNL     1     -10.461  18.794  65.933  1.00  0.00    -0.424 A  
ENDBRANCH  24  25
ENDBRANCH  23  24
ENDBRANCH  22  23
ENDBRANCH  21  22
ENDBRANCH  20  21
ENDBRANCH  19  20
ENDBRANCH  18  19
ENDBRANCH  17  18
ENDBRANCH  16  17
ENDBRANCH  15  16
ENDBRANCH  14  15
TORSDOF 11
ENDMDL
MODEL        2
REMARK 921   NORMALIZED FREE ENERGY PREDICTED BY IDOCK:   -8.04 KCAL/MOL
REMARK 922        TOTAL FREE ENERGY PREDICTED BY IDOCK:  -14.56 KCAL/MOL
REMARK 923 INTER-LIGAND FREE ENERGY PREDICTED BY IDOCK:  -13.12 KCAL/MOL
REMARK 924 INTRA-LIGAND FREE ENERGY PREDICTED BY IDOCK:   -1.44 KCAL/MOL
REMARK 927      BINDING AFFINITY PREDICTED BY RF-SCORE:    0.00 PKD
ROOT
HETATM    1  C   UNL     1     -11.672  13.316  67.762  1.00  0.00    -0.398 C  
HETATM    2  C   UNL     1     -11.239  14.697  67.325  1.00  0.00    -0.337 A  
HETATM    3  C   UNL     1     -11.301  14.997  65.970  1.00  0.00    -0.270 A  
HETATM    4  C   UNL     1     -10.937  16.245  65.487  1.00  0.00    -0.149 A  
HETATM    5  N   UNL     1     -11.165  16.507  64.132  1.00  0.00    -1.413 NA 
HETATM    6  C   UNL     1     -10.588  17.244  66.415  1.00  0.00    -0.179 A  
HETATM    7  H2  UNL     1     -12.148  16.337  63.917  1.00  0.00     0.000 HD 
HETATM    8  C   UNL     1     -10.327  18.576  66.017  1.00  0.00    -0.423 A  
HETATM    9  H1  UNL     1     -10.897  17.424  63.777  1.00  0.00     0.000 HD 
HETATM   10  C   UNL     1      -9.965  19.564  66.933  1.00  0.00    -0.495 A  
HETATM   11  C   UNL     1      -9.842  19.246  68.272  1.00  0.00    -0.482 A  
HETATM   12  C   UNL     1     -10.099  17.940  68.698  1.00  0.00    -0.394 A  
HETATM   13  C   UNL     1     -10.503  16.923  67.795  1.00  0.00    -0.340 A  
HETATM   14  N   UNL     1     -10.836  15.653  68.215  1.00  0.00    -0.285 NA 
ENDROOT
BRANCH  14  15
HETATM   15  C   UNL     1     -10.825  15.326  69.668  1.00  0.00    -0.286 C  
BRANCH  15  16
HETATM   16  C   UNL     1     -12.132  15.760  70.327  1.00  0.00    -0.371 C  
BRANCH  16  17
HETATM   17  C   UNL     1     -11.974  15.925  71.836  1.00  0.00    -0.588 C  
BRANCH  17  18
HETATM   18  C   UNL     1     -13.289  15.735  72.598  1.00  0.00    -0.607 C  
BRANCH  18  19
HETATM   19  C   UNL     1     -14.183  14.680  71.952  1.00  0.00    -0.628 C  
BRANCH  19  20
HETATM   20  C   UNL     1     -13.888  13.259  72.440  1.00  0.00    -0.630 C  
BRANCH  20  21
HETATM   21  C   UNL     1     -12.919  12.483  71.539  1.00  0.00    -0.379 C  
BRANCH  21  22
HETATM   22  C   UNL     1     -12.950  10.972  71.791  1.00  0.00    -0.544 C  
BRANCH  22  23
HETATM   23  C   UNL     1     -12.447  10.151  70.598  1.00  0.00    -0.372 C  
BRANCH  23  24
HETATM   24  C   UNL     1     -11.111   9.473  70.905  1.00  0.00    -0.336 C  
BRANCH  24  25
HETATM   25  N   UNL     1     -10.854   8.365  69.951  1.00  0.00    -0.233 NA 
HETATM   26  C   UNL     1     -11.219   7.084  70.270  1.00  0.00    -0.298 A  
HETATM   27  C   UNL     1     -11.041   6.058  69.338  1.00  0.00    -0.445 A  
HETATM   28  C   UNL     1     -11.879   6.666  71.564  1.00  0.00    -0.387 C  
HETATM   29  C   UNL     1     -10.474   6.295  68.095  1.00  0.00    -0.226 A  
HETATM   30  N   UNL     1     -10.469   5.241  67.177  1.00  0.00    -0.219 NA 
HETATM   31  C   UNL     1     -10.161   7.621  67.753  1.00  0.00    -0.259 A  
HETATM   32  H1  UNL     1     -10.052   5.415  66.263  1.00  0.00     0.000 HD 
HETATM   33  C   UNL     1     -10.321   8.657  68.713  1.00  0.00    -0.208 A  
HETATM   34  H2  UNL     1     -11.421   4.897  67.053  1.00  0.00     0.000 HD 
HETATM   35  C   UNL     1      -9.942   9.974  68.346  1.00  0.00    -0.178 A  
HETATM   36  C   UNL     1      -9.472  10.281  67.071  1.00  0.00    -0.191 A  
HETATM   37  C   UNL     1      -9.359   9.279  66.127  1.00  0.00    -0.270 A  
HETATM   38  C   UNL     1      -9.691   7.968  66.465  1.00  0.00    -0.297 A  
ENDBRANCH  24  25
ENDBRANCH  23  24
ENDBRANCH  22  23
ENDBRANCH  21  22
ENDBRANCH  20  21
ENDBRANCH  19  20
ENDBRANCH  18  19
ENDBRANCH  17  18
ENDBRANCH  16  17
ENDBRANCH  15  16
ENDBRANCH  14  15
TORSDOF 11
ENDMDL
MODEL        3
REMARK 921   NORMALIZED FREE ENERGY PREDICTED BY IDOCK:   -8.00 KCAL/MOL
REMARK 922        TOTAL FREE ENERGY PREDICTED BY IDOCK:  -14.49 KCAL/MOL
REMARK 923 INTER-LIGAND FREE ENERGY PREDICTED BY IDOCK:  -12.26 KCAL/MOL
REMARK 924 INTRA-LIGAND FREE ENERGY PREDICTED BY IDOCK:   -2.23 KCAL/MOL
REMARK 927      BINDING AFFINITY PREDICTED BY RF-SCORE:    0.00 PKD
ROOT
HETATM    1  C   UNL     1      -7.960  14.109  67.436  1.00  0.00    -0.201 C  
HETATM    2  C   UNL     1      -8.215  15.589  67.611  1.00  0.00    -0.154 A  
HETATM    3  C   UNL     1      -7.324  16.312  68.395  1.00  0.00    -0.158 A  
HETATM    4  C   UNL     1      -7.477  17.675  68.594  1.00  0.00    -0.273 A  
HETATM    5  N   UNL     1      -6.458  18.348  69.277  1.00  0.00    -0.261 NA 
HETATM    6  C   UNL     1      -8.509  18.340  67.905  1.00  0.00    -0.263 A  
HETATM    7  H2  UNL     1      -5.568  18.174  68.811  1.00  0.00     0.000 HD 
HETATM    8  C   UNL     1      -8.656  19.746  67.951  1.00  0.00    -0.360 A  
HETATM    9  H1  UNL     1      -6.571  19.351  69.424  1.00  0.00     0.000 HD 
HETATM   10  C   UNL     1      -9.687  20.404  67.283  1.00  0.00    -0.602 A  
HETATM   11  C   UNL     1     -10.609  19.675  66.556  1.00  0.00    -0.591 A  
HETATM   12  C   UNL     1     -10.488  18.284  66.484  1.00  0.00    -0.378 A  
HETATM   13  C   UNL     1      -9.429  17.591  67.125  1.00  0.00    -0.259 A  
HETATM   14  N   UNL     1      -9.255  16.230  66.996  1.00  0.00    -0.208 NA 
ENDROOT
BRANCH  14  15
HETATM   15  C   UNL     1     -10.168  15.445  66.120  1.00  0.00    -0.308 C  
BRANCH  15  16
HETATM   16  C   UNL     1     -11.304  14.833  66.937  1.00  0.00    -0.358 C  
BRANCH  16  17
HETATM   17  C   UNL     1     -12.314  14.115  66.046  1.00  0.00    -0.470 C  
BRANCH  17  18
HETATM   18  C   UNL     1     -11.999  14.257  64.554  1.00  0.00    -0.478 C  
BRANCH  18  19
HETATM   19  C   UNL     1     -11.886  12.905  63.857  1.00  0.00    -0.541 C  
BRANCH  19  20
HETATM   20  C   UNL     1     -10.492  12.283  63.969  1.00  0.00    -0.427 C  
BRANCH  20  21
HETATM   21  C   UNL     1     -10.450  11.003  64.815  1.00  0.00    -0.384 C  
BRANCH  21  22
HETATM   22  C   UNL     1      -9.883  11.233  66.219  1.00  0.00    -0.248 C  
BRANCH  22  23
HETATM   23  C   UNL     1     -10.882  10.909  67.335  1.00  0.00    -0.333 C  
BRANCH  23  24
HETATM   24  C   UNL     1     -10.281  11.159  68.719  1.00  0.00    -0.206 C  
BRANCH  24  25
HETATM   25  N   UNL     1     -11.192  10.664  69.783  1.00  0.00    -0.275 NA 
HETATM   26  C   UNL     1     -11.202   9.336  70.117  1.00  0.00    -0.208 A  
HETATM   27  C   UNL     1     -12.008   8.891  71.168  1.00  0.00    -0.344 A  
HETATM   28  C   UNL     1     -10.345   8.272  69.470  1.00  0.00    -0.219 C  
HETATM   29  C   UNL     1     -12.828   9.758  71.874  1.00  0.00    -0.427 A  
HETATM   30  N   UNL     1     -13.486   9.251  72.998  1.00  0.00    -0.814 NA 
HETATM   31  C   UNL     1     -12.763  11.127  71.567  1.00  0.00    -0.499 A  
HETATM   32  H1  UNL     1     -14.089   9.889  73.518  1.00  0.00     0.000 HD 
HETATM   33  C   UNL     1     -11.961  11.572  70.480  1.00  0.00    -0.344 A  
HETATM   34  H2  UNL     1     -12.801   8.842  73.634  1.00  0.00     0.000 HD 
HETATM   35  C   UNL     1     -11.965  12.956  70.168  1.00  0.00    -0.373 A  
HETATM   36  C   UNL     1     -12.686  13.882  70.919  1.00  0.00    -0.410 A  
HETATM   37  C   UNL     1     -13.430  13.451  72.001  1.00  0.00    -0.584 A  
HETATM   38  C   UNL     1     -13.474  12.094  72.315  1.00  0.00    -0.298 A  
ENDBRANCH  24  25
ENDBRANCH  23  24
ENDBRANCH  22  23
ENDBRANCH  21  22
ENDBRANCH  20  21
ENDBRANCH  19  20
ENDBRANCH  18  19
ENDBRANCH  17  18
ENDBRANCH  16  17
ENDBRANCH  15  16
ENDBRANCH  14  15
TORSDOF 11
ENDMDL
MODEL        4
REMARK 921   NORMALIZED FREE ENERGY PREDICTED BY IDOCK:   -7.78 KCAL/MOL
REMARK 922        TOTAL FREE ENERGY PREDICTED BY IDOCK:  -14.14 KCAL/MOL
REMARK 923 INTER-LIGAND FREE ENERGY PREDICTED BY IDOCK:  -11.99 KCAL/MOL
REMARK 924 INTRA-LIGAND FREE ENERGY PREDICTED BY IDOCK:   -2.15 KCAL/MOL
REMARK 927      BINDING AFFINITY PREDICTED BY RF-SCORE:    0.00 PKD
ROOT
HETATM    1  C   UNL     1     -10.292   7.884  69.754  1.00  0.00    -0.219 C  
HETATM    2  C   UNL     1     -11.179   8.975  70.309  1.00  0.00    -0.205 A  
HETATM    3  C   UNL     1     -12.077   8.633  71.312  1.00  0.00    -0.333 A  
HETATM    4  C   UNL     1     -12.917   9.576  71.885  1.00  0.00    -0.425 A  
HETATM    5  N   UNL     1     -13.686   9.177  72.983  1.00  0.00    -1.009 NA 
HETATM    6  C   UNL     1     -12.776  10.922  71.495  1.00  0.00    -0.533 A  
HETATM    7  H2  UNL     1     -13.073   8.791  73.701  1.00  0.00     0.000 HD 
HETATM    8  C   UNL     1     -13.501  11.963  72.119  1.00  0.00    -0.300 A  
HETATM    9  H1  UNL     1     -14.303   9.870  73.404  1.00  0.00     0.000 HD 
HETATM   10  C   UNL     1     -13.375  13.293  71.723  1.00  0.00    -0.479 A  
HETATM   11  C   UNL     1     -12.528  13.621  70.682  1.00  0.00    -0.417 A  
HETATM   12  C   UNL     1     -11.791  12.617  70.048  1.00  0.00    -0.358 A  
HETATM   13  C   UNL     1     -11.873  11.260  70.453  1.00  0.00    -0.350 A  
HETATM   14  N   UNL     1     -11.093  10.274  69.887  1.00  0.00    -0.283 NA 
ENDROOT
BRANCH  14  15
HETATM   15  C   UNL     1     -10.088  10.628  68.847  1.00  0.00    -0.202 C  
BRANCH  15  16
HETATM   16  C   UNL     1     -10.685  10.481  67.449  1.00  0.00    -0.334 C  
BRANCH  16  17
HETATM   17  C   UNL     1      -9.709  10.940  66.369  1.00  0.00    -0.240 C  
BRANCH  17  18
HETATM   18  C   UNL     1     -10.260  10.756  64.952  1.00  0.00    -0.388 C  
BRANCH  18  19
HETATM   19  C   UNL     1     -10.711  12.074  64.331  1.00  0.00    -0.369 C  
BRANCH  19  20
HETATM   20  C   UNL     1     -12.227  12.274  64.374  1.00  0.00    -0.488 C  
BRANCH  20  21
HETATM   21  C   UNL     1     -12.661  13.589  65.036  1.00  0.00    -0.399 C  
BRANCH  21  22
HETATM   22  C   UNL     1     -12.037  13.796  66.418  1.00  0.00    -0.483 C  
BRANCH  22  23
HETATM   23  C   UNL     1     -11.048  14.967  66.465  1.00  0.00    -0.329 C  
BRANCH  23  24
HETATM   24  C   UNL     1     -11.014  15.619  67.848  1.00  0.00    -0.319 C  
BRANCH  24  25
HETATM   25  N   UNL     1      -9.699  16.266  68.089  1.00  0.00    -0.225 NA 
HETATM   26  C   UNL     1      -8.620  15.512  68.466  1.00  0.00    -0.176 A  
HETATM   27  C   UNL     1      -7.369  16.116  68.620  1.00  0.00    -0.175 A  
HETATM   28  C   UNL     1      -8.639  14.015  68.681  1.00  0.00    -0.100 C  
HETATM   29  C   UNL     1      -7.191  17.477  68.428  1.00  0.00    -0.226 A  
HETATM   30  N   UNL     1      -5.882  17.967  68.462  1.00  0.00    -0.180 NA 
HETATM   31  C   UNL     1      -8.288  18.232  67.981  1.00  0.00    -0.272 A  
HETATM   32  H1  UNL     1      -5.750  18.969  68.321  1.00  0.00     0.000 HD 
HETATM   33  C   UNL     1      -9.564  17.618  67.849  1.00  0.00    -0.282 A  
HETATM   34  H2  UNL     1      -5.312  17.454  67.789  1.00  0.00     0.000 HD 
HETATM   35  C   UNL     1     -10.658  18.426  67.447  1.00  0.00    -0.445 A  
HETATM   36  C   UNL     1     -10.505  19.775  67.135  1.00  0.00    -0.592 A  
HETATM   37  C   UNL     1      -9.256  20.358  67.223  1.00  0.00    -0.525 A  
HETATM   38  C   UNL     1      -8.166  19.600  67.646  1.00  0.00    -0.335 A  
ENDBRANCH  24  25
ENDBRANCH  23  24
ENDBRANCH  22  23
ENDBRANCH  21  22
ENDBRANCH  20  21
ENDBRANCH  19  20
ENDBRANCH  18  19
ENDBRANCH  17  18
ENDBRANCH  16  17
ENDBRANCH  15  16
ENDBRANCH  14  15
TORSDOF 11
ENDMDL
MODEL        5
REMARK 921   NORMALIZED FREE ENERGY PREDICTED BY IDOCK:   -7.78 KCAL/MOL
REMARK 922        TOTAL FREE ENERGY PREDICTED BY IDOCK:  -14.13 KCAL/MOL
REMARK 923 INTER-LIGAND FREE ENERGY PREDICTED BY IDOCK:  -11.62 KCAL/MOL
REMARK 924 INTRA-LIGAND FREE ENERGY PREDICTED BY IDOCK:   -2.51 KCAL/MOL
REMARK 927      BINDING AFFINITY PREDICTED BY RF-SCORE:    0.00 PKD
ROOT
HETATM    1  C   UNL     1     -12.642  11.731  63.629  1.00  0.00    -0.458 C  
HETATM    2  C   UNL     1     -11.729  12.782  64.219  1.00  0.00    -0.381 A  
HETATM    3  C   UNL     1     -11.938  14.105  63.849  1.00  0.00    -0.278 A  
HETATM    4  C   UNL     1     -11.155  15.131  64.355  1.00  0.00    -0.107 A  
HETATM    5  N   UNL     1     -11.524  16.443  64.041  1.00  0.00    -1.573 NA 
HETATM    6  C   UNL     1     -10.194  14.816  65.335  1.00  0.00    -0.415 A  
HETATM    7  H2  UNL     1     -12.495  16.594  64.315  1.00  0.00     0.000 HD 
HETATM    8  C   UNL     1      -9.443  15.817  65.995  1.00  0.00    -0.392 A  
HETATM    9  H1  UNL     1     -10.948  17.197  64.414  1.00  0.00     0.000 HD 
HETATM   10  C   UNL     1      -8.480  15.507  66.954  1.00  0.00    -0.289 A  
HETATM   11  C   UNL     1      -8.230  14.186  67.273  1.00  0.00    -0.200 A  
HETATM   12  C   UNL     1      -8.960  13.173  66.644  1.00  0.00    -0.135 A  
HETATM   13  C   UNL     1      -9.971  13.460  65.691  1.00  0.00    -0.235 A  
HETATM   14  N   UNL     1     -10.749  12.475  65.123  1.00  0.00    -0.283 NA 
ENDROOT
BRANCH  14  15
HETATM   15  C   UNL     1     -10.576  11.058  65.544  1.00  0.00    -0.200 C  
BRANCH  15  16
HETATM   16  C   UNL     1      -9.670  10.312  64.566  1.00  0.00    -0.395 C  
BRANCH  16  17
HETATM   17  C   UNL     1      -8.721   9.361  65.291  1.00  0.00    -0.204 C  
BRANCH  17  18
HETATM   18  C   UNL     1      -9.048   9.215  66.780  1.00  0.00    -0.176 C  
BRANCH  18  19
HETATM   19  C   UNL     1      -9.780   7.912  67.086  1.00  0.00    -0.249 C  
BRANCH  19  20
HETATM   20  C   UNL     1     -10.336   7.853  68.511  1.00  0.00    -0.229 C  
BRANCH  20  21
HETATM   21  C   UNL     1      -9.420   8.496  69.561  1.00  0.00    -0.165 C  
BRANCH  21  22
HETATM   22  C   UNL     1     -10.153   9.497  70.460  1.00  0.00    -0.347 C  
BRANCH  22  23
HETATM   23  C   UNL     1     -10.484  10.815  69.751  1.00  0.00    -0.130 C  
BRANCH  23  24
HETATM   24  C   UNL     1     -11.991  10.982  69.549  1.00  0.00    -0.342 C  
BRANCH  24  25
HETATM   25  N   UNL     1     -12.531  12.016  70.468  1.00  0.00    -0.254 NA 
HETATM   26  C   UNL     1     -13.078  11.652  71.669  1.00  0.00    -0.351 A  
HETATM   27  C   UNL     1     -13.518  12.636  72.559  1.00  0.00    -0.281 A  
HETATM   28  C   UNL     1     -13.203  10.231  72.171  1.00  0.00    -0.443 C  
HETATM   29  C   UNL     1     -13.440  13.984  72.249  1.00  0.00    -0.501 A  
HETATM   30  N   UNL     1     -13.768  14.898  73.255  1.00  0.00    -0.519 NA 
HETATM   31  C   UNL     1     -12.820  14.351  71.043  1.00  0.00    -0.423 A  
HETATM   32  H1  UNL     1     -13.711  15.890  73.027  1.00  0.00     0.000 HD 
HETATM   33  C   UNL     1     -12.398  13.347  70.129  1.00  0.00    -0.252 A  
HETATM   34  H2  UNL     1     -13.199  14.709  74.081  1.00  0.00     0.000 HD 
HETATM   35  C   UNL     1     -11.825  13.760  68.899  1.00  0.00    -0.396 A  
HETATM   36  C   UNL     1     -11.624  15.103  68.589  1.00  0.00    -0.358 A  
HETATM   37  C   UNL     1     -11.997  16.075  69.498  1.00  0.00    -0.194 A  
HETATM   38  C   UNL     1     -12.593  15.705  70.703  1.00  0.00    -0.461 A  
ENDBRANCH  24  25
ENDBRANCH  23  24
ENDBRANCH  22  23
ENDBRANCH  21  22
ENDBRANCH  20  21
ENDBRANCH  19  20
ENDBRANCH  18  19
ENDBRANCH  17  18
ENDBRANCH  16  17
ENDBRANCH  15  16
ENDBRANCH  14  15
TORSDOF 11
ENDMDL
MODEL        6
REMARK 921   NORMALIZED FREE ENERGY PREDICTED BY IDOCK:   -7.75 KCAL/MOL
REMARK 922        TOTAL FREE ENERGY PREDICTED BY IDOCK:  -14.09 KCAL/MOL
REMARK 923 INTER-LIGAND FREE ENERGY PREDICTED BY IDOCK:  -12.32 KCAL/MOL
REMARK 924 INTRA-LIGAND FREE ENERGY PREDICTED BY IDOCK:   -1.77 KCAL/MOL
REMARK 927      BINDING AFFINITY PREDICTED BY RF-SCORE:    0.00 PKD
ROOT
HETATM    1  C   UNL     1      -8.328  13.934  67.342  1.00  0.00    -0.208 C  
HETATM    2  C   UNL     1      -8.483  15.426  67.534  1.00  0.00    -0.173 A  
HETATM    3  C   UNL     1      -7.569  16.072  68.357  1.00  0.00    -0.145 A  
HETATM    4  C   UNL     1      -7.631  17.440  68.574  1.00  0.00    -0.254 A  
HETATM    5  N   UNL     1      -6.590  18.029  69.300  1.00  0.00    -0.251 NA 
HETATM    6  C   UNL     1      -8.591  18.187  67.864  1.00  0.00    -0.259 A  
HETATM    7  H2  UNL     1      -5.700  17.798  68.858  1.00  0.00     0.000 HD 
HETATM    8  C   UNL     1      -8.639  19.599  67.929  1.00  0.00    -0.360 A  
HETATM    9  H1  UNL     1      -6.636  19.035  69.459  1.00  0.00     0.000 HD 
HETATM   10  C   UNL     1      -9.599  20.338  67.240  1.00  0.00    -0.581 A  
HETATM   11  C   UNL     1     -10.546  19.687  66.473  1.00  0.00    -0.591 A  
HETATM   12  C   UNL     1     -10.522  18.293  66.382  1.00  0.00    -0.387 A  
HETATM   13  C   UNL     1      -9.536  17.516  67.044  1.00  0.00    -0.268 A  
HETATM   14  N   UNL     1      -9.454  16.148  66.898  1.00  0.00    -0.223 NA 
ENDROOT
BRANCH  14  15
HETATM   15  C   UNL     1     -10.392  15.443  65.981  1.00  0.00    -0.324 C  
BRANCH  15  16
HETATM   16  C   UNL     1     -11.525  14.788  66.768  1.00  0.00    -0.343 C  
BRANCH  16  17
HETATM   17  C   UNL     1     -12.389  13.899  65.878  1.00  0.00    -0.517 C  
BRANCH  17  18
HETATM   18  C   UNL     1     -12.066  14.054  64.389  1.00  0.00    -0.486 C  
BRANCH  18  19
HETATM   19  C   UNL     1     -11.429  12.798  63.802  1.00  0.00    -0.533 C  
BRANCH  19  20
HETATM   20  C   UNL     1     -11.488  11.594  64.745  1.00  0.00    -0.225 C  
BRANCH  20  21
HETATM   21  C   UNL     1     -10.154  11.281  65.435  1.00  0.00    -0.314 C  
BRANCH  21  22
HETATM   22  C   UNL     1     -10.309  10.345  66.638  1.00  0.00    -0.292 C  
BRANCH  22  23
HETATM   23  C   UNL     1     -11.227  10.909  67.728  1.00  0.00    -0.384 C  
BRANCH  23  24
HETATM   24  C   UNL     1     -10.510  11.003  69.075  1.00  0.00    -0.216 C  
BRANCH  24  25
HETATM   25  N   UNL     1     -11.379  10.495  70.167  1.00  0.00    -0.302 NA 
HETATM   26  C   UNL     1     -12.214  11.349  70.836  1.00  0.00    -0.344 A  
HETATM   27  C   UNL     1     -13.081  10.851  71.812  1.00  0.00    -0.564 A  
HETATM   28  C   UNL     1     -12.338  12.832  70.565  1.00  0.00    -0.355 C  
HETATM   29  C   UNL     1     -13.102   9.507  72.148  1.00  0.00    -0.436 A  
HETATM   30  N   UNL     1     -14.099   9.078  73.029  1.00  0.00    -1.146 NA 
HETATM   31  C   UNL     1     -12.288   8.628  71.415  1.00  0.00    -0.344 A  
HETATM   32  H1  UNL     1     -14.115   8.089  73.277  1.00  0.00     0.000 HD 
HETATM   33  C   UNL     1     -11.389   9.143  70.440  1.00  0.00    -0.224 A  
HETATM   34  H2  UNL     1     -15.012   9.348  72.662  1.00  0.00     0.000 HD 
HETATM   35  C   UNL     1     -10.545   8.228  69.759  1.00  0.00    -0.228 A  
HETATM   36  C   UNL     1     -10.609   6.855  69.983  1.00  0.00    -0.254 A  
HETATM   37  C   UNL     1     -11.513   6.355  70.901  1.00  0.00    -0.406 A  
HETATM   38  C   UNL     1     -12.334   7.229  71.610  1.00  0.00    -0.387 A  
ENDBRANCH  24  25
ENDBRANCH  23  24
ENDBRANCH  22  23
ENDBRANCH  21  22
ENDBRANCH  20  21
ENDBRANCH  19  20
ENDBRANCH  18  19
ENDBRANCH  17  18
ENDBRANCH  16  17
ENDBRANCH  15  16
ENDBRANCH  14  15
TORSDOF 11
ENDMDL
MODEL        7
REMARK 921   NORMALIZED FREE ENERGY PREDICTED BY IDOCK:   -7.75 KCAL/MOL
REMARK 922        TOTAL FREE ENERGY PREDICTED BY IDOCK:  -14.09 KCAL/MOL
REMARK 923 INTER-LIGAND FREE ENERGY PREDICTED BY IDOCK:  -12.16 KCAL/MOL
REMARK 924 INTRA-LIGAND FREE ENERGY PREDICTED BY IDOCK:   -1.92 KCAL/MOL
REMARK 927      BINDING AFFINITY PREDICTED BY RF-SCORE:    0.00 PKD
ROOT
HETATM    1  C   UNL     1     -12.316  12.928  70.459  1.00  0.00    -0.362 C  
HETATM    2  C   UNL     1     -12.274  11.442  70.733  1.00  0.00    -0.376 A  
HETATM    3  C   UNL     1     -13.146  10.933  71.688  1.00  0.00    -0.538 A  
HETATM    4  C   UNL     1     -13.182   9.580  71.988  1.00  0.00    -0.452 A  
HETATM    5  N   UNL     1     -14.185   9.135  72.855  1.00  0.00    -1.090 NA 
HETATM    6  C   UNL     1     -12.376   8.706  71.233  1.00  0.00    -0.298 A  
HETATM    7  H2  UNL     1     -15.094   9.424  72.495  1.00  0.00     0.000 HD 
HETATM    8  C   UNL     1     -12.446   7.302  71.386  1.00  0.00    -0.418 A  
HETATM    9  H1  UNL     1     -14.211   8.140  73.076  1.00  0.00     0.000 HD 
HETATM   10  C   UNL     1     -11.638   6.437  70.652  1.00  0.00    -0.412 A  
HETATM   11  C   UNL     1     -10.726   6.950  69.749  1.00  0.00    -0.276 A  
HETATM   12  C   UNL     1     -10.637   8.333  69.568  1.00  0.00    -0.216 A  
HETATM   13  C   UNL     1     -11.471   9.236  70.276  1.00  0.00    -0.162 A  
HETATM   14  N   UNL     1     -11.446  10.595  70.048  1.00  0.00    -0.299 NA 
ENDROOT
BRANCH  14  15
HETATM   15  C   UNL     1     -10.556  11.154  68.994  1.00  0.00    -0.218 C  
BRANCH  15  16
HETATM   16  C   UNL     1     -11.234  11.089  67.627  1.00  0.00    -0.373 C  
BRANCH  16  17
HETATM   17  C   UNL     1     -10.300  10.519  66.562  1.00  0.00    -0.294 C  
BRANCH  17  18
HETATM   18  C   UNL     1     -10.329  11.318  65.256  1.00  0.00    -0.337 C  
BRANCH  18  19
HETATM   19  C   UNL     1     -11.745  11.723  64.857  1.00  0.00    -0.187 C  
BRANCH  19  20
HETATM   20  C   UNL     1     -11.781  12.791  63.761  1.00  0.00    -0.562 C  
BRANCH  20  21
HETATM   21  C   UNL     1     -12.057  14.207  64.284  1.00  0.00    -0.471 C  
BRANCH  21  22
HETATM   22  C   UNL     1     -12.534  14.223  65.739  1.00  0.00    -0.421 C  
BRANCH  22  23
HETATM   23  C   UNL     1     -11.476  14.752  66.716  1.00  0.00    -0.343 C  
BRANCH  23  24
HETATM   24  C   UNL     1     -10.266  15.326  65.978  1.00  0.00    -0.317 C  
BRANCH  24  25
HETATM   25  N   UNL     1      -9.412  16.112  66.904  1.00  0.00    -0.223 NA 
HETATM   26  C   UNL     1      -8.460  15.484  67.662  1.00  0.00    -0.166 A  
HETATM   27  C   UNL     1      -7.611  16.239  68.477  1.00  0.00    -0.179 A  
HETATM   28  C   UNL     1      -8.186  13.997  67.655  1.00  0.00    -0.185 C  
HETATM   29  C   UNL     1      -7.723  17.617  68.564  1.00  0.00    -0.281 A  
HETATM   30  N   UNL     1      -6.742  18.300  69.289  1.00  0.00    -0.249 NA 
HETATM   31  C   UNL     1      -8.660  18.258  67.736  1.00  0.00    -0.263 A  
HETATM   32  H1  UNL     1      -6.824  19.314  69.353  1.00  0.00     0.000 HD 
HETATM   33  C   UNL     1      -9.538  17.485  66.928  1.00  0.00    -0.278 A  
HETATM   34  H2  UNL     1      -5.822  18.059  68.920  1.00  0.00     0.000 HD 
HETATM   35  C   UNL     1     -10.506  18.168  66.148  1.00  0.00    -0.377 A  
HETATM   36  C   UNL     1     -10.584  19.559  66.116  1.00  0.00    -0.585 A  
HETATM   37  C   UNL     1      -9.701  20.308  66.870  1.00  0.00    -0.584 A  
HETATM   38  C   UNL     1      -8.759  19.668  67.673  1.00  0.00    -0.372 A  
ENDBRANCH  24  25
ENDBRANCH  23  24
ENDBRANCH  22  23
ENDBRANCH  21  22
ENDBRANCH  20  21
ENDBRANCH  19  20
ENDBRANCH  18  19
ENDBRANCH  17  18
ENDBRANCH  16  17
ENDBRANCH  15  16
ENDBRANCH  14  15
TORSDOF 11
ENDMDL
MODEL        8
REMARK 921   NORMALIZED FREE ENERGY PREDICTED BY IDOCK:   -7.58 KCAL/MOL
REMARK 922        TOTAL FREE ENERGY PREDICTED BY IDOCK:  -13.80 KCAL/MOL
REMARK 923 INTER-LIGAND FREE ENERGY PREDICTED BY IDOCK:  -12.60 KCAL/MOL
REMARK 924 INTRA-LIGAND FREE ENERGY PREDICTED BY IDOCK:   -1.20 KCAL/MOL
REMARK 927      BINDING AFFINITY PREDICTED BY RF-SCORE:    0.00 PKD
ROOT
HETATM    1  C   UNL     1     -10.116   9.579  67.282  1.00  0.00    -0.272 C  
HETATM    2  C   UNL     1     -10.370   8.512  68.323  1.00  0.00    -0.201 A  
HETATM    3  C   UNL     1     -10.180   7.187  67.953  1.00  0.00    -0.231 A  
HETATM    4  C   UNL     1     -10.376   6.148  68.851  1.00  0.00    -0.208 A  
HETATM    5  N   UNL     1     -10.025   4.859  68.437  1.00  0.00    -0.142 NA 
HETATM    6  C   UNL     1     -10.684   6.470  70.186  1.00  0.00    -0.305 A  
HETATM    7  H2  UNL     1      -9.053   4.858  68.128  1.00  0.00     0.000 HD 
HETATM    8  C   UNL     1     -10.774   5.480  71.193  1.00  0.00    -0.280 A  
HETATM    9  H1  UNL     1     -10.170   4.096  69.097  1.00  0.00     0.000 HD 
HETATM   10  C   UNL     1     -11.096   5.794  72.512  1.00  0.00    -0.327 A  
HETATM   11  C   UNL     1     -11.347   7.107  72.863  1.00  0.00    -0.257 A  
HETATM   12  C   UNL     1     -11.259   8.110  71.894  1.00  0.00    -0.351 A  
HETATM   13  C   UNL     1     -10.900   7.824  70.552  1.00  0.00    -0.241 A  
HETATM   14  N   UNL     1     -10.734   8.814  69.607  1.00  0.00    -0.228 NA 
ENDROOT
BRANCH  14  15
HETATM   15  C   UNL     1     -10.883  10.243  69.996  1.00  0.00    -0.307 C  
BRANCH  15  16
HETATM   16  C   UNL     1     -12.352  10.661  69.959  1.00  0.00    -0.341 C  
BRANCH  16  17
HETATM   17  C   UNL     1     -12.761  11.394  71.234  1.00  0.00    -0.498 C  
BRANCH  17  18
HETATM   18  C   UNL     1     -13.053  12.879  71.000  1.00  0.00    -0.077 C  
BRANCH  18  19
HETATM   19  C   UNL     1     -13.759  13.524  72.188  1.00  0.00    -0.654 C  
BRANCH  19  20
HETATM   20  C   UNL     1     -13.910  15.040  72.051  1.00  0.00    -0.578 C  
BRANCH  20  21
HETATM   21  C   UNL     1     -12.751  15.837  72.664  1.00  0.00    -0.546 C  
BRANCH  21  22
HETATM   22  C   UNL     1     -11.439  15.674  71.891  1.00  0.00    -0.501 C  
BRANCH  22  23
HETATM   23  C   UNL     1     -11.584  15.953  70.390  1.00  0.00    -0.387 C  
BRANCH  23  24
HETATM   24  C   UNL     1     -10.278  15.689  69.640  1.00  0.00    -0.291 C  
BRANCH  24  25
HETATM   25  N   UNL     1     -10.455  15.917  68.183  1.00  0.00    -0.262 NA 
HETATM   26  C   UNL     1     -10.767  14.872  67.356  1.00  0.00    -0.292 A  
HETATM   27  C   UNL     1     -11.003  15.107  65.999  1.00  0.00    -0.332 A  
HETATM   28  C   UNL     1     -10.947  13.438  67.799  1.00  0.00    -0.281 C  
HETATM   29  C   UNL     1     -10.904  16.377  65.453  1.00  0.00    -0.239 A  
HETATM   30  N   UNL     1     -11.298  16.540  64.121  1.00  0.00    -1.452 NA 
HETATM   31  C   UNL     1     -10.646  17.452  66.319  1.00  0.00    -0.194 A  
HETATM   32  H1  UNL     1     -11.226  17.474  63.719  1.00  0.00     0.000 HD 
HETATM   33  C   UNL     1     -10.381  17.205  67.695  1.00  0.00    -0.344 A  
HETATM   34  H2  UNL     1     -12.253  16.198  64.008  1.00  0.00     0.000 HD 
HETATM   35  C   UNL     1     -10.071  18.312  68.526  1.00  0.00    -0.419 A  
HETATM   36  C   UNL     1     -10.069  19.620  68.046  1.00  0.00    -0.555 A  
HETATM   37  C   UNL     1     -10.369  19.860  66.719  1.00  0.00    -0.599 A  
HETATM   38  C   UNL     1     -10.645  18.792  65.868  1.00  0.00    -0.405 A  
ENDBRANCH  24  25
ENDBRANCH  23  24
ENDBRANCH  22  23
ENDBRANCH  21  22
ENDBRANCH  20  21
ENDBRANCH  19  20
ENDBRANCH  18  19
ENDBRANCH  17  18
ENDBRANCH  16  17
ENDBRANCH  15  16
ENDBRANCH  14  15
TORSDOF 11
ENDMDL
MODEL        9
REMARK 921   NORMALIZED FREE ENERGY PREDICTED BY IDOCK:   -7.52 KCAL/MOL
REMARK 922        TOTAL FREE ENERGY PREDICTED BY IDOCK:  -13.71 KCAL/MOL
REMARK 923 INTER-LIGAND FREE ENERGY PREDICTED BY IDOCK:  -11.16 KCAL/MOL
REMARK 924 INTRA-LIGAND FREE ENERGY PREDICTED BY IDOCK:   -2.55 KCAL/MOL
REMARK 927      BINDING AFFINITY PREDICTED BY RF-SCORE:    0.00 PKD
ROOT
HETATM    1  C   UNL     1     -10.975  11.013  67.995  1.00  0.00    -0.312 C  
HETATM    2  C   UNL     1     -11.697  11.712  69.125  1.00  0.00    -0.326 A  
HETATM    3  C   UNL     1     -12.228  10.925  70.140  1.00  0.00    -0.423 A  
HETATM    4  C   UNL     1     -12.892  11.488  71.219  1.00  0.00    -0.360 A  
HETATM    5  N   UNL     1     -13.269  10.636  72.263  1.00  0.00    -0.574 NA 
HETATM    6  C   UNL     1     -12.937  12.891  71.318  1.00  0.00    -0.317 A  
HETATM    7  H2  UNL     1     -12.449  10.131  72.598  1.00  0.00     0.000 HD 
HETATM    8  C   UNL     1     -13.482  13.545  72.448  1.00  0.00    -0.685 A  
HETATM    9  H1  UNL     1     -13.758  11.050  73.056  1.00  0.00     0.000 HD 
HETATM   10  C   UNL     1     -13.542  14.935  72.541  1.00  0.00    -0.562 A  
HETATM   11  C   UNL     1     -13.070  15.713  71.501  1.00  0.00    -0.561 A  
HETATM   12  C   UNL     1     -12.520  15.098  70.373  1.00  0.00    -0.416 A  
HETATM   13  C   UNL     1     -12.413  13.688  70.266  1.00  0.00    -0.265 A  
HETATM   14  N   UNL     1     -11.802  13.074  69.194  1.00  0.00    -0.312 NA 
ENDROOT
BRANCH  14  15
HETATM   15  C   UNL     1     -11.181  13.900  68.122  1.00  0.00    -0.268 C  
BRANCH  15  16
HETATM   16  C   UNL     1     -12.149  14.083  66.955  1.00  0.00    -0.465 C  
BRANCH  16  17
HETATM   17  C   UNL     1     -11.553  13.576  65.644  1.00  0.00    -0.343 C  
BRANCH  17  18
HETATM   18  C   UNL     1     -12.471  12.590  64.915  1.00  0.00    -0.524 C  
BRANCH  18  19
HETATM   19  C   UNL     1     -11.881  12.125  63.587  1.00  0.00    -0.608 C  
BRANCH  19  20
HETATM   20  C   UNL     1     -10.354  12.213  63.542  1.00  0.00    -0.473 C  
BRANCH  20  21
HETATM   21  C   UNL     1      -9.662  10.865  63.295  1.00  0.00    -0.398 C  
BRANCH  21  22
HETATM   22  C   UNL     1      -9.561  10.006  64.558  1.00  0.00    -0.346 C  
BRANCH  22  23
HETATM   23  C   UNL     1      -8.341  10.345  65.423  1.00  0.00    -0.166 C  
BRANCH  23  24
HETATM   24  C   UNL     1      -7.705   9.087  66.015  1.00  0.00    -0.095 C  
BRANCH  24  25
HETATM   25  N   UNL     1      -8.068   8.940  67.448  1.00  0.00    -0.108 NA 
HETATM   26  C   UNL     1      -7.461   9.721  68.395  1.00  0.00    -0.083 A  
HETATM   27  C   UNL     1      -7.860   9.628  69.731  1.00  0.00    -0.144 A  
HETATM   28  C   UNL     1      -6.400  10.760  68.113  1.00  0.00    -0.057 C  
HETATM   29  C   UNL     1      -8.844   8.740  70.136  1.00  0.00    -0.154 A  
HETATM   30  N   UNL     1      -9.278   8.820  71.463  1.00  0.00    -0.243 NA 
HETATM   31  C   UNL     1      -9.504   7.989  69.150  1.00  0.00    -0.155 A  
HETATM   32  H1  UNL     1     -10.002   8.166  71.761  1.00  0.00     0.000 HD 
HETATM   33  C   UNL     1      -9.078   8.068  67.796  1.00  0.00    -0.131 A  
HETATM   34  H2  UNL     1      -9.582   9.773  71.662  1.00  0.00     0.000 HD 
HETATM   35  C   UNL     1      -9.735   7.253  66.839  1.00  0.00    -0.252 A  
HETATM   36  C   UNL     1     -10.804   6.427  67.179  1.00  0.00    -0.467 A  
HETATM   37  C   UNL     1     -11.243   6.385  68.489  1.00  0.00    -0.321 A  
HETATM   38  C   UNL     1     -10.598   7.149  69.460  1.00  0.00    -0.247 A  
ENDBRANCH  24  25
ENDBRANCH  23  24
ENDBRANCH  22  23
ENDBRANCH  21  22
ENDBRANCH  20  21
ENDBRANCH  19  20
ENDBRANCH  18  19
ENDBRANCH  17  18
ENDBRANCH  16  17
ENDBRANCH  15  16
ENDBRANCH  14  15
TORSDOF 11
ENDMDL
MODEL       10
REMARK 921   NORMALIZED FREE ENERGY PREDICTED BY IDOCK:   -7.50 KCAL/MOL
REMARK 922        TOTAL FREE ENERGY PREDICTED BY IDOCK:  -13.67 KCAL/MOL
REMARK 923 INTER-LIGAND FREE ENERGY PREDICTED BY IDOCK:  -10.80 KCAL/MOL
REMARK 924 INTRA-LIGAND FREE ENERGY PREDICTED BY IDOCK:   -2.87 KCAL/MOL
REMARK 927      BINDING AFFINITY PREDICTED BY RF-SCORE:    0.00 PKD
ROOT
HETATM    1  C   UNL     1     -12.016  13.884  68.571  1.00  0.00    -0.394 C  
HETATM    2  C   UNL     1     -11.707  13.316  67.205  1.00  0.00    -0.377 A  
HETATM    3  C   UNL     1     -12.242  13.961  66.098  1.00  0.00    -0.498 A  
HETATM    4  C   UNL     1     -11.995  13.512  64.809  1.00  0.00    -0.390 A  
HETATM    5  N   UNL     1     -12.455  14.302  63.750  1.00  0.00    -1.040 NA 
HETATM    6  C   UNL     1     -11.105  12.436  64.635  1.00  0.00    -0.348 A  
HETATM    7  H2  UNL     1     -12.090  15.249  63.852  1.00  0.00     0.000 HD 
HETATM    8  C   UNL     1     -10.699  12.000  63.352  1.00  0.00    -0.475 A  
HETATM    9  H1  UNL     1     -12.273  13.972  62.802  1.00  0.00     0.000 HD 
HETATM   10  C   UNL     1      -9.830  10.923  63.178  1.00  0.00    -0.392 A  
HETATM   11  C   UNL     1      -9.350  10.244  64.281  1.00  0.00    -0.328 A  
HETATM   12  C   UNL     1      -9.726  10.654  65.563  1.00  0.00    -0.291 A  
HETATM   13  C   UNL     1     -10.580  11.767  65.772  1.00  0.00    -0.268 A  
HETATM   14  N   UNL     1     -10.894  12.229  67.032  1.00  0.00    -0.241 NA 
ENDROOT
BRANCH  14  15
HETATM   15  C   UNL     1     -10.289  11.583  68.230  1.00  0.00    -0.197 C  
BRANCH  15  16
HETATM   16  C   UNL     1     -11.113  10.373  68.663  1.00  0.00    -0.313 C  
BRANCH  16  17
HETATM   17  C   UNL     1     -11.450  10.424  70.151  1.00  0.00    -0.396 C  
BRANCH  17  18
HETATM   18  C   UNL     1     -12.896  10.852  70.420  1.00  0.00    -0.257 C  
BRANCH  18  19
HETATM   19  C   UNL     1     -13.250  10.791  71.903  1.00  0.00    -0.524 C  
BRANCH  19  20
HETATM   20  C   UNL     1     -13.362   9.361  72.438  1.00  0.00    -0.503 C  
BRANCH  20  21
HETATM   21  C   UNL     1     -14.103   8.403  71.496  1.00  0.00    -0.440 C  
BRANCH  21  22
HETATM   22  C   UNL     1     -13.464   7.013  71.433  1.00  0.00    -0.323 C  
BRANCH  22  23
HETATM   23  C   UNL     1     -12.111   6.937  72.152  1.00  0.00    -0.278 C  
BRANCH  23  24
HETATM   24  C   UNL     1     -11.146   5.993  71.435  1.00  0.00    -0.274 C  
BRANCH  24  25
HETATM   25  N   UNL     1     -10.019   6.752  70.836  1.00  0.00    -0.186 NA 
HETATM   26  C   UNL     1      -9.001   7.213  71.628  1.00  0.00    -0.133 A  
HETATM   27  C   UNL     1      -7.909   7.863  71.047  1.00  0.00    -0.089 A  
HETATM   28  C   UNL     1      -8.913   7.025  73.125  1.00  0.00    -0.154 C  
HETATM   29  C   UNL     1      -7.835   8.082  69.680  1.00  0.00    -0.104 A  
HETATM   30  N   UNL     1      -6.643   8.608  69.175  1.00  0.00    -0.046 NA 
HETATM   31  C   UNL     1      -8.852   7.551  68.869  1.00  0.00    -0.135 A  
HETATM   32  H1  UNL     1      -6.588   8.769  68.169  1.00  0.00     0.000 HD 
HETATM   33  C   UNL     1      -9.974   6.913  69.466  1.00  0.00    -0.164 A  
HETATM   34  H2  UNL     1      -5.864   8.016  69.463  1.00  0.00     0.000 HD 
HETATM   35  C   UNL     1     -11.005   6.438  68.616  1.00  0.00    -0.404 A  
HETATM   36  C   UNL     1     -10.924   6.536  67.229  1.00  0.00    -0.475 A  
HETATM   37  C   UNL     1      -9.812   7.118  66.650  1.00  0.00    -0.237 A  
HETATM   38  C   UNL     1      -8.796   7.625  67.458  1.00  0.00    -0.124 A  
ENDBRANCH  24  25
ENDBRANCH  23  24
ENDBRANCH  22  23
ENDBRANCH  21  22
ENDBRANCH  20  21
ENDBRANCH  19  20
ENDBRANCH  18  19
ENDBRANCH  17  18
ENDBRANCH  16  17
ENDBRANCH  15  16
ENDBRANCH  14  15
TORSDOF 11
ENDMDL
MODEL       11
REMARK 921   NORMALIZED FREE ENERGY PREDICTED BY IDOCK:   -7.47 KCAL/MOL
REMARK 922        TOTAL FREE ENERGY PREDICTED BY IDOCK:  -13.62 KCAL/MOL
REMARK 923 INTER-LIGAND FREE ENERGY PREDICTED BY IDOCK:  -11.11 KCAL/MOL
REMARK 924 INTRA-LIGAND FREE ENERGY PREDICTED BY IDOCK:   -2.51 KCAL/MOL
REMARK 927      BINDING AFFINITY PREDICTED BY RF-SCORE:    0.00 PKD
ROOT
HETATM    1  C   UNL     1     -12.899   6.983  71.438  1.00  0.00    -0.407 C  
HETATM    2  C   UNL     1     -11.537   7.021  70.782  1.00  0.00    -0.338 A  
HETATM    3  C   UNL     1     -11.191   5.968  69.945  1.00  0.00    -0.438 A  
HETATM    4  C   UNL     1      -9.967   5.934  69.293  1.00  0.00    -0.174 A  
HETATM    5  N   UNL     1      -9.759   4.912  68.361  1.00  0.00    -0.149 NA 
HETATM    6  C   UNL     1      -9.110   7.043  69.423  1.00  0.00    -0.145 A  
HETATM    7  H2  UNL     1     -10.508   4.929  67.669  1.00  0.00     0.000 HD 
HETATM    8  C   UNL     1      -7.903   7.145  68.692  1.00  0.00    -0.122 A  
HETATM    9  H1  UNL     1      -8.859   4.887  67.882  1.00  0.00     0.000 HD 
HETATM   10  C   UNL     1      -7.045   8.235  68.831  1.00  0.00    -0.066 A  
HETATM   11  C   UNL     1      -7.362   9.250  69.714  1.00  0.00    -0.072 A  
HETATM   12  C   UNL     1      -8.551   9.183  70.445  1.00  0.00    -0.236 A  
HETATM   13  C   UNL     1      -9.461   8.104  70.298  1.00  0.00    -0.170 A  
HETATM   14  N   UNL     1     -10.671   8.066  70.956  1.00  0.00    -0.218 NA 
ENDROOT
BRANCH  14  15
HETATM   15  C   UNL     1     -11.084   9.208  71.817  1.00  0.00    -0.367 C  
BRANCH  15  16
HETATM   16  C   UNL     1     -11.907  10.216  71.018  1.00  0.00    -0.475 C  
BRANCH  16  17
HETATM   17  C   UNL     1     -13.103  10.726  71.817  1.00  0.00    -0.573 C  
BRANCH  17  18
HETATM   18  C   UNL     1     -13.175  12.255  71.871  1.00  0.00    -0.481 C  
BRANCH  18  19
HETATM   19  C   UNL     1     -12.453  12.909  70.697  1.00  0.00    -0.333 C  
BRANCH  19  20
HETATM   20  C   UNL     1     -12.393  14.435  70.800  1.00  0.00    -0.417 C  
BRANCH  20  21
HETATM   21  C   UNL     1     -11.217  15.062  70.039  1.00  0.00    -0.301 C  
BRANCH  21  22
HETATM   22  C   UNL     1     -11.624  15.642  68.682  1.00  0.00    -0.391 C  
BRANCH  22  23
HETATM   23  C   UNL     1     -11.151  14.792  67.496  1.00  0.00    -0.323 C  
BRANCH  23  24
HETATM   24  C   UNL     1     -12.270  13.897  66.963  1.00  0.00    -0.355 C  
BRANCH  24  25
HETATM   25  N   UNL     1     -11.789  13.080  65.820  1.00  0.00    -0.382 NA 
HETATM   26  C   UNL     1     -11.841  13.581  64.546  1.00  0.00    -0.405 A  
HETATM   27  C   UNL     1     -11.319  12.836  63.486  1.00  0.00    -0.480 A  
HETATM   28  C   UNL     1     -12.377  14.944  64.171  1.00  0.00    -0.212 C  
HETATM   29  C   UNL     1     -10.768  11.579  63.681  1.00  0.00    -0.424 A  
HETATM   30  N   UNL     1     -10.142  10.973  62.588  1.00  0.00    -0.693 NA 
HETATM   31  C   UNL     1     -10.661  11.101  64.997  1.00  0.00    -0.340 A  
HETATM   32  H1  UNL     1      -9.736  10.049  62.731  1.00  0.00     0.000 HD 
HETATM   33  C   UNL     1     -11.216  11.851  66.070  1.00  0.00    -0.324 A  
HETATM   34  H2  UNL     1      -9.428  11.601  62.217  1.00  0.00     0.000 HD 
HETATM   35  C   UNL     1     -11.135  11.308  67.378  1.00  0.00    -0.358 A  
HETATM   36  C   UNL     1     -10.491  10.100  67.640  1.00  0.00    -0.293 A  
HETATM   37  C   UNL     1      -9.915   9.396  66.600  1.00  0.00    -0.326 A  
HETATM   38  C   UNL     1     -10.006   9.885  65.298  1.00  0.00    -0.320 A  
ENDBRANCH  24  25
ENDBRANCH  23  24
ENDBRANCH  22  23
ENDBRANCH  21  22
ENDBRANCH  20  21
ENDBRANCH  19  20
ENDBRANCH  18  19
ENDBRANCH  17  18
ENDBRANCH  16  17
ENDBRANCH  15  16
ENDBRANCH  14  15
TORSDOF 11
ENDMDL
MODEL       12
REMARK 921   NORMALIZED FREE ENERGY PREDICTED BY IDOCK:   -7.46 KCAL/MOL
REMARK 922        TOTAL FREE ENERGY PREDICTED BY IDOCK:  -13.61 KCAL/MOL
REMARK 923 INTER-LIGAND FREE ENERGY PREDICTED BY IDOCK:  -10.98 KCAL/MOL
REMARK 924 INTRA-LIGAND FREE ENERGY PREDICTED BY IDOCK:   -2.63 KCAL/MOL
REMARK 927      BINDING AFFINITY PREDICTED BY RF-SCORE:    0.00 PKD
ROOT
HETATM    1  C   UNL     1      -9.113   9.740  63.286  1.00  0.00    -0.267 C  
HETATM    2  C   UNL     1      -9.878  10.824  64.010  1.00  0.00    -0.332 A  
HETATM    3  C   UNL     1     -10.655  11.688  63.249  1.00  0.00    -0.420 A  
HETATM    4  C   UNL     1     -11.400  12.700  63.836  1.00  0.00    -0.441 A  
HETATM    5  N   UNL     1     -12.262  13.431  63.012  1.00  0.00    -0.941 NA 
HETATM    6  C   UNL     1     -11.429  12.779  65.241  1.00  0.00    -0.360 A  
HETATM    7  H2  UNL     1     -12.890  12.789  62.528  1.00  0.00     0.000 HD 
HETATM    8  C   UNL     1     -12.261  13.698  65.922  1.00  0.00    -0.502 A  
HETATM    9  H1  UNL     1     -12.809  14.175  63.444  1.00  0.00     0.000 HD 
HETATM   10  C   UNL     1     -12.279  13.789  67.313  1.00  0.00    -0.315 A  
HETATM   11  C   UNL     1     -11.456  12.971  68.065  1.00  0.00    -0.348 A  
HETATM   12  C   UNL     1     -10.627  12.047  67.423  1.00  0.00    -0.253 A  
HETATM   13  C   UNL     1     -10.614  11.908  66.011  1.00  0.00    -0.265 A  
HETATM   14  N   UNL     1      -9.859  10.948  65.372  1.00  0.00    -0.239 NA 
ENDROOT
BRANCH  14  15
HETATM   15  C   UNL     1      -9.059   9.980  66.173  1.00  0.00    -0.156 C  
BRANCH  15  16
HETATM   16  C   UNL     1      -9.745   8.615  66.209  1.00  0.00    -0.322 C  
BRANCH  16  17
HETATM   17  C   UNL     1     -10.508   8.403  67.513  1.00  0.00    -0.328 C  
BRANCH  17  18
HETATM   18  C   UNL     1     -10.756   6.924  67.824  1.00  0.00    -0.321 C  
BRANCH  18  19
HETATM   19  C   UNL     1      -9.878   6.418  68.964  1.00  0.00    -0.155 C  
BRANCH  19  20
HETATM   20  C   UNL     1     -10.616   5.480  69.923  1.00  0.00    -0.387 C  
BRANCH  20  21
HETATM   21  C   UNL     1      -9.697   4.496  70.658  1.00  0.00    -0.282 C  
BRANCH  21  22
HETATM   22  C   UNL     1     -10.042   4.351  72.143  1.00  0.00    -0.262 C  
BRANCH  22  23
HETATM   23  C   UNL     1     -11.015   5.424  72.644  1.00  0.00    -0.321 C  
BRANCH  23  24
HETATM   24  C   UNL     1     -10.294   6.506  73.448  1.00  0.00    -0.260 C  
BRANCH  24  25
HETATM   25  N   UNL     1      -9.806   7.586  72.553  1.00  0.00    -0.165 NA 
HETATM   26  C   UNL     1      -8.488   7.630  72.183  1.00  0.00    -0.114 A  
HETATM   27  C   UNL     1      -8.051   8.605  71.283  1.00  0.00    -0.182 A  
HETATM   28  C   UNL     1      -7.429   6.647  72.628  1.00  0.00    -0.092 C  
HETATM   29  C   UNL     1      -8.916   9.558  70.767  1.00  0.00    -0.087 A  
HETATM   30  N   UNL     1      -8.424  10.400  69.765  1.00  0.00    -0.375 NA 
HETATM   31  C   UNL     1     -10.277   9.467  71.102  1.00  0.00    -0.361 A  
HETATM   32  H1  UNL     1      -9.059  11.101  69.385  1.00  0.00     0.000 HD 
HETATM   33  C   UNL     1     -10.712   8.489  72.037  1.00  0.00    -0.340 A  
HETATM   34  H2  UNL     1      -8.051   9.835  69.002  1.00  0.00     0.000 HD 
HETATM   35  C   UNL     1     -12.086   8.465  72.390  1.00  0.00    -0.443 A  
HETATM   36  C   UNL     1     -13.014   9.330  71.813  1.00  0.00    -0.471 A  
HETATM   37  C   UNL     1     -12.593  10.250  70.872  1.00  0.00    -0.465 A  
HETATM   38  C   UNL     1     -11.245  10.322  70.528  1.00  0.00    -0.408 A  
ENDBRANCH  24  25
ENDBRANCH  23  24
ENDBRANCH  22  23
ENDBRANCH  21  22
ENDBRANCH  20  21
ENDBRANCH  19  20
ENDBRANCH  18  19
ENDBRANCH  17  18
ENDBRANCH  16  17
ENDBRANCH  15  16
ENDBRANCH  14  15
TORSDOF 11
ENDMDL
MODEL       13
REMARK 921   NORMALIZED FREE ENERGY PREDICTED BY IDOCK:   -7.45 KCAL/MOL
REMARK 922        TOTAL FREE ENERGY PREDICTED BY IDOCK:  -13.59 KCAL/MOL
REMARK 923 INTER-LIGAND FREE ENERGY PREDICTED BY IDOCK:  -11.80 KCAL/MOL
REMARK 924 INTRA-LIGAND FREE ENERGY PREDICTED BY IDOCK:   -1.79 KCAL/MOL
REMARK 927      BINDING AFFINITY PREDICTED BY RF-SCORE:    0.00 PKD
ROOT
HETATM    1  C   UNL     1     -11.653   7.308  72.449  1.00  0.00    -0.307 C  
HETATM    2  C   UNL     1     -11.070   7.236  71.056  1.00  0.00    -0.258 A  
HETATM    3  C   UNL     1     -10.850   5.979  70.508  1.00  0.00    -0.382 A  
HETATM    4  C   UNL     1     -10.332   5.825  69.231  1.00  0.00    -0.257 A  
HETATM    5  N   UNL     1     -10.277   4.530  68.706  1.00  0.00     0.043 NA 
HETATM    6  C   UNL     1     -10.118   6.979  68.454  1.00  0.00    -0.176 A  
HETATM    7  H2  UNL     1     -11.206   4.111  68.745  1.00  0.00     0.000 HD 
HETATM    8  C   UNL     1      -9.714   6.906  67.100  1.00  0.00    -0.197 A  
HETATM    9  H1  UNL     1      -9.896   4.417  67.767  1.00  0.00     0.000 HD 
HETATM   10  C   UNL     1      -9.485   8.048  66.334  1.00  0.00    -0.268 A  
HETATM   11  C   UNL     1      -9.643   9.298  66.901  1.00  0.00    -0.229 A  
HETATM   12  C   UNL     1     -10.048   9.405  68.235  1.00  0.00    -0.210 A  
HETATM   13  C   UNL     1     -10.322   8.261  69.028  1.00  0.00    -0.221 A  
HETATM   14  N   UNL     1     -10.797   8.356  70.318  1.00  0.00    -0.239 NA 
ENDROOT
BRANCH  14  15
HETATM   15  C   UNL     1     -11.088   9.694  70.905  1.00  0.00    -0.352 C  
BRANCH  15  16
HETATM   16  C   UNL     1     -12.517  10.125  70.582  1.00  0.00    -0.372 C  
BRANCH  16  17
HETATM   17  C   UNL     1     -13.115  10.975  71.699  1.00  0.00    -0.543 C  
BRANCH  17  18
HETATM   18  C   UNL     1     -13.060  12.476  71.401  1.00  0.00    -0.303 C  
BRANCH  18  19
HETATM   19  C   UNL     1     -13.801  13.301  72.448  1.00  0.00    -0.630 C  
BRANCH  19  20
HETATM   20  C   UNL     1     -13.942  14.776  72.065  1.00  0.00    -0.582 C  
BRANCH  20  21
HETATM   21  C   UNL     1     -12.830  15.672  72.625  1.00  0.00    -0.541 C  
BRANCH  21  22
HETATM   22  C   UNL     1     -11.538  15.602  71.806  1.00  0.00    -0.531 C  
BRANCH  22  23
HETATM   23  C   UNL     1     -11.681  16.196  70.400  1.00  0.00    -0.237 C  
BRANCH  23  24
HETATM   24  C   UNL     1     -10.432  15.947  69.554  1.00  0.00    -0.281 C  
BRANCH  24  25
HETATM   25  N   UNL     1     -10.752  16.046  68.107  1.00  0.00    -0.299 NA 
HETATM   26  C   UNL     1     -10.518  17.213  67.429  1.00  0.00    -0.334 A  
HETATM   27  C   UNL     1     -10.753  17.275  66.053  1.00  0.00    -0.110 A  
HETATM   28  C   UNL     1      -9.950  18.473  68.040  1.00  0.00    -0.385 C  
HETATM   29  C   UNL     1     -11.246  16.188  65.349  1.00  0.00    -0.006 A  
HETATM   30  N   UNL     1     -11.312  16.297  63.957  1.00  0.00    -1.475 NA 
HETATM   31  C   UNL     1     -11.423  14.978  66.039  1.00  0.00    -0.221 A  
HETATM   32  H1  UNL     1     -11.675  15.497  63.438  1.00  0.00     0.000 HD 
HETATM   33  C   UNL     1     -11.207  14.925  67.444  1.00  0.00    -0.338 A  
HETATM   34  H2  UNL     1     -10.391  16.543  63.594  1.00  0.00     0.000 HD 
HETATM   35  C   UNL     1     -11.448  13.698  68.113  1.00  0.00    -0.348 A  
HETATM   36  C   UNL     1     -11.838  12.547  67.431  1.00  0.00    -0.381 A  
HETATM   37  C   UNL     1     -12.005  12.591  66.060  1.00  0.00    -0.456 A  
HETATM   38  C   UNL     1     -11.808  13.790  65.376  1.00  0.00    -0.371 A  
ENDBRANCH  24  25
ENDBRANCH  23  24
ENDBRANCH  22  23
ENDBRANCH  21  22
ENDBRANCH  20  21
ENDBRANCH  19  20
ENDBRANCH  18  19
ENDBRANCH  17  18
ENDBRANCH  16  17
ENDBRANCH  15  16
ENDBRANCH  14  15
TORSDOF 11
ENDMDL
MODEL       14
REMARK 921   NORMALIZED FREE ENERGY PREDICTED BY IDOCK:   -7.40 KCAL/MOL
REMARK 922        TOTAL FREE ENERGY PREDICTED BY IDOCK:  -13.52 KCAL/MOL
REMARK 923 INTER-LIGAND FREE ENERGY PREDICTED BY IDOCK:  -10.96 KCAL/MOL
REMARK 924 INTRA-LIGAND FREE ENERGY PREDICTED BY IDOCK:   -2.56 KCAL/MOL
REMARK 927      BINDING AFFINITY PREDICTED BY RF-SCORE:    0.00 PKD
ROOT
HETATM    1  C   UNL     1     -11.573  15.903  68.668  1.00  0.00    -0.383 C  
HETATM    2  C   UNL     1     -11.934  14.737  69.560  1.00  0.00    -0.311 A  
HETATM    3  C   UNL     1     -12.680  15.000  70.701  1.00  0.00    -0.428 A  
HETATM    4  C   UNL     1     -13.065  13.985  71.565  1.00  0.00    -0.363 A  
HETATM    5  N   UNL     1     -13.933  14.318  72.610  1.00  0.00    -0.610 NA 
HETATM    6  C   UNL     1     -12.763  12.656  71.210  1.00  0.00    -0.354 A  
HETATM    7  H2  UNL     1     -14.765  14.768  72.226  1.00  0.00     0.000 HD 
HETATM    8  C   UNL     1     -13.229  11.556  71.967  1.00  0.00    -0.443 A  
HETATM    9  H1  UNL     1     -14.216  13.572  73.244  1.00  0.00     0.000 HD 
HETATM   10  C   UNL     1     -12.917  10.240  71.628  1.00  0.00    -0.570 A  
HETATM   11  C   UNL     1     -12.120   9.986  70.527  1.00  0.00    -0.338 A  
HETATM   12  C   UNL     1     -11.650  11.051  69.754  1.00  0.00    -0.401 A  
HETATM   13  C   UNL     1     -11.980  12.397  70.055  1.00  0.00    -0.299 A  
HETATM   14  N   UNL     1     -11.587  13.449  69.256  1.00  0.00    -0.292 NA 
ENDROOT
BRANCH  14  15
HETATM   15  C   UNL     1     -10.830  13.184  68.001  1.00  0.00    -0.242 C  
BRANCH  15  16
HETATM   16  C   UNL     1     -11.742  12.568  66.942  1.00  0.00    -0.447 C  
BRANCH  16  17
HETATM   17  C   UNL     1     -11.684  13.344  65.629  1.00  0.00    -0.374 C  
BRANCH  17  18
HETATM   18  C   UNL     1     -12.684  12.829  64.588  1.00  0.00    -0.439 C  
BRANCH  18  19
HETATM   19  C   UNL     1     -12.000  12.061  63.461  1.00  0.00    -0.605 C  
BRANCH  19  20
HETATM   20  C   UNL     1     -10.473  12.091  63.550  1.00  0.00    -0.505 C  
BRANCH  20  21
HETATM   21  C   UNL     1      -9.842  10.724  63.847  1.00  0.00    -0.389 C  
BRANCH  21  22
HETATM   22  C   UNL     1      -9.095  10.689  65.184  1.00  0.00    -0.227 C  
BRANCH  22  23
HETATM   23  C   UNL     1      -9.634   9.626  66.149  1.00  0.00    -0.295 C  
BRANCH  23  24
HETATM   24  C   UNL     1      -8.516   8.723  66.672  1.00  0.00    -0.108 C  
BRANCH  24  25
HETATM   25  N   UNL     1      -8.502   8.713  68.157  1.00  0.00    -0.130 NA 
HETATM   26  C   UNL     1      -7.762   9.637  68.844  1.00  0.00    -0.077 A  
HETATM   27  C   UNL     1      -7.811   9.668  70.240  1.00  0.00    -0.193 A  
HETATM   28  C   UNL     1      -6.907  10.711  68.209  1.00  0.00    -0.068 C  
HETATM   29  C   UNL     1      -8.575   8.763  70.961  1.00  0.00    -0.192 A  
HETATM   30  N   UNL     1      -8.677   8.961  72.341  1.00  0.00    -0.358 NA 
HETATM   31  C   UNL     1      -9.380   7.860  70.247  1.00  0.00    -0.159 A  
HETATM   32  H1  UNL     1      -9.239   8.295  72.872  1.00  0.00     0.000 HD 
HETATM   33  C   UNL     1      -9.307   7.816  68.828  1.00  0.00    -0.146 A  
HETATM   34  H2  UNL     1      -9.015   9.906  72.522  1.00  0.00     0.000 HD 
HETATM   35  C   UNL     1     -10.096   6.853  68.147  1.00  0.00    -0.187 A  
HETATM   36  C   UNL     1     -10.964   5.997  68.821  1.00  0.00    -0.384 A  
HETATM   37  C   UNL     1     -11.063   6.072  70.197  1.00  0.00    -0.432 A  
HETATM   38  C   UNL     1     -10.278   6.984  70.899  1.00  0.00    -0.210 A  
ENDBRANCH  24  25
ENDBRANCH  23  24
ENDBRANCH  22  23
ENDBRANCH  21  22
ENDBRANCH  20  21
ENDBRANCH  19  20
ENDBRANCH  18  19
ENDBRANCH  17  18
ENDBRANCH  16  17
ENDBRANCH  15  16
ENDBRANCH  14  15
TORSDOF 11
ENDMDL
MODEL       15
REMARK 921   NORMALIZED FREE ENERGY PREDICTED BY IDOCK:   -7.37 KCAL/MOL
REMARK 922        TOTAL FREE ENERGY PREDICTED BY IDOCK:  -13.46 KCAL/MOL
REMARK 923 INTER-LIGAND FREE ENERGY PREDICTED BY IDOCK:  -11.71 KCAL/MOL
REMARK 924 INTRA-LIGAND FREE ENERGY PREDICTED BY IDOCK:   -1.74 KCAL/MOL
REMARK 927      BINDING AFFINITY PREDICTED BY RF-SCORE:    0.00 PKD
ROOT
HETATM    1  C   UNL     1     -10.729   6.839  70.425  1.00  0.00    -0.281 C  
HETATM    2  C   UNL     1     -11.462   8.121  70.751  1.00  0.00    -0.261 A  
HETATM    3  C   UNL     1     -12.457   8.069  71.718  1.00  0.00    -0.355 A  
HETATM    4  C   UNL     1     -13.168   9.202  72.087  1.00  0.00    -0.458 A  
HETATM    5  N   UNL     1     -14.050   9.090  73.166  1.00  0.00    -1.223 NA 
HETATM    6  C   UNL     1     -12.793  10.438  71.525  1.00  0.00    -0.569 A  
HETATM    7  H2  UNL     1     -13.547   8.730  73.977  1.00  0.00     0.000 HD 
HETATM    8  C   UNL     1     -13.378  11.657  71.940  1.00  0.00    -0.403 A  
HETATM    9  H1  UNL     1     -14.572   9.923  73.437  1.00  0.00     0.000 HD 
HETATM   10  C   UNL     1     -13.021  12.879  71.374  1.00  0.00    -0.362 A  
HETATM   11  C   UNL     1     -12.075  12.918  70.367  1.00  0.00    -0.385 A  
HETATM   12  C   UNL     1     -11.473  11.732  69.938  1.00  0.00    -0.285 A  
HETATM   13  C   UNL     1     -11.791  10.478  70.521  1.00  0.00    -0.347 A  
HETATM   14  N   UNL     1     -11.147   9.314  70.161  1.00  0.00    -0.240 NA 
ENDROOT
BRANCH  14  15
HETATM   15  C   UNL     1     -10.042   9.355  69.163  1.00  0.00    -0.195 C  
BRANCH  15  16
HETATM   16  C   UNL     1      -8.708   9.644  69.849  1.00  0.00    -0.236 C  
BRANCH  16  17
HETATM   17  C   UNL     1      -7.641   8.628  69.453  1.00  0.00    -0.092 C  
BRANCH  17  18
HETATM   18  C   UNL     1      -6.735   9.126  68.323  1.00  0.00    -0.060 C  
BRANCH  18  19
HETATM   19  C   UNL     1      -7.021   8.420  67.001  1.00  0.00    -0.074 C  
BRANCH  19  20
HETATM   20  C   UNL     1      -6.639   9.254  65.776  1.00  0.00    -0.069 C  
BRANCH  20  21
HETATM   21  C   UNL     1      -7.818   9.560  64.842  1.00  0.00    -0.119 C  
BRANCH  21  22
HETATM   22  C   UNL     1      -9.176   9.467  65.544  1.00  0.00    -0.292 C  
BRANCH  22  23
HETATM   23  C   UNL     1     -10.236  10.390  64.933  1.00  0.00    -0.330 C  
BRANCH  23  24
HETATM   24  C   UNL     1     -10.820  11.343  65.976  1.00  0.00    -0.249 C  
BRANCH  24  25
HETATM   25  N   UNL     1     -10.988  12.705  65.406  1.00  0.00    -0.280 NA 
HETATM   26  C   UNL     1     -11.943  12.939  64.453  1.00  0.00    -0.395 A  
HETATM   27  C   UNL     1     -12.144  14.237  63.975  1.00  0.00    -0.350 A  
HETATM   28  C   UNL     1     -12.881  11.896  63.889  1.00  0.00    -0.346 C  
HETATM   29  C   UNL     1     -11.378  15.302  64.420  1.00  0.00    -0.215 A  
HETATM   30  N   UNL     1     -11.746  16.583  63.996  1.00  0.00    -1.442 NA 
HETATM   31  C   UNL     1     -10.445  15.065  65.443  1.00  0.00    -0.406 A  
HETATM   32  H1  UNL     1     -11.183  17.367  64.324  1.00  0.00     0.000 HD 
HETATM   33  C   UNL     1     -10.226  13.739  65.908  1.00  0.00    -0.313 A  
HETATM   34  H2  UNL     1     -12.724  16.749  64.232  1.00  0.00     0.000 HD 
HETATM   35  C   UNL     1      -9.237  13.534  66.904  1.00  0.00    -0.254 A  
HETATM   36  C   UNL     1      -8.519  14.589  67.463  1.00  0.00    -0.201 A  
HETATM   37  C   UNL     1      -8.765  15.881  67.038  1.00  0.00    -0.248 A  
HETATM   38  C   UNL     1      -9.707  16.114  66.038  1.00  0.00    -0.376 A  
ENDBRANCH  24  25
ENDBRANCH  23  24
ENDBRANCH  22  23
ENDBRANCH  21  22
ENDBRANCH  20  21
ENDBRANCH  19  20
ENDBRANCH  18  19
ENDBRANCH  17  18
ENDBRANCH  16  17
ENDBRANCH  15  16
ENDBRANCH  14  15
TORSDOF 11
ENDMDL
MODEL       16
REMARK 921   NORMALIZED FREE ENERGY PREDICTED BY IDOCK:   -7.36 KCAL/MOL
REMARK 922        TOTAL FREE ENERGY PREDICTED BY IDOCK:  -13.44 KCAL/MOL
REMARK 923 INTER-LIGAND FREE ENERGY PREDICTED BY IDOCK:  -10.48 KCAL/MOL
REMARK 924 INTRA-LIGAND FREE ENERGY PREDICTED BY IDOCK:   -2.96 KCAL/MOL
REMARK 927      BINDING AFFINITY PREDICTED BY RF-SCORE:    0.00 PKD
ROOT
HETATM    1  C   UNL     1     -10.595   5.014  66.339  1.00  0.00    -0.317 C  
HETATM    2  C   UNL     1      -9.641   6.104  66.772  1.00  0.00    -0.148 A  
HETATM    3  C   UNL     1      -8.606   6.441  65.909  1.00  0.00    -0.151 A  
HETATM    4  C   UNL     1      -7.696   7.440  66.224  1.00  0.00    -0.093 A  
HETATM    5  N   UNL     1      -6.776   7.811  65.238  1.00  0.00    -0.047 NA 
HETATM    6  C   UNL     1      -7.897   8.178  67.406  1.00  0.00    -0.106 A  
HETATM    7  H2  UNL     1      -7.278   8.069  64.389  1.00  0.00     0.000 HD 
HETATM    8  C   UNL     1      -7.093   9.293  67.737  1.00  0.00    -0.082 A  
HETATM    9  H1  UNL     1      -6.107   8.545  65.470  1.00  0.00     0.000 HD 
HETATM   10  C   UNL     1      -7.280  10.016  68.915  1.00  0.00    -0.077 A  
HETATM   11  C   UNL     1      -8.269   9.637  69.802  1.00  0.00    -0.168 A  
HETATM   12  C   UNL     1      -9.086   8.543  69.501  1.00  0.00    -0.150 A  
HETATM   13  C   UNL     1      -8.942   7.812  68.294  1.00  0.00    -0.131 A  
HETATM   14  N   UNL     1      -9.791   6.782  67.951  1.00  0.00    -0.127 NA 
ENDROOT
BRANCH  14  15
HETATM   15  C   UNL     1     -10.937   6.438  68.838  1.00  0.00    -0.346 C  
BRANCH  15  16
HETATM   16  C   UNL     1     -10.481   5.530  69.979  1.00  0.00    -0.373 C  
BRANCH  16  17
HETATM   17  C   UNL     1     -11.057   5.978  71.319  1.00  0.00    -0.337 C  
BRANCH  17  18
HETATM   18  C   UNL     1     -12.086   7.105  71.179  1.00  0.00    -0.397 C  
BRANCH  18  19
HETATM   19  C   UNL     1     -11.740   8.314  72.043  1.00  0.00    -0.407 C  
BRANCH  19  20
HETATM   20  C   UNL     1     -12.943   9.217  72.326  1.00  0.00    -0.492 C  
BRANCH  20  21
HETATM   21  C   UNL     1     -13.130  10.341  71.299  1.00  0.00    -0.492 C  
BRANCH  21  22
HETATM   22  C   UNL     1     -11.816  10.780  70.648  1.00  0.00    -0.460 C  
BRANCH  22  23
HETATM   23  C   UNL     1     -11.908  10.901  69.122  1.00  0.00    -0.389 C  
BRANCH  23  24
HETATM   24  C   UNL     1     -10.818  11.816  68.563  1.00  0.00    -0.224 C  
BRANCH  24  25
HETATM   25  N   UNL     1     -11.272  12.464  67.306  1.00  0.00    -0.284 NA 
HETATM   26  C   UNL     1     -11.935  13.661  67.350  1.00  0.00    -0.376 A  
HETATM   27  C   UNL     1     -12.295  14.300  66.161  1.00  0.00    -0.411 A  
HETATM   28  C   UNL     1     -12.276  14.419  68.613  1.00  0.00    -0.185 C  
HETATM   29  C   UNL     1     -12.022  13.740  64.923  1.00  0.00    -0.390 A  
HETATM   30  N   UNL     1     -12.287  14.516  63.791  1.00  0.00    -1.087 NA 
HETATM   31  C   UNL     1     -11.286  12.544  64.886  1.00  0.00    -0.351 A  
HETATM   32  H1  UNL     1     -12.086  14.104  62.879  1.00  0.00     0.000 HD 
HETATM   33  C   UNL     1     -10.945  11.884  66.098  1.00  0.00    -0.308 A  
HETATM   34  H2  UNL     1     -11.799  15.408  63.871  1.00  0.00     0.000 HD 
HETATM   35  C   UNL     1     -10.249  10.651  66.016  1.00  0.00    -0.309 A  
HETATM   36  C   UNL     1      -9.854  10.103  64.798  1.00  0.00    -0.382 A  
HETATM   37  C   UNL     1     -10.151  10.769  63.623  1.00  0.00    -0.375 A  
HETATM   38  C   UNL     1     -10.862  11.966  63.667  1.00  0.00    -0.510 A  
ENDBRANCH  24  25
ENDBRANCH  23  24
ENDBRANCH  22  23
ENDBRANCH  21  22
ENDBRANCH  20  21
ENDBRANCH  19  20
ENDBRANCH  18  19
ENDBRANCH  17  18
ENDBRANCH  16  17
ENDBRANCH  15  16
ENDBRANCH  14  15
TORSDOF 11
ENDMDL
MODEL       17
REMARK 921   NORMALIZED FREE ENERGY PREDICTED BY IDOCK:   -7.35 KCAL/MOL
REMARK 922        TOTAL FREE ENERGY PREDICTED BY IDOCK:  -13.43 KCAL/MOL
REMARK 923 INTER-LIGAND FREE ENERGY PREDICTED BY IDOCK:  -10.77 KCAL/MOL
REMARK 924 INTRA-LIGAND FREE ENERGY PREDICTED BY IDOCK:   -2.65 KCAL/MOL
REMARK 927      BINDING AFFINITY PREDICTED BY RF-SCORE:    0.00 PKD
ROOT
HETATM    1  C   UNL     1     -10.881   6.571  67.823  1.00  0.00    -0.395 C  
HETATM    2  C   UNL     1     -10.732   6.839  69.303  1.00  0.00    -0.253 A  
HETATM    3  C   UNL     1     -11.785   6.481  70.136  1.00  0.00    -0.419 A  
HETATM    4  C   UNL     1     -11.723   6.679  71.507  1.00  0.00    -0.321 A  
HETATM    5  N   UNL     1     -12.764   6.161  72.284  1.00  0.00    -0.415 NA 
HETATM    6  C   UNL     1     -10.523   7.167  72.058  1.00  0.00    -0.232 A  
HETATM    7  H2  UNL     1     -12.864   5.164  72.092  1.00  0.00     0.000 HD 
HETATM    8  C   UNL     1     -10.331   7.277  73.455  1.00  0.00    -0.412 A  
HETATM    9  H1  UNL     1     -12.719   6.307  73.292  1.00  0.00     0.000 HD 
HETATM   10  C   UNL     1      -9.150   7.776  74.002  1.00  0.00    -0.226 A  
HETATM   11  C   UNL     1      -8.129   8.190  73.169  1.00  0.00    -0.237 A  
HETATM   12  C   UNL     1      -8.284   8.089  71.783  1.00  0.00    -0.151 A  
HETATM   13  C   UNL     1      -9.460   7.552  71.199  1.00  0.00    -0.158 A  
HETATM   14  N   UNL     1      -9.593   7.374  69.839  1.00  0.00    -0.164 NA 
ENDROOT
BRANCH  14  15
HETATM   15  C   UNL     1      -8.457   7.703  68.934  1.00  0.00    -0.129 C  
BRANCH  15  16
HETATM   16  C   UNL     1      -8.421   9.201  68.636  1.00  0.00    -0.127 C  
BRANCH  16  17
HETATM   17  C   UNL     1      -8.122   9.476  67.165  1.00  0.00    -0.106 C  
BRANCH  17  18
HETATM   18  C   UNL     1      -9.061  10.519  66.551  1.00  0.00    -0.175 C  
BRANCH  18  19
HETATM   19  C   UNL     1      -9.975   9.919  65.487  1.00  0.00    -0.363 C  
BRANCH  19  20
HETATM   20  C   UNL     1     -10.448  10.941  64.452  1.00  0.00    -0.403 C  
BRANCH  20  21
HETATM   21  C   UNL     1     -10.624  12.358  65.014  1.00  0.00    -0.330 C  
BRANCH  21  22
HETATM   22  C   UNL     1     -12.007  12.589  65.630  1.00  0.00    -0.492 C  
BRANCH  22  23
HETATM   23  C   UNL     1     -12.037  13.753  66.628  1.00  0.00    -0.471 C  
BRANCH  23  24
HETATM   24  C   UNL     1     -10.970  13.592  67.711  1.00  0.00    -0.259 C  
BRANCH  24  25
HETATM   25  N   UNL     1     -11.572  13.728  69.063  1.00  0.00    -0.290 NA 
HETATM   26  C   UNL     1     -11.885  14.966  69.556  1.00  0.00    -0.325 A  
HETATM   27  C   UNL     1     -12.517  15.080  70.797  1.00  0.00    -0.411 A  
HETATM   28  C   UNL     1     -11.658  16.272  68.829  1.00  0.00    -0.223 C  
HETATM   29  C   UNL     1     -12.816  13.967  71.566  1.00  0.00    -0.361 A  
HETATM   30  N   UNL     1     -13.576  14.166  72.722  1.00  0.00    -0.663 NA 
HETATM   31  C   UNL     1     -12.549  12.698  71.025  1.00  0.00    -0.354 A  
HETATM   32  H1  UNL     1     -13.796  13.347  73.288  1.00  0.00     0.000 HD 
HETATM   33  C   UNL     1     -11.883  12.587  69.774  1.00  0.00    -0.310 A  
HETATM   34  H2  UNL     1     -14.441  14.649  72.478  1.00  0.00     0.000 HD 
HETATM   35  C   UNL     1     -11.583  11.289  69.288  1.00  0.00    -0.390 A  
HETATM   36  C   UNL     1     -11.963  10.136  69.972  1.00  0.00    -0.210 A  
HETATM   37  C   UNL     1     -12.648  10.248  71.167  1.00  0.00    -0.501 A  
HETATM   38  C   UNL     1     -12.929  11.509  71.689  1.00  0.00    -0.499 A  
ENDBRANCH  24  25
ENDBRANCH  23  24
ENDBRANCH  22  23
ENDBRANCH  21  22
ENDBRANCH  20  21
ENDBRANCH  19  20
ENDBRANCH  18  19
ENDBRANCH  17  18
ENDBRANCH  16  17
ENDBRANCH  15  16
ENDBRANCH  14  15
TORSDOF 11
ENDMDL
MODEL       18
REMARK 921   NORMALIZED FREE ENERGY PREDICTED BY IDOCK:   -7.34 KCAL/MOL
REMARK 922        TOTAL FREE ENERGY PREDICTED BY IDOCK:  -13.41 KCAL/MOL
REMARK 923 INTER-LIGAND FREE ENERGY PREDICTED BY IDOCK:  -11.26 KCAL/MOL
REMARK 924 INTRA-LIGAND FREE ENERGY PREDICTED BY IDOCK:   -2.15 KCAL/MOL
REMARK 927      BINDING AFFINITY PREDICTED BY RF-SCORE:    0.00 PKD
ROOT
HETATM    1  C   UNL     1     -12.010  11.863  69.826  1.00  0.00    -0.377 C  
HETATM    2  C   UNL     1     -11.951  10.538  70.550  1.00  0.00    -0.342 A  
HETATM    3  C   UNL     1     -12.909  10.289  71.525  1.00  0.00    -0.557 A  
HETATM    4  C   UNL     1     -12.934   9.092  72.226  1.00  0.00    -0.420 A  
HETATM    5  N   UNL     1     -14.015   8.868  73.086  1.00  0.00    -1.215 NA 
HETATM    6  C   UNL     1     -12.020   8.085  71.863  1.00  0.00    -0.359 A  
HETATM    7  H2  UNL     1     -14.886   8.973  72.566  1.00  0.00     0.000 HD 
HETATM    8  C   UNL     1     -12.061   6.793  72.437  1.00  0.00    -0.120 A  
HETATM    9  H1  UNL     1     -14.033   7.989  73.601  1.00  0.00     0.000 HD 
HETATM   10  C   UNL     1     -11.147   5.800  72.091  1.00  0.00    -0.327 A  
HETATM   11  C   UNL     1     -10.156   6.072  71.167  1.00  0.00    -0.241 A  
HETATM   12  C   UNL     1     -10.092   7.337  70.575  1.00  0.00    -0.195 A  
HETATM   13  C   UNL     1     -11.030   8.356  70.882  1.00  0.00    -0.243 A  
HETATM   14  N   UNL     1     -11.024   9.579  70.247  1.00  0.00    -0.252 NA 
ENDROOT
BRANCH  14  15
HETATM   15  C   UNL     1     -10.038   9.847  69.163  1.00  0.00    -0.200 C  
BRANCH  15  16
HETATM   16  C   UNL     1     -10.543   9.302  67.829  1.00  0.00    -0.307 C  
BRANCH  16  17
HETATM   17  C   UNL     1      -9.393   8.847  66.935  1.00  0.00    -0.213 C  
BRANCH  17  18
HETATM   18  C   UNL     1      -8.162   8.399  67.730  1.00  0.00    -0.126 C  
BRANCH  18  19
HETATM   19  C   UNL     1      -6.858   8.847  67.077  1.00  0.00    -0.073 C  
BRANCH  19  20
HETATM   20  C   UNL     1      -5.940   9.617  68.029  1.00  0.00    -0.043 C  
BRANCH  20  21
HETATM   21  C   UNL     1      -5.861  11.120  67.734  1.00  0.00    -0.047 C  
BRANCH  21  22
HETATM   22  C   UNL     1      -7.025  11.910  68.340  1.00  0.00    -0.078 C  
BRANCH  22  23
HETATM   23  C   UNL     1      -7.748  12.798  67.320  1.00  0.00    -0.129 C  
BRANCH  23  24
HETATM   24  C   UNL     1      -9.095  13.285  67.854  1.00  0.00    -0.203 C  
BRANCH  24  25
HETATM   25  N   UNL     1      -9.782  14.134  66.847  1.00  0.00    -0.260 NA 
HETATM   26  C   UNL     1      -9.606  15.492  66.858  1.00  0.00    -0.228 A  
HETATM   27  C   UNL     1     -10.196  16.277  65.863  1.00  0.00    -0.384 A  
HETATM   28  C   UNL     1      -8.750  16.249  67.847  1.00  0.00    -0.175 C  
HETATM   29  C   UNL     1     -10.987  15.719  64.870  1.00  0.00    -0.427 A  
HETATM   30  N   UNL     1     -11.414  16.559  63.838  1.00  0.00    -1.599 NA 
HETATM   31  C   UNL     1     -11.109  14.320  64.830  1.00  0.00    -0.396 A  
HETATM   32  H1  UNL     1     -11.995  16.149  63.107  1.00  0.00     0.000 HD 
HETATM   33  C   UNL     1     -10.528  13.528  65.858  1.00  0.00    -0.292 A  
HETATM   34  H2  UNL     1     -10.604  17.009  63.411  1.00  0.00     0.000 HD 
HETATM   35  C   UNL     1     -10.721  12.124  65.811  1.00  0.00    -0.303 A  
HETATM   36  C   UNL     1     -11.413  11.506  64.772  1.00  0.00    -0.142 A  
HETATM   37  C   UNL     1     -11.940  12.275  63.752  1.00  0.00    -0.609 A  
HETATM   38  C   UNL     1     -11.796  13.661  63.785  1.00  0.00    -0.373 A  
ENDBRANCH  24  25
ENDBRANCH  23  24
ENDBRANCH  22  23
ENDBRANCH  21  22
ENDBRANCH  20  21
ENDBRANCH  19  20
ENDBRANCH  18  19
ENDBRANCH  17  18
ENDBRANCH  16  17
ENDBRANCH  15  16
ENDBRANCH  14  15
TORSDOF 11
ENDMDL
MODEL       19
REMARK 921   NORMALIZED FREE ENERGY PREDICTED BY IDOCK:   -7.28 KCAL/MOL
REMARK 922        TOTAL FREE ENERGY PREDICTED BY IDOCK:  -13.31 KCAL/MOL
REMARK 923 INTER-LIGAND FREE ENERGY PREDICTED BY IDOCK:  -11.20 KCAL/MOL
REMARK 924 INTRA-LIGAND FREE ENERGY PREDICTED BY IDOCK:   -2.11 KCAL/MOL
REMARK 927      BINDING AFFINITY PREDICTED BY RF-SCORE:    0.00 PKD
ROOT
HETATM    1  C   UNL     1     -10.968   6.080  70.923  1.00  0.00    -0.355 C  
HETATM    2  C   UNL     1     -11.580   7.456  71.057  1.00  0.00    -0.288 A  
HETATM    3  C   UNL     1     -12.555   7.640  72.030  1.00  0.00    -0.282 A  
HETATM    4  C   UNL     1     -13.157   8.874  72.229  1.00  0.00    -0.436 A  
HETATM    5  N   UNL     1     -14.022   9.004  73.320  1.00  0.00    -1.199 NA 
HETATM    6  C   UNL     1     -12.690   9.972  71.483  1.00  0.00    -0.532 A  
HETATM    7  H2  UNL     1     -13.534   8.727  74.172  1.00  0.00     0.000 HD 
HETATM    8  C   UNL     1     -13.158  11.287  71.713  1.00  0.00    -0.527 A  
HETATM    9  H1  UNL     1     -14.464   9.911  73.466  1.00  0.00     0.000 HD 
HETATM   10  C   UNL     1     -12.709  12.374  70.964  1.00  0.00    -0.315 A  
HETATM   11  C   UNL     1     -11.786  12.177  69.954  1.00  0.00    -0.392 A  
HETATM   12  C   UNL     1     -11.298  10.891  69.706  1.00  0.00    -0.374 A  
HETATM   13  C   UNL     1     -11.710   9.772  70.475  1.00  0.00    -0.268 A  
HETATM   14  N   UNL     1     -11.178   8.514  70.290  1.00  0.00    -0.223 NA 
ENDROOT
BRANCH  14  15
HETATM   15  C   UNL     1     -10.095   8.307  69.288  1.00  0.00    -0.199 C  
BRANCH  15  16
HETATM   16  C   UNL     1      -8.775   7.980  69.982  1.00  0.00    -0.135 C  
BRANCH  16  17
HETATM   17  C   UNL     1      -8.093   9.236  70.516  1.00  0.00    -0.198 C  
BRANCH  17  18
HETATM   18  C   UNL     1      -7.915  10.318  69.446  1.00  0.00    -0.162 C  
BRANCH  18  19
HETATM   19  C   UNL     1      -6.602  10.166  68.684  1.00  0.00    -0.053 C  
BRANCH  19  20
HETATM   20  C   UNL     1      -5.938  11.505  68.354  1.00  0.00    -0.045 C  
BRANCH  20  21
HETATM   21  C   UNL     1      -6.714  12.726  68.867  1.00  0.00    -0.097 C  
BRANCH  21  22
HETATM   22  C   UNL     1      -6.502  13.974  68.006  1.00  0.00    -0.152 C  
BRANCH  22  23
HETATM   23  C   UNL     1      -7.812  14.583  67.491  1.00  0.00    -0.212 C  
BRANCH  23  24
HETATM   24  C   UNL     1      -9.014  13.705  67.838  1.00  0.00    -0.195 C  
BRANCH  24  25
HETATM   25  N   UNL     1      -9.969  13.653  66.701  1.00  0.00    -0.275 NA 
HETATM   26  C   UNL     1     -10.816  14.703  66.465  1.00  0.00    -0.315 A  
HETATM   27  C   UNL     1     -11.660  14.677  65.351  1.00  0.00    -0.345 A  
HETATM   28  C   UNL     1     -10.886  15.965  67.294  1.00  0.00    -0.279 C  
HETATM   29  C   UNL     1     -11.686  13.597  64.483  1.00  0.00    -0.400 A  
HETATM   30  N   UNL     1     -12.453  13.723  63.321  1.00  0.00    -1.092 NA 
HETATM   31  C   UNL     1     -10.770  12.554  64.697  1.00  0.00    -0.341 A  
HETATM   32  H1  UNL     1     -12.472  12.929  62.681  1.00  0.00     0.000 HD 
HETATM   33  C   UNL     1      -9.931  12.572  65.844  1.00  0.00    -0.257 A  
HETATM   34  H2  UNL     1     -12.160  14.558  62.812  1.00  0.00     0.000 HD 
HETATM   35  C   UNL     1      -9.058  11.473  66.053  1.00  0.00    -0.206 A  
HETATM   36  C   UNL     1      -8.969  10.418  65.149  1.00  0.00    -0.217 A  
HETATM   37  C   UNL     1      -9.755  10.425  64.012  1.00  0.00    -0.373 A  
HETATM   38  C   UNL     1     -10.647  11.473  63.794  1.00  0.00    -0.465 A  
ENDBRANCH  24  25
ENDBRANCH  23  24
ENDBRANCH  22  23
ENDBRANCH  21  22
ENDBRANCH  20  21
ENDBRANCH  19  20
ENDBRANCH  18  19
ENDBRANCH  17  18
ENDBRANCH  16  17
ENDBRANCH  15  16
ENDBRANCH  14  15
TORSDOF 11
ENDMDL
MODEL       20
REMARK 921   NORMALIZED FREE ENERGY PREDICTED BY IDOCK:   -7.26 KCAL/MOL
REMARK 922        TOTAL FREE ENERGY PREDICTED BY IDOCK:  -13.28 KCAL/MOL
REMARK 923 INTER-LIGAND FREE ENERGY PREDICTED BY IDOCK:  -10.86 KCAL/MOL
REMARK 924 INTRA-LIGAND FREE ENERGY PREDICTED BY IDOCK:   -2.42 KCAL/MOL
REMARK 927      BINDING AFFINITY PREDICTED BY RF-SCORE:    0.00 PKD
ROOT
HETATM    1  C   UNL     1     -12.822   9.763  71.409  1.00  0.00    -0.489 C  
HETATM    2  C   UNL     1     -12.822  11.257  71.176  1.00  0.00    -0.352 A  
HETATM    3  C   UNL     1     -13.298  12.072  72.195  1.00  0.00    -0.396 A  
HETATM    4  C   UNL     1     -13.319  13.453  72.067  1.00  0.00    -0.479 A  
HETATM    5  N   UNL     1     -13.680  14.202  73.192  1.00  0.00    -0.348 NA 
HETATM    6  C   UNL     1     -12.754  14.026  70.912  1.00  0.00    -0.420 A  
HETATM    7  H2  UNL     1     -13.079  13.945  73.975  1.00  0.00     0.000 HD 
HETATM    8  C   UNL     1     -12.619  15.426  70.760  1.00  0.00    -0.497 A  
HETATM    9  H1  UNL     1     -13.695  15.217  73.098  1.00  0.00     0.000 HD 
HETATM   10  C   UNL     1     -12.075  15.995  69.610  1.00  0.00    -0.114 A  
HETATM   11  C   UNL     1     -11.661  15.183  68.571  1.00  0.00    -0.347 A  
HETATM   12  C   UNL     1     -11.775  13.795  68.693  1.00  0.00    -0.391 A  
HETATM   13  C   UNL     1     -12.291  13.186  69.865  1.00  0.00    -0.135 A  
HETATM   14  N   UNL     1     -12.335  11.818  70.027  1.00  0.00    -0.204 NA 
ENDROOT
BRANCH  14  15
HETATM   15  C   UNL     1     -11.782  10.928  68.969  1.00  0.00    -0.320 C  
BRANCH  15  16
HETATM   16  C   UNL     1     -10.366  10.481  69.326  1.00  0.00    -0.248 C  
BRANCH  16  17
HETATM   17  C   UNL     1     -10.140   9.009  68.996  1.00  0.00    -0.204 C  
BRANCH  17  18
HETATM   18  C   UNL     1      -8.704   8.551  69.267  1.00  0.00    -0.133 C  
BRANCH  18  19
HETATM   19  C   UNL     1      -7.996   8.087  67.998  1.00  0.00    -0.128 C  
BRANCH  19  20
HETATM   20  C   UNL     1      -7.600   9.239  67.072  1.00  0.00    -0.091 C  
BRANCH  20  21
HETATM   21  C   UNL     1      -8.070   9.059  65.622  1.00  0.00    -0.115 C  
BRANCH  21  22
HETATM   22  C   UNL     1      -8.365  10.388  64.920  1.00  0.00    -0.165 C  
BRANCH  22  23
HETATM   23  C   UNL     1      -9.839  10.553  64.532  1.00  0.00    -0.401 C  
BRANCH  23  24
HETATM   24  C   UNL     1     -10.615  11.338  65.590  1.00  0.00    -0.244 C  
BRANCH  24  25
HETATM   25  N   UNL     1     -10.803  12.748  65.163  1.00  0.00    -0.284 NA 
HETATM   26  C   UNL     1     -11.817  13.077  64.304  1.00  0.00    -0.396 A  
HETATM   27  C   UNL     1     -12.033  14.415  63.964  1.00  0.00    -0.288 A  
HETATM   28  C   UNL     1     -12.805  12.098  63.711  1.00  0.00    -0.451 C  
HETATM   29  C   UNL     1     -11.225  15.429  64.454  1.00  0.00    -0.202 A  
HETATM   30  N   UNL     1     -11.604  16.746  64.177  1.00  0.00    -1.302 NA 
HETATM   31  C   UNL     1     -10.228  15.090  65.383  1.00  0.00    -0.411 A  
HETATM   32  H1  UNL     1     -11.010  17.493  64.537  1.00  0.00     0.000 HD 
HETATM   33  C   UNL     1      -9.995  13.725  65.706  1.00  0.00    -0.275 A  
HETATM   34  H2  UNL     1     -12.562  16.896  64.494  1.00  0.00     0.000 HD 
HETATM   35  C   UNL     1      -8.943  13.421  66.608  1.00  0.00    -0.135 A  
HETATM   36  C   UNL     1      -8.176  14.414  67.212  1.00  0.00    -0.223 A  
HETATM   37  C   UNL     1      -8.433  15.741  66.928  1.00  0.00    -0.281 A  
HETATM   38  C   UNL     1      -9.438  16.074  66.022  1.00  0.00    -0.384 A  
ENDBRANCH  24  25
ENDBRANCH  23  24
ENDBRANCH  22  23
ENDBRANCH  21  22
ENDBRANCH  20  21
ENDBRANCH  19  20
ENDBRANCH  18  19
ENDBRANCH  17  18
ENDBRANCH  16  17
ENDBRANCH  15  16
ENDBRANCH  14  15
TORSDOF 11
ENDMDL
MODEL       21
REMARK 921   NORMALIZED FREE ENERGY PREDICTED BY IDOCK:   -7.24 KCAL/MOL
REMARK 922        TOTAL FREE ENERGY PREDICTED BY IDOCK:  -13.25 KCAL/MOL
REMARK 923 INTER-LIGAND FREE ENERGY PREDICTED BY IDOCK:  -11.71 KCAL/MOL
REMARK 924 INTRA-LIGAND FREE ENERGY PREDICTED BY IDOCK:   -1.54 KCAL/MOL
REMARK 927      BINDING AFFINITY PREDICTED BY RF-SCORE:    0.00 PKD
ROOT
HETATM    1  C   UNL     1     -11.069  16.527  68.987  1.00  0.00    -0.284 C  
HETATM    2  C   UNL     1     -10.115  17.309  68.112  1.00  0.00    -0.325 A  
HETATM    3  C   UNL     1     -10.521  18.562  67.669  1.00  0.00    -0.452 A  
HETATM    4  C   UNL     1      -9.701  19.350  66.876  1.00  0.00    -0.343 A  
HETATM    5  N   UNL     1     -10.129  20.651  66.595  1.00  0.00    -0.472 NA 
HETATM    6  C   UNL     1      -8.398  18.894  66.603  1.00  0.00    -0.304 A  
HETATM    7  H2  UNL     1     -10.321  21.139  67.470  1.00  0.00     0.000 HD 
HETATM    8  C   UNL     1      -7.455  19.690  65.911  1.00  0.00    -0.327 A  
HETATM    9  H1  UNL     1      -9.526  21.231  66.012  1.00  0.00     0.000 HD 
HETATM   10  C   UNL     1      -6.170  19.234  65.624  1.00  0.00    -0.248 A  
HETATM   11  C   UNL     1      -5.791  17.963  66.011  1.00  0.00    -0.250 A  
HETATM   12  C   UNL     1      -6.696  17.152  66.703  1.00  0.00    -0.277 A  
HETATM   13  C   UNL     1      -7.999  17.603  67.039  1.00  0.00    -0.220 A  
HETATM   14  N   UNL     1      -8.871  16.843  67.788  1.00  0.00    -0.215 NA 
ENDROOT
BRANCH  14  15
HETATM   15  C   UNL     1      -8.437  15.520  68.315  1.00  0.00    -0.156 C  
BRANCH  15  16
HETATM   16  C   UNL     1      -8.234  14.525  67.174  1.00  0.00    -0.214 C  
BRANCH  16  17
HETATM   17  C   UNL     1      -9.555  13.909  66.722  1.00  0.00    -0.288 C  
BRANCH  17  18
HETATM   18  C   UNL     1     -10.008  14.413  65.349  1.00  0.00    -0.344 C  
BRANCH  18  19
HETATM   19  C   UNL     1     -10.822  13.369  64.590  1.00  0.00    -0.405 C  
BRANCH  19  20
HETATM   20  C   UNL     1     -11.188  12.152  65.443  1.00  0.00    -0.381 C  
BRANCH  20  21
HETATM   21  C   UNL     1     -10.344  10.906  65.142  1.00  0.00    -0.344 C  
BRANCH  21  22
HETATM   22  C   UNL     1      -9.851  10.199  66.408  1.00  0.00    -0.279 C  
BRANCH  22  23
HETATM   23  C   UNL     1     -10.903  10.152  67.522  1.00  0.00    -0.349 C  
BRANCH  23  24
HETATM   24  C   UNL     1     -10.255  10.028  68.902  1.00  0.00    -0.193 C  
BRANCH  24  25
HETATM   25  N   UNL     1     -11.285   9.786  69.944  1.00  0.00    -0.242 NA 
HETATM   26  C   UNL     1     -11.516   8.517  70.403  1.00  0.00    -0.126 A  
HETATM   27  C   UNL     1     -12.435   8.307  71.435  1.00  0.00    -0.315 A  
HETATM   28  C   UNL     1     -10.799   7.276  69.921  1.00  0.00    -0.264 C  
HETATM   29  C   UNL     1     -13.148   9.354  71.997  1.00  0.00    -0.433 A  
HETATM   30  N   UNL     1     -13.934   9.071  73.118  1.00  0.00    -1.215 NA 
HETATM   31  C   UNL     1     -12.859  10.659  71.565  1.00  0.00    -0.567 A  
HETATM   32  H1  UNL     1     -14.459   9.840  73.532  1.00  0.00     0.000 HD 
HETATM   33  C   UNL     1     -11.943  10.865  70.498  1.00  0.00    -0.371 A  
HETATM   34  H2  UNL     1     -13.354   8.634  73.835  1.00  0.00     0.000 HD 
HETATM   35  C   UNL     1     -11.719  12.194  70.055  1.00  0.00    -0.330 A  
HETATM   36  C   UNL     1     -12.328  13.290  70.663  1.00  0.00    -0.416 A  
HETATM   37  C   UNL     1     -13.186  13.088  71.728  1.00  0.00    -0.486 A  
HETATM   38  C   UNL     1     -13.453  11.793  72.167  1.00  0.00    -0.273 A  
ENDBRANCH  24  25
ENDBRANCH  23  24
ENDBRANCH  22  23
ENDBRANCH  21  22
ENDBRANCH  20  21
ENDBRANCH  19  20
ENDBRANCH  18  19
ENDBRANCH  17  18
ENDBRANCH  16  17
ENDBRANCH  15  16
ENDBRANCH  14  15
TORSDOF 11
ENDMDL
MODEL       22
REMARK 921   NORMALIZED FREE ENERGY PREDICTED BY IDOCK:   -7.23 KCAL/MOL
REMARK 922        TOTAL FREE ENERGY PREDICTED BY IDOCK:  -13.24 KCAL/MOL
REMARK 923 INTER-LIGAND FREE ENERGY PREDICTED BY IDOCK:  -10.73 KCAL/MOL
REMARK 924 INTRA-LIGAND FREE ENERGY PREDICTED BY IDOCK:   -2.51 KCAL/MOL
REMARK 927      BINDING AFFINITY PREDICTED BY RF-SCORE:    0.00 PKD
ROOT
HETATM    1  C   UNL     1      -7.126   6.575  72.232  1.00  0.00    -0.077 C  
HETATM    2  C   UNL     1      -8.220   7.548  71.854  1.00  0.00    -0.106 A  
HETATM    3  C   UNL     1      -7.887   8.602  71.013  1.00  0.00    -0.128 A  
HETATM    4  C   UNL     1      -8.833   9.531  70.606  1.00  0.00    -0.148 A  
HETATM    5  N   UNL     1      -8.445  10.474  69.649  1.00  0.00    -0.375 NA 
HETATM    6  C   UNL     1     -10.173   9.330  70.988  1.00  0.00    -0.384 A  
HETATM    7  H2  UNL     1      -8.074   9.991  68.831  1.00  0.00     0.000 HD 
HETATM    8  C   UNL     1     -11.219  10.155  70.513  1.00  0.00    -0.411 A  
HETATM    9  H1  UNL     1      -9.142  11.157  69.351  1.00  0.00     0.000 HD 
HETATM   10  C   UNL     1     -12.544   9.968  70.903  1.00  0.00    -0.424 A  
HETATM   11  C   UNL     1     -12.862   8.957  71.790  1.00  0.00    -0.419 A  
HETATM   12  C   UNL     1     -11.853   8.119  72.273  1.00  0.00    -0.441 A  
HETATM   13  C   UNL     1     -10.502   8.264  71.866  1.00  0.00    -0.274 A  
HETATM   14  N   UNL     1      -9.512   7.396  72.275  1.00  0.00    -0.144 NA 
ENDROOT
BRANCH  14  15
HETATM   15  C   UNL     1      -9.857   6.229  73.134  1.00  0.00    -0.167 C  
BRANCH  15  16
HETATM   16  C   UNL     1     -10.593   5.163  72.325  1.00  0.00    -0.278 C  
BRANCH  16  17
HETATM   17  C   UNL     1      -9.629   4.334  71.480  1.00  0.00    -0.234 C  
BRANCH  17  18
HETATM   18  C   UNL     1      -9.987   4.338  69.991  1.00  0.00    -0.196 C  
BRANCH  18  19
HETATM   19  C   UNL     1      -9.775   5.706  69.350  1.00  0.00    -0.208 C  
BRANCH  19  20
HETATM   20  C   UNL     1     -11.073   6.347  68.852  1.00  0.00    -0.420 C  
BRANCH  20  21
HETATM   21  C   UNL     1     -10.966   6.954  67.447  1.00  0.00    -0.374 C  
BRANCH  21  22
HETATM   22  C   UNL     1     -10.320   8.342  67.443  1.00  0.00    -0.355 C  
BRANCH  22  23
HETATM   23  C   UNL     1      -9.726   8.729  66.083  1.00  0.00    -0.320 C  
BRANCH  23  24
HETATM   24  C   UNL     1      -9.095  10.121  66.121  1.00  0.00    -0.155 C  
BRANCH  24  25
HETATM   25  N   UNL     1      -9.914  11.088  65.347  1.00  0.00    -0.245 NA 
HETATM   26  C   UNL     1      -9.951  11.021  63.980  1.00  0.00    -0.335 A  
HETATM   27  C   UNL     1     -10.780  11.888  63.264  1.00  0.00    -0.415 A  
HETATM   28  C   UNL     1      -9.194  10.017  63.140  1.00  0.00    -0.313 C  
HETATM   29  C   UNL     1     -11.557  12.844  63.900  1.00  0.00    -0.453 A  
HETATM   30  N   UNL     1     -12.461  13.566  63.117  1.00  0.00    -0.985 NA 
HETATM   31  C   UNL     1     -11.561  12.864  65.305  1.00  0.00    -0.376 A  
HETATM   32  H1  UNL     1     -13.033  14.269  63.585  1.00  0.00     0.000 HD 
HETATM   33  C   UNL     1     -10.697  11.997  66.029  1.00  0.00    -0.279 A  
HETATM   34  H2  UNL     1     -13.069  12.916  62.618  1.00  0.00     0.000 HD 
HETATM   35  C   UNL     1     -10.692  12.086  67.445  1.00  0.00    -0.266 A  
HETATM   36  C   UNL     1     -11.536  12.953  68.135  1.00  0.00    -0.378 A  
HETATM   37  C   UNL     1     -12.406  13.763  67.429  1.00  0.00    -0.156 A  
HETATM   38  C   UNL     1     -12.412  13.724  66.036  1.00  0.00    -0.491 A  
ENDBRANCH  24  25
ENDBRANCH  23  24
ENDBRANCH  22  23
ENDBRANCH  21  22
ENDBRANCH  20  21
ENDBRANCH  19  20
ENDBRANCH  18  19
ENDBRANCH  17  18
ENDBRANCH  16  17
ENDBRANCH  15  16
ENDBRANCH  14  15
TORSDOF 11
ENDMDL
MODEL       23
REMARK 921   NORMALIZED FREE ENERGY PREDICTED BY IDOCK:   -7.23 KCAL/MOL
REMARK 922        TOTAL FREE ENERGY PREDICTED BY IDOCK:  -13.24 KCAL/MOL
REMARK 923 INTER-LIGAND FREE ENERGY PREDICTED BY IDOCK:  -11.73 KCAL/MOL
REMARK 924 INTRA-LIGAND FREE ENERGY PREDICTED BY IDOCK:   -1.51 KCAL/MOL
REMARK 927      BINDING AFFINITY PREDICTED BY RF-SCORE:    0.00 PKD
ROOT
HETATM    1  C   UNL     1     -12.113  12.569  70.215  1.00  0.00    -0.373 C  
HETATM    2  C   UNL     1     -12.091  11.130  70.678  1.00  0.00    -0.379 A  
HETATM    3  C   UNL     1     -13.017  10.744  71.639  1.00  0.00    -0.581 A  
HETATM    4  C   UNL     1     -13.074   9.440  72.107  1.00  0.00    -0.442 A  
HETATM    5  N   UNL     1     -14.126   9.106  72.965  1.00  0.00    -1.124 NA 
HETATM    6  C   UNL     1     -12.230   8.481  71.516  1.00  0.00    -0.355 A  
HETATM    7  H2  UNL     1     -15.013   9.343  72.520  1.00  0.00     0.000 HD 
HETATM    8  C   UNL     1     -12.314   7.107  71.843  1.00  0.00    -0.352 A  
HETATM    9  H1  UNL     1     -14.168   8.147  73.309  1.00  0.00     0.000 HD 
HETATM   10  C   UNL     1     -11.468   6.158  71.271  1.00  0.00    -0.311 A  
HETATM   11  C   UNL     1     -10.505   6.556  70.363  1.00  0.00    -0.256 A  
HETATM   12  C   UNL     1     -10.401   7.905  70.013  1.00  0.00    -0.221 A  
HETATM   13  C   UNL     1     -11.271   8.887  70.551  1.00  0.00    -0.252 A  
HETATM   14  N   UNL     1     -11.229  10.206  70.154  1.00  0.00    -0.288 NA 
ENDROOT
BRANCH  14  15
HETATM   15  C   UNL     1     -10.278  10.630  69.089  1.00  0.00    -0.220 C  
BRANCH  15  16
HETATM   16  C   UNL     1     -10.965  10.631  67.725  1.00  0.00    -0.364 C  
BRANCH  16  17
HETATM   17  C   UNL     1     -10.060  11.209  66.640  1.00  0.00    -0.256 C  
BRANCH  17  18
HETATM   18  C   UNL     1     -10.804  12.139  65.677  1.00  0.00    -0.323 C  
BRANCH  18  19
HETATM   19  C   UNL     1     -11.964  12.864  66.353  1.00  0.00    -0.462 C  
BRANCH  19  20
HETATM   20  C   UNL     1     -12.627  13.911  65.455  1.00  0.00    -0.560 C  
BRANCH  20  21
HETATM   21  C   UNL     1     -11.679  14.528  64.418  1.00  0.00    -0.381 C  
BRANCH  21  22
HETATM   22  C   UNL     1     -11.192  15.926  64.811  1.00  0.00    -0.364 C  
BRANCH  22  23
HETATM   23  C   UNL     1      -9.964  15.903  65.728  1.00  0.00    -0.391 C  
BRANCH  23  24
HETATM   24  C   UNL     1     -10.326  16.288  67.163  1.00  0.00    -0.285 C  
BRANCH  24  25
HETATM   25  N   UNL     1      -9.304  17.202  67.734  1.00  0.00    -0.242 NA 
HETATM   26  C   UNL     1      -9.482  18.558  67.673  1.00  0.00    -0.279 A  
HETATM   27  C   UNL     1      -8.552  19.408  68.276  1.00  0.00    -0.376 A  
HETATM   28  C   UNL     1     -10.668  19.250  67.041  1.00  0.00    -0.565 C  
HETATM   29  C   UNL     1      -7.427  18.917  68.920  1.00  0.00    -0.303 A  
HETATM   30  N   UNL     1      -6.631  19.831  69.617  1.00  0.00    -0.347 NA 
HETATM   31  C   UNL     1      -7.285  17.524  69.033  1.00  0.00    -0.215 A  
HETATM   32  H1  UNL     1      -5.804  19.469  70.091  1.00  0.00     0.000 HD 
HETATM   33  C   UNL     1      -8.220  16.663  68.396  1.00  0.00    -0.206 A  
HETATM   34  H2  UNL     1      -7.209  20.337  70.289  1.00  0.00     0.000 HD 
HETATM   35  C   UNL     1      -8.011  15.262  68.488  1.00  0.00    -0.141 A  
HETATM   36  C   UNL     1      -6.957  14.718  69.218  1.00  0.00    -0.149 A  
HETATM   37  C   UNL     1      -6.075  15.557  69.871  1.00  0.00    -0.157 A  
HETATM   38  C   UNL     1      -6.232  16.939  69.774  1.00  0.00    -0.205 A  
ENDBRANCH  24  25
ENDBRANCH  23  24
ENDBRANCH  22  23
ENDBRANCH  21  22
ENDBRANCH  20  21
ENDBRANCH  19  20
ENDBRANCH  18  19
ENDBRANCH  17  18
ENDBRANCH  16  17
ENDBRANCH  15  16
ENDBRANCH  14  15
TORSDOF 11
ENDMDL
MODEL       24
REMARK 921   NORMALIZED FREE ENERGY PREDICTED BY IDOCK:   -7.20 KCAL/MOL
REMARK 922        TOTAL FREE ENERGY PREDICTED BY IDOCK:  -13.18 KCAL/MOL
REMARK 923 INTER-LIGAND FREE ENERGY PREDICTED BY IDOCK:  -11.25 KCAL/MOL
REMARK 924 INTRA-LIGAND FREE ENERGY PREDICTED BY IDOCK:   -1.93 KCAL/MOL
REMARK 927      BINDING AFFINITY PREDICTED BY RF-SCORE:    0.00 PKD
ROOT
HETATM    1  C   UNL     1     -11.563  12.087  65.989  1.00  0.00    -0.371 C  
HETATM    2  C   UNL     1     -11.139  13.537  66.060  1.00  0.00    -0.293 A  
HETATM    3  C   UNL     1     -11.419  14.349  64.968  1.00  0.00    -0.372 A  
HETATM    4  C   UNL     1     -11.077  15.693  64.958  1.00  0.00    -0.389 A  
HETATM    5  N   UNL     1     -11.523  16.466  63.881  1.00  0.00    -1.618 NA 
HETATM    6  C   UNL     1     -10.520  16.249  66.125  1.00  0.00    -0.330 A  
HETATM    7  H2  UNL     1     -12.535  16.375  63.797  1.00  0.00     0.000 HD 
HETATM    8  C   UNL     1     -10.262  17.634  66.244  1.00  0.00    -0.362 A  
HETATM    9  H1  UNL     1     -11.271  17.454  63.874  1.00  0.00     0.000 HD 
HETATM   10  C   UNL     1      -9.695  18.185  67.393  1.00  0.00    -0.296 A  
HETATM   11  C   UNL     1      -9.359  17.364  68.453  1.00  0.00    -0.285 A  
HETATM   12  C   UNL     1      -9.607  15.991  68.370  1.00  0.00    -0.206 A  
HETATM   13  C   UNL     1     -10.216  15.409  67.228  1.00  0.00    -0.254 A  
HETATM   14  N   UNL     1     -10.537  14.070  67.167  1.00  0.00    -0.273 NA 
ENDROOT
BRANCH  14  15
HETATM   15  C   UNL     1     -10.292  13.194  68.346  1.00  0.00    -0.253 C  
BRANCH  15  16
HETATM   16  C   UNL     1     -11.552  13.079  69.202  1.00  0.00    -0.368 C  
BRANCH  16  17
HETATM   17  C   UNL     1     -11.755  11.656  69.716  1.00  0.00    -0.425 C  
BRANCH  17  18
HETATM   18  C   UNL     1     -12.653  11.593  70.955  1.00  0.00    -0.431 C  
BRANCH  18  19
HETATM   19  C   UNL     1     -12.761  10.179  71.519  1.00  0.00    -0.541 C  
BRANCH  19  20
HETATM   20  C   UNL     1     -11.536   9.313  71.216  1.00  0.00    -0.419 C  
BRANCH  20  21
HETATM   21  C   UNL     1     -11.211   8.293  72.315  1.00  0.00    -0.443 C  
BRANCH  21  22
HETATM   22  C   UNL     1      -9.706   8.102  72.526  1.00  0.00    -0.357 C  
BRANCH  22  23
HETATM   23  C   UNL     1      -9.241   6.661  72.283  1.00  0.00    -0.139 C  
BRANCH  23  24
HETATM   24  C   UNL     1      -8.269   6.575  71.106  1.00  0.00    -0.121 C  
BRANCH  24  25
HETATM   25  N   UNL     1      -9.009   6.435  69.826  1.00  0.00    -0.141 NA 
HETATM   26  C   UNL     1      -9.630   5.255  69.516  1.00  0.00    -0.152 A  
HETATM   27  C   UNL     1     -10.385   5.154  68.344  1.00  0.00    -0.140 A  
HETATM   28  C   UNL     1      -9.629   4.018  70.386  1.00  0.00    -0.265 C  
HETATM   29  C   UNL     1     -10.502   6.216  67.461  1.00  0.00    -0.240 A  
HETATM   30  N   UNL     1     -11.392   6.071  66.393  1.00  0.00    -0.657 NA 
HETATM   31  C   UNL     1      -9.914   7.441  67.817  1.00  0.00    -0.208 A  
HETATM   32  H1  UNL     1     -11.479   6.852  65.743  1.00  0.00     0.000 HD 
HETATM   33  C   UNL     1      -9.127   7.532  68.998  1.00  0.00    -0.140 A  
HETATM   34  H2  UNL     1     -12.316   5.828  66.753  1.00  0.00     0.000 HD 
HETATM   35  C   UNL     1      -8.506   8.772  69.294  1.00  0.00    -0.122 A  
HETATM   36  C   UNL     1      -8.686   9.899  68.496  1.00  0.00    -0.121 A  
HETATM   37  C   UNL     1      -9.487   9.818  67.372  1.00  0.00    -0.178 A  
HETATM   38  C   UNL     1     -10.085   8.606  67.035  1.00  0.00    -0.342 A  
ENDBRANCH  24  25
ENDBRANCH  23  24
ENDBRANCH  22  23
ENDBRANCH  21  22
ENDBRANCH  20  21
ENDBRANCH  19  20
ENDBRANCH  18  19
ENDBRANCH  17  18
ENDBRANCH  16  17
ENDBRANCH  15  16
ENDBRANCH  14  15
TORSDOF 11
ENDMDL
MODEL       25
REMARK 921   NORMALIZED FREE ENERGY PREDICTED BY IDOCK:   -7.19 KCAL/MOL
REMARK 922        TOTAL FREE ENERGY PREDICTED BY IDOCK:  -13.17 KCAL/MOL
REMARK 923 INTER-LIGAND FREE ENERGY PREDICTED BY IDOCK:   -9.87 KCAL/MOL
REMARK 924 INTRA-LIGAND FREE ENERGY PREDICTED BY IDOCK:   -3.30 KCAL/MOL
REMARK 927      BINDING AFFINITY PREDICTED BY RF-SCORE:    0.00 PKD
ROOT
HETATM    1  C   UNL     1     -12.101  14.331  68.748  1.00  0.00    -0.300 C  
HETATM    2  C   UNL     1     -11.853  13.704  67.394  1.00  0.00    -0.393 A  
HETATM    3  C   UNL     1     -12.285  14.396  66.270  1.00  0.00    -0.366 A  
HETATM    4  C   UNL     1     -12.084  13.898  64.991  1.00  0.00    -0.406 A  
HETATM    5  N   UNL     1     -12.422  14.724  63.914  1.00  0.00    -1.049 NA 
HETATM    6  C   UNL     1     -11.343  12.711  64.846  1.00  0.00    -0.347 A  
HETATM    7  H2  UNL     1     -11.936  15.616  64.009  1.00  0.00     0.000 HD 
HETATM    8  C   UNL     1     -10.983  12.203  63.576  1.00  0.00    -0.521 A  
HETATM    9  H1  UNL     1     -12.274  14.358  62.974  1.00  0.00     0.000 HD 
HETATM   10  C   UNL     1     -10.263  11.019  63.429  1.00  0.00    -0.404 A  
HETATM   11  C   UNL     1      -9.891  10.299  64.548  1.00  0.00    -0.384 A  
HETATM   12  C   UNL     1     -10.224  10.777  65.819  1.00  0.00    -0.319 A  
HETATM   13  C   UNL     1     -10.925  11.997  66.000  1.00  0.00    -0.304 A  
HETATM   14  N   UNL     1     -11.191  12.516  67.249  1.00  0.00    -0.278 NA 
ENDROOT
BRANCH  14  15
HETATM   15  C   UNL     1     -10.692  11.816  68.464  1.00  0.00    -0.220 C  
BRANCH  15  16
HETATM   16  C   UNL     1     -11.732  10.823  68.979  1.00  0.00    -0.357 C  
BRANCH  16  17
HETATM   17  C   UNL     1     -11.686  10.698  70.500  1.00  0.00    -0.451 C  
BRANCH  17  18
HETATM   18  C   UNL     1     -11.107   9.359  70.969  1.00  0.00    -0.414 C  
BRANCH  18  19
HETATM   19  C   UNL     1     -12.196   8.362  71.353  1.00  0.00    -0.335 C  
BRANCH  19  20
HETATM   20  C   UNL     1     -11.942   6.953  70.811  1.00  0.00    -0.424 C  
BRANCH  20  21
HETATM   21  C   UNL     1     -10.714   6.852  69.897  1.00  0.00    -0.278 C  
BRANCH  21  22
HETATM   22  C   UNL     1     -11.063   6.415  68.472  1.00  0.00    -0.385 C  
BRANCH  22  23
HETATM   23  C   UNL     1     -10.228   7.124  67.400  1.00  0.00    -0.291 C  
BRANCH  23  24
HETATM   24  C   UNL     1      -8.748   6.751  67.501  1.00  0.00    -0.119 C  
BRANCH  24  25
HETATM   25  N   UNL     1      -7.897   7.822  66.923  1.00  0.00    -0.106 NA 
HETATM   26  C   UNL     1      -7.521   7.766  65.607  1.00  0.00    -0.075 A  
HETATM   27  C   UNL     1      -6.781   8.814  65.052  1.00  0.00    -0.068 A  
HETATM   28  C   UNL     1      -7.896   6.664  64.643  1.00  0.00    -0.116 C  
HETATM   29  C   UNL     1      -6.389   9.908  65.807  1.00  0.00    -0.084 A  
HETATM   30  N   UNL     1      -5.780  10.971  65.134  1.00  0.00    -0.443 NA 
HETATM   31  C   UNL     1      -6.832   9.986  67.137  1.00  0.00    -0.082 A  
HETATM   32  H1  UNL     1      -5.491  11.776  65.689  1.00  0.00     0.000 HD 
HETATM   33  C   UNL     1      -7.563   8.907  67.706  1.00  0.00    -0.093 A  
HETATM   34  H2  UNL     1      -6.388  11.285  64.378  1.00  0.00     0.000 HD 
HETATM   35  C   UNL     1      -7.946   9.002  69.068  1.00  0.00    -0.102 A  
HETATM   36  C   UNL     1      -7.671  10.130  69.837  1.00  0.00    -0.171 A  
HETATM   37  C   UNL     1      -6.998  11.195  69.269  1.00  0.00    -0.118 A  
HETATM   38  C   UNL     1      -6.579  11.121  67.942  1.00  0.00    -0.062 A  
ENDBRANCH  24  25
ENDBRANCH  23  24
ENDBRANCH  22  23
ENDBRANCH  21  22
ENDBRANCH  20  21
ENDBRANCH  19  20
ENDBRANCH  18  19
ENDBRANCH  17  18
ENDBRANCH  16  17
ENDBRANCH  15  16
ENDBRANCH  14  15
TORSDOF 11
ENDMDL
MODEL       26
REMARK 921   NORMALIZED FREE ENERGY PREDICTED BY IDOCK:   -7.19 KCAL/MOL
REMARK 922        TOTAL FREE ENERGY PREDICTED BY IDOCK:  -13.16 KCAL/MOL
REMARK 923 INTER-LIGAND FREE ENERGY PREDICTED BY IDOCK:  -12.08 KCAL/MOL
REMARK 924 INTRA-LIGAND FREE ENERGY PREDICTED BY IDOCK:   -1.08 KCAL/MOL
REMARK 927      BINDING AFFINITY PREDICTED BY RF-SCORE:    0.00 PKD
ROOT
HETATM    1  C   UNL     1     -11.414  13.721  68.161  1.00  0.00    -0.348 C  
HETATM    2  C   UNL     1     -11.092  15.072  67.563  1.00  0.00    -0.317 A  
HETATM    3  C   UNL     1     -11.171  15.205  66.182  1.00  0.00    -0.271 A  
HETATM    4  C   UNL     1     -10.906  16.414  65.556  1.00  0.00    -0.215 A  
HETATM    5  N   UNL     1     -11.147  16.496  64.180  1.00  0.00    -1.320 NA 
HETATM    6  C   UNL     1     -10.644  17.540  66.359  1.00  0.00    -0.195 A  
HETATM    7  H2  UNL     1     -12.112  16.223  63.991  1.00  0.00     0.000 HD 
HETATM    8  C   UNL     1     -10.490  18.833  65.808  1.00  0.00    -0.317 A  
HETATM    9  H1  UNL     1     -10.952  17.385  63.720  1.00  0.00     0.000 HD 
HETATM   10  C   UNL     1     -10.214  19.946  66.600  1.00  0.00    -0.609 A  
HETATM   11  C   UNL     1     -10.073  19.798  67.966  1.00  0.00    -0.571 A  
HETATM   12  C   UNL     1     -10.226  18.535  68.544  1.00  0.00    -0.389 A  
HETATM   13  C   UNL     1     -10.542  17.390  67.767  1.00  0.00    -0.371 A  
HETATM   14  N   UNL     1     -10.772  16.155  68.334  1.00  0.00    -0.283 NA 
ENDROOT
BRANCH  14  15
HETATM   15  C   UNL     1     -10.743  16.002  69.815  1.00  0.00    -0.331 C  
BRANCH  15  16
HETATM   16  C   UNL     1     -12.161  15.973  70.382  1.00  0.00    -0.198 C  
BRANCH  16  17
HETATM   17  C   UNL     1     -12.158  16.034  71.907  1.00  0.00    -0.590 C  
BRANCH  17  18
HETATM   18  C   UNL     1     -11.946  14.664  72.557  1.00  0.00    -0.187 C  
BRANCH  18  19
HETATM   19  C   UNL     1     -13.202  13.799  72.505  1.00  0.00    -0.599 C  
BRANCH  19  20
HETATM   20  C   UNL     1     -13.127  12.688  71.456  1.00  0.00    -0.373 C  
BRANCH  20  21
HETATM   21  C   UNL     1     -13.317  11.278  72.031  1.00  0.00    -0.386 C  
BRANCH  21  22
HETATM   22  C   UNL     1     -13.148  10.177  70.980  1.00  0.00    -0.458 C  
BRANCH  22  23
HETATM   23  C   UNL     1     -12.193  10.565  69.846  1.00  0.00    -0.289 C  
BRANCH  23  24
HETATM   24  C   UNL     1     -10.818   9.919  70.022  1.00  0.00    -0.294 C  
BRANCH  24  25
HETATM   25  N   UNL     1     -10.611   8.847  69.015  1.00  0.00    -0.214 NA 
HETATM   26  C   UNL     1     -10.420   9.168  67.697  1.00  0.00    -0.261 A  
HETATM   27  C   UNL     1     -10.153   8.159  66.769  1.00  0.00    -0.365 A  
HETATM   28  C   UNL     1     -10.410  10.573  67.139  1.00  0.00    -0.285 C  
HETATM   29  C   UNL     1     -10.102   6.824  67.139  1.00  0.00    -0.190 A  
HETATM   30  N   UNL     1      -9.686   5.902  66.174  1.00  0.00    -0.328 NA 
HETATM   31  C   UNL     1     -10.236   6.510  68.502  1.00  0.00    -0.190 A  
HETATM   32  H1  UNL     1      -9.648   4.920  66.446  1.00  0.00     0.000 HD 
HETATM   33  C   UNL     1     -10.532   7.537  69.439  1.00  0.00    -0.222 A  
HETATM   34  H2  UNL     1      -8.777   6.185  65.806  1.00  0.00     0.000 HD 
HETATM   35  C   UNL     1     -10.714   7.171  70.798  1.00  0.00    -0.251 A  
HETATM   36  C   UNL     1     -10.562   5.858  71.237  1.00  0.00    -0.311 A  
HETATM   37  C   UNL     1     -10.231   4.869  70.330  1.00  0.00    -0.299 A  
HETATM   38  C   UNL     1     -10.078   5.190  68.982  1.00  0.00    -0.257 A  
ENDBRANCH  24  25
ENDBRANCH  23  24
ENDBRANCH  22  23
ENDBRANCH  21  22
ENDBRANCH  20  21
ENDBRANCH  19  20
ENDBRANCH  18  19
ENDBRANCH  17  18
ENDBRANCH  16  17
ENDBRANCH  15  16
ENDBRANCH  14  15
TORSDOF 11
ENDMDL
MODEL       27
REMARK 921   NORMALIZED FREE ENERGY PREDICTED BY IDOCK:   -7.18 KCAL/MOL
REMARK 922        TOTAL FREE ENERGY PREDICTED BY IDOCK:  -13.16 KCAL/MOL
REMARK 923 INTER-LIGAND FREE ENERGY PREDICTED BY IDOCK:  -10.21 KCAL/MOL
REMARK 924 INTRA-LIGAND FREE ENERGY PREDICTED BY IDOCK:   -2.95 KCAL/MOL
REMARK 927      BINDING AFFINITY PREDICTED BY RF-SCORE:    0.00 PKD
ROOT
HETATM    1  C   UNL     1     -11.317  11.820  67.247  1.00  0.00    -0.379 C  
HETATM    2  C   UNL     1     -11.874  12.249  68.585  1.00  0.00    -0.305 A  
HETATM    3  C   UNL     1     -12.159  11.258  69.516  1.00  0.00    -0.386 A  
HETATM    4  C   UNL     1     -12.659  11.567  70.773  1.00  0.00    -0.298 A  
HETATM    5  N   UNL     1     -12.783  10.523  71.695  1.00  0.00    -0.436 NA 
HETATM    6  C   UNL     1     -12.785  12.924  71.126  1.00  0.00    -0.366 A  
HETATM    7  H2  UNL     1     -11.882  10.055  71.797  1.00  0.00     0.000 HD 
HETATM    8  C   UNL     1     -13.164  13.327  72.428  1.00  0.00    -0.539 A  
HETATM    9  H1  UNL     1     -13.150  10.751  72.619  1.00  0.00     0.000 HD 
HETATM   10  C   UNL     1     -13.305  14.669  72.775  1.00  0.00    -0.593 A  
HETATM   11  C   UNL     1     -13.082  15.650  71.828  1.00  0.00    -0.546 A  
HETATM   12  C   UNL     1     -12.699  15.286  70.534  1.00  0.00    -0.440 A  
HETATM   13  C   UNL     1     -12.514  13.930  70.162  1.00  0.00    -0.292 A  
HETATM   14  N   UNL     1     -12.061  13.564  68.912  1.00  0.00    -0.327 NA 
ENDROOT
BRANCH  14  15
HETATM   15  C   UNL     1     -11.701  14.612  67.918  1.00  0.00    -0.351 C  
BRANCH  15  16
HETATM   16  C   UNL     1     -10.192  14.850  67.908  1.00  0.00    -0.228 C  
BRANCH  16  17
HETATM   17  C   UNL     1      -9.650  14.971  66.486  1.00  0.00    -0.299 C  
BRANCH  17  18
HETATM   18  C   UNL     1      -8.523  16.001  66.364  1.00  0.00    -0.363 C  
BRANCH  18  19
HETATM   19  C   UNL     1      -7.785  16.208  67.683  1.00  0.00    -0.161 C  
BRANCH  19  20
HETATM   20  C   UNL     1      -6.485  15.406  67.780  1.00  0.00    -0.183 C  
BRANCH  20  21
HETATM   21  C   UNL     1      -6.599  14.143  68.644  1.00  0.00    -0.092 C  
BRANCH  21  22
HETATM   22  C   UNL     1      -6.822  12.873  67.818  1.00  0.00    -0.138 C  
BRANCH  22  23
HETATM   23  C   UNL     1      -7.916  11.964  68.390  1.00  0.00    -0.154 C  
BRANCH  23  24
HETATM   24  C   UNL     1      -7.449  10.511  68.484  1.00  0.00    -0.091 C  
BRANCH  24  25
HETATM   25  N   UNL     1      -8.559   9.581  68.155  1.00  0.00    -0.120 NA 
HETATM   26  C   UNL     1      -8.797   9.227  66.854  1.00  0.00    -0.127 A  
HETATM   27  C   UNL     1      -9.796   8.295  66.560  1.00  0.00    -0.323 A  
HETATM   28  C   UNL     1      -8.010   9.721  65.662  1.00  0.00    -0.117 C  
HETATM   29  C   UNL     1     -10.582   7.733  67.553  1.00  0.00    -0.248 A  
HETATM   30  N   UNL     1     -11.455   6.706  67.182  1.00  0.00    -0.746 NA 
HETATM   31  C   UNL     1     -10.290   8.054  68.889  1.00  0.00    -0.222 A  
HETATM   32  H1  UNL     1     -12.033   6.292  67.912  1.00  0.00     0.000 HD 
HETATM   33  C   UNL     1      -9.289   9.021  69.183  1.00  0.00    -0.148 A  
HETATM   34  H2  UNL     1     -10.929   5.970  66.711  1.00  0.00     0.000 HD 
HETATM   35  C   UNL     1      -9.061   9.357  70.542  1.00  0.00    -0.308 A  
HETATM   36  C   UNL     1      -9.748   8.737  71.583  1.00  0.00    -0.366 A  
HETATM   37  C   UNL     1     -10.690   7.766  71.296  1.00  0.00    -0.251 A  
HETATM   38  C   UNL     1     -10.961   7.436  69.969  1.00  0.00    -0.264 A  
ENDBRANCH  24  25
ENDBRANCH  23  24
ENDBRANCH  22  23
ENDBRANCH  21  22
ENDBRANCH  20  21
ENDBRANCH  19  20
ENDBRANCH  18  19
ENDBRANCH  17  18
ENDBRANCH  16  17
ENDBRANCH  15  16
ENDBRANCH  14  15
TORSDOF 11
ENDMDL
MODEL       28
REMARK 921   NORMALIZED FREE ENERGY PREDICTED BY IDOCK:   -7.16 KCAL/MOL
REMARK 922        TOTAL FREE ENERGY PREDICTED BY IDOCK:  -13.12 KCAL/MOL
REMARK 923 INTER-LIGAND FREE ENERGY PREDICTED BY IDOCK:  -10.04 KCAL/MOL
REMARK 924 INTRA-LIGAND FREE ENERGY PREDICTED BY IDOCK:   -3.08 KCAL/MOL
REMARK 927      BINDING AFFINITY PREDICTED BY RF-SCORE:    0.00 PKD
ROOT
HETATM    1  C   UNL     1     -12.082  14.039  68.605  1.00  0.00    -0.332 C  
HETATM    2  C   UNL     1     -11.789  13.405  67.264  1.00  0.00    -0.376 A  
HETATM    3  C   UNL     1     -12.279  14.036  66.128  1.00  0.00    -0.494 A  
HETATM    4  C   UNL     1     -12.043  13.529  64.859  1.00  0.00    -0.397 A  
HETATM    5  N   UNL     1     -12.450  14.301  63.767  1.00  0.00    -1.040 NA 
HETATM    6  C   UNL     1     -11.208  12.402  64.735  1.00  0.00    -0.353 A  
HETATM    7  H2  UNL     1     -12.037  15.231  63.839  1.00  0.00     0.000 HD 
HETATM    8  C   UNL     1     -10.813  11.898  63.474  1.00  0.00    -0.502 A  
HETATM    9  H1  UNL     1     -12.276  13.928  62.834  1.00  0.00     0.000 HD 
HETATM   10  C   UNL     1     -10.000  10.773  63.349  1.00  0.00    -0.385 A  
HETATM   11  C   UNL     1      -9.567  10.110  64.481  1.00  0.00    -0.376 A  
HETATM   12  C   UNL     1      -9.933  10.586  65.743  1.00  0.00    -0.318 A  
HETATM   13  C   UNL     1     -10.730  11.749  65.902  1.00  0.00    -0.282 A  
HETATM   14  N   UNL     1     -11.033  12.272  67.140  1.00  0.00    -0.250 NA 
ENDROOT
BRANCH  14  15
HETATM   15  C   UNL     1     -10.474  11.641  68.368  1.00  0.00    -0.213 C  
BRANCH  15  16
HETATM   16  C   UNL     1     -11.224  10.352  68.699  1.00  0.00    -0.305 C  
BRANCH  16  17
HETATM   17  C   UNL     1     -12.436  10.617  69.587  1.00  0.00    -0.121 C  
BRANCH  17  18
HETATM   18  C   UNL     1     -12.057  10.912  71.041  1.00  0.00    -0.425 C  
BRANCH  18  19
HETATM   19  C   UNL     1     -12.444   9.775  71.981  1.00  0.00    -0.390 C  
BRANCH  19  20
HETATM   20  C   UNL     1     -13.770   9.107  71.607  1.00  0.00    -0.433 C  
BRANCH  20  21
HETATM   21  C   UNL     1     -13.685   7.579  71.496  1.00  0.00    -0.460 C  
BRANCH  21  22
HETATM   22  C   UNL     1     -12.253   7.050  71.612  1.00  0.00    -0.395 C  
BRANCH  22  23
HETATM   23  C   UNL     1     -11.599   6.773  70.254  1.00  0.00    -0.417 C  
BRANCH  23  24
HETATM   24  C   UNL     1     -10.135   6.360  70.408  1.00  0.00    -0.185 C  
BRANCH  24  25
HETATM   25  N   UNL     1      -9.234   7.416  69.879  1.00  0.00    -0.145 NA 
HETATM   26  C   UNL     1      -8.772   8.405  70.705  1.00  0.00    -0.150 A  
HETATM   27  C   UNL     1      -7.868   9.352  70.218  1.00  0.00    -0.165 A  
HETATM   28  C   UNL     1      -9.113   8.540  72.172  1.00  0.00    -0.319 C  
HETATM   29  C   UNL     1      -7.440   9.337  68.899  1.00  0.00    -0.075 A  
HETATM   30  N   UNL     1      -6.428  10.232  68.540  1.00  0.00    -0.052 NA 
HETATM   31  C   UNL     1      -7.869   8.284  68.076  1.00  0.00    -0.118 A  
HETATM   32  H1  UNL     1      -6.112  10.222  67.570  1.00  0.00     0.000 HD 
HETATM   33  C   UNL     1      -8.809   7.337  68.569  1.00  0.00    -0.129 A  
HETATM   34  H2  UNL     1      -5.625  10.099  69.156  1.00  0.00     0.000 HD 
HETATM   35  C   UNL     1      -9.258   6.319  67.688  1.00  0.00    -0.111 A  
HETATM   36  C   UNL     1      -8.772   6.197  66.389  1.00  0.00    -0.138 A  
HETATM   37  C   UNL     1      -7.828   7.094  65.927  1.00  0.00    -0.106 A  
HETATM   38  C   UNL     1      -7.389   8.125  66.755  1.00  0.00    -0.083 A  
ENDBRANCH  24  25
ENDBRANCH  23  24
ENDBRANCH  22  23
ENDBRANCH  21  22
ENDBRANCH  20  21
ENDBRANCH  19  20
ENDBRANCH  18  19
ENDBRANCH  17  18
ENDBRANCH  16  17
ENDBRANCH  15  16
ENDBRANCH  14  15
TORSDOF 11
ENDMDL
MODEL       29
REMARK 921   NORMALIZED FREE ENERGY PREDICTED BY IDOCK:   -7.15 KCAL/MOL
REMARK 922        TOTAL FREE ENERGY PREDICTED BY IDOCK:  -13.11 KCAL/MOL
REMARK 923 INTER-LIGAND FREE ENERGY PREDICTED BY IDOCK:  -10.95 KCAL/MOL
REMARK 924 INTRA-LIGAND FREE ENERGY PREDICTED BY IDOCK:   -2.16 KCAL/MOL
REMARK 927      BINDING AFFINITY PREDICTED BY RF-SCORE:    0.00 PKD
ROOT
HETATM    1  C   UNL     1     -10.620  18.637  66.483  1.00  0.00    -0.409 C  
HETATM    2  C   UNL     1      -9.574  17.698  67.043  1.00  0.00    -0.276 A  
HETATM    3  C   UNL     1      -8.421  18.258  67.578  1.00  0.00    -0.252 A  
HETATM    4  C   UNL     1      -7.420  17.469  68.125  1.00  0.00    -0.218 A  
HETATM    5  N   UNL     1      -6.362  18.119  68.768  1.00  0.00    -0.208 NA 
HETATM    6  C   UNL     1      -7.637  16.081  68.214  1.00  0.00    -0.137 A  
HETATM    7  H2  UNL     1      -6.735  18.737  69.489  1.00  0.00     0.000 HD 
HETATM    8  C   UNL     1      -6.726  15.221  68.871  1.00  0.00    -0.115 A  
HETATM    9  H1  UNL     1      -5.626  17.538  69.170  1.00  0.00     0.000 HD 
HETATM   10  C   UNL     1      -6.931  13.844  68.946  1.00  0.00    -0.110 A  
HETATM   11  C   UNL     1      -8.048  13.284  68.356  1.00  0.00    -0.134 A  
HETATM   12  C   UNL     1      -8.972  14.106  67.705  1.00  0.00    -0.192 A  
HETATM   13  C   UNL     1      -8.807  15.514  67.643  1.00  0.00    -0.179 A  
HETATM   14  N   UNL     1      -9.750  16.342  67.073  1.00  0.00    -0.242 NA 
ENDROOT
BRANCH  14  15
HETATM   15  C   UNL     1     -11.016  15.767  66.539  1.00  0.00    -0.165 C  
BRANCH  15  16
HETATM   16  C   UNL     1     -10.810  15.231  65.124  1.00  0.00    -0.441 C  
BRANCH  16  17
HETATM   17  C   UNL     1     -12.123  14.763  64.503  1.00  0.00    -0.460 C  
BRANCH  17  18
HETATM   18  C   UNL     1     -12.330  13.250  64.618  1.00  0.00    -0.447 C  
BRANCH  18  19
HETATM   19  C   UNL     1     -11.372  12.466  63.727  1.00  0.00    -0.536 C  
BRANCH  19  20
HETATM   20  C   UNL     1     -10.299  11.709  64.512  1.00  0.00    -0.349 C  
BRANCH  20  21
HETATM   21  C   UNL     1     -10.687  11.415  65.968  1.00  0.00    -0.318 C  
BRANCH  21  22
HETATM   22  C   UNL     1      -9.799  10.352  66.620  1.00  0.00    -0.251 C  
BRANCH  22  23
HETATM   23  C   UNL     1     -10.559   9.445  67.595  1.00  0.00    -0.333 C  
BRANCH  23  24
HETATM   24  C   UNL     1      -9.978   9.524  69.007  1.00  0.00    -0.180 C  
BRANCH  24  25
HETATM   25  N   UNL     1     -11.054   9.411  70.023  1.00  0.00    -0.236 NA 
HETATM   26  C   UNL     1     -11.313   8.206  70.621  1.00  0.00    -0.249 A  
HETATM   27  C   UNL     1     -12.278   8.124  71.629  1.00  0.00    -0.343 A  
HETATM   28  C   UNL     1     -10.582   6.916  70.326  1.00  0.00    -0.246 C  
HETATM   29  C   UNL     1     -13.009   9.231  72.028  1.00  0.00    -0.425 A  
HETATM   30  N   UNL     1     -13.846   9.086  73.138  1.00  0.00    -1.177 NA 
HETATM   31  C   UNL     1     -12.694  10.474  71.454  1.00  0.00    -0.547 A  
HETATM   32  H1  UNL     1     -14.384   9.900  73.432  1.00  0.00     0.000 HD 
HETATM   33  C   UNL     1     -11.729  10.549  70.412  1.00  0.00    -0.344 A  
HETATM   34  H2  UNL     1     -13.301   8.739  73.928  1.00  0.00     0.000 HD 
HETATM   35  C   UNL     1     -11.479  11.815  69.822  1.00  0.00    -0.320 A  
HETATM   36  C   UNL     1     -12.108  12.976  70.266  1.00  0.00    -0.388 A  
HETATM   37  C   UNL     1     -13.013  12.905  71.307  1.00  0.00    -0.317 A  
HETATM   38  C   UNL     1     -13.306  11.673  71.887  1.00  0.00    -0.403 A  
ENDBRANCH  24  25
ENDBRANCH  23  24
ENDBRANCH  22  23
ENDBRANCH  21  22
ENDBRANCH  20  21
ENDBRANCH  19  20
ENDBRANCH  18  19
ENDBRANCH  17  18
ENDBRANCH  16  17
ENDBRANCH  15  16
ENDBRANCH  14  15
TORSDOF 11
ENDMDL
MODEL       30
REMARK 921   NORMALIZED FREE ENERGY PREDICTED BY IDOCK:   -7.13 KCAL/MOL
REMARK 922        TOTAL FREE ENERGY PREDICTED BY IDOCK:  -13.07 KCAL/MOL
REMARK 923 INTER-LIGAND FREE ENERGY PREDICTED BY IDOCK:   -9.55 KCAL/MOL
REMARK 924 INTRA-LIGAND FREE ENERGY PREDICTED BY IDOCK:   -3.53 KCAL/MOL
REMARK 927      BINDING AFFINITY PREDICTED BY RF-SCORE:    0.00 PKD
ROOT
HETATM    1  C   UNL     1     -11.741  15.800  68.879  1.00  0.00    -0.404 C  
HETATM    2  C   UNL     1     -11.539  14.577  68.013  1.00  0.00    -0.336 A  
HETATM    3  C   UNL     1     -11.884  13.341  68.545  1.00  0.00    -0.384 A  
HETATM    4  C   UNL     1     -11.744  12.172  67.812  1.00  0.00    -0.320 A  
HETATM    5  N   UNL     1     -12.248  10.993  68.371  1.00  0.00    -0.780 NA 
HETATM    6  C   UNL     1     -11.330  12.271  66.470  1.00  0.00    -0.403 A  
HETATM    7  H2  UNL     1     -13.231  11.126  68.608  1.00  0.00     0.000 HD 
HETATM    8  C   UNL     1     -11.284  11.144  65.616  1.00  0.00     0.008 A  
HETATM    9  H1  UNL     1     -12.145  10.134  67.831  1.00  0.00     0.000 HD 
HETATM   10  C   UNL     1     -10.858  11.237  64.292  1.00  0.00    -0.398 A  
HETATM   11  C   UNL     1     -10.454  12.457  63.785  1.00  0.00    -0.475 A  
HETATM   12  C   UNL     1     -10.494  13.592  64.600  1.00  0.00    -0.439 A  
HETATM   13  C   UNL     1     -10.956  13.534  65.941  1.00  0.00    -0.278 A  
HETATM   14  N   UNL     1     -11.074  14.658  66.729  1.00  0.00    -0.328 NA 
ENDROOT
BRANCH  14  15
HETATM   15  C   UNL     1     -10.758  15.998  66.161  1.00  0.00    -0.244 C  
BRANCH  15  16
HETATM   16  C   UNL     1      -9.247  16.214  66.099  1.00  0.00    -0.382 C  
BRANCH  16  17
HETATM   17  C   UNL     1      -8.843  17.547  66.724  1.00  0.00    -0.275 C  
BRANCH  17  18
HETATM   18  C   UNL     1      -8.691  17.470  68.246  1.00  0.00    -0.270 C  
BRANCH  18  19
HETATM   19  C   UNL     1      -7.451  16.686  68.664  1.00  0.00    -0.211 C  
BRANCH  19  20
HETATM   20  C   UNL     1      -7.777  15.314  69.260  1.00  0.00    -0.214 C  
BRANCH  20  21
HETATM   21  C   UNL     1      -7.181  14.139  68.475  1.00  0.00    -0.110 C  
BRANCH  21  22
HETATM   22  C   UNL     1      -8.138  12.949  68.361  1.00  0.00    -0.130 C  
BRANCH  22  23
HETATM   23  C   UNL     1      -7.774  11.987  67.224  1.00  0.00    -0.168 C  
BRANCH  23  24
HETATM   24  C   UNL     1      -7.338  10.623  67.759  1.00  0.00    -0.089 C  
BRANCH  24  25
HETATM   25  N   UNL     1      -8.391   9.604  67.515  1.00  0.00    -0.117 NA 
HETATM   26  C   UNL     1      -8.511   9.019  66.283  1.00  0.00    -0.125 A  
HETATM   27  C   UNL     1      -9.456   8.009  66.082  1.00  0.00    -0.193 A  
HETATM   28  C   UNL     1      -7.641   9.330  65.086  1.00  0.00    -0.106 C  
HETATM   29  C   UNL     1     -10.305   7.596  67.096  1.00  0.00    -0.315 A  
HETATM   30  N   UNL     1     -11.115   6.484  66.846  1.00  0.00    -0.664 NA 
HETATM   31  C   UNL     1     -10.134   8.157  68.372  1.00  0.00    -0.226 A  
HETATM   32  H1  UNL     1     -11.741   6.180  67.592  1.00  0.00     0.000 HD 
HETATM   33  C   UNL     1      -9.188   9.201  68.566  1.00  0.00    -0.136 A  
HETATM   34  H2  UNL     1     -10.532   5.700  66.555  1.00  0.00     0.000 HD 
HETATM   35  C   UNL     1      -9.084   9.778  69.858  1.00  0.00    -0.257 A  
HETATM   36  C   UNL     1      -9.837   9.320  70.936  1.00  0.00    -0.363 A  
HETATM   37  C   UNL     1     -10.724   8.276  70.754  1.00  0.00    -0.244 A  
HETATM   38  C   UNL     1     -10.875   7.709  69.490  1.00  0.00    -0.171 A  
ENDBRANCH  24  25
ENDBRANCH  23  24
ENDBRANCH  22  23
ENDBRANCH  21  22
ENDBRANCH  20  21
ENDBRANCH  19  20
ENDBRANCH  18  19
ENDBRANCH  17  18
ENDBRANCH  16  17
ENDBRANCH  15  16
ENDBRANCH  14  15
TORSDOF 11
ENDMDL
MODEL       31
REMARK 921   NORMALIZED FREE ENERGY PREDICTED BY IDOCK:   -7.12 KCAL/MOL
REMARK 922        TOTAL FREE ENERGY PREDICTED BY IDOCK:  -13.05 KCAL/MOL
REMARK 923 INTER-LIGAND FREE ENERGY PREDICTED BY IDOCK:  -10.02 KCAL/MOL
REMARK 924 INTRA-LIGAND FREE ENERGY PREDICTED BY IDOCK:   -3.03 KCAL/MOL
REMARK 927      BINDING AFFINITY PREDICTED BY RF-SCORE:    0.00 PKD
ROOT
HETATM    1  C   UNL     1     -10.696  13.269  64.457  1.00  0.00    -0.428 C  
HETATM    2  C   UNL     1     -11.159  13.347  65.895  1.00  0.00    -0.280 A  
HETATM    3  C   UNL     1     -11.523  12.163  66.524  1.00  0.00    -0.430 A  
HETATM    4  C   UNL     1     -11.944  12.145  67.845  1.00  0.00    -0.148 A  
HETATM    5  N   UNL     1     -12.153  10.896  68.440  1.00  0.00    -0.818 NA 
HETATM    6  C   UNL     1     -11.906  13.348  68.575  1.00  0.00    -0.401 A  
HETATM    7  H2  UNL     1     -11.308  10.333  68.349  1.00  0.00     0.000 HD 
HETATM    8  C   UNL     1     -12.196  13.393  69.958  1.00  0.00    -0.367 A  
HETATM    9  H1  UNL     1     -12.463  10.883  69.411  1.00  0.00     0.000 HD 
HETATM   10  C   UNL     1     -12.176  14.586  70.679  1.00  0.00    -0.401 A  
HETATM   11  C   UNL     1     -11.876  15.772  70.036  1.00  0.00    -0.365 A  
HETATM   12  C   UNL     1     -11.578  15.760  68.670  1.00  0.00    -0.392 A  
HETATM   13  C   UNL     1     -11.556  14.557  67.919  1.00  0.00    -0.344 A  
HETATM   14  N   UNL     1     -11.188  14.524  66.591  1.00  0.00    -0.337 NA 
ENDROOT
BRANCH  14  15
HETATM   15  C   UNL     1     -10.745  15.774  65.913  1.00  0.00    -0.313 C  
BRANCH  15  16
HETATM   16  C   UNL     1      -9.254  16.010  66.139  1.00  0.00    -0.388 C  
BRANCH  16  17
HETATM   17  C   UNL     1      -8.981  17.413  66.675  1.00  0.00    -0.274 C  
BRANCH  17  18
HETATM   18  C   UNL     1      -8.019  17.420  67.867  1.00  0.00    -0.218 C  
BRANCH  18  19
HETATM   19  C   UNL     1      -8.139  16.155  68.712  1.00  0.00    -0.218 C  
BRANCH  19  20
HETATM   20  C   UNL     1      -6.784  15.541  69.073  1.00  0.00    -0.131 C  
BRANCH  20  21
HETATM   21  C   UNL     1      -6.792  14.007  69.123  1.00  0.00    -0.112 C  
BRANCH  21  22
HETATM   22  C   UNL     1      -7.561  13.376  67.959  1.00  0.00    -0.143 C  
BRANCH  22  23
HETATM   23  C   UNL     1      -8.490  12.237  68.396  1.00  0.00    -0.138 C  
BRANCH  23  24
HETATM   24  C   UNL     1      -7.814  10.873  68.255  1.00  0.00    -0.118 C  
BRANCH  24  25
HETATM   25  N   UNL     1      -8.823   9.810  68.017  1.00  0.00    -0.119 NA 
HETATM   26  C   UNL     1      -9.168   9.462  66.739  1.00  0.00    -0.143 A  
HETATM   27  C   UNL     1     -10.064   8.411  66.523  1.00  0.00    -0.317 A  
HETATM   28  C   UNL     1      -8.604  10.092  65.485  1.00  0.00    -0.162 C  
HETATM   29  C   UNL     1     -10.642   7.720  67.576  1.00  0.00    -0.248 A  
HETATM   30  N   UNL     1     -11.410   6.594  67.264  1.00  0.00    -0.783 NA 
HETATM   31  C   UNL     1     -10.234   8.041  68.881  1.00  0.00    -0.220 A  
HETATM   32  H1  UNL     1     -11.835   6.085  68.039  1.00  0.00     0.000 HD 
HETATM   33  C   UNL     1      -9.342   9.127  69.098  1.00  0.00    -0.152 A  
HETATM   34  H2  UNL     1     -10.852   5.950  66.703  1.00  0.00     0.000 HD 
HETATM   35  C   UNL     1      -8.997   9.454  70.434  1.00  0.00    -0.294 A  
HETATM   36  C   UNL     1      -9.464   8.717  71.520  1.00  0.00    -0.341 A  
HETATM   37  C   UNL     1     -10.297   7.636  71.303  1.00  0.00    -0.215 A  
HETATM   38  C   UNL     1     -10.682   7.308  70.004  1.00  0.00    -0.261 A  
ENDBRANCH  24  25
ENDBRANCH  23  24
ENDBRANCH  22  23
ENDBRANCH  21  22
ENDBRANCH  20  21
ENDBRANCH  19  20
ENDBRANCH  18  19
ENDBRANCH  17  18
ENDBRANCH  16  17
ENDBRANCH  15  16
ENDBRANCH  14  15
TORSDOF 11
ENDMDL
MODEL       32
REMARK 921   NORMALIZED FREE ENERGY PREDICTED BY IDOCK:   -7.11 KCAL/MOL
REMARK 922        TOTAL FREE ENERGY PREDICTED BY IDOCK:  -13.04 KCAL/MOL
REMARK 923 INTER-LIGAND FREE ENERGY PREDICTED BY IDOCK:  -11.05 KCAL/MOL
REMARK 924 INTRA-LIGAND FREE ENERGY PREDICTED BY IDOCK:   -1.99 KCAL/MOL
REMARK 927      BINDING AFFINITY PREDICTED BY RF-SCORE:    0.00 PKD
ROOT
HETATM    1  C   UNL     1     -11.722  11.461  68.715  1.00  0.00    -0.404 C  
HETATM    2  C   UNL     1     -10.949  10.534  69.625  1.00  0.00    -0.283 A  
HETATM    3  C   UNL     1      -9.574  10.448  69.447  1.00  0.00    -0.213 A  
HETATM    4  C   UNL     1      -8.790   9.632  70.249  1.00  0.00    -0.211 A  
HETATM    5  N   UNL     1      -7.402   9.715  70.094  1.00  0.00    -0.121 NA 
HETATM    6  C   UNL     1      -9.405   8.958  71.320  1.00  0.00    -0.336 A  
HETATM    7  H2  UNL     1      -7.107  10.684  70.210  1.00  0.00     0.000 HD 
HETATM    8  C   UNL     1      -8.660   8.209  72.261  1.00  0.00    -0.234 A  
HETATM    9  H1  UNL     1      -6.826   9.115  70.684  1.00  0.00     0.000 HD 
HETATM   10  C   UNL     1      -9.269   7.527  73.312  1.00  0.00    -0.256 A  
HETATM   11  C   UNL     1     -10.644   7.563  73.448  1.00  0.00    -0.409 A  
HETATM   12  C   UNL     1     -11.409   8.299  72.540  1.00  0.00    -0.455 A  
HETATM   13  C   UNL     1     -10.814   9.032  71.481  1.00  0.00    -0.346 A  
HETATM   14  N   UNL     1     -11.551   9.824  70.627  1.00  0.00    -0.293 NA 
ENDROOT
BRANCH  14  15
HETATM   15  C   UNL     1     -13.019   9.970  70.833  1.00  0.00    -0.318 C  
BRANCH  15  16
HETATM   16  C   UNL     1     -13.307  10.818  72.070  1.00  0.00    -0.403 C  
BRANCH  16  17
HETATM   17  C   UNL     1     -12.987  12.291  71.830  1.00  0.00    -0.431 C  
BRANCH  17  18
HETATM   18  C   UNL     1     -13.979  13.235  72.515  1.00  0.00    -0.476 C  
BRANCH  18  19
HETATM   19  C   UNL     1     -13.421  14.646  72.671  1.00  0.00    -0.580 C  
BRANCH  19  20
HETATM   20  C   UNL     1     -12.086  14.850  71.950  1.00  0.00    -0.435 C  
BRANCH  20  21
HETATM   21  C   UNL     1     -12.211  15.593  70.613  1.00  0.00    -0.446 C  
BRANCH  21  22
HETATM   22  C   UNL     1     -11.068  15.275  69.644  1.00  0.00    -0.284 C  
BRANCH  22  23
HETATM   23  C   UNL     1     -11.517  15.216  68.180  1.00  0.00    -0.356 C  
BRANCH  23  24
HETATM   24  C   UNL     1     -10.342  15.422  67.223  1.00  0.00    -0.271 C  
BRANCH  24  25
HETATM   25  N   UNL     1      -9.870  14.120  66.685  1.00  0.00    -0.273 NA 
HETATM   26  C   UNL     1      -8.819  13.472  67.276  1.00  0.00    -0.224 A  
HETATM   27  C   UNL     1      -8.428  12.214  66.809  1.00  0.00    -0.138 A  
HETATM   28  C   UNL     1      -8.047  13.981  68.472  1.00  0.00    -0.139 C  
HETATM   29  C   UNL     1      -9.062  11.607  65.737  1.00  0.00    -0.120 A  
HETATM   30  N   UNL     1      -8.699  10.291  65.434  1.00  0.00    -0.161 NA 
HETATM   31  C   UNL     1     -10.178  12.250  65.177  1.00  0.00    -0.305 A  
HETATM   32  H1  UNL     1      -9.166   9.844  64.645  1.00  0.00     0.000 HD 
HETATM   33  C   UNL     1     -10.557  13.541  65.638  1.00  0.00    -0.284 A  
HETATM   34  H2  UNL     1      -8.813   9.710  66.265  1.00  0.00     0.000 HD 
HETATM   35  C   UNL     1     -11.657  14.179  65.011  1.00  0.00    -0.362 A  
HETATM   36  C   UNL     1     -12.396  13.562  64.004  1.00  0.00    -0.391 A  
HETATM   37  C   UNL     1     -12.051  12.290  63.588  1.00  0.00    -0.648 A  
HETATM   38  C   UNL     1     -10.955  11.647  64.161  1.00  0.00    -0.442 A  
ENDBRANCH  24  25
ENDBRANCH  23  24
ENDBRANCH  22  23
ENDBRANCH  21  22
ENDBRANCH  20  21
ENDBRANCH  19  20
ENDBRANCH  18  19
ENDBRANCH  17  18
ENDBRANCH  16  17
ENDBRANCH  15  16
ENDBRANCH  14  15
TORSDOF 11
ENDMDL
MODEL       33
REMARK 921   NORMALIZED FREE ENERGY PREDICTED BY IDOCK:   -7.11 KCAL/MOL
REMARK 922        TOTAL FREE ENERGY PREDICTED BY IDOCK:  -13.03 KCAL/MOL
REMARK 923 INTER-LIGAND FREE ENERGY PREDICTED BY IDOCK:  -10.69 KCAL/MOL
REMARK 924 INTRA-LIGAND FREE ENERGY PREDICTED BY IDOCK:   -2.34 KCAL/MOL
REMARK 927      BINDING AFFINITY PREDICTED BY RF-SCORE:    0.00 PKD
ROOT
HETATM    1  C   UNL     1     -11.583  12.266  66.381  1.00  0.00    -0.445 C  
HETATM    2  C   UNL     1     -11.177  13.721  66.326  1.00  0.00    -0.306 A  
HETATM    3  C   UNL     1     -11.394  14.410  65.139  1.00  0.00    -0.359 A  
HETATM    4  C   UNL     1     -11.063  15.751  65.010  1.00  0.00    -0.370 A  
HETATM    5  N   UNL     1     -11.445  16.401  63.832  1.00  0.00    -1.618 NA 
HETATM    6  C   UNL     1     -10.586  16.434  66.145  1.00  0.00    -0.259 A  
HETATM    7  H2  UNL     1     -12.450  16.287  63.695  1.00  0.00     0.000 HD 
HETATM    8  C   UNL     1     -10.347  17.828  66.134  1.00  0.00    -0.340 A  
HETATM    9  H1  UNL     1     -11.202  17.387  63.737  1.00  0.00     0.000 HD 
HETATM   10  C   UNL     1      -9.858  18.503  67.251  1.00  0.00    -0.329 A  
HETATM   11  C   UNL     1      -9.583  17.802  68.410  1.00  0.00    -0.323 A  
HETATM   12  C   UNL     1      -9.815  16.425  68.456  1.00  0.00    -0.231 A  
HETATM   13  C   UNL     1     -10.345  15.717  67.346  1.00  0.00    -0.282 A  
HETATM   14  N   UNL     1     -10.651  14.375  67.406  1.00  0.00    -0.268 NA 
ENDROOT
BRANCH  14  15
HETATM   15  C   UNL     1     -10.474  13.630  68.683  1.00  0.00    -0.234 C  
BRANCH  15  16
HETATM   16  C   UNL     1     -11.649  13.888  69.624  1.00  0.00    -0.347 C  
BRANCH  16  17
HETATM   17  C   UNL     1     -12.238  12.586  70.160  1.00  0.00    -0.307 C  
BRANCH  17  18
HETATM   18  C   UNL     1     -12.988  12.771  71.482  1.00  0.00    -0.388 C  
BRANCH  18  19
HETATM   19  C   UNL     1     -13.525  11.453  72.031  1.00  0.00    -0.289 C  
BRANCH  19  20
HETATM   20  C   UNL     1     -13.126  10.240  71.187  1.00  0.00    -0.481 C  
BRANCH  20  21
HETATM   21  C   UNL     1     -12.635   9.044  72.014  1.00  0.00    -0.464 C  
BRANCH  21  22
HETATM   22  C   UNL     1     -11.122   8.828  71.914  1.00  0.00    -0.434 C  
BRANCH  22  23
HETATM   23  C   UNL     1     -10.473   9.622  70.773  1.00  0.00    -0.375 C  
BRANCH  23  24
HETATM   24  C   UNL     1      -9.228   8.916  70.236  1.00  0.00    -0.185 C  
BRANCH  24  25
HETATM   25  N   UNL     1      -9.197   8.968  68.752  1.00  0.00    -0.133 NA 
HETATM   26  C   UNL     1      -9.913   8.061  68.016  1.00  0.00    -0.179 A  
HETATM   27  C   UNL     1      -9.937   8.161  66.623  1.00  0.00    -0.339 A  
HETATM   28  C   UNL     1     -10.764   6.953  68.595  1.00  0.00    -0.256 C  
HETATM   29  C   UNL     1      -9.227   9.145  65.952  1.00  0.00    -0.227 A  
HETATM   30  N   UNL     1      -9.426   9.256  64.573  1.00  0.00    -0.381 NA 
HETATM   31  C   UNL     1      -8.547  10.108  66.716  1.00  0.00    -0.129 A  
HETATM   32  H1  UNL     1      -8.905   9.980  64.078  1.00  0.00     0.000 HD 
HETATM   33  C   UNL     1      -8.505   9.988  68.132  1.00  0.00    -0.114 A  
HETATM   34  H2  UNL     1     -10.422   9.370  64.383  1.00  0.00     0.000 HD 
HETATM   35  C   UNL     1      -7.763  10.950  68.863  1.00  0.00    -0.135 A  
HETATM   36  C   UNL     1      -7.125  12.022  68.242  1.00  0.00    -0.086 A  
HETATM   37  C   UNL     1      -7.205  12.159  66.869  1.00  0.00    -0.002 A  
HETATM   38  C   UNL     1      -7.899  11.212  66.117  1.00  0.00    -0.072 A  
ENDBRANCH  24  25
ENDBRANCH  23  24
ENDBRANCH  22  23
ENDBRANCH  21  22
ENDBRANCH  20  21
ENDBRANCH  19  20
ENDBRANCH  18  19
ENDBRANCH  17  18
ENDBRANCH  16  17
ENDBRANCH  15  16
ENDBRANCH  14  15
TORSDOF 11
ENDMDL
MODEL       34
REMARK 921   NORMALIZED FREE ENERGY PREDICTED BY IDOCK:   -7.10 KCAL/MOL
REMARK 922        TOTAL FREE ENERGY PREDICTED BY IDOCK:  -13.02 KCAL/MOL
REMARK 923 INTER-LIGAND FREE ENERGY PREDICTED BY IDOCK:   -9.58 KCAL/MOL
REMARK 924 INTRA-LIGAND FREE ENERGY PREDICTED BY IDOCK:   -3.44 KCAL/MOL
REMARK 927      BINDING AFFINITY PREDICTED BY RF-SCORE:    0.00 PKD
ROOT
HETATM    1  C   UNL     1     -13.416  14.295  72.829  1.00  0.00    -0.590 C  
HETATM    2  C   UNL     1     -12.923  13.450  71.677  1.00  0.00    -0.355 A  
HETATM    3  C   UNL     1     -12.940  12.069  71.832  1.00  0.00    -0.428 A  
HETATM    4  C   UNL     1     -12.519  11.221  70.818  1.00  0.00    -0.376 A  
HETATM    5  N   UNL     1     -12.704   9.848  71.005  1.00  0.00    -0.400 NA 
HETATM    6  C   UNL     1     -12.158  11.787  69.581  1.00  0.00    -0.323 A  
HETATM    7  H2  UNL     1     -13.686   9.665  71.211  1.00  0.00     0.000 HD 
HETATM    8  C   UNL     1     -11.840  10.990  68.457  1.00  0.00    -0.286 A  
HETATM    9  H1  UNL     1     -12.394   9.225  70.260  1.00  0.00     0.000 HD 
HETATM   10  C   UNL     1     -11.467  11.548  67.236  1.00  0.00    -0.338 A  
HETATM   11  C   UNL     1     -11.389  12.921  67.104  1.00  0.00    -0.352 A  
HETATM   12  C   UNL     1     -11.704  13.738  68.194  1.00  0.00    -0.392 A  
HETATM   13  C   UNL     1     -12.121  13.199  69.438  1.00  0.00    -0.231 A  
HETATM   14  N   UNL     1     -12.508  13.996  70.494  1.00  0.00    -0.350 NA 
ENDROOT
BRANCH  14  15
HETATM   15  C   UNL     1     -12.546  15.476  70.331  1.00  0.00    -0.378 C  
BRANCH  15  16
HETATM   16  C   UNL     1     -11.147  16.070  70.481  1.00  0.00    -0.370 C  
BRANCH  16  17
HETATM   17  C   UNL     1     -10.696  16.777  69.206  1.00  0.00    -0.324 C  
BRANCH  17  18
HETATM   18  C   UNL     1      -9.238  16.479  68.843  1.00  0.00    -0.258 C  
BRANCH  18  19
HETATM   19  C   UNL     1      -9.039  16.313  67.340  1.00  0.00    -0.203 C  
BRANCH  19  20
HETATM   20  C   UNL     1      -8.292  15.030  66.968  1.00  0.00    -0.254 C  
BRANCH  20  21
HETATM   21  C   UNL     1      -7.951  14.140  68.170  1.00  0.00    -0.143 C  
BRANCH  21  22
HETATM   22  C   UNL     1      -7.656  12.690  67.776  1.00  0.00    -0.141 C  
BRANCH  22  23
HETATM   23  C   UNL     1      -8.206  11.668  68.777  1.00  0.00    -0.055 C  
BRANCH  23  24
HETATM   24  C   UNL     1      -7.632  10.272  68.529  1.00  0.00    -0.089 C  
BRANCH  24  25
HETATM   25  N   UNL     1      -8.712   9.316  68.177  1.00  0.00    -0.125 NA 
HETATM   26  C   UNL     1      -9.027   9.085  66.865  1.00  0.00    -0.123 A  
HETATM   27  C   UNL     1      -9.994   8.130  66.540  1.00  0.00    -0.302 A  
HETATM   28  C   UNL     1      -8.357   9.747  65.682  1.00  0.00    -0.138 C  
HETATM   29  C   UNL     1     -10.673   7.420  67.518  1.00  0.00    -0.240 A  
HETATM   30  N   UNL     1     -11.515   6.387  67.097  1.00  0.00    -0.708 NA 
HETATM   31  C   UNL     1     -10.300   7.618  68.858  1.00  0.00    -0.222 A  
HETATM   32  H1  UNL     1     -12.014   5.864  67.817  1.00  0.00     0.000 HD 
HETATM   33  C   UNL     1      -9.333   8.608  69.185  1.00  0.00    -0.153 A  
HETATM   34  H2  UNL     1     -10.986   5.737  66.515  1.00  0.00     0.000 HD 
HETATM   35  C   UNL     1      -9.024   8.814  70.554  1.00  0.00    -0.203 A  
HETATM   36  C   UNL     1      -9.598   8.048  71.566  1.00  0.00    -0.209 A  
HETATM   37  C   UNL     1     -10.505   7.058  71.240  1.00  0.00    -0.224 A  
HETATM   38  C   UNL     1     -10.856   6.851  69.908  1.00  0.00    -0.294 A  
ENDBRANCH  24  25
ENDBRANCH  23  24
ENDBRANCH  22  23
ENDBRANCH  21  22
ENDBRANCH  20  21
ENDBRANCH  19  20
ENDBRANCH  18  19
ENDBRANCH  17  18
ENDBRANCH  16  17
ENDBRANCH  15  16
ENDBRANCH  14  15
TORSDOF 11
ENDMDL
MODEL       35
REMARK 921   NORMALIZED FREE ENERGY PREDICTED BY IDOCK:   -7.09 KCAL/MOL
REMARK 922        TOTAL FREE ENERGY PREDICTED BY IDOCK:  -13.01 KCAL/MOL
REMARK 923 INTER-LIGAND FREE ENERGY PREDICTED BY IDOCK:  -11.28 KCAL/MOL
REMARK 924 INTRA-LIGAND FREE ENERGY PREDICTED BY IDOCK:   -1.73 KCAL/MOL
REMARK 927      BINDING AFFINITY PREDICTED BY RF-SCORE:    0.00 PKD
ROOT
HETATM    1  C   UNL     1     -11.996  11.977  70.094  1.00  0.00    -0.401 C  
HETATM    2  C   UNL     1     -12.063  10.606  70.729  1.00  0.00    -0.374 A  
HETATM    3  C   UNL     1     -13.026  10.392  71.708  1.00  0.00    -0.580 A  
HETATM    4  C   UNL     1     -13.165   9.160  72.329  1.00  0.00    -0.461 A  
HETATM    5  N   UNL     1     -14.249   8.991  73.197  1.00  0.00    -1.190 NA 
HETATM    6  C   UNL     1     -12.366   8.091  71.880  1.00  0.00    -0.360 A  
HETATM    7  H2  UNL     1     -15.113   9.219  72.705  1.00  0.00     0.000 HD 
HETATM    8  C   UNL     1     -12.532   6.775  72.370  1.00  0.00     0.040 A  
HETATM    9  H1  UNL     1     -14.350   8.086  73.654  1.00  0.00     0.000 HD 
HETATM   10  C   UNL     1     -11.732   5.719  71.939  1.00  0.00    -0.117 A  
HETATM   11  C   UNL     1     -10.733   5.949  71.012  1.00  0.00    -0.331 A  
HETATM   12  C   UNL     1     -10.547   7.237  70.503  1.00  0.00    -0.237 A  
HETATM   13  C   UNL     1     -11.369   8.324  70.897  1.00  0.00    -0.268 A  
HETATM   14  N   UNL     1     -11.246   9.580  70.343  1.00  0.00    -0.257 NA 
ENDROOT
BRANCH  14  15
HETATM   15  C   UNL     1     -10.255   9.818  69.257  1.00  0.00    -0.204 C  
BRANCH  15  16
HETATM   16  C   UNL     1      -8.863  10.053  69.840  1.00  0.00    -0.177 C  
BRANCH  16  17
HETATM   17  C   UNL     1      -7.787   9.319  69.044  1.00  0.00    -0.082 C  
BRANCH  17  18
HETATM   18  C   UNL     1      -8.302   8.031  68.396  1.00  0.00    -0.127 C  
BRANCH  18  19
HETATM   19  C   UNL     1      -7.502   7.649  67.154  1.00  0.00    -0.096 C  
BRANCH  19  20
HETATM   20  C   UNL     1      -8.359   7.555  65.889  1.00  0.00    -0.140 C  
BRANCH  20  21
HETATM   21  C   UNL     1      -8.407   8.855  65.075  1.00  0.00    -0.174 C  
BRANCH  21  22
HETATM   22  C   UNL     1      -9.719   9.624  65.254  1.00  0.00    -0.330 C  
BRANCH  22  23
HETATM   23  C   UNL     1      -9.551  10.929  66.041  1.00  0.00    -0.248 C  
BRANCH  23  24
HETATM   24  C   UNL     1     -10.901  11.570  66.364  1.00  0.00    -0.285 C  
BRANCH  24  25
HETATM   25  N   UNL     1     -11.010  12.910  65.733  1.00  0.00    -0.275 NA 
HETATM   26  C   UNL     1     -11.655  13.056  64.534  1.00  0.00    -0.360 A  
HETATM   27  C   UNL     1     -11.816  14.330  63.982  1.00  0.00    -0.267 A  
HETATM   28  C   UNL     1     -12.289  11.932  63.746  1.00  0.00    -0.541 C  
HETATM   29  C   UNL     1     -11.313  15.461  64.606  1.00  0.00    -0.355 A  
HETATM   30  N   UNL     1     -11.647  16.703  64.056  1.00  0.00    -1.496 NA 
HETATM   31  C   UNL     1     -10.708  15.310  65.864  1.00  0.00    -0.340 A  
HETATM   32  H1  UNL     1     -11.277  17.535  64.515  1.00  0.00     0.000 HD 
HETATM   33  C   UNL     1     -10.524  14.009  66.410  1.00  0.00    -0.284 A  
HETATM   34  H2  UNL     1     -12.662  16.779  63.988  1.00  0.00     0.000 HD 
HETATM   35  C   UNL     1      -9.861  13.895  67.659  1.00  0.00    -0.236 A  
HETATM   36  C   UNL     1      -9.437  15.011  68.376  1.00  0.00    -0.201 A  
HETATM   37  C   UNL     1      -9.656  16.275  67.863  1.00  0.00    -0.227 A  
HETATM   38  C   UNL     1     -10.275  16.421  66.623  1.00  0.00    -0.296 A  
ENDBRANCH  24  25
ENDBRANCH  23  24
ENDBRANCH  22  23
ENDBRANCH  21  22
ENDBRANCH  20  21
ENDBRANCH  19  20
ENDBRANCH  18  19
ENDBRANCH  17  18
ENDBRANCH  16  17
ENDBRANCH  15  16
ENDBRANCH  14  15
TORSDOF 11
ENDMDL
MODEL       36
REMARK 921   NORMALIZED FREE ENERGY PREDICTED BY IDOCK:   -7.09 KCAL/MOL
REMARK 922        TOTAL FREE ENERGY PREDICTED BY IDOCK:  -13.01 KCAL/MOL
REMARK 923 INTER-LIGAND FREE ENERGY PREDICTED BY IDOCK:  -10.61 KCAL/MOL
REMARK 924 INTRA-LIGAND FREE ENERGY PREDICTED BY IDOCK:   -2.40 KCAL/MOL
REMARK 927      BINDING AFFINITY PREDICTED BY RF-SCORE:    0.00 PKD
ROOT
HETATM    1  C   UNL     1     -11.237  11.583  68.809  1.00  0.00    -0.309 C  
HETATM    2  C   UNL     1     -10.962  10.104  68.664  1.00  0.00    -0.230 A  
HETATM    3  C   UNL     1     -10.550   9.639  67.421  1.00  0.00    -0.333 A  
HETATM    4  C   UNL     1     -10.263   8.299  67.207  1.00  0.00    -0.274 A  
HETATM    5  N   UNL     1      -9.720   7.943  65.969  1.00  0.00    -0.452 NA 
HETATM    6  C   UNL     1     -10.306   7.423  68.309  1.00  0.00    -0.231 A  
HETATM    7  H2  UNL     1      -8.882   8.498  65.796  1.00  0.00     0.000 HD 
HETATM    8  C   UNL     1      -9.906   6.070  68.205  1.00  0.00    -0.152 A  
HETATM    9  H1  UNL     1      -9.509   6.958  65.812  1.00  0.00     0.000 HD 
HETATM   10  C   UNL     1      -9.963   5.197  69.290  1.00  0.00    -0.280 A  
HETATM   11  C   UNL     1     -10.434   5.647  70.509  1.00  0.00    -0.347 A  
HETATM   12  C   UNL     1     -10.831   6.980  70.646  1.00  0.00    -0.274 A  
HETATM   13  C   UNL     1     -10.751   7.900  69.570  1.00  0.00    -0.192 A  
HETATM   14  N   UNL     1     -11.065   9.234  69.715  1.00  0.00    -0.197 NA 
ENDROOT
BRANCH  14  15
HETATM   15  C   UNL     1     -11.459   9.762  71.051  1.00  0.00    -0.383 C  
BRANCH  15  16
HETATM   16  C   UNL     1     -12.973   9.683  71.236  1.00  0.00    -0.446 C  
BRANCH  16  17
HETATM   17  C   UNL     1     -13.488  10.793  72.147  1.00  0.00    -0.227 C  
BRANCH  17  18
HETATM   18  C   UNL     1     -12.949  12.175  71.764  1.00  0.00    -0.437 C  
BRANCH  18  19
HETATM   19  C   UNL     1     -13.878  13.301  72.209  1.00  0.00    -0.637 C  
BRANCH  19  20
HETATM   20  C   UNL     1     -13.317  14.695  71.922  1.00  0.00    -0.453 C  
BRANCH  20  21
HETATM   21  C   UNL     1     -11.859  14.690  71.442  1.00  0.00    -0.362 C  
BRANCH  21  22
HETATM   22  C   UNL     1     -11.515  15.898  70.566  1.00  0.00    -0.412 C  
BRANCH  22  23
HETATM   23  C   UNL     1     -11.907  15.710  69.096  1.00  0.00    -0.378 C  
BRANCH  23  24
HETATM   24  C   UNL     1     -10.816  16.218  68.153  1.00  0.00    -0.342 C  
BRANCH  24  25
HETATM   25  N   UNL     1     -10.045  15.082  67.585  1.00  0.00    -0.230 NA 
HETATM   26  C   UNL     1      -8.843  14.723  68.134  1.00  0.00    -0.170 A  
HETATM   27  C   UNL     1      -8.159  13.609  67.640  1.00  0.00    -0.179 A  
HETATM   28  C   UNL     1      -8.188  15.408  69.312  1.00  0.00    -0.252 C  
HETATM   29  C   UNL     1      -8.652  12.864  66.581  1.00  0.00     0.019 A  
HETATM   30  N   UNL     1      -7.975  11.686  66.251  1.00  0.00    -0.380 NA 
HETATM   31  C   UNL     1      -9.914  13.201  66.065  1.00  0.00    -0.283 A  
HETATM   32  H1  UNL     1      -8.337  11.137  65.472  1.00  0.00     0.000 HD 
HETATM   33  C   UNL     1     -10.595  14.349  66.553  1.00  0.00    -0.296 A  
HETATM   34  H2  UNL     1      -7.908  11.092  67.079  1.00  0.00     0.000 HD 
HETATM   35  C   UNL     1     -11.843  14.687  65.969  1.00  0.00    -0.280 A  
HETATM   36  C   UNL     1     -12.432  13.904  64.978  1.00  0.00    -0.447 A  
HETATM   37  C   UNL     1     -11.787  12.765  64.537  1.00  0.00    -0.436 A  
HETATM   38  C   UNL     1     -10.544  12.423  65.067  1.00  0.00    -0.330 A  
ENDBRANCH  24  25
ENDBRANCH  23  24
ENDBRANCH  22  23
ENDBRANCH  21  22
ENDBRANCH  20  21
ENDBRANCH  19  20
ENDBRANCH  18  19
ENDBRANCH  17  18
ENDBRANCH  16  17
ENDBRANCH  15  16
ENDBRANCH  14  15
TORSDOF 11
ENDMDL
MODEL       37
REMARK 921   NORMALIZED FREE ENERGY PREDICTED BY IDOCK:   -7.09 KCAL/MOL
REMARK 922        TOTAL FREE ENERGY PREDICTED BY IDOCK:  -13.01 KCAL/MOL
REMARK 923 INTER-LIGAND FREE ENERGY PREDICTED BY IDOCK:  -10.62 KCAL/MOL
REMARK 924 INTRA-LIGAND FREE ENERGY PREDICTED BY IDOCK:   -2.38 KCAL/MOL
REMARK 927      BINDING AFFINITY PREDICTED BY RF-SCORE:    0.00 PKD
ROOT
HETATM    1  C   UNL     1     -12.388  14.620  64.397  1.00  0.00    -0.420 C  
HETATM    2  C   UNL     1     -11.404  13.485  64.567  1.00  0.00    -0.365 A  
HETATM    3  C   UNL     1     -11.312  12.548  63.545  1.00  0.00    -0.556 A  
HETATM    4  C   UNL     1     -10.424  11.485  63.616  1.00  0.00    -0.427 A  
HETATM    5  N   UNL     1     -10.296  10.673  62.484  1.00  0.00    -0.697 NA 
HETATM    6  C   UNL     1      -9.541  11.423  64.710  1.00  0.00    -0.239 A  
HETATM    7  H2  UNL     1     -10.063  11.253  61.678  1.00  0.00     0.000 HD 
HETATM    8  C   UNL     1      -8.521  10.447  64.796  1.00  0.00    -0.176 A  
HETATM    9  H1  UNL     1      -9.643   9.891  62.537  1.00  0.00     0.000 HD 
HETATM   10  C   UNL     1      -7.657  10.373  65.887  1.00  0.00    -0.146 A  
HETATM   11  C   UNL     1      -7.793  11.268  66.931  1.00  0.00    -0.156 A  
HETATM   12  C   UNL     1      -8.786  12.250  66.875  1.00  0.00    -0.207 A  
HETATM   13  C   UNL     1      -9.657  12.370  65.761  1.00  0.00    -0.156 A  
HETATM   14  N   UNL     1     -10.588  13.382  65.660  1.00  0.00    -0.277 NA 
ENDROOT
BRANCH  14  15
HETATM   15  C   UNL     1     -10.667  14.425  66.719  1.00  0.00    -0.292 C  
BRANCH  15  16
HETATM   16  C   UNL     1     -11.796  14.112  67.700  1.00  0.00    -0.427 C  
BRANCH  16  17
HETATM   17  C   UNL     1     -11.332  14.233  69.149  1.00  0.00    -0.312 C  
BRANCH  17  18
HETATM   18  C   UNL     1     -11.816  13.076  70.028  1.00  0.00    -0.355 C  
BRANCH  18  19
HETATM   19  C   UNL     1     -12.737  13.548  71.149  1.00  0.00    -0.425 C  
BRANCH  19  20
HETATM   20  C   UNL     1     -13.300  12.400  71.991  1.00  0.00    -0.511 C  
BRANCH  20  21
HETATM   21  C   UNL     1     -12.813  11.013  71.552  1.00  0.00    -0.555 C  
BRANCH  21  22
HETATM   22  C   UNL     1     -13.504   9.872  72.304  1.00  0.00    -0.397 C  
BRANCH  22  23
HETATM   23  C   UNL     1     -12.857   8.504  72.056  1.00  0.00    -0.414 C  
BRANCH  23  24
HETATM   24  C   UNL     1     -11.337   8.617  71.926  1.00  0.00    -0.347 C  
BRANCH  24  25
HETATM   25  N   UNL     1     -10.819   7.618  70.958  1.00  0.00    -0.239 NA 
HETATM   26  C   UNL     1     -10.553   6.338  71.365  1.00  0.00    -0.237 A  
HETATM   27  C   UNL     1     -10.135   5.384  70.433  1.00  0.00    -0.314 A  
HETATM   28  C   UNL     1     -10.734   5.820  72.774  1.00  0.00    -0.278 C  
HETATM   29  C   UNL     1      -9.952   5.705  69.097  1.00  0.00    -0.183 A  
HETATM   30  N   UNL     1      -9.674   4.657  68.214  1.00  0.00    -0.147 NA 
HETATM   31  C   UNL     1     -10.288   7.003  68.676  1.00  0.00    -0.200 A  
HETATM   32  H1  UNL     1      -9.540   4.893  67.231  1.00  0.00     0.000 HD 
HETATM   33  C   UNL     1     -10.688   7.976  69.632  1.00  0.00    -0.207 A  
HETATM   34  H2  UNL     1     -10.402   3.947  68.294  1.00  0.00     0.000 HD 
HETATM   35  C   UNL     1     -10.966   9.289  69.174  1.00  0.00    -0.083 A  
HETATM   36  C   UNL     1     -10.905   9.631  67.825  1.00  0.00    -0.278 A  
HETATM   37  C   UNL     1     -10.557   8.671  66.894  1.00  0.00    -0.270 A  
HETATM   38  C   UNL     1     -10.246   7.379  67.314  1.00  0.00    -0.330 A  
ENDBRANCH  24  25
ENDBRANCH  23  24
ENDBRANCH  22  23
ENDBRANCH  21  22
ENDBRANCH  20  21
ENDBRANCH  19  20
ENDBRANCH  18  19
ENDBRANCH  17  18
ENDBRANCH  16  17
ENDBRANCH  15  16
ENDBRANCH  14  15
TORSDOF 11
ENDMDL
MODEL       38
REMARK 921   NORMALIZED FREE ENERGY PREDICTED BY IDOCK:   -7.09 KCAL/MOL
REMARK 922        TOTAL FREE ENERGY PREDICTED BY IDOCK:  -13.00 KCAL/MOL
REMARK 923 INTER-LIGAND FREE ENERGY PREDICTED BY IDOCK:  -10.29 KCAL/MOL
REMARK 924 INTRA-LIGAND FREE ENERGY PREDICTED BY IDOCK:   -2.71 KCAL/MOL
REMARK 927      BINDING AFFINITY PREDICTED BY RF-SCORE:    0.00 PKD
ROOT
HETATM    1  C   UNL     1     -11.682  11.628  69.792  1.00  0.00    -0.425 C  
HETATM    2  C   UNL     1     -11.394  10.178  70.107  1.00  0.00    -0.303 A  
HETATM    3  C   UNL     1     -11.713   9.715  71.377  1.00  0.00    -0.478 A  
HETATM    4  C   UNL     1     -11.495   8.395  71.743  1.00  0.00    -0.301 A  
HETATM    5  N   UNL     1     -11.976   7.980  72.989  1.00  0.00    -0.633 NA 
HETATM    6  C   UNL     1     -11.026   7.499  70.763  1.00  0.00    -0.265 A  
HETATM    7  H2  UNL     1     -12.973   8.185  73.051  1.00  0.00     0.000 HD 
HETATM    8  C   UNL     1     -10.898   6.113  71.015  1.00  0.00    -0.338 A  
HETATM    9  H1  UNL     1     -11.815   7.009  73.257  1.00  0.00     0.000 HD 
HETATM   10  C   UNL     1     -10.418   5.228  70.052  1.00  0.00    -0.351 A  
HETATM   11  C   UNL     1     -10.041   5.703  68.810  1.00  0.00    -0.245 A  
HETATM   12  C   UNL     1     -10.161   7.066  68.526  1.00  0.00    -0.183 A  
HETATM   13  C   UNL     1     -10.680   7.985  69.475  1.00  0.00    -0.181 A  
HETATM   14  N   UNL     1     -10.876   9.317  69.179  1.00  0.00    -0.181 NA 
ENDROOT
BRANCH  14  15
HETATM   15  C   UNL     1     -10.589   9.823  67.808  1.00  0.00    -0.266 C  
BRANCH  15  16
HETATM   16  C   UNL     1      -9.124  10.238  67.684  1.00  0.00    -0.144 C  
BRANCH  16  17
HETATM   17  C   UNL     1      -8.986  11.660  67.148  1.00  0.00    -0.173 C  
BRANCH  17  18
HETATM   18  C   UNL     1      -8.610  12.672  68.234  1.00  0.00    -0.167 C  
BRANCH  18  19
HETATM   19  C   UNL     1      -7.715  13.786  67.701  1.00  0.00    -0.187 C  
BRANCH  19  20
HETATM   20  C   UNL     1      -7.578  14.965  68.668  1.00  0.00    -0.124 C  
BRANCH  20  21
HETATM   21  C   UNL     1      -6.911  16.201  68.049  1.00  0.00    -0.139 C  
BRANCH  21  22
HETATM   22  C   UNL     1      -7.333  16.443  66.597  1.00  0.00    -0.241 C  
BRANCH  22  23
HETATM   23  C   UNL     1      -7.869  17.858  66.351  1.00  0.00    -0.307 C  
BRANCH  23  24
HETATM   24  C   UNL     1      -9.356  17.843  65.995  1.00  0.00    -0.029 C  
BRANCH  24  25
HETATM   25  N   UNL     1     -10.116  17.008  66.960  1.00  0.00    -0.287 NA 
HETATM   26  C   UNL     1     -10.372  17.475  68.222  1.00  0.00    -0.379 A  
HETATM   27  C   UNL     1     -11.150  16.715  69.099  1.00  0.00    -0.219 A  
HETATM   28  C   UNL     1      -9.924  18.815  68.759  1.00  0.00    -0.442 C  
HETATM   29  C   UNL     1     -11.655  15.476  68.737  1.00  0.00    -0.378 A  
HETATM   30  N   UNL     1     -12.540  14.856  69.623  1.00  0.00    -0.590 NA 
HETATM   31  C   UNL     1     -11.442  15.034  67.420  1.00  0.00    -0.326 A  
HETATM   32  H1  UNL     1     -12.913  13.944  69.357  1.00  0.00     0.000 HD 
HETATM   33  C   UNL     1     -10.629  15.798  66.539  1.00  0.00    -0.306 A  
HETATM   34  H2  UNL     1     -13.314  15.489  69.826  1.00  0.00     0.000 HD 
HETATM   35  C   UNL     1     -10.393  15.291  65.236  1.00  0.00    -0.430 A  
HETATM   36  C   UNL     1     -10.971  14.105  64.788  1.00  0.00    -0.409 A  
HETATM   37  C   UNL     1     -11.795  13.387  65.633  1.00  0.00    -0.403 A  
HETATM   38  C   UNL     1     -12.021  13.840  66.931  1.00  0.00    -0.460 A  
ENDBRANCH  24  25
ENDBRANCH  23  24
ENDBRANCH  22  23
ENDBRANCH  21  22
ENDBRANCH  20  21
ENDBRANCH  19  20
ENDBRANCH  18  19
ENDBRANCH  17  18
ENDBRANCH  16  17
ENDBRANCH  15  16
ENDBRANCH  14  15
TORSDOF 11
ENDMDL
MODEL       39
REMARK 921   NORMALIZED FREE ENERGY PREDICTED BY IDOCK:   -7.07 KCAL/MOL
REMARK 922        TOTAL FREE ENERGY PREDICTED BY IDOCK:  -12.97 KCAL/MOL
REMARK 923 INTER-LIGAND FREE ENERGY PREDICTED BY IDOCK:  -10.85 KCAL/MOL
REMARK 924 INTRA-LIGAND FREE ENERGY PREDICTED BY IDOCK:   -2.12 KCAL/MOL
REMARK 927      BINDING AFFINITY PREDICTED BY RF-SCORE:    0.00 PKD
ROOT
HETATM    1  C   UNL     1     -11.361  11.794  65.831  1.00  0.00    -0.324 C  
HETATM    2  C   UNL     1     -11.093  13.276  65.965  1.00  0.00    -0.283 A  
HETATM    3  C   UNL     1     -11.421  14.094  64.891  1.00  0.00    -0.366 A  
HETATM    4  C   UNL     1     -11.221  15.465  64.939  1.00  0.00    -0.403 A  
HETATM    5  N   UNL     1     -11.710  16.228  63.873  1.00  0.00    -1.518 NA 
HETATM    6  C   UNL     1     -10.764  16.033  66.143  1.00  0.00    -0.246 A  
HETATM    7  H2  UNL     1     -12.704  16.037  63.749  1.00  0.00     0.000 HD 
HETATM    8  C   UNL     1     -10.655  17.432  66.318  1.00  0.00    -0.194 A  
HETATM    9  H1  UNL     1     -11.563  17.236  63.908  1.00  0.00     0.000 HD 
HETATM   10  C   UNL     1     -10.186  17.995  67.504  1.00  0.00    -0.376 A  
HETATM   11  C   UNL     1      -9.801  17.175  68.547  1.00  0.00    -0.297 A  
HETATM   12  C   UNL     1      -9.903  15.788  68.410  1.00  0.00    -0.206 A  
HETATM   13  C   UNL     1     -10.409  15.188  67.228  1.00  0.00    -0.261 A  
HETATM   14  N   UNL     1     -10.587  13.826  67.110  1.00  0.00    -0.275 NA 
ENDROOT
BRANCH  14  15
HETATM   15  C   UNL     1     -10.290  12.937  68.268  1.00  0.00    -0.244 C  
BRANCH  15  16
HETATM   16  C   UNL     1     -11.488  12.867  69.213  1.00  0.00    -0.341 C  
BRANCH  16  17
HETATM   17  C   UNL     1     -11.822  11.427  69.593  1.00  0.00    -0.431 C  
BRANCH  17  18
HETATM   18  C   UNL     1     -12.501  11.314  70.960  1.00  0.00    -0.503 C  
BRANCH  18  19
HETATM   19  C   UNL     1     -12.276   9.950  71.607  1.00  0.00    -0.482 C  
BRANCH  19  20
HETATM   20  C   UNL     1     -13.567   9.298  72.107  1.00  0.00    -0.536 C  
BRANCH  20  21
HETATM   21  C   UNL     1     -13.823   7.902  71.524  1.00  0.00    -0.415 C  
BRANCH  21  22
HETATM   22  C   UNL     1     -12.629   6.957  71.691  1.00  0.00    -0.410 C  
BRANCH  22  23
HETATM   23  C   UNL     1     -11.943   6.610  70.365  1.00  0.00    -0.342 C  
BRANCH  23  24
HETATM   24  C   UNL     1     -10.443   6.376  70.553  1.00  0.00    -0.220 C  
BRANCH  24  25
HETATM   25  N   UNL     1      -9.686   7.635  70.338  1.00  0.00    -0.179 NA 
HETATM   26  C   UNL     1      -9.176   8.322  71.408  1.00  0.00    -0.169 A  
HETATM   27  C   UNL     1      -8.403   9.466  71.193  1.00  0.00     0.076 A  
HETATM   28  C   UNL     1      -9.324   7.910  72.855  1.00  0.00    -0.309 C  
HETATM   29  C   UNL     1      -8.156   9.949  69.918  1.00  0.00    -0.188 A  
HETATM   30  N   UNL     1      -7.255  11.011  69.793  1.00  0.00    -0.341 NA 
HETATM   31  C   UNL     1      -8.629   9.204  68.825  1.00  0.00    -0.131 A  
HETATM   32  H1  UNL     1      -7.073  11.367  68.855  1.00  0.00     0.000 HD 
HETATM   33  C   UNL     1      -9.437   8.055  69.048  1.00  0.00    -0.151 A  
HETATM   34  H2  UNL     1      -6.371  10.757  70.234  1.00  0.00     0.000 HD 
HETATM   35  C   UNL     1      -9.940   7.361  67.918  1.00  0.00    -0.201 A  
HETATM   36  C   UNL     1      -9.627   7.743  66.615  1.00  0.00    -0.286 A  
HETATM   37  C   UNL     1      -8.807   8.835  66.403  1.00  0.00    -0.175 A  
HETATM   38  C   UNL     1      -8.322   9.558  67.491  1.00  0.00    -0.125 A  
ENDBRANCH  24  25
ENDBRANCH  23  24
ENDBRANCH  22  23
ENDBRANCH  21  22
ENDBRANCH  20  21
ENDBRANCH  19  20
ENDBRANCH  18  19
ENDBRANCH  17  18
ENDBRANCH  16  17
ENDBRANCH  15  16
ENDBRANCH  14  15
TORSDOF 11
ENDMDL
MODEL       40
REMARK 921   NORMALIZED FREE ENERGY PREDICTED BY IDOCK:   -7.07 KCAL/MOL
REMARK 922        TOTAL FREE ENERGY PREDICTED BY IDOCK:  -12.97 KCAL/MOL
REMARK 923 INTER-LIGAND FREE ENERGY PREDICTED BY IDOCK:  -11.76 KCAL/MOL
REMARK 924 INTRA-LIGAND FREE ENERGY PREDICTED BY IDOCK:   -1.20 KCAL/MOL
REMARK 927      BINDING AFFINITY PREDICTED BY RF-SCORE:    0.00 PKD
ROOT
HETATM    1  C   UNL     1     -11.277  16.630  68.664  1.00  0.00    -0.235 C  
HETATM    2  C   UNL     1     -10.210  17.403  67.923  1.00  0.00    -0.348 A  
HETATM    3  C   UNL     1     -10.440  18.750  67.675  1.00  0.00    -0.495 A  
HETATM    4  C   UNL     1      -9.506  19.535  67.014  1.00  0.00    -0.337 A  
HETATM    5  N   UNL     1      -9.756  20.909  66.933  1.00  0.00    -0.636 NA 
HETATM    6  C   UNL     1      -8.267  18.958  66.678  1.00  0.00    -0.295 A  
HETATM    7  H2  UNL     1      -9.903  21.280  67.872  1.00  0.00     0.000 HD 
HETATM    8  C   UNL     1      -7.214  19.719  66.119  1.00  0.00    -0.291 A  
HETATM    9  H1  UNL     1      -9.069  21.485  66.447  1.00  0.00     0.000 HD 
HETATM   10  C   UNL     1      -5.992  19.146  65.770  1.00  0.00    -0.219 A  
HETATM   11  C   UNL     1      -5.790  17.792  65.960  1.00  0.00    -0.241 A  
HETATM   12  C   UNL     1      -6.808  17.013  66.516  1.00  0.00    -0.281 A  
HETATM   13  C   UNL     1      -8.049  17.575  66.913  1.00  0.00    -0.227 A  
HETATM   14  N   UNL     1      -9.029  16.832  67.534  1.00  0.00    -0.204 NA 
ENDROOT
BRANCH  14  15
HETATM   15  C   UNL     1      -8.782  15.399  67.855  1.00  0.00    -0.160 C  
BRANCH  15  16
HETATM   16  C   UNL     1      -8.969  14.529  66.613  1.00  0.00    -0.247 C  
BRANCH  16  17
HETATM   17  C   UNL     1     -10.156  14.994  65.774  1.00  0.00    -0.367 C  
BRANCH  17  18
HETATM   18  C   UNL     1     -10.478  14.042  64.619  1.00  0.00    -0.398 C  
BRANCH  18  19
HETATM   19  C   UNL     1     -11.789  13.293  64.835  1.00  0.00    -0.398 C  
BRANCH  19  20
HETATM   20  C   UNL     1     -11.604  11.780  64.975  1.00  0.00    -0.214 C  
BRANCH  20  21
HETATM   21  C   UNL     1     -10.192  11.365  65.411  1.00  0.00    -0.320 C  
BRANCH  21  22
HETATM   22  C   UNL     1     -10.186  10.508  66.680  1.00  0.00    -0.289 C  
BRANCH  22  23
HETATM   23  C   UNL     1     -11.175  10.997  67.744  1.00  0.00    -0.374 C  
BRANCH  23  24
HETATM   24  C   UNL     1     -10.507  11.131  69.113  1.00  0.00    -0.182 C  
BRANCH  24  25
HETATM   25  N   UNL     1     -11.402  10.621  70.184  1.00  0.00    -0.308 NA 
HETATM   26  C   UNL     1     -12.226  11.482  70.859  1.00  0.00    -0.322 A  
HETATM   27  C   UNL     1     -13.116  10.984  71.815  1.00  0.00    -0.554 A  
HETATM   28  C   UNL     1     -12.311  12.971  70.618  1.00  0.00    -0.391 C  
HETATM   29  C   UNL     1     -13.173   9.634  72.123  1.00  0.00    -0.444 A  
HETATM   30  N   UNL     1     -14.191   9.211  72.983  1.00  0.00    -1.124 NA 
HETATM   31  C   UNL     1     -12.369   8.752  71.382  1.00  0.00    -0.353 A  
HETATM   32  H1  UNL     1     -14.233   8.217  73.210  1.00  0.00     0.000 HD 
HETATM   33  C   UNL     1     -11.447   9.265  70.429  1.00  0.00    -0.213 A  
HETATM   34  H2  UNL     1     -15.093   9.509  72.610  1.00  0.00     0.000 HD 
HETATM   35  C   UNL     1     -10.616   8.345  69.740  1.00  0.00    -0.221 A  
HETATM   36  C   UNL     1     -10.713   6.969  69.935  1.00  0.00    -0.265 A  
HETATM   37  C   UNL     1     -11.641   6.472  70.831  1.00  0.00    -0.417 A  
HETATM   38  C   UNL     1     -12.451   7.350  71.548  1.00  0.00    -0.394 A  
ENDBRANCH  24  25
ENDBRANCH  23  24
ENDBRANCH  22  23
ENDBRANCH  21  22
ENDBRANCH  20  21
ENDBRANCH  19  20
ENDBRANCH  18  19
ENDBRANCH  17  18
ENDBRANCH  16  17
ENDBRANCH  15  16
ENDBRANCH  14  15
TORSDOF 11
ENDMDL
MODEL       41
REMARK 921   NORMALIZED FREE ENERGY PREDICTED BY IDOCK:   -7.06 KCAL/MOL
REMARK 922        TOTAL FREE ENERGY PREDICTED BY IDOCK:  -12.95 KCAL/MOL
REMARK 923 INTER-LIGAND FREE ENERGY PREDICTED BY IDOCK:  -10.63 KCAL/MOL
REMARK 924 INTRA-LIGAND FREE ENERGY PREDICTED BY IDOCK:   -2.32 KCAL/MOL
REMARK 927      BINDING AFFINITY PREDICTED BY RF-SCORE:    0.00 PKD
ROOT
HETATM    1  C   UNL     1      -7.617   7.040  72.884  1.00  0.00    -0.087 C  
HETATM    2  C   UNL     1      -8.258   7.356  71.552  1.00  0.00    -0.104 A  
HETATM    3  C   UNL     1      -7.952   8.574  70.958  1.00  0.00    -0.132 A  
HETATM    4  C   UNL     1      -8.486   8.935  69.730  1.00  0.00    -0.131 A  
HETATM    5  N   UNL     1      -8.014  10.112  69.140  1.00  0.00    -0.113 NA 
HETATM    6  C   UNL     1      -9.279   7.995  69.044  1.00  0.00    -0.148 A  
HETATM    7  H2  UNL     1      -6.998  10.067  69.065  1.00  0.00     0.000 HD 
HETATM    8  C   UNL     1      -9.756   8.233  67.733  1.00  0.00    -0.194 A  
HETATM    9  H1  UNL     1      -8.407  10.377  68.237  1.00  0.00     0.000 HD 
HETATM   10  C   UNL     1     -10.555   7.311  67.059  1.00  0.00    -0.415 A  
HETATM   11  C   UNL     1     -10.910   6.128  67.678  1.00  0.00    -0.421 A  
HETATM   12  C   UNL     1     -10.449   5.859  68.971  1.00  0.00    -0.332 A  
HETATM   13  C   UNL     1      -9.606   6.763  69.668  1.00  0.00    -0.148 A  
HETATM   14  N   UNL     1      -9.083   6.474  70.909  1.00  0.00    -0.154 NA 
ENDROOT
BRANCH  14  15
HETATM   15  C   UNL     1      -9.358   5.153  71.541  1.00  0.00    -0.148 C  
BRANCH  15  16
HETATM   16  C   UNL     1     -10.787   5.099  72.076  1.00  0.00    -0.194 C  
BRANCH  16  17
HETATM   17  C   UNL     1     -11.140   6.357  72.865  1.00  0.00    -0.259 C  
BRANCH  17  18
HETATM   18  C   UNL     1     -12.246   7.185  72.203  1.00  0.00    -0.256 C  
BRANCH  18  19
HETATM   19  C   UNL     1     -11.841   8.643  72.012  1.00  0.00    -0.443 C  
BRANCH  19  20
HETATM   20  C   UNL     1     -13.022   9.613  72.094  1.00  0.00    -0.493 C  
BRANCH  20  21
HETATM   21  C   UNL     1     -12.840  10.884  71.254  1.00  0.00    -0.536 C  
BRANCH  21  22
HETATM   22  C   UNL     1     -11.546  10.879  70.435  1.00  0.00    -0.418 C  
BRANCH  22  23
HETATM   23  C   UNL     1     -11.781  11.078  68.933  1.00  0.00    -0.400 C  
BRANCH  23  24
HETATM   24  C   UNL     1     -10.709  11.973  68.310  1.00  0.00    -0.224 C  
BRANCH  24  25
HETATM   25  N   UNL     1     -11.220  12.621  67.076  1.00  0.00    -0.284 NA 
HETATM   26  C   UNL     1     -11.897  13.809  67.152  1.00  0.00    -0.406 A  
HETATM   27  C   UNL     1     -12.311  14.449  65.981  1.00  0.00    -0.337 A  
HETATM   28  C   UNL     1     -12.199  14.555  68.432  1.00  0.00    -0.154 C  
HETATM   29  C   UNL     1     -12.079  13.898  64.730  1.00  0.00    -0.419 A  
HETATM   30  N   UNL     1     -12.399  14.676  63.613  1.00  0.00    -1.089 NA 
HETATM   31  C   UNL     1     -11.329  12.713  64.658  1.00  0.00    -0.360 A  
HETATM   32  H1  UNL     1     -12.228  14.272  62.693  1.00  0.00     0.000 HD 
HETATM   33  C   UNL     1     -10.932  12.052  65.852  1.00  0.00    -0.298 A  
HETATM   34  H2  UNL     1     -11.920  15.575  63.680  1.00  0.00     0.000 HD 
HETATM   35  C   UNL     1     -10.222  10.829  65.737  1.00  0.00    -0.319 A  
HETATM   36  C   UNL     1      -9.868  10.293  64.501  1.00  0.00    -0.384 A  
HETATM   37  C   UNL     1     -10.219  10.960  63.343  1.00  0.00    -0.356 A  
HETATM   38  C   UNL     1     -10.945  12.148  63.420  1.00  0.00    -0.480 A  
ENDBRANCH  24  25
ENDBRANCH  23  24
ENDBRANCH  22  23
ENDBRANCH  21  22
ENDBRANCH  20  21
ENDBRANCH  19  20
ENDBRANCH  18  19
ENDBRANCH  17  18
ENDBRANCH  16  17
ENDBRANCH  15  16
ENDBRANCH  14  15
TORSDOF 11
ENDMDL
MODEL       42
REMARK 921   NORMALIZED FREE ENERGY PREDICTED BY IDOCK:   -7.06 KCAL/MOL
REMARK 922        TOTAL FREE ENERGY PREDICTED BY IDOCK:  -12.95 KCAL/MOL
REMARK 923 INTER-LIGAND FREE ENERGY PREDICTED BY IDOCK:  -10.30 KCAL/MOL
REMARK 924 INTRA-LIGAND FREE ENERGY PREDICTED BY IDOCK:   -2.64 KCAL/MOL
REMARK 927      BINDING AFFINITY PREDICTED BY RF-SCORE:    0.00 PKD
ROOT
HETATM    1  C   UNL     1      -8.939  10.237  63.158  1.00  0.00    -0.249 C  
HETATM    2  C   UNL     1      -9.722  11.267  63.940  1.00  0.00    -0.277 A  
HETATM    3  C   UNL     1     -10.663  12.023  63.253  1.00  0.00    -0.400 A  
HETATM    4  C   UNL     1     -11.435  12.979  63.898  1.00  0.00    -0.435 A  
HETATM    5  N   UNL     1     -12.454  13.592  63.163  1.00  0.00    -1.045 NA 
HETATM    6  C   UNL     1     -11.312  13.104  65.295  1.00  0.00    -0.321 A  
HETATM    7  H2  UNL     1     -13.065  12.875  62.771  1.00  0.00     0.000 HD 
HETATM    8  C   UNL     1     -12.150  13.962  66.046  1.00  0.00    -0.465 A  
HETATM    9  H1  UNL     1     -13.021  14.295  63.637  1.00  0.00     0.000 HD 
HETATM   10  C   UNL     1     -12.019  14.100  67.427  1.00  0.00    -0.439 A  
HETATM   11  C   UNL     1     -11.039  13.393  68.097  1.00  0.00    -0.284 A  
HETATM   12  C   UNL     1     -10.199  12.532  67.386  1.00  0.00    -0.217 A  
HETATM   13  C   UNL     1     -10.332  12.345  65.986  1.00  0.00    -0.251 A  
HETATM   14  N   UNL     1      -9.562  11.440  65.287  1.00  0.00    -0.228 NA 
ENDROOT
BRANCH  14  15
HETATM   15  C   UNL     1      -8.583  10.583  66.012  1.00  0.00    -0.160 C  
BRANCH  15  16
HETATM   16  C   UNL     1      -9.303   9.482  66.788  1.00  0.00    -0.196 C  
BRANCH  16  17
HETATM   17  C   UNL     1      -8.321   8.471  67.373  1.00  0.00    -0.120 C  
BRANCH  17  18
HETATM   18  C   UNL     1      -8.337   8.442  68.904  1.00  0.00    -0.119 C  
BRANCH  18  19
HETATM   19  C   UNL     1      -8.996   9.683  69.498  1.00  0.00    -0.203 C  
BRANCH  19  20
HETATM   20  C   UNL     1      -9.850   9.380  70.731  1.00  0.00    -0.348 C  
BRANCH  20  21
HETATM   21  C   UNL     1     -11.293   9.892  70.627  1.00  0.00    -0.413 C  
BRANCH  21  22
HETATM   22  C   UNL     1     -12.246   9.197  71.605  1.00  0.00    -0.433 C  
BRANCH  22  23
HETATM   23  C   UNL     1     -11.625   7.970  72.284  1.00  0.00    -0.424 C  
BRANCH  23  24
HETATM   24  C   UNL     1     -12.181   6.668  71.708  1.00  0.00    -0.353 C  
BRANCH  24  25
HETATM   25  N   UNL     1     -11.077   5.762  71.300  1.00  0.00    -0.238 NA 
HETATM   26  C   UNL     1     -10.449   4.980  72.233  1.00  0.00    -0.214 A  
HETATM   27  C   UNL     1      -9.461   4.077  71.830  1.00  0.00    -0.201 A  
HETATM   28  C   UNL     1     -10.778   4.954  73.708  1.00  0.00    -0.361 C  
HETATM   29  C   UNL     1      -9.072   3.968  70.504  1.00  0.00    -0.112 A  
HETATM   30  N   UNL     1      -8.183   2.940  70.175  1.00  0.00    -0.044 NA 
HETATM   31  C   UNL     1      -9.764   4.727  69.547  1.00  0.00    -0.271 A  
HETATM   32  H1  UNL     1      -7.897   2.859  69.200  1.00  0.00     0.000 HD 
HETATM   33  C   UNL     1     -10.752   5.662  69.963  1.00  0.00    -0.320 A  
HETATM   34  H2  UNL     1      -8.568   2.048  70.489  1.00  0.00     0.000 HD 
HETATM   35  C   UNL     1     -11.390   6.449  68.970  1.00  0.00    -0.332 A  
HETATM   36  C   UNL     1     -11.113   6.296  67.614  1.00  0.00    -0.368 A  
HETATM   37  C   UNL     1     -10.184   5.356  67.210  1.00  0.00    -0.258 A  
HETATM   38  C   UNL     1      -9.515   4.589  68.162  1.00  0.00    -0.201 A  
ENDBRANCH  24  25
ENDBRANCH  23  24
ENDBRANCH  22  23
ENDBRANCH  21  22
ENDBRANCH  20  21
ENDBRANCH  19  20
ENDBRANCH  18  19
ENDBRANCH  17  18
ENDBRANCH  16  17
ENDBRANCH  15  16
ENDBRANCH  14  15
TORSDOF 11
ENDMDL
MODEL       43
REMARK 921   NORMALIZED FREE ENERGY PREDICTED BY IDOCK:   -7.04 KCAL/MOL
REMARK 922        TOTAL FREE ENERGY PREDICTED BY IDOCK:  -12.92 KCAL/MOL
REMARK 923 INTER-LIGAND FREE ENERGY PREDICTED BY IDOCK:  -10.02 KCAL/MOL
REMARK 924 INTRA-LIGAND FREE ENERGY PREDICTED BY IDOCK:   -2.90 KCAL/MOL
REMARK 927      BINDING AFFINITY PREDICTED BY RF-SCORE:    0.00 PKD
ROOT
HETATM    1  C   UNL     1     -12.521  12.937  70.778  1.00  0.00    -0.370 C  
HETATM    2  C   UNL     1     -12.416  11.443  70.987  1.00  0.00    -0.383 A  
HETATM    3  C   UNL     1     -13.245  10.862  71.938  1.00  0.00    -0.508 A  
HETATM    4  C   UNL     1     -13.222   9.497  72.182  1.00  0.00    -0.451 A  
HETATM    5  N   UNL     1     -14.186   8.978  73.052  1.00  0.00    -1.154 NA 
HETATM    6  C   UNL     1     -12.402   8.688  71.372  1.00  0.00    -0.344 A  
HETATM    7  H2  UNL     1     -15.114   9.246  72.724  1.00  0.00     0.000 HD 
HETATM    8  C   UNL     1     -12.415   7.277  71.468  1.00  0.00    -0.408 A  
HETATM    9  H1  UNL     1     -14.169   7.974  73.230  1.00  0.00     0.000 HD 
HETATM   10  C   UNL     1     -11.592   6.474  70.679  1.00  0.00    -0.442 A  
HETATM   11  C   UNL     1     -10.723   7.060  69.778  1.00  0.00    -0.265 A  
HETATM   12  C   UNL     1     -10.690   8.451  69.654  1.00  0.00    -0.201 A  
HETATM   13  C   UNL     1     -11.541   9.291  70.418  1.00  0.00    -0.173 A  
HETATM   14  N   UNL     1     -11.573  10.658  70.248  1.00  0.00    -0.312 NA 
ENDROOT
BRANCH  14  15
HETATM   15  C   UNL     1     -10.730  11.295  69.199  1.00  0.00    -0.207 C  
BRANCH  15  16
HETATM   16  C   UNL     1     -11.532  11.500  67.915  1.00  0.00    -0.372 C  
BRANCH  16  17
HETATM   17  C   UNL     1     -11.092  12.757  67.171  1.00  0.00    -0.315 C  
BRANCH  17  18
HETATM   18  C   UNL     1     -12.261  13.683  66.822  1.00  0.00    -0.416 C  
BRANCH  18  19
HETATM   19  C   UNL     1     -12.644  13.601  65.347  1.00  0.00    -0.533 C  
BRANCH  19  20
HETATM   20  C   UNL     1     -11.459  13.277  64.434  1.00  0.00    -0.416 C  
BRANCH  20  21
HETATM   21  C   UNL     1     -11.619  11.967  63.651  1.00  0.00    -0.578 C  
BRANCH  21  22
HETATM   22  C   UNL     1     -10.295  11.222  63.457  1.00  0.00    -0.463 C  
BRANCH  22  23
HETATM   23  C   UNL     1      -9.966  10.265  64.609  1.00  0.00    -0.377 C  
BRANCH  23  24
HETATM   24  C   UNL     1      -8.463  10.004  64.712  1.00  0.00    -0.173 C  
BRANCH  24  25
HETATM   25  N   UNL     1      -8.125   9.401  66.027  1.00  0.00    -0.110 NA 
HETATM   26  C   UNL     1      -8.085   8.040  66.170  1.00  0.00    -0.111 A  
HETATM   27  C   UNL     1      -7.696   7.481  67.390  1.00  0.00    -0.117 A  
HETATM   28  C   UNL     1      -8.376   7.043  65.071  1.00  0.00    -0.051 C  
HETATM   29  C   UNL     1      -7.371   8.271  68.481  1.00  0.00    -0.093 A  
HETATM   30  N   UNL     1      -6.854   7.630  69.611  1.00  0.00    -0.043 NA 
HETATM   31  C   UNL     1      -7.354   9.665  68.307  1.00  0.00    -0.080 A  
HETATM   32  H1  UNL     1      -6.615   8.211  70.414  1.00  0.00     0.000 HD 
HETATM   33  C   UNL     1      -7.775  10.230  67.072  1.00  0.00    -0.100 A  
HETATM   34  H2  UNL     1      -6.041   7.076  69.342  1.00  0.00     0.000 HD 
HETATM   35  C   UNL     1      -7.794  11.644  66.955  1.00  0.00    -0.164 A  
HETATM   36  C   UNL     1      -7.370  12.478  67.987  1.00  0.00    -0.111 A  
HETATM   37  C   UNL     1      -6.921  11.924  69.170  1.00  0.00    -0.079 A  
HETATM   38  C   UNL     1      -6.920  10.539  69.330  1.00  0.00    -0.099 A  
ENDBRANCH  24  25
ENDBRANCH  23  24
ENDBRANCH  22  23
ENDBRANCH  21  22
ENDBRANCH  20  21
ENDBRANCH  19  20
ENDBRANCH  18  19
ENDBRANCH  17  18
ENDBRANCH  16  17
ENDBRANCH  15  16
ENDBRANCH  14  15
TORSDOF 11
ENDMDL
MODEL       44
REMARK 921   NORMALIZED FREE ENERGY PREDICTED BY IDOCK:   -7.04 KCAL/MOL
REMARK 922        TOTAL FREE ENERGY PREDICTED BY IDOCK:  -12.92 KCAL/MOL
REMARK 923 INTER-LIGAND FREE ENERGY PREDICTED BY IDOCK:  -11.38 KCAL/MOL
REMARK 924 INTRA-LIGAND FREE ENERGY PREDICTED BY IDOCK:   -1.54 KCAL/MOL
REMARK 927      BINDING AFFINITY PREDICTED BY RF-SCORE:    0.00 PKD
ROOT
HETATM    1  C   UNL     1      -9.798   7.644  70.002  1.00  0.00    -0.180 C  
HETATM    2  C   UNL     1     -10.080   8.713  68.970  1.00  0.00    -0.199 A  
HETATM    3  C   UNL     1      -9.724   8.453  67.653  1.00  0.00    -0.201 A  
HETATM    4  C   UNL     1      -9.961   9.374  66.644  1.00  0.00    -0.258 A  
HETATM    5  N   UNL     1      -9.702   8.974  65.329  1.00  0.00    -0.412 NA 
HETATM    6  C   UNL     1     -10.663  10.551  66.965  1.00  0.00    -0.310 A  
HETATM    7  H2  UNL     1     -10.216   8.116  65.129  1.00  0.00     0.000 HD 
HETATM    8  C   UNL     1     -11.057  11.481  65.975  1.00  0.00    -0.289 A  
HETATM    9  H1  UNL     1      -9.876   9.651  64.587  1.00  0.00     0.000 HD 
HETATM   10  C   UNL     1     -11.738  12.656  66.292  1.00  0.00    -0.460 A  
HETATM   11  C   UNL     1     -12.034  12.941  67.611  1.00  0.00    -0.344 A  
HETATM   12  C   UNL     1     -11.664  12.040  68.614  1.00  0.00    -0.380 A  
HETATM   13  C   UNL     1     -11.003  10.820  68.316  1.00  0.00    -0.255 A  
HETATM   14  N   UNL     1     -10.704   9.889  69.287  1.00  0.00    -0.216 NA 
ENDROOT
BRANCH  14  15
HETATM   15  C   UNL     1     -11.123  10.125  70.696  1.00  0.00    -0.322 C  
BRANCH  15  16
HETATM   16  C   UNL     1     -12.609   9.819  70.875  1.00  0.00    -0.350 C  
BRANCH  16  17
HETATM   17  C   UNL     1     -13.281  10.818  71.812  1.00  0.00    -0.523 C  
BRANCH  17  18
HETATM   18  C   UNL     1     -12.693  12.228  71.700  1.00  0.00    -0.309 C  
BRANCH  18  19
HETATM   19  C   UNL     1     -13.677  13.302  72.154  1.00  0.00    -0.619 C  
BRANCH  19  20
HETATM   20  C   UNL     1     -12.992  14.540  72.738  1.00  0.00    -0.563 C  
BRANCH  20  21
HETATM   21  C   UNL     1     -13.028  15.763  71.813  1.00  0.00    -0.505 C  
BRANCH  21  22
HETATM   22  C   UNL     1     -12.409  15.491  70.439  1.00  0.00    -0.451 C  
BRANCH  22  23
HETATM   23  C   UNL     1     -10.901  15.766  70.390  1.00  0.00    -0.345 C  
BRANCH  23  24
HETATM   24  C   UNL     1     -10.371  15.741  68.956  1.00  0.00    -0.223 C  
BRANCH  24  25
HETATM   25  N   UNL     1      -9.191  16.632  68.818  1.00  0.00    -0.247 NA 
HETATM   26  C   UNL     1      -7.941  16.174  69.141  1.00  0.00    -0.233 A  
HETATM   27  C   UNL     1      -6.828  16.993  68.940  1.00  0.00    -0.211 A  
HETATM   28  C   UNL     1      -7.632  14.787  69.659  1.00  0.00    -0.047 C  
HETATM   29  C   UNL     1      -6.953  18.281  68.443  1.00  0.00    -0.245 A  
HETATM   30  N   UNL     1      -5.776  18.972  68.139  1.00  0.00    -0.202 NA 
HETATM   31  C   UNL     1      -8.229  18.720  68.056  1.00  0.00    -0.317 A  
HETATM   32  H1  UNL     1      -5.867  19.920  67.773  1.00  0.00     0.000 HD 
HETATM   33  C   UNL     1      -9.363  17.893  68.286  1.00  0.00    -0.286 A  
HETATM   34  H2  UNL     1      -5.215  18.415  67.494  1.00  0.00     0.000 HD 
HETATM   35  C   UNL     1     -10.641  18.394  67.930  1.00  0.00    -0.379 A  
HETATM   36  C   UNL     1     -10.806  19.638  67.325  1.00  0.00    -0.519 A  
HETATM   37  C   UNL     1      -9.698  20.421  67.064  1.00  0.00    -0.588 A  
HETATM   38  C   UNL     1      -8.430  19.972  67.431  1.00  0.00    -0.391 A  
ENDBRANCH  24  25
ENDBRANCH  23  24
ENDBRANCH  22  23
ENDBRANCH  21  22
ENDBRANCH  20  21
ENDBRANCH  19  20
ENDBRANCH  18  19
ENDBRANCH  17  18
ENDBRANCH  16  17
ENDBRANCH  15  16
ENDBRANCH  14  15
TORSDOF 11
ENDMDL
MODEL       45
REMARK 921   NORMALIZED FREE ENERGY PREDICTED BY IDOCK:   -7.04 KCAL/MOL
REMARK 922        TOTAL FREE ENERGY PREDICTED BY IDOCK:  -12.92 KCAL/MOL
REMARK 923 INTER-LIGAND FREE ENERGY PREDICTED BY IDOCK:  -11.36 KCAL/MOL
REMARK 924 INTRA-LIGAND FREE ENERGY PREDICTED BY IDOCK:   -1.56 KCAL/MOL
REMARK 927      BINDING AFFINITY PREDICTED BY RF-SCORE:    0.00 PKD
ROOT
HETATM    1  C   UNL     1     -11.423  11.074  68.842  1.00  0.00    -0.364 C  
HETATM    2  C   UNL     1     -10.663  10.190  69.805  1.00  0.00    -0.279 A  
HETATM    3  C   UNL     1      -9.278  10.149  69.693  1.00  0.00    -0.206 A  
HETATM    4  C   UNL     1      -8.506   9.375  70.546  1.00  0.00    -0.212 A  
HETATM    5  N   UNL     1      -7.116   9.504  70.456  1.00  0.00    -0.114 NA 
HETATM    6  C   UNL     1      -9.148   8.697  71.599  1.00  0.00    -0.318 A  
HETATM    7  H2  UNL     1      -6.860  10.485  70.567  1.00  0.00     0.000 HD 
HETATM    8  C   UNL     1      -8.423   7.991  72.587  1.00  0.00    -0.231 A  
HETATM    9  H1  UNL     1      -6.548   8.935  71.083  1.00  0.00     0.000 HD 
HETATM   10  C   UNL     1      -9.058   7.305  73.622  1.00  0.00    -0.247 A  
HETATM   11  C   UNL     1     -10.438   7.295  73.692  1.00  0.00    -0.391 A  
HETATM   12  C   UNL     1     -11.184   7.989  72.735  1.00  0.00    -0.448 A  
HETATM   13  C   UNL     1     -10.564   8.724  71.692  1.00  0.00    -0.331 A  
HETATM   14  N   UNL     1     -11.287   9.475  70.790  1.00  0.00    -0.296 NA 
ENDROOT
BRANCH  14  15
HETATM   15  C   UNL     1     -12.767   9.573  70.924  1.00  0.00    -0.159 C  
BRANCH  15  16
HETATM   16  C   UNL     1     -13.145  10.611  71.979  1.00  0.00    -0.501 C  
BRANCH  16  17
HETATM   17  C   UNL     1     -12.804  12.027  71.523  1.00  0.00    -0.403 C  
BRANCH  17  18
HETATM   18  C   UNL     1     -13.659  13.096  72.209  1.00  0.00    -0.677 C  
BRANCH  18  19
HETATM   19  C   UNL     1     -13.396  14.492  71.652  1.00  0.00    -0.441 C  
BRANCH  19  20
HETATM   20  C   UNL     1     -11.923  14.741  71.320  1.00  0.00    -0.404 C  
BRANCH  20  21
HETATM   21  C   UNL     1     -11.688  15.253  69.892  1.00  0.00    -0.349 C  
BRANCH  21  22
HETATM   22  C   UNL     1     -10.208  15.496  69.581  1.00  0.00    -0.289 C  
BRANCH  22  23
HETATM   23  C   UNL     1      -9.564  14.358  68.781  1.00  0.00    -0.177 C  
BRANCH  23  24
HETATM   24  C   UNL     1      -9.035  14.848  67.433  1.00  0.00    -0.189 C  
BRANCH  24  25
HETATM   25  N   UNL     1      -9.977  14.495  66.340  1.00  0.00    -0.280 NA 
HETATM   26  C   UNL     1     -10.742  15.465  65.751  1.00  0.00    -0.351 A  
HETATM   27  C   UNL     1     -11.572  15.137  64.675  1.00  0.00    -0.357 A  
HETATM   28  C   UNL     1     -10.730  16.929  66.128  1.00  0.00    -0.109 C  
HETATM   29  C   UNL     1     -11.666  13.839  64.198  1.00  0.00    -0.364 A  
HETATM   30  N   UNL     1     -12.407  13.633  63.031  1.00  0.00    -1.004 NA 
HETATM   31  C   UNL     1     -10.831  12.863  64.767  1.00  0.00    -0.350 A  
HETATM   32  H1  UNL     1     -12.476  12.679  62.679  1.00  0.00     0.000 HD 
HETATM   33  C   UNL     1     -10.007  13.196  65.877  1.00  0.00    -0.269 A  
HETATM   34  H2  UNL     1     -12.048  14.239  62.292  1.00  0.00     0.000 HD 
HETATM   35  C   UNL     1      -9.219  12.168  66.457  1.00  0.00    -0.216 A  
HETATM   36  C   UNL     1      -9.195  10.874  65.942  1.00  0.00    -0.214 A  
HETATM   37  C   UNL     1      -9.965  10.566  64.836  1.00  0.00    -0.401 A  
HETATM   38  C   UNL     1     -10.775  11.544  64.263  1.00  0.00    -0.416 A  
ENDBRANCH  24  25
ENDBRANCH  23  24
ENDBRANCH  22  23
ENDBRANCH  21  22
ENDBRANCH  20  21
ENDBRANCH  19  20
ENDBRANCH  18  19
ENDBRANCH  17  18
ENDBRANCH  16  17
ENDBRANCH  15  16
ENDBRANCH  14  15
TORSDOF 11
ENDMDL
MODEL       46
REMARK 921   NORMALIZED FREE ENERGY PREDICTED BY IDOCK:   -7.04 KCAL/MOL
REMARK 922        TOTAL FREE ENERGY PREDICTED BY IDOCK:  -12.91 KCAL/MOL
REMARK 923 INTER-LIGAND FREE ENERGY PREDICTED BY IDOCK:  -11.09 KCAL/MOL
REMARK 924 INTRA-LIGAND FREE ENERGY PREDICTED BY IDOCK:   -1.82 KCAL/MOL
REMARK 927      BINDING AFFINITY PREDICTED BY RF-SCORE:    0.00 PKD
ROOT
HETATM    1  C   UNL     1     -10.727   7.176  69.996  1.00  0.00    -0.268 C  
HETATM    2  C   UNL     1     -11.504   8.381  70.475  1.00  0.00    -0.179 A  
HETATM    3  C   UNL     1     -12.436   8.191  71.488  1.00  0.00    -0.333 A  
HETATM    4  C   UNL     1     -13.180   9.246  71.995  1.00  0.00    -0.447 A  
HETATM    5  N   UNL     1     -13.989   8.992  73.107  1.00  0.00    -1.215 NA 
HETATM    6  C   UNL     1     -12.903  10.545  71.526  1.00  0.00    -0.568 A  
HETATM    7  H2  UNL     1     -13.420   8.592  73.853  1.00  0.00     0.000 HD 
HETATM    8  C   UNL     1     -13.524  11.688  72.080  1.00  0.00    -0.304 A  
HETATM    9  H1  UNL     1     -14.536   9.768  73.480  1.00  0.00     0.000 HD 
HETATM   10  C   UNL     1     -13.264  12.973  71.606  1.00  0.00    -0.426 A  
HETATM   11  C   UNL     1     -12.384  13.152  70.555  1.00  0.00    -0.380 A  
HETATM   12  C   UNL     1     -11.749  12.043  69.990  1.00  0.00    -0.346 A  
HETATM   13  C   UNL     1     -11.967  10.728  70.475  1.00  0.00    -0.361 A  
HETATM   14  N   UNL     1     -11.287   9.637  69.977  1.00  0.00    -0.226 NA 
ENDROOT
BRANCH  14  15
HETATM   15  C   UNL     1     -10.248   9.826  68.928  1.00  0.00    -0.200 C  
BRANCH  15  16
HETATM   16  C   UNL     1      -8.885  10.097  69.563  1.00  0.00    -0.198 C  
BRANCH  16  17
HETATM   17  C   UNL     1      -8.015  10.980  68.672  1.00  0.00    -0.143 C  
BRANCH  17  18
HETATM   18  C   UNL     1      -8.693  12.303  68.301  1.00  0.00    -0.178 C  
BRANCH  18  19
HETATM   19  C   UNL     1      -8.843  12.471  66.792  1.00  0.00    -0.177 C  
BRANCH  19  20
HETATM   20  C   UNL     1     -10.260  12.867  66.367  1.00  0.00    -0.273 C  
BRANCH  20  21
HETATM   21  C   UNL     1     -10.306  13.774  65.130  1.00  0.00    -0.391 C  
BRANCH  21  22
HETATM   22  C   UNL     1     -11.088  15.069  65.368  1.00  0.00    -0.377 C  
BRANCH  22  23
HETATM   23  C   UNL     1     -10.185  16.288  65.590  1.00  0.00    -0.368 C  
BRANCH  23  24
HETATM   24  C   UNL     1     -10.435  16.931  66.955  1.00  0.00    -0.271 C  
BRANCH  24  25
HETATM   25  N   UNL     1      -9.314  17.835  67.320  1.00  0.00    -0.250 NA 
HETATM   26  C   UNL     1      -9.365  19.163  66.989  1.00  0.00    -0.309 A  
HETATM   27  C   UNL     1      -8.341  20.021  67.401  1.00  0.00    -0.382 A  
HETATM   28  C   UNL     1     -10.499  19.829  66.243  1.00  0.00    -0.614 C  
HETATM   29  C   UNL     1      -7.249  19.558  68.118  1.00  0.00    -0.295 A  
HETATM   30  N   UNL     1      -6.351  20.510  68.610  1.00  0.00    -0.310 NA 
HETATM   31  C   UNL     1      -7.237  18.209  68.508  1.00  0.00    -0.274 A  
HETATM   32  H1  UNL     1      -5.548  20.171  69.138  1.00  0.00     0.000 HD 
HETATM   33  C   UNL     1      -8.267  17.334  68.066  1.00  0.00    -0.223 A  
HETATM   34  H2  UNL     1      -6.858  21.195  69.171  1.00  0.00     0.000 HD 
HETATM   35  C   UNL     1      -8.189  15.967  68.436  1.00  0.00    -0.165 A  
HETATM   36  C   UNL     1      -7.170  15.478  69.250  1.00  0.00    -0.196 A  
HETATM   37  C   UNL     1      -6.194  16.339  69.712  1.00  0.00    -0.192 A  
HETATM   38  C   UNL     1      -6.223  17.682  69.341  1.00  0.00    -0.249 A  
ENDBRANCH  24  25
ENDBRANCH  23  24
ENDBRANCH  22  23
ENDBRANCH  21  22
ENDBRANCH  20  21
ENDBRANCH  19  20
ENDBRANCH  18  19
ENDBRANCH  17  18
ENDBRANCH  16  17
ENDBRANCH  15  16
ENDBRANCH  14  15
TORSDOF 11
ENDMDL
MODEL       47
REMARK 921   NORMALIZED FREE ENERGY PREDICTED BY IDOCK:   -7.03 KCAL/MOL
REMARK 922        TOTAL FREE ENERGY PREDICTED BY IDOCK:  -12.90 KCAL/MOL
REMARK 923 INTER-LIGAND FREE ENERGY PREDICTED BY IDOCK:  -11.16 KCAL/MOL
REMARK 924 INTRA-LIGAND FREE ENERGY PREDICTED BY IDOCK:   -1.74 KCAL/MOL
REMARK 927      BINDING AFFINITY PREDICTED BY RF-SCORE:    0.00 PKD
ROOT
HETATM    1  C   UNL     1      -9.459   3.619  71.152  1.00  0.00    -0.234 C  
HETATM    2  C   UNL     1      -9.538   4.557  69.969  1.00  0.00    -0.197 A  
HETATM    3  C   UNL     1      -9.653   3.996  68.703  1.00  0.00    -0.190 A  
HETATM    4  C   UNL     1      -9.746   4.786  67.566  1.00  0.00    -0.171 A  
HETATM    5  N   UNL     1     -10.001   4.143  66.351  1.00  0.00    -0.355 NA 
HETATM    6  C   UNL     1      -9.817   6.183  67.728  1.00  0.00    -0.131 A  
HETATM    7  H2  UNL     1     -10.847   3.580  66.439  1.00  0.00     0.000 HD 
HETATM    8  C   UNL     1     -10.040   7.052  66.634  1.00  0.00    -0.219 A  
HETATM    9  H1  UNL     1     -10.069   4.724  65.515  1.00  0.00     0.000 HD 
HETATM   10  C   UNL     1     -10.095   8.436  66.789  1.00  0.00    -0.373 A  
HETATM   11  C   UNL     1      -9.916   8.994  68.041  1.00  0.00    -0.213 A  
HETATM   12  C   UNL     1      -9.701   8.162  69.144  1.00  0.00    -0.163 A  
HETATM   13  C   UNL     1      -9.675   6.749  69.022  1.00  0.00    -0.145 A  
HETATM   14  N   UNL     1      -9.542   5.917  70.113  1.00  0.00    -0.159 NA 
ENDROOT
BRANCH  14  15
HETATM   15  C   UNL     1      -9.469   6.497  71.482  1.00  0.00    -0.157 C  
BRANCH  15  16
HETATM   16  C   UNL     1     -10.839   6.460  72.156  1.00  0.00    -0.272 C  
BRANCH  16  17
HETATM   17  C   UNL     1     -11.332   7.862  72.506  1.00  0.00    -0.449 C  
BRANCH  17  18
HETATM   18  C   UNL     1     -12.458   8.344  71.586  1.00  0.00    -0.363 C  
BRANCH  18  19
HETATM   19  C   UNL     1     -13.285   9.458  72.220  1.00  0.00    -0.528 C  
BRANCH  19  20
HETATM   20  C   UNL     1     -12.967  10.843  71.653  1.00  0.00    -0.569 C  
BRANCH  20  21
HETATM   21  C   UNL     1     -11.816  10.849  70.639  1.00  0.00    -0.453 C  
BRANCH  21  22
HETATM   22  C   UNL     1     -12.167  11.579  69.339  1.00  0.00    -0.273 C  
BRANCH  22  23
HETATM   23  C   UNL     1     -11.615  13.008  69.281  1.00  0.00    -0.367 C  
BRANCH  23  24
HETATM   24  C   UNL     1     -10.336  13.083  68.446  1.00  0.00    -0.252 C  
BRANCH  24  25
HETATM   25  N   UNL     1     -10.538  13.947  67.255  1.00  0.00    -0.274 NA 
HETATM   26  C   UNL     1     -11.027  13.414  66.093  1.00  0.00    -0.276 A  
HETATM   27  C   UNL     1     -11.283  14.247  65.000  1.00  0.00    -0.364 A  
HETATM   28  C   UNL     1     -11.390  11.961  65.890  1.00  0.00    -0.365 C  
HETATM   29  C   UNL     1     -11.027  15.609  65.048  1.00  0.00    -0.431 A  
HETATM   30  N   UNL     1     -11.449  16.383  63.963  1.00  0.00    -1.573 NA 
HETATM   31  C   UNL     1     -10.585  16.157  66.264  1.00  0.00    -0.276 A  
HETATM   32  H1  UNL     1     -11.261  17.384  63.998  1.00  0.00     0.000 HD 
HETATM   33  C   UNL     1     -10.303  15.302  67.365  1.00  0.00    -0.256 A  
HETATM   34  H2  UNL     1     -12.446  16.232  63.808  1.00  0.00     0.000 HD 
HETATM   35  C   UNL     1      -9.806  15.889  68.557  1.00  0.00    -0.210 A  
HETATM   36  C   UNL     1      -9.639  17.265  68.691  1.00  0.00    -0.284 A  
HETATM   37  C   UNL     1      -9.955  18.096  67.633  1.00  0.00    -0.344 A  
HETATM   38  C   UNL     1     -10.414  17.549  66.436  1.00  0.00    -0.277 A  
ENDBRANCH  24  25
ENDBRANCH  23  24
ENDBRANCH  22  23
ENDBRANCH  21  22
ENDBRANCH  20  21
ENDBRANCH  19  20
ENDBRANCH  18  19
ENDBRANCH  17  18
ENDBRANCH  16  17
ENDBRANCH  15  16
ENDBRANCH  14  15
TORSDOF 11
ENDMDL
MODEL       48
REMARK 921   NORMALIZED FREE ENERGY PREDICTED BY IDOCK:   -7.02 KCAL/MOL
REMARK 922        TOTAL FREE ENERGY PREDICTED BY IDOCK:  -12.89 KCAL/MOL
REMARK 923 INTER-LIGAND FREE ENERGY PREDICTED BY IDOCK:   -9.90 KCAL/MOL
REMARK 924 INTRA-LIGAND FREE ENERGY PREDICTED BY IDOCK:   -2.99 KCAL/MOL
REMARK 927      BINDING AFFINITY PREDICTED BY RF-SCORE:    0.00 PKD
ROOT
HETATM    1  C   UNL     1     -12.150  14.053  68.679  1.00  0.00    -0.332 C  
HETATM    2  C   UNL     1     -11.838  13.484  67.314  1.00  0.00    -0.385 A  
HETATM    3  C   UNL     1     -12.237  14.213  66.201  1.00  0.00    -0.465 A  
HETATM    4  C   UNL     1     -11.977  13.769  64.913  1.00  0.00    -0.390 A  
HETATM    5  N   UNL     1     -12.286  14.632  63.856  1.00  0.00    -1.060 NA 
HETATM    6  C   UNL     1     -11.210  12.600  64.751  1.00  0.00    -0.337 A  
HETATM    7  H2  UNL     1     -11.819  15.527  64.004  1.00  0.00     0.000 HD 
HETATM    8  C   UNL     1     -10.792  12.149  63.478  1.00  0.00    -0.518 A  
HETATM    9  H1  UNL     1     -12.095  14.305  62.909  1.00  0.00     0.000 HD 
HETATM   10  C   UNL     1     -10.047  10.982  63.315  1.00  0.00    -0.400 A  
HETATM   11  C   UNL     1      -9.707  10.225  64.419  1.00  0.00    -0.381 A  
HETATM   12  C   UNL     1     -10.098  10.647  65.693  1.00  0.00    -0.335 A  
HETATM   13  C   UNL     1     -10.827  11.848  65.893  1.00  0.00    -0.297 A  
HETATM   14  N   UNL     1     -11.150  12.314  67.149  1.00  0.00    -0.262 NA 
ENDROOT
BRANCH  14  15
HETATM   15  C   UNL     1     -10.688  11.574  68.356  1.00  0.00    -0.208 C  
BRANCH  15  16
HETATM   16  C   UNL     1     -11.722  10.531  68.777  1.00  0.00    -0.190 C  
BRANCH  16  17
HETATM   17  C   UNL     1     -11.359   9.887  70.113  1.00  0.00    -0.335 C  
BRANCH  17  18
HETATM   18  C   UNL     1      -9.847   9.768  70.325  1.00  0.00    -0.296 C  
BRANCH  18  19
HETATM   19  C   UNL     1      -9.497   8.815  71.464  1.00  0.00    -0.341 C  
BRANCH  19  20
HETATM   20  C   UNL     1     -10.706   8.420  72.314  1.00  0.00    -0.417 C  
BRANCH  20  21
HETATM   21  C   UNL     1     -10.457   7.209  73.224  1.00  0.00    -0.391 C  
BRANCH  21  22
HETATM   22  C   UNL     1     -11.158   5.939  72.734  1.00  0.00    -0.321 C  
BRANCH  22  23
HETATM   23  C   UNL     1     -10.244   4.709  72.726  1.00  0.00    -0.232 C  
BRANCH  23  24
HETATM   24  C   UNL     1      -9.972   4.220  71.303  1.00  0.00    -0.160 C  
BRANCH  24  25
HETATM   25  N   UNL     1      -9.020   5.126  70.611  1.00  0.00    -0.130 NA 
HETATM   26  C   UNL     1      -7.701   5.147  70.977  1.00  0.00    -0.095 A  
HETATM   27  C   UNL     1      -6.798   5.948  70.273  1.00  0.00    -0.053 A  
HETATM   28  C   UNL     1      -7.091   4.307  72.076  1.00  0.00    -0.055 C  
HETATM   29  C   UNL     1      -7.206   6.752  69.220  1.00  0.00    -0.090 A  
HETATM   30  N   UNL     1      -6.213   7.406  68.484  1.00  0.00    -0.034 NA 
HETATM   31  C   UNL     1      -8.548   6.676  68.811  1.00  0.00    -0.122 A  
HETATM   32  H1  UNL     1      -6.513   7.997  67.709  1.00  0.00     0.000 HD 
HETATM   33  C   UNL     1      -9.468   5.879  69.546  1.00  0.00    -0.138 A  
HETATM   34  H2  UNL     1      -5.540   6.719  68.143  1.00  0.00     0.000 HD 
HETATM   35  C   UNL     1     -10.825   5.872  69.133  1.00  0.00    -0.406 A  
HETATM   36  C   UNL     1     -11.262   6.576  68.014  1.00  0.00    -0.251 A  
HETATM   37  C   UNL     1     -10.356   7.315  67.277  1.00  0.00    -0.349 A  
HETATM   38  C   UNL     1      -9.022   7.370  67.674  1.00  0.00    -0.126 A  
ENDBRANCH  24  25
ENDBRANCH  23  24
ENDBRANCH  22  23
ENDBRANCH  21  22
ENDBRANCH  20  21
ENDBRANCH  19  20
ENDBRANCH  18  19
ENDBRANCH  17  18
ENDBRANCH  16  17
ENDBRANCH  15  16
ENDBRANCH  14  15
TORSDOF 11
ENDMDL
MODEL       49
REMARK 921   NORMALIZED FREE ENERGY PREDICTED BY IDOCK:   -7.01 KCAL/MOL
REMARK 922        TOTAL FREE ENERGY PREDICTED BY IDOCK:  -12.87 KCAL/MOL
REMARK 923 INTER-LIGAND FREE ENERGY PREDICTED BY IDOCK:  -10.35 KCAL/MOL
REMARK 924 INTRA-LIGAND FREE ENERGY PREDICTED BY IDOCK:   -2.52 KCAL/MOL
REMARK 927      BINDING AFFINITY PREDICTED BY RF-SCORE:    0.00 PKD
ROOT
HETATM    1  C   UNL     1      -6.825   6.538  69.544  1.00  0.00    -0.065 C  
HETATM    2  C   UNL     1      -7.911   7.528  69.898  1.00  0.00    -0.123 A  
HETATM    3  C   UNL     1      -7.704   8.862  69.571  1.00  0.00    -0.088 A  
HETATM    4  C   UNL     1      -8.657   9.831  69.847  1.00  0.00    -0.218 A  
HETATM    5  N   UNL     1      -8.429  11.121  69.357  1.00  0.00    -0.368 NA 
HETATM    6  C   UNL     1      -9.891   9.421  70.386  1.00  0.00    -0.313 A  
HETATM    7  H2  UNL     1      -8.277  11.077  68.349  1.00  0.00     0.000 HD 
HETATM    8  C   UNL     1     -10.962  10.325  70.578  1.00  0.00    -0.343 A  
HETATM    9  H1  UNL     1      -9.130  11.834  69.560  1.00  0.00     0.000 HD 
HETATM   10  C   UNL     1     -12.179   9.923  71.127  1.00  0.00    -0.468 A  
HETATM   11  C   UNL     1     -12.358   8.608  71.510  1.00  0.00    -0.370 A  
HETATM   12  C   UNL     1     -11.322   7.688  71.327  1.00  0.00    -0.286 A  
HETATM   13  C   UNL     1     -10.086   8.059  70.739  1.00  0.00    -0.192 A  
HETATM   14  N   UNL     1      -9.087   7.145  70.482  1.00  0.00    -0.155 NA 
ENDROOT
BRANCH  14  15
HETATM   15  C   UNL     1      -9.309   5.702  70.777  1.00  0.00    -0.163 C  
BRANCH  15  16
HETATM   16  C   UNL     1     -10.401   5.129  69.876  1.00  0.00    -0.347 C  
BRANCH  16  17
HETATM   17  C   UNL     1     -10.022   5.228  68.401  1.00  0.00    -0.220 C  
BRANCH  17  18
HETATM   18  C   UNL     1     -10.908   6.204  67.622  1.00  0.00    -0.421 C  
BRANCH  18  19
HETATM   19  C   UNL     1     -10.091   7.198  66.802  1.00  0.00    -0.278 C  
BRANCH  19  20
HETATM   20  C   UNL     1     -10.515   8.653  67.020  1.00  0.00    -0.354 C  
BRANCH  20  21
HETATM   21  C   UNL     1      -9.751   9.659  66.149  1.00  0.00    -0.317 C  
BRANCH  21  22
HETATM   22  C   UNL     1     -10.534  10.951  65.903  1.00  0.00    -0.285 C  
BRANCH  22  23
HETATM   23  C   UNL     1     -10.940  11.668  67.196  1.00  0.00    -0.330 C  
BRANCH  23  24
HETATM   24  C   UNL     1     -11.951  12.783  66.928  1.00  0.00    -0.310 C  
BRANCH  24  25
HETATM   25  N   UNL     1     -11.430  14.089  67.407  1.00  0.00    -0.329 NA 
HETATM   26  C   UNL     1     -10.878  14.976  66.523  1.00  0.00    -0.320 A  
HETATM   27  C   UNL     1     -10.457  16.231  66.970  1.00  0.00    -0.306 A  
HETATM   28  C   UNL     1     -10.731  14.742  65.037  1.00  0.00    -0.452 C  
HETATM   29  C   UNL     1     -10.556  16.600  68.303  1.00  0.00    -0.338 A  
HETATM   30  N   UNL     1     -10.246  17.923  68.631  1.00  0.00    -0.388 NA 
HETATM   31  C   UNL     1     -11.181  15.709  69.191  1.00  0.00    -0.315 A  
HETATM   32  H1  UNL     1     -10.319  18.194  69.611  1.00  0.00     0.000 HD 
HETATM   33  C   UNL     1     -11.585  14.423  68.737  1.00  0.00    -0.315 A  
HETATM   34  H2  UNL     1     -10.813  18.553  68.064  1.00  0.00     0.000 HD 
HETATM   35  C   UNL     1     -12.162  13.532  69.678  1.00  0.00    -0.304 A  
HETATM   36  C   UNL     1     -12.385  13.897  71.003  1.00  0.00    -0.453 A  
HETATM   37  C   UNL     1     -12.030  15.163  71.430  1.00  0.00    -0.408 A  
HETATM   38  C   UNL     1     -11.430  16.052  70.539  1.00  0.00    -0.409 A  
ENDBRANCH  24  25
ENDBRANCH  23  24
ENDBRANCH  22  23
ENDBRANCH  21  22
ENDBRANCH  20  21
ENDBRANCH  19  20
ENDBRANCH  18  19
ENDBRANCH  17  18
ENDBRANCH  16  17
ENDBRANCH  15  16
ENDBRANCH  14  15
TORSDOF 11
ENDMDL
MODEL       50
REMARK 921   NORMALIZED FREE ENERGY PREDICTED BY IDOCK:   -7.01 KCAL/MOL
REMARK 922        TOTAL FREE ENERGY PREDICTED BY IDOCK:  -12.86 KCAL/MOL
REMARK 923 INTER-LIGAND FREE ENERGY PREDICTED BY IDOCK:  -10.09 KCAL/MOL
REMARK 924 INTRA-LIGAND FREE ENERGY PREDICTED BY IDOCK:   -2.77 KCAL/MOL
REMARK 927      BINDING AFFINITY PREDICTED BY RF-SCORE:    0.00 PKD
ROOT
HETATM    1  C   UNL     1      -9.527   6.698  73.477  1.00  0.00    -0.175 C  
HETATM    2  C   UNL     1     -10.399   7.639  72.676  1.00  0.00    -0.275 A  
HETATM    3  C   UNL     1     -11.722   7.790  73.070  1.00  0.00    -0.089 A  
HETATM    4  C   UNL     1     -12.584   8.644  72.399  1.00  0.00    -0.362 A  
HETATM    5  N   UNL     1     -13.855   8.844  72.947  1.00  0.00    -0.989 NA 
HETATM    6  C   UNL     1     -12.064   9.436  71.357  1.00  0.00    -0.442 A  
HETATM    7  H2  UNL     1     -13.760   9.153  73.914  1.00  0.00     0.000 HD 
HETATM    8  C   UNL     1     -12.841  10.423  70.707  1.00  0.00    -0.450 A  
HETATM    9  H1  UNL     1     -14.489   9.472  72.453  1.00  0.00     0.000 HD 
HETATM   10  C   UNL     1     -12.332  11.196  69.665  1.00  0.00    -0.287 A  
HETATM   11  C   UNL     1     -11.034  10.998  69.233  1.00  0.00    -0.305 A  
HETATM   12  C   UNL     1     -10.237  10.036  69.860  1.00  0.00    -0.304 A  
HETATM   13  C   UNL     1     -10.717   9.259  70.946  1.00  0.00    -0.301 A  
HETATM   14  N   UNL     1      -9.916   8.363  71.621  1.00  0.00    -0.211 NA 
ENDROOT
BRANCH  14  15
HETATM   15  C   UNL     1      -8.481   8.224  71.248  1.00  0.00    -0.136 C  
BRANCH  15  16
HETATM   16  C   UNL     1      -8.335   7.415  69.961  1.00  0.00    -0.137 C  
BRANCH  16  17
HETATM   17  C   UNL     1      -8.681   5.944  70.178  1.00  0.00    -0.141 C  
BRANCH  17  18
HETATM   18  C   UNL     1      -9.610   5.384  69.097  1.00  0.00    -0.193 C  
BRANCH  18  19
HETATM   19  C   UNL     1     -10.897   6.192  68.966  1.00  0.00    -0.416 C  
BRANCH  19  20
HETATM   20  C   UNL     1     -11.026   6.909  67.620  1.00  0.00    -0.304 C  
BRANCH  20  21
HETATM   21  C   UNL     1      -9.854   6.649  66.664  1.00  0.00    -0.208 C  
BRANCH  21  22
HETATM   22  C   UNL     1      -9.053   7.914  66.341  1.00  0.00    -0.221 C  
BRANCH  22  23
HETATM   23  C   UNL     1      -9.939   9.131  66.050  1.00  0.00    -0.293 C  
BRANCH  23  24
HETATM   24  C   UNL     1      -9.180  10.204  65.269  1.00  0.00    -0.209 C  
BRANCH  24  25
HETATM   25  N   UNL     1      -9.485  11.556  65.805  1.00  0.00    -0.232 NA 
HETATM   26  C   UNL     1      -8.744  12.071  66.835  1.00  0.00    -0.193 A  
HETATM   27  C   UNL     1      -8.989  13.371  67.285  1.00  0.00    -0.221 A  
HETATM   28  C   UNL     1      -7.598  11.361  67.520  1.00  0.00    -0.117 C  
HETATM   29  C   UNL     1      -9.990  14.155  66.733  1.00  0.00    -0.267 A  
HETATM   30  N   UNL     1     -10.067  15.488  67.145  1.00  0.00    -0.250 NA 
HETATM   31  C   UNL     1     -10.702  13.643  65.636  1.00  0.00    -0.283 A  
HETATM   32  H1  UNL     1     -10.802  16.066  66.739  1.00  0.00     0.000 HD 
HETATM   33  C   UNL     1     -10.467  12.311  65.198  1.00  0.00    -0.288 A  
HETATM   34  H2  UNL     1      -9.164  15.940  66.997  1.00  0.00     0.000 HD 
HETATM   35  C   UNL     1     -11.245  11.812  64.121  1.00  0.00    -0.437 A  
HETATM   36  C   UNL     1     -12.185  12.600  63.461  1.00  0.00    -0.638 A  
HETATM   37  C   UNL     1     -12.381  13.908  63.862  1.00  0.00    -0.323 A  
HETATM   38  C   UNL     1     -11.656  14.418  64.937  1.00  0.00    -0.395 A  
ENDBRANCH  24  25
ENDBRANCH  23  24
ENDBRANCH  22  23
ENDBRANCH  21  22
ENDBRANCH  20  21
ENDBRANCH  19  20
ENDBRANCH  18  19
ENDBRANCH  17  18
ENDBRANCH  16  17
ENDBRANCH  15  16
ENDBRANCH  14  15
TORSDOF 11
ENDMDL
MODEL       51
REMARK 921   NORMALIZED FREE ENERGY PREDICTED BY IDOCK:   -7.00 KCAL/MOL
REMARK 922        TOTAL FREE ENERGY PREDICTED BY IDOCK:  -12.85 KCAL/MOL
REMARK 923 INTER-LIGAND FREE ENERGY PREDICTED BY IDOCK:  -10.16 KCAL/MOL
REMARK 924 INTRA-LIGAND FREE ENERGY PREDICTED BY IDOCK:   -2.68 KCAL/MOL
REMARK 927      BINDING AFFINITY PREDICTED BY RF-SCORE:    0.00 PKD
ROOT
HETATM    1  C   UNL     1     -12.017  14.436  68.280  1.00  0.00    -0.323 C  
HETATM    2  C   UNL     1     -11.741  13.682  66.999  1.00  0.00    -0.384 A  
HETATM    3  C   UNL     1     -12.285  14.181  65.823  1.00  0.00    -0.458 A  
HETATM    4  C   UNL     1     -12.067  13.558  64.603  1.00  0.00    -0.409 A  
HETATM    5  N   UNL     1     -12.531  14.206  63.453  1.00  0.00    -1.116 NA 
HETATM    6  C   UNL     1     -11.198  12.451  64.564  1.00  0.00    -0.371 A  
HETATM    7  H2  UNL     1     -12.149  15.151  63.421  1.00  0.00     0.000 HD 
HETATM    8  C   UNL     1     -10.822  11.837  63.346  1.00  0.00    -0.460 A  
HETATM    9  H1  UNL     1     -12.371  13.747  62.557  1.00  0.00     0.000 HD 
HETATM   10  C   UNL     1      -9.975  10.731  63.306  1.00  0.00    -0.369 A  
HETATM   11  C   UNL     1      -9.487  10.198  64.484  1.00  0.00    -0.364 A  
HETATM   12  C   UNL     1      -9.834  10.785  65.704  1.00  0.00    -0.299 A  
HETATM   13  C   UNL     1     -10.665  11.933  65.773  1.00  0.00    -0.284 A  
HETATM   14  N   UNL     1     -10.950  12.566  66.963  1.00  0.00    -0.258 NA 
ENDROOT
BRANCH  14  15
HETATM   15  C   UNL     1     -10.336  12.077  68.229  1.00  0.00    -0.204 C  
BRANCH  15  16
HETATM   16  C   UNL     1     -10.920  10.722  68.622  1.00  0.00    -0.285 C  
BRANCH  16  17
HETATM   17  C   UNL     1     -12.260  10.872  69.337  1.00  0.00    -0.293 C  
BRANCH  17  18
HETATM   18  C   UNL     1     -12.167  11.730  70.603  1.00  0.00    -0.443 C  
BRANCH  18  19
HETATM   19  C   UNL     1     -13.099  11.237  71.705  1.00  0.00    -0.527 C  
BRANCH  19  20
HETATM   20  C   UNL     1     -13.542   9.784  71.516  1.00  0.00    -0.351 C  
BRANCH  20  21
HETATM   21  C   UNL     1     -12.802   8.787  72.417  1.00  0.00    -0.434 C  
BRANCH  21  22
HETATM   22  C   UNL     1     -11.729   7.989  71.671  1.00  0.00    -0.325 C  
BRANCH  22  23
HETATM   23  C   UNL     1     -10.330   8.606  71.783  1.00  0.00    -0.386 C  
BRANCH  23  24
HETATM   24  C   UNL     1      -9.235   7.554  71.599  1.00  0.00    -0.134 C  
BRANCH  24  25
HETATM   25  N   UNL     1      -8.862   7.432  70.166  1.00  0.00    -0.147 NA 
HETATM   26  C   UNL     1      -9.270   6.346  69.439  1.00  0.00    -0.143 A  
HETATM   27  C   UNL     1      -8.976   6.274  68.075  1.00  0.00    -0.114 A  
HETATM   28  C   UNL     1     -10.093   5.199  69.979  1.00  0.00    -0.345 C  
HETATM   29  C   UNL     1      -8.253   7.267  67.433  1.00  0.00    -0.116 A  
HETATM   30  N   UNL     1      -8.134   7.182  66.042  1.00  0.00    -0.108 NA 
HETATM   31  C   UNL     1      -7.894   8.407  68.171  1.00  0.00    -0.111 A  
HETATM   32  H1  UNL     1      -7.602   7.912  65.570  1.00  0.00     0.000 HD 
HETATM   33  C   UNL     1      -8.172   8.464  69.565  1.00  0.00    -0.118 A  
HETATM   34  H2  UNL     1      -9.064   7.120  65.627  1.00  0.00     0.000 HD 
HETATM   35  C   UNL     1      -7.745   9.609  70.286  1.00  0.00    -0.184 A  
HETATM   36  C   UNL     1      -7.114  10.683  69.663  1.00  0.00    -0.143 A  
HETATM   37  C   UNL     1      -6.883  10.642  68.301  1.00  0.00    -0.068 A  
HETATM   38  C   UNL     1      -7.261   9.518  67.568  1.00  0.00    -0.090 A  
ENDBRANCH  24  25
ENDBRANCH  23  24
ENDBRANCH  22  23
ENDBRANCH  21  22
ENDBRANCH  20  21
ENDBRANCH  19  20
ENDBRANCH  18  19
ENDBRANCH  17  18
ENDBRANCH  16  17
ENDBRANCH  15  16
ENDBRANCH  14  15
TORSDOF 11
ENDMDL
MODEL       52
REMARK 921   NORMALIZED FREE ENERGY PREDICTED BY IDOCK:   -6.99 KCAL/MOL
REMARK 922        TOTAL FREE ENERGY PREDICTED BY IDOCK:  -12.83 KCAL/MOL
REMARK 923 INTER-LIGAND FREE ENERGY PREDICTED BY IDOCK:  -11.11 KCAL/MOL
REMARK 924 INTRA-LIGAND FREE ENERGY PREDICTED BY IDOCK:   -1.72 KCAL/MOL
REMARK 927      BINDING AFFINITY PREDICTED BY RF-SCORE:    0.00 PKD
ROOT
HETATM    1  C   UNL     1     -12.006  14.472  68.329  1.00  0.00    -0.303 C  
HETATM    2  C   UNL     1     -11.714  13.681  67.074  1.00  0.00    -0.384 A  
HETATM    3  C   UNL     1     -12.250  14.141  65.878  1.00  0.00    -0.458 A  
HETATM    4  C   UNL     1     -12.019  13.482  64.680  1.00  0.00    -0.400 A  
HETATM    5  N   UNL     1     -12.477  14.091  63.507  1.00  0.00    -1.099 NA 
HETATM    6  C   UNL     1     -11.144  12.379  64.682  1.00  0.00    -0.348 A  
HETATM    7  H2  UNL     1     -12.099  15.037  63.450  1.00  0.00     0.000 HD 
HETATM    8  C   UNL     1     -10.755  11.730  63.487  1.00  0.00    -0.501 A  
HETATM    9  H1  UNL     1     -12.307  13.606  62.627  1.00  0.00     0.000 HD 
HETATM   10  C   UNL     1      -9.902  10.628  63.489  1.00  0.00    -0.384 A  
HETATM   11  C   UNL     1      -9.421  10.134  64.686  1.00  0.00    -0.357 A  
HETATM   12  C   UNL     1      -9.781  10.756  65.885  1.00  0.00    -0.272 A  
HETATM   13  C   UNL     1     -10.619  11.901  65.911  1.00  0.00    -0.266 A  
HETATM   14  N   UNL     1     -10.917  12.569  67.079  1.00  0.00    -0.258 NA 
ENDROOT
BRANCH  14  15
HETATM   15  C   UNL     1     -10.312  12.122  68.364  1.00  0.00    -0.229 C  
BRANCH  15  16
HETATM   16  C   UNL     1     -10.902  10.783  68.801  1.00  0.00    -0.262 C  
BRANCH  16  17
HETATM   17  C   UNL     1     -12.309  10.946  69.369  1.00  0.00    -0.188 C  
BRANCH  17  18
HETATM   18  C   UNL     1     -12.334  11.739  70.679  1.00  0.00    -0.421 C  
BRANCH  18  19
HETATM   19  C   UNL     1     -13.085  11.003  71.785  1.00  0.00    -0.554 C  
BRANCH  19  20
HETATM   20  C   UNL     1     -13.299   9.518  71.485  1.00  0.00    -0.470 C  
BRANCH  20  21
HETATM   21  C   UNL     1     -12.407   8.583  72.312  1.00  0.00    -0.450 C  
BRANCH  21  22
HETATM   22  C   UNL     1     -10.913   8.797  72.051  1.00  0.00    -0.438 C  
BRANCH  22  23
HETATM   23  C   UNL     1     -10.323   7.789  71.058  1.00  0.00    -0.215 C  
BRANCH  23  24
HETATM   24  C   UNL     1     -11.282   6.627  70.800  1.00  0.00    -0.315 C  
BRANCH  24  25
HETATM   25  N   UNL     1     -10.551   5.458  70.246  1.00  0.00    -0.283 NA 
HETATM   26  C   UNL     1     -10.154   4.441  71.072  1.00  0.00    -0.125 A  
HETATM   27  C   UNL     1      -9.532   3.311  70.533  1.00  0.00    -0.242 A  
HETATM   28  C   UNL     1     -10.387   4.393  72.565  1.00  0.00    -0.252 C  
HETATM   29  C   UNL     1      -9.277   3.200  69.175  1.00  0.00    -0.154 A  
HETATM   30  N   UNL     1      -8.785   1.977  68.710  1.00  0.00    -0.069 NA 
HETATM   31  C   UNL     1      -9.745   4.218  68.328  1.00  0.00    -0.162 A  
HETATM   32  H1  UNL     1      -8.598   1.894  67.711  1.00  0.00     0.000 HD 
HETATM   33  C   UNL     1     -10.354   5.377  68.883  1.00  0.00    -0.190 A  
HETATM   34  H2  UNL     1      -9.415   1.228  68.997  1.00  0.00     0.000 HD 
HETATM   35  C   UNL     1     -10.764   6.407  67.998  1.00  0.00    -0.362 A  
HETATM   36  C   UNL     1     -10.631   6.291  66.616  1.00  0.00    -0.268 A  
HETATM   37  C   UNL     1     -10.077   5.145  66.078  1.00  0.00    -0.197 A  
HETATM   38  C   UNL     1      -9.634   4.128  66.922  1.00  0.00    -0.232 A  
ENDBRANCH  24  25
ENDBRANCH  23  24
ENDBRANCH  22  23
ENDBRANCH  21  22
ENDBRANCH  20  21
ENDBRANCH  19  20
ENDBRANCH  18  19
ENDBRANCH  17  18
ENDBRANCH  16  17
ENDBRANCH  15  16
ENDBRANCH  14  15
TORSDOF 11
ENDMDL
MODEL       53
REMARK 921   NORMALIZED FREE ENERGY PREDICTED BY IDOCK:   -6.98 KCAL/MOL
REMARK 922        TOTAL FREE ENERGY PREDICTED BY IDOCK:  -12.82 KCAL/MOL
REMARK 923 INTER-LIGAND FREE ENERGY PREDICTED BY IDOCK:  -10.07 KCAL/MOL
REMARK 924 INTRA-LIGAND FREE ENERGY PREDICTED BY IDOCK:   -2.75 KCAL/MOL
REMARK 927      BINDING AFFINITY PREDICTED BY RF-SCORE:    0.00 PKD
ROOT
HETATM    1  C   UNL     1     -10.613  15.922  68.491  1.00  0.00    -0.263 C  
HETATM    2  C   UNL     1     -10.928  15.171  67.217  1.00  0.00    -0.327 A  
HETATM    3  C   UNL     1     -11.269  15.914  66.094  1.00  0.00     0.091 A  
HETATM    4  C   UNL     1     -11.558  15.304  64.882  1.00  0.00    -0.289 A  
HETATM    5  N   UNL     1     -11.751  16.131  63.771  1.00  0.00    -1.406 NA 
HETATM    6  C   UNL     1     -11.405  13.908  64.784  1.00  0.00    -0.365 A  
HETATM    7  H2  UNL     1     -10.939  16.738  63.657  1.00  0.00     0.000 HD 
HETATM    8  C   UNL     1     -11.555  13.223  63.556  1.00  0.00    -0.301 A  
HETATM    9  H1  UNL     1     -11.963  15.682  62.880  1.00  0.00     0.000 HD 
HETATM   10  C   UNL     1     -11.421  11.839  63.460  1.00  0.00    -0.489 A  
HETATM   11  C   UNL     1     -11.144  11.096  64.592  1.00  0.00    -0.154 A  
HETATM   12  C   UNL     1     -10.983  11.743  65.821  1.00  0.00    -0.353 A  
HETATM   13  C   UNL     1     -11.079  13.153  65.942  1.00  0.00    -0.278 A  
HETATM   14  N   UNL     1     -10.846  13.809  67.132  1.00  0.00    -0.281 NA 
ENDROOT
BRANCH  14  15
HETATM   15  C   UNL     1     -10.429  13.035  68.334  1.00  0.00    -0.252 C  
BRANCH  15  16
HETATM   16  C   UNL     1     -11.639  12.691  69.200  1.00  0.00    -0.374 C  
BRANCH  16  17
HETATM   17  C   UNL     1     -11.604  11.238  69.665  1.00  0.00    -0.401 C  
BRANCH  17  18
HETATM   18  C   UNL     1     -10.299  10.526  69.295  1.00  0.00    -0.248 C  
BRANCH  18  19
HETATM   19  C   UNL     1     -10.544   9.251  68.494  1.00  0.00    -0.222 C  
BRANCH  19  20
HETATM   20  C   UNL     1      -9.386   8.895  67.558  1.00  0.00    -0.160 C  
BRANCH  20  21
HETATM   21  C   UNL     1      -9.692   7.727  66.610  1.00  0.00    -0.292 C  
BRANCH  21  22
HETATM   22  C   UNL     1     -10.587   6.660  67.246  1.00  0.00    -0.387 C  
BRANCH  22  23
HETATM   23  C   UNL     1      -9.812   5.424  67.718  1.00  0.00    -0.174 C  
BRANCH  23  24
HETATM   24  C   UNL     1     -10.229   5.004  69.128  1.00  0.00    -0.157 C  
BRANCH  24  25
HETATM   25  N   UNL     1      -9.709   5.963  70.136  1.00  0.00    -0.164 NA 
HETATM   26  C   UNL     1      -8.359   6.122  70.302  1.00  0.00    -0.125 A  
HETATM   27  C   UNL     1      -7.878   7.079  71.200  1.00  0.00    -0.099 A  
HETATM   28  C   UNL     1      -7.296   5.375  69.531  1.00  0.00    -0.065 C  
HETATM   29  C   UNL     1      -8.735   7.861  71.958  1.00  0.00    -0.137 A  
HETATM   30  N   UNL     1      -8.168   8.888  72.719  1.00  0.00    -0.324 NA 
HETATM   31  C   UNL     1     -10.116   7.736  71.735  1.00  0.00    -0.223 A  
HETATM   32  H1  UNL     1      -8.798   9.464  73.276  1.00  0.00     0.000 HD 
HETATM   33  C   UNL     1     -10.602   6.744  70.839  1.00  0.00    -0.220 A  
HETATM   34  H2  UNL     1      -7.610   9.489  72.112  1.00  0.00     0.000 HD 
HETATM   35  C   UNL     1     -12.006   6.613  70.683  1.00  0.00    -0.404 A  
HETATM   36  C   UNL     1     -12.905   7.452  71.339  1.00  0.00    -0.408 A  
HETATM   37  C   UNL     1     -12.427   8.442  72.176  1.00  0.00    -0.422 A  
HETATM   38  C   UNL     1     -11.055   8.577  72.376  1.00  0.00    -0.397 A  
ENDBRANCH  24  25
ENDBRANCH  23  24
ENDBRANCH  22  23
ENDBRANCH  21  22
ENDBRANCH  20  21
ENDBRANCH  19  20
ENDBRANCH  18  19
ENDBRANCH  17  18
ENDBRANCH  16  17
ENDBRANCH  15  16
ENDBRANCH  14  15
TORSDOF 11
ENDMDL
MODEL       54
REMARK 921   NORMALIZED FREE ENERGY PREDICTED BY IDOCK:   -6.97 KCAL/MOL
REMARK 922        TOTAL FREE ENERGY PREDICTED BY IDOCK:  -12.81 KCAL/MOL
REMARK 923 INTER-LIGAND FREE ENERGY PREDICTED BY IDOCK:   -9.93 KCAL/MOL
REMARK 924 INTRA-LIGAND FREE ENERGY PREDICTED BY IDOCK:   -2.88 KCAL/MOL
REMARK 927      BINDING AFFINITY PREDICTED BY RF-SCORE:    0.00 PKD
ROOT
HETATM    1  C   UNL     1     -12.535  13.153  70.777  1.00  0.00    -0.389 C  
HETATM    2  C   UNL     1     -12.428  11.658  70.979  1.00  0.00    -0.334 A  
HETATM    3  C   UNL     1     -13.259  11.071  71.925  1.00  0.00    -0.503 A  
HETATM    4  C   UNL     1     -13.234   9.705  72.162  1.00  0.00    -0.444 A  
HETATM    5  N   UNL     1     -14.201   9.180  73.026  1.00  0.00    -1.124 NA 
HETATM    6  C   UNL     1     -12.411   8.901  71.351  1.00  0.00    -0.368 A  
HETATM    7  H2  UNL     1     -15.128   9.448  72.697  1.00  0.00     0.000 HD 
HETATM    8  C   UNL     1     -12.422   7.489  71.439  1.00  0.00    -0.382 A  
HETATM    9  H1  UNL     1     -14.183   8.176  73.200  1.00  0.00     0.000 HD 
HETATM   10  C   UNL     1     -11.595   6.692  70.649  1.00  0.00    -0.439 A  
HETATM   11  C   UNL     1     -10.724   7.284  69.754  1.00  0.00    -0.253 A  
HETATM   12  C   UNL     1     -10.693   8.676  69.637  1.00  0.00    -0.204 A  
HETATM   13  C   UNL     1     -11.548   9.511  70.403  1.00  0.00    -0.212 A  
HETATM   14  N   UNL     1     -11.582  10.879  70.240  1.00  0.00    -0.321 NA 
ENDROOT
BRANCH  14  15
HETATM   15  C   UNL     1     -10.737  11.522  69.195  1.00  0.00    -0.168 C  
BRANCH  15  16
HETATM   16  C   UNL     1     -11.552  11.791  67.933  1.00  0.00    -0.377 C  
BRANCH  16  17
HETATM   17  C   UNL     1     -11.085  13.056  67.219  1.00  0.00    -0.303 C  
BRANCH  17  18
HETATM   18  C   UNL     1     -12.210  13.757  66.451  1.00  0.00    -0.480 C  
BRANCH  18  19
HETATM   19  C   UNL     1     -12.597  13.005  65.181  1.00  0.00    -0.530 C  
BRANCH  19  20
HETATM   20  C   UNL     1     -11.461  12.919  64.160  1.00  0.00    -0.449 C  
BRANCH  20  21
HETATM   21  C   UNL     1     -11.177  11.494  63.665  1.00  0.00    -0.451 C  
BRANCH  21  22
HETATM   22  C   UNL     1      -9.691  11.238  63.401  1.00  0.00    -0.385 C  
BRANCH  22  23
HETATM   23  C   UNL     1      -9.188   9.921  64.004  1.00  0.00    -0.302 C  
BRANCH  23  24
HETATM   24  C   UNL     1      -9.765   9.685  65.400  1.00  0.00    -0.295 C  
BRANCH  24  25
HETATM   25  N   UNL     1      -8.686   9.338  66.360  1.00  0.00    -0.129 NA 
HETATM   26  C   UNL     1      -7.902  10.322  66.900  1.00  0.00    -0.112 A  
HETATM   27  C   UNL     1      -6.938   9.995  67.857  1.00  0.00    -0.084 A  
HETATM   28  C   UNL     1      -8.026  11.797  66.592  1.00  0.00    -0.070 C  
HETATM   29  C   UNL     1      -6.729   8.686  68.262  1.00  0.00    -0.065 A  
HETATM   30  N   UNL     1      -5.848   8.473  69.326  1.00  0.00    -0.037 NA 
HETATM   31  C   UNL     1      -7.579   7.692  67.751  1.00  0.00    -0.117 A  
HETATM   32  H1  UNL     1      -5.694   7.510  69.624  1.00  0.00     0.000 HD 
HETATM   33  C   UNL     1      -8.542   8.025  66.758  1.00  0.00    -0.130 A  
HETATM   34  H2  UNL     1      -6.145   9.030  70.127  1.00  0.00     0.000 HD 
HETATM   35  C   UNL     1      -9.344   6.982  66.228  1.00  0.00    -0.146 A  
HETATM   36  C   UNL     1      -9.248   5.669  66.684  1.00  0.00    -0.138 A  
HETATM   37  C   UNL     1      -8.341   5.358  67.679  1.00  0.00    -0.099 A  
HETATM   38  C   UNL     1      -7.515   6.352  68.199  1.00  0.00    -0.094 A  
ENDBRANCH  24  25
ENDBRANCH  23  24
ENDBRANCH  22  23
ENDBRANCH  21  22
ENDBRANCH  20  21
ENDBRANCH  19  20
ENDBRANCH  18  19
ENDBRANCH  17  18
ENDBRANCH  16  17
ENDBRANCH  15  16
ENDBRANCH  14  15
TORSDOF 11
ENDMDL
MODEL       55
REMARK 921   NORMALIZED FREE ENERGY PREDICTED BY IDOCK:   -6.96 KCAL/MOL
REMARK 922        TOTAL FREE ENERGY PREDICTED BY IDOCK:  -12.79 KCAL/MOL
REMARK 923 INTER-LIGAND FREE ENERGY PREDICTED BY IDOCK:  -10.36 KCAL/MOL
REMARK 924 INTRA-LIGAND FREE ENERGY PREDICTED BY IDOCK:   -2.43 KCAL/MOL
REMARK 927      BINDING AFFINITY PREDICTED BY RF-SCORE:    0.00 PKD
ROOT
HETATM    1  C   UNL     1     -12.357  14.663  68.395  1.00  0.00     0.009 C  
HETATM    2  C   UNL     1     -11.988  13.788  67.219  1.00  0.00    -0.401 A  
HETATM    3  C   UNL     1     -12.342  14.226  65.949  1.00  0.00    -0.420 A  
HETATM    4  C   UNL     1     -12.028  13.490  64.816  1.00  0.00    -0.390 A  
HETATM    5  N   UNL     1     -12.295  14.072  63.572  1.00  0.00    -1.118 NA 
HETATM    6  C   UNL     1     -11.253  12.325  64.969  1.00  0.00    -0.367 A  
HETATM    7  H2  UNL     1     -11.837  14.982  63.520  1.00  0.00     0.000 HD 
HETATM    8  C   UNL     1     -10.782  11.588  63.857  1.00  0.00    -0.458 A  
HETATM    9  H1  UNL     1     -12.064  13.531  62.739  1.00  0.00     0.000 HD 
HETATM   10  C   UNL     1     -10.028  10.425  64.007  1.00  0.00    -0.305 A  
HETATM   11  C   UNL     1      -9.732   9.958  65.273  1.00  0.00    -0.383 A  
HETATM   12  C   UNL     1     -10.177  10.666  66.393  1.00  0.00    -0.291 A  
HETATM   13  C   UNL     1     -10.915  11.872  66.271  1.00  0.00    -0.302 A  
HETATM   14  N   UNL     1     -11.291  12.620  67.366  1.00  0.00    -0.294 NA 
ENDROOT
BRANCH  14  15
HETATM   15  C   UNL     1     -10.877  12.195  68.732  1.00  0.00    -0.228 C  
BRANCH  15  16
HETATM   16  C   UNL     1     -11.927  11.274  69.350  1.00  0.00    -0.410 C  
BRANCH  16  17
HETATM   17  C   UNL     1     -11.314  10.340  70.390  1.00  0.00    -0.410 C  
BRANCH  17  18
HETATM   18  C   UNL     1      -9.919   9.845  69.997  1.00  0.00    -0.302 C  
BRANCH  18  19
HETATM   19  C   UNL     1      -9.226   9.103  71.136  1.00  0.00    -0.301 C  
BRANCH  19  20
HETATM   20  C   UNL     1      -8.125   8.155  70.657  1.00  0.00    -0.105 C  
BRANCH  20  21
HETATM   21  C   UNL     1      -7.343   7.488  71.796  1.00  0.00    -0.071 C  
BRANCH  21  22
HETATM   22  C   UNL     1      -6.898   6.061  71.460  1.00  0.00    -0.067 C  
BRANCH  22  23
HETATM   23  C   UNL     1      -7.411   5.017  72.458  1.00  0.00    -0.094 C  
BRANCH  23  24
HETATM   24  C   UNL     1      -8.521   4.157  71.852  1.00  0.00    -0.104 C  
BRANCH  24  25
HETATM   25  N   UNL     1      -9.733   4.975  71.589  1.00  0.00    -0.163 NA 
HETATM   26  C   UNL     1     -10.471   5.466  72.633  1.00  0.00    -0.217 A  
HETATM   27  C   UNL     1     -11.567   6.295  72.379  1.00  0.00    -0.325 A  
HETATM   28  C   UNL     1     -10.164   5.238  74.096  1.00  0.00    -0.279 C  
HETATM   29  C   UNL     1     -11.952   6.616  71.087  1.00  0.00    -0.357 A  
HETATM   30  N   UNL     1     -12.968   7.565  70.934  1.00  0.00    -0.585 NA 
HETATM   31  C   UNL     1     -11.153   6.160  70.026  1.00  0.00    -0.462 A  
HETATM   32  H1  UNL     1     -13.251   7.802  69.984  1.00  0.00     0.000 HD 
HETATM   33  C   UNL     1     -10.053   5.297  70.287  1.00  0.00    -0.259 A  
HETATM   34  H2  UNL     1     -12.711   8.418  71.432  1.00  0.00     0.000 HD 
HETATM   35  C   UNL     1      -9.304   4.815  69.183  1.00  0.00    -0.195 A  
HETATM   36  C   UNL     1      -9.584   5.199  67.874  1.00  0.00    -0.167 A  
HETATM   37  C   UNL     1     -10.627   6.072  67.628  1.00  0.00    -0.336 A  
HETATM   38  C   UNL     1     -11.404   6.539  68.687  1.00  0.00    -0.203 A  
ENDBRANCH  24  25
ENDBRANCH  23  24
ENDBRANCH  22  23
ENDBRANCH  21  22
ENDBRANCH  20  21
ENDBRANCH  19  20
ENDBRANCH  18  19
ENDBRANCH  17  18
ENDBRANCH  16  17
ENDBRANCH  15  16
ENDBRANCH  14  15
TORSDOF 11
ENDMDL
MODEL       56
REMARK 921   NORMALIZED FREE ENERGY PREDICTED BY IDOCK:   -6.96 KCAL/MOL
REMARK 922        TOTAL FREE ENERGY PREDICTED BY IDOCK:  -12.79 KCAL/MOL
REMARK 923 INTER-LIGAND FREE ENERGY PREDICTED BY IDOCK:  -10.52 KCAL/MOL
REMARK 924 INTRA-LIGAND FREE ENERGY PREDICTED BY IDOCK:   -2.27 KCAL/MOL
REMARK 927      BINDING AFFINITY PREDICTED BY RF-SCORE:    0.00 PKD
ROOT
HETATM    1  C   UNL     1      -8.725  16.833  66.846  1.00  0.00    -0.242 C  
HETATM    2  C   UNL     1      -9.584  15.824  66.117  1.00  0.00    -0.332 A  
HETATM    3  C   UNL     1     -10.633  16.304  65.344  1.00  0.00    -0.371 A  
HETATM    4  C   UNL     1     -11.459  15.448  64.631  1.00  0.00    -0.337 A  
HETATM    5  N   UNL     1     -12.397  16.022  63.768  1.00  0.00    -1.000 NA 
HETATM    6  C   UNL     1     -11.154  14.073  64.630  1.00  0.00    -0.387 A  
HETATM    7  H2  UNL     1     -11.920  16.647  63.118  1.00  0.00     0.000 HD 
HETATM    8  C   UNL     1     -11.866  13.149  63.830  1.00  0.00    -0.533 A  
HETATM    9  H1  UNL     1     -13.004  15.392  63.245  1.00  0.00     0.000 HD 
HETATM   10  C   UNL     1     -11.576  11.785  63.841  1.00  0.00    -0.469 A  
HETATM   11  C   UNL     1     -10.574  11.303  64.660  1.00  0.00    -0.392 A  
HETATM   12  C   UNL     1      -9.847  12.191  65.458  1.00  0.00    -0.240 A  
HETATM   13  C   UNL     1     -10.095  13.587  65.442  1.00  0.00    -0.262 A  
HETATM   14  N   UNL     1      -9.333  14.480  66.165  1.00  0.00    -0.253 NA 
ENDROOT
BRANCH  14  15
HETATM   15  C   UNL     1      -8.173  13.991  66.959  1.00  0.00    -0.053 C  
BRANCH  15  16
HETATM   16  C   UNL     1      -8.632  13.473  68.321  1.00  0.00    -0.168 C  
BRANCH  16  17
HETATM   17  C   UNL     1      -7.732  12.351  68.829  1.00  0.00    -0.007 C  
BRANCH  17  18
HETATM   18  C   UNL     1      -7.146  11.499  67.699  1.00  0.00    -0.098 C  
BRANCH  18  19
HETATM   19  C   UNL     1      -7.731  10.090  67.675  1.00  0.00    -0.091 C  
BRANCH  19  20
HETATM   20  C   UNL     1      -6.666   8.993  67.738  1.00  0.00    -0.065 C  
BRANCH  20  21
HETATM   21  C   UNL     1      -6.488   8.381  69.134  1.00  0.00    -0.043 C  
BRANCH  21  22
HETATM   22  C   UNL     1      -7.632   8.730  70.089  1.00  0.00    -0.072 C  
BRANCH  22  23
HETATM   23  C   UNL     1      -8.556   7.543  70.386  1.00  0.00    -0.143 C  
BRANCH  23  24
HETATM   24  C   UNL     1      -9.852   7.624  69.578  1.00  0.00    -0.178 C  
BRANCH  24  25
HETATM   25  N   UNL     1     -10.994   7.983  70.456  1.00  0.00    -0.246 NA 
HETATM   26  C   UNL     1     -11.530   7.051  71.305  1.00  0.00    -0.286 A  
HETATM   27  C   UNL     1     -12.556   7.417  72.179  1.00  0.00    -0.178 A  
HETATM   28  C   UNL     1     -11.056   5.621  71.435  1.00  0.00    -0.221 C  
HETATM   29  C   UNL     1     -13.075   8.702  72.195  1.00  0.00    -0.383 A  
HETATM   30  N   UNL     1     -13.996   9.014  73.200  1.00  0.00    -1.215 NA 
HETATM   31  C   UNL     1     -12.478   9.667  71.367  1.00  0.00    -0.465 A  
HETATM   32  H1  UNL     1     -14.377   9.960  73.212  1.00  0.00     0.000 HD 
HETATM   33  C   UNL     1     -11.451   9.285  70.461  1.00  0.00    -0.248 A  
HETATM   34  H2  UNL     1     -13.586   8.805  74.110  1.00  0.00     0.000 HD 
HETATM   35  C   UNL     1     -10.911  10.277  69.603  1.00  0.00    -0.314 A  
HETATM   36  C   UNL     1     -11.322  11.607  69.660  1.00  0.00    -0.308 A  
HETATM   37  C   UNL     1     -12.290  11.983  70.571  1.00  0.00    -0.369 A  
HETATM   38  C   UNL     1     -12.864  11.026  71.406  1.00  0.00    -0.548 A  
ENDBRANCH  24  25
ENDBRANCH  23  24
ENDBRANCH  22  23
ENDBRANCH  21  22
ENDBRANCH  20  21
ENDBRANCH  19  20
ENDBRANCH  18  19
ENDBRANCH  17  18
ENDBRANCH  16  17
ENDBRANCH  15  16
ENDBRANCH  14  15
TORSDOF 11
ENDMDL
MODEL       57
REMARK 921   NORMALIZED FREE ENERGY PREDICTED BY IDOCK:   -6.95 KCAL/MOL
REMARK 922        TOTAL FREE ENERGY PREDICTED BY IDOCK:  -12.77 KCAL/MOL
REMARK 923 INTER-LIGAND FREE ENERGY PREDICTED BY IDOCK:  -11.07 KCAL/MOL
REMARK 924 INTRA-LIGAND FREE ENERGY PREDICTED BY IDOCK:   -1.70 KCAL/MOL
REMARK 927      BINDING AFFINITY PREDICTED BY RF-SCORE:    0.00 PKD
ROOT
HETATM    1  C   UNL     1     -10.658   5.202  73.531  1.00  0.00    -0.306 C  
HETATM    2  C   UNL     1     -10.393   5.042  72.051  1.00  0.00    -0.213 A  
HETATM    3  C   UNL     1      -9.741   3.890  71.630  1.00  0.00    -0.240 A  
HETATM    4  C   UNL     1      -9.473   3.659  70.289  1.00  0.00    -0.187 A  
HETATM    5  N   UNL     1      -8.943   2.412  69.940  1.00  0.00    -0.086 NA 
HETATM    6  C   UNL     1      -9.963   4.578  69.341  1.00  0.00    -0.212 A  
HETATM    7  H2  UNL     1      -9.554   1.676  70.293  1.00  0.00     0.000 HD 
HETATM    8  C   UNL     1      -9.845   4.353  67.950  1.00  0.00    -0.141 A  
HETATM    9  H1  UNL     1      -8.746   2.243  68.954  1.00  0.00     0.000 HD 
HETATM   10  C   UNL     1     -10.315   5.270  67.010  1.00  0.00    -0.286 A  
HETATM   11  C   UNL     1     -10.906   6.445  67.434  1.00  0.00    -0.457 A  
HETATM   12  C   UNL     1     -11.044   6.694  68.802  1.00  0.00    -0.297 A  
HETATM   13  C   UNL     1     -10.607   5.764  69.781  1.00  0.00    -0.318 A  
HETATM   14  N   UNL     1     -10.809   5.964  71.129  1.00  0.00    -0.268 NA 
ENDROOT
BRANCH  14  15
HETATM   15  C   UNL     1     -11.551   7.167  71.598  1.00  0.00    -0.276 C  
BRANCH  15  16
HETATM   16  C   UNL     1     -13.055   6.980  71.409  1.00  0.00    -0.375 C  
BRANCH  16  17
HETATM   17  C   UNL     1     -13.806   8.303  71.527  1.00  0.00    -0.382 C  
BRANCH  17  18
HETATM   18  C   UNL     1     -12.977   9.401  72.199  1.00  0.00    -0.503 C  
BRANCH  18  19
HETATM   19  C   UNL     1     -12.871  10.655  71.337  1.00  0.00    -0.556 C  
BRANCH  19  20
HETATM   20  C   UNL     1     -11.536  10.768  70.597  1.00  0.00    -0.388 C  
BRANCH  20  21
HETATM   21  C   UNL     1     -11.595  10.300  69.137  1.00  0.00    -0.166 C  
BRANCH  21  22
HETATM   22  C   UNL     1     -10.270  10.492  68.394  1.00  0.00    -0.192 C  
BRANCH  22  23
HETATM   23  C   UNL     1     -10.441  11.114  67.004  1.00  0.00    -0.277 C  
BRANCH  23  24
HETATM   24  C   UNL     1     -11.761  11.876  66.887  1.00  0.00    -0.212 C  
BRANCH  24  25
HETATM   25  N   UNL     1     -11.565  13.155  66.157  1.00  0.00    -0.338 NA 
HETATM   26  C   UNL     1     -11.870  13.241  64.825  1.00  0.00    -0.371 A  
HETATM   27  C   UNL     1     -11.752  14.466  64.163  1.00  0.00    -0.249 A  
HETATM   28  C   UNL     1     -12.401  12.104  63.981  1.00  0.00    -0.550 C  
HETATM   29  C   UNL     1     -11.304  15.604  64.815  1.00  0.00    -0.343 A  
HETATM   30  N   UNL     1     -11.356  16.812  64.113  1.00  0.00    -1.400 NA 
HETATM   31  C   UNL     1     -11.054  15.522  66.195  1.00  0.00    -0.177 A  
HETATM   32  H1  UNL     1     -11.027  17.650  64.592  1.00  0.00     0.000 HD 
HETATM   33  C   UNL     1     -11.152  14.268  66.859  1.00  0.00    -0.312 A  
HETATM   34  H2  UNL     1     -12.308  16.967  63.778  1.00  0.00     0.000 HD 
HETATM   35  C   UNL     1     -10.839  14.217  68.241  1.00  0.00    -0.256 A  
HETATM   36  C   UNL     1     -10.492  15.356  68.964  1.00  0.00    -0.249 A  
HETATM   37  C   UNL     1     -10.440  16.580  68.325  1.00  0.00    -0.313 A  
HETATM   38  C   UNL     1     -10.710  16.660  66.960  1.00  0.00    -0.174 A  
ENDBRANCH  24  25
ENDBRANCH  23  24
ENDBRANCH  22  23
ENDBRANCH  21  22
ENDBRANCH  20  21
ENDBRANCH  19  20
ENDBRANCH  18  19
ENDBRANCH  17  18
ENDBRANCH  16  17
ENDBRANCH  15  16
ENDBRANCH  14  15
TORSDOF 11
ENDMDL
MODEL       58
REMARK 921   NORMALIZED FREE ENERGY PREDICTED BY IDOCK:   -6.93 KCAL/MOL
REMARK 922        TOTAL FREE ENERGY PREDICTED BY IDOCK:  -12.75 KCAL/MOL
REMARK 923 INTER-LIGAND FREE ENERGY PREDICTED BY IDOCK:  -11.69 KCAL/MOL
REMARK 924 INTRA-LIGAND FREE ENERGY PREDICTED BY IDOCK:   -1.06 KCAL/MOL
REMARK 927      BINDING AFFINITY PREDICTED BY RF-SCORE:    0.00 PKD
ROOT
HETATM    1  C   UNL     1     -11.918  13.383  67.928  1.00  0.00    -0.360 C  
HETATM    2  C   UNL     1     -11.416  14.725  67.444  1.00  0.00    -0.363 A  
HETATM    3  C   UNL     1     -11.378  14.947  66.074  1.00  0.00    -0.306 A  
HETATM    4  C   UNL     1     -10.946  16.155  65.548  1.00  0.00    -0.177 A  
HETATM    5  N   UNL     1     -11.075  16.344  64.168  1.00  0.00    -1.262 NA 
HETATM    6  C   UNL     1     -10.632  17.198  66.440  1.00  0.00    -0.172 A  
HETATM    7  H2  UNL     1     -12.045  16.186  63.895  1.00  0.00     0.000 HD 
HETATM    8  C   UNL     1     -10.307  18.498  65.987  1.00  0.00    -0.423 A  
HETATM    9  H1  UNL     1     -10.757  17.232  63.781  1.00  0.00     0.000 HD 
HETATM   10  C   UNL     1      -9.980  19.528  66.868  1.00  0.00    -0.495 A  
HETATM   11  C   UNL     1      -9.957  19.285  68.228  1.00  0.00    -0.497 A  
HETATM   12  C   UNL     1     -10.280  18.013  68.709  1.00  0.00    -0.362 A  
HETATM   13  C   UNL     1     -10.651  16.956  67.838  1.00  0.00    -0.361 A  
HETATM   14  N   UNL     1     -11.047  15.721  68.305  1.00  0.00    -0.326 NA 
ENDROOT
BRANCH  14  15
HETATM   15  C   UNL     1     -11.144  15.479  69.772  1.00  0.00    -0.296 C  
BRANCH  15  16
HETATM   16  C   UNL     1     -12.579  15.673  70.256  1.00  0.00    -0.319 C  
BRANCH  16  17
HETATM   17  C   UNL     1     -12.643  15.858  71.770  1.00  0.00    -0.489 C  
BRANCH  17  18
HETATM   18  C   UNL     1     -12.436  14.549  72.538  1.00  0.00    -0.340 C  
BRANCH  18  19
HETATM   19  C   UNL     1     -13.421  13.465  72.109  1.00  0.00    -0.646 C  
BRANCH  19  20
HETATM   20  C   UNL     1     -12.767  12.339  71.305  1.00  0.00    -0.351 C  
BRANCH  20  21
HETATM   21  C   UNL     1     -13.132  10.933  71.798  1.00  0.00    -0.564 C  
BRANCH  21  22
HETATM   22  C   UNL     1     -12.036   9.900  71.522  1.00  0.00    -0.473 C  
BRANCH  22  23
HETATM   23  C   UNL     1     -11.079  10.319  70.400  1.00  0.00    -0.391 C  
BRANCH  23  24
HETATM   24  C   UNL     1      -9.710   9.655  70.551  1.00  0.00    -0.217 C  
BRANCH  24  25
HETATM   25  N   UNL     1      -9.839   8.176  70.519  1.00  0.00    -0.185 NA 
HETATM   26  C   UNL     1     -10.140   7.536  69.347  1.00  0.00    -0.190 A  
HETATM   27  C   UNL     1     -10.188   6.140  69.310  1.00  0.00    -0.251 A  
HETATM   28  C   UNL     1     -10.376   8.222  68.020  1.00  0.00    -0.268 C  
HETATM   29  C   UNL     1      -9.963   5.374  70.443  1.00  0.00    -0.223 A  
HETATM   30  N   UNL     1      -9.888   3.988  70.280  1.00  0.00    -0.188 NA 
HETATM   31  C   UNL     1      -9.593   6.035  71.626  1.00  0.00    -0.170 A  
HETATM   32  H1  UNL     1      -9.723   3.424  71.114  1.00  0.00     0.000 HD 
HETATM   33  C   UNL     1      -9.570   7.457  71.666  1.00  0.00    -0.150 A  
HETATM   34  H2  UNL     1      -9.180   3.768  69.579  1.00  0.00     0.000 HD 
HETATM   35  C   UNL     1      -9.244   8.087  72.894  1.00  0.00    -0.332 A  
HETATM   36  C   UNL     1      -8.902   7.359  74.031  1.00  0.00    -0.277 A  
HETATM   37  C   UNL     1      -8.883   5.978  73.977  1.00  0.00    -0.126 A  
HETATM   38  C   UNL     1      -9.231   5.327  72.794  1.00  0.00    -0.141 A  
ENDBRANCH  24  25
ENDBRANCH  23  24
ENDBRANCH  22  23
ENDBRANCH  21  22
ENDBRANCH  20  21
ENDBRANCH  19  20
ENDBRANCH  18  19
ENDBRANCH  17  18
ENDBRANCH  16  17
ENDBRANCH  15  16
ENDBRANCH  14  15
TORSDOF 11
ENDMDL
MODEL       59
REMARK 921   NORMALIZED FREE ENERGY PREDICTED BY IDOCK:   -6.93 KCAL/MOL
REMARK 922        TOTAL FREE ENERGY PREDICTED BY IDOCK:  -12.74 KCAL/MOL
REMARK 923 INTER-LIGAND FREE ENERGY PREDICTED BY IDOCK:  -10.55 KCAL/MOL
REMARK 924 INTRA-LIGAND FREE ENERGY PREDICTED BY IDOCK:   -2.19 KCAL/MOL
REMARK 927      BINDING AFFINITY PREDICTED BY RF-SCORE:    0.00 PKD
ROOT
HETATM    1  C   UNL     1      -8.417   9.374  70.248  1.00  0.00    -0.237 C  
HETATM    2  C   UNL     1      -8.842   8.061  69.630  1.00  0.00    -0.141 A  
HETATM    3  C   UNL     1      -9.443   8.099  68.378  1.00  0.00    -0.146 A  
HETATM    4  C   UNL     1      -9.849   6.939  67.735  1.00  0.00    -0.136 A  
HETATM    5  N   UNL     1     -10.313   7.056  66.421  1.00  0.00    -0.477 NA 
HETATM    6  C   UNL     1      -9.554   5.702  68.339  1.00  0.00    -0.152 A  
HETATM    7  H2  UNL     1      -9.606   7.524  65.855  1.00  0.00     0.000 HD 
HETATM    8  C   UNL     1      -9.818   4.471  67.693  1.00  0.00    -0.181 A  
HETATM    9  H1  UNL     1     -10.612   6.203  65.949  1.00  0.00     0.000 HD 
HETATM   10  C   UNL     1      -9.541   3.245  68.296  1.00  0.00    -0.141 A  
HETATM   11  C   UNL     1      -9.002   3.212  69.568  1.00  0.00    -0.174 A  
HETATM   12  C   UNL     1      -8.723   4.411  70.231  1.00  0.00    -0.119 A  
HETATM   13  C   UNL     1      -8.961   5.673  69.629  1.00  0.00    -0.123 A  
HETATM   14  N   UNL     1      -8.617   6.859  70.241  1.00  0.00    -0.139 NA 
ENDROOT
BRANCH  14  15
HETATM   15  C   UNL     1      -7.926   6.838  71.560  1.00  0.00    -0.102 C  
BRANCH  15  16
HETATM   16  C   UNL     1      -8.915   6.530  72.682  1.00  0.00    -0.134 C  
BRANCH  16  17
HETATM   17  C   UNL     1      -9.658   7.783  73.138  1.00  0.00    -0.337 C  
BRANCH  17  18
HETATM   18  C   UNL     1     -11.177   7.663  72.988  1.00  0.00    -0.388 C  
BRANCH  18  19
HETATM   19  C   UNL     1     -11.687   8.331  71.715  1.00  0.00    -0.357 C  
BRANCH  19  20
HETATM   20  C   UNL     1     -12.993   9.103  71.919  1.00  0.00    -0.473 C  
BRANCH  20  21
HETATM   21  C   UNL     1     -12.994  10.499  71.282  1.00  0.00    -0.532 C  
BRANCH  21  22
HETATM   22  C   UNL     1     -11.675  10.837  70.582  1.00  0.00    -0.442 C  
BRANCH  22  23
HETATM   23  C   UNL     1     -11.792  10.865  69.054  1.00  0.00    -0.370 C  
BRANCH  23  24
HETATM   24  C   UNL     1     -10.698  11.725  68.421  1.00  0.00    -0.219 C  
BRANCH  24  25
HETATM   25  N   UNL     1     -11.199  12.390  67.192  1.00  0.00    -0.280 NA 
HETATM   26  C   UNL     1     -11.918  13.552  67.283  1.00  0.00    -0.365 A  
HETATM   27  C   UNL     1     -12.324  14.211  66.119  1.00  0.00    -0.463 A  
HETATM   28  C   UNL     1     -12.278  14.251  68.574  1.00  0.00    -0.194 C  
HETATM   29  C   UNL     1     -12.042  13.704  64.860  1.00  0.00    -0.397 A  
HETATM   30  N   UNL     1     -12.359  14.503  63.758  1.00  0.00    -1.087 NA 
HETATM   31  C   UNL     1     -11.250  12.547  64.775  1.00  0.00    -0.344 A  
HETATM   32  H1  UNL     1     -12.152  14.131  62.831  1.00  0.00     0.000 HD 
HETATM   33  C   UNL     1     -10.861  11.866  65.961  1.00  0.00    -0.299 A  
HETATM   34  H2  UNL     1     -11.914  15.415  63.862  1.00  0.00     0.000 HD 
HETATM   35  C   UNL     1     -10.108  10.671  65.831  1.00  0.00    -0.321 A  
HETATM   36  C   UNL     1      -9.704  10.183  64.590  1.00  0.00    -0.377 A  
HETATM   37  C   UNL     1     -10.048  10.871  63.442  1.00  0.00    -0.398 A  
HETATM   38  C   UNL     1     -10.816  12.030  63.533  1.00  0.00    -0.509 A  
ENDBRANCH  24  25
ENDBRANCH  23  24
ENDBRANCH  22  23
ENDBRANCH  21  22
ENDBRANCH  20  21
ENDBRANCH  19  20
ENDBRANCH  18  19
ENDBRANCH  17  18
ENDBRANCH  16  17
ENDBRANCH  15  16
ENDBRANCH  14  15
TORSDOF 11
ENDMDL
MODEL       60
REMARK 921   NORMALIZED FREE ENERGY PREDICTED BY IDOCK:   -6.92 KCAL/MOL
REMARK 922        TOTAL FREE ENERGY PREDICTED BY IDOCK:  -12.73 KCAL/MOL
REMARK 923 INTER-LIGAND FREE ENERGY PREDICTED BY IDOCK:  -10.52 KCAL/MOL
REMARK 924 INTRA-LIGAND FREE ENERGY PREDICTED BY IDOCK:   -2.21 KCAL/MOL
REMARK 927      BINDING AFFINITY PREDICTED BY RF-SCORE:    0.00 PKD
ROOT
HETATM    1  C   UNL     1      -9.650   5.481  65.983  1.00  0.00    -0.128 C  
HETATM    2  C   UNL     1      -9.731   6.301  67.251  1.00  0.00    -0.129 A  
HETATM    3  C   UNL     1     -10.836   6.118  68.073  1.00  0.00    -0.398 A  
HETATM    4  C   UNL     1     -10.979   6.821  69.260  1.00  0.00    -0.259 A  
HETATM    5  N   UNL     1     -12.047   6.472  70.093  1.00  0.00    -0.499 NA 
HETATM    6  C   UNL     1      -9.928   7.662  69.669  1.00  0.00    -0.185 A  
HETATM    7  H2  UNL     1     -12.004   5.473  70.296  1.00  0.00     0.000 HD 
HETATM    8  C   UNL     1      -9.936   8.314  70.925  1.00  0.00    -0.223 A  
HETATM    9  H1  UNL     1     -12.152   6.988  70.966  1.00  0.00     0.000 HD 
HETATM   10  C   UNL     1      -8.904   9.161  71.325  1.00  0.00    -0.182 A  
HETATM   11  C   UNL     1      -7.837   9.391  70.477  1.00  0.00    -0.185 A  
HETATM   12  C   UNL     1      -7.794   8.756  69.233  1.00  0.00    -0.100 A  
HETATM   13  C   UNL     1      -8.813   7.862  68.813  1.00  0.00    -0.138 A  
HETATM   14  N   UNL     1      -8.743   7.171  67.623  1.00  0.00    -0.121 NA 
ENDROOT
BRANCH  14  15
HETATM   15  C   UNL     1      -7.543   7.314  66.752  1.00  0.00    -0.100 C  
BRANCH  15  16
HETATM   16  C   UNL     1      -7.522   8.687  66.085  1.00  0.00    -0.086 C  
BRANCH  16  17
HETATM   17  C   UNL     1      -8.684   8.856  65.109  1.00  0.00    -0.213 C  
BRANCH  17  18
HETATM   18  C   UNL     1      -8.647  10.195  64.365  1.00  0.00    -0.199 C  
BRANCH  18  19
HETATM   19  C   UNL     1     -10.044  10.718  64.048  1.00  0.00    -0.410 C  
BRANCH  19  20
HETATM   20  C   UNL     1     -10.137  12.246  64.074  1.00  0.00    -0.351 C  
BRANCH  20  21
HETATM   21  C   UNL     1     -11.477  12.777  64.600  1.00  0.00    -0.367 C  
BRANCH  21  22
HETATM   22  C   UNL     1     -11.315  13.952  65.569  1.00  0.00    -0.310 C  
BRANCH  22  23
HETATM   23  C   UNL     1     -12.116  13.781  66.865  1.00  0.00    -0.454 C  
BRANCH  23  24
HETATM   24  C   UNL     1     -11.201  13.725  68.089  1.00  0.00    -0.271 C  
BRANCH  24  25
HETATM   25  N   UNL     1     -11.801  12.880  69.153  1.00  0.00    -0.308 NA 
HETATM   26  C   UNL     1     -11.688  11.517  69.095  1.00  0.00    -0.329 A  
HETATM   27  C   UNL     1     -12.191  10.733  70.137  1.00  0.00    -0.425 A  
HETATM   28  C   UNL     1     -10.989  10.750  67.996  1.00  0.00    -0.336 C  
HETATM   29  C   UNL     1     -12.833  11.299  71.228  1.00  0.00    -0.389 A  
HETATM   30  N   UNL     1     -13.173  10.451  72.286  1.00  0.00    -0.569 NA 
HETATM   31  C   UNL     1     -12.889  12.700  71.310  1.00  0.00    -0.344 A  
HETATM   32  H1  UNL     1     -13.645  10.867  73.089  1.00  0.00     0.000 HD 
HETATM   33  C   UNL     1     -12.398  13.492  70.236  1.00  0.00    -0.300 A  
HETATM   34  H2  UNL     1     -12.339   9.958  72.605  1.00  0.00     0.000 HD 
HETATM   35  C   UNL     1     -12.522  14.902  70.333  1.00  0.00    -0.403 A  
HETATM   36  C   UNL     1     -13.059  15.522  71.459  1.00  0.00    -0.573 A  
HETATM   37  C   UNL     1     -13.495  14.750  72.519  1.00  0.00    -0.546 A  
HETATM   38  C   UNL     1     -13.418  13.360  72.442  1.00  0.00    -0.685 A  
ENDBRANCH  24  25
ENDBRANCH  23  24
ENDBRANCH  22  23
ENDBRANCH  21  22
ENDBRANCH  20  21
ENDBRANCH  19  20
ENDBRANCH  18  19
ENDBRANCH  17  18
ENDBRANCH  16  17
ENDBRANCH  15  16
ENDBRANCH  14  15
TORSDOF 11
ENDMDL
MODEL       61
REMARK 921   NORMALIZED FREE ENERGY PREDICTED BY IDOCK:   -6.92 KCAL/MOL
REMARK 922        TOTAL FREE ENERGY PREDICTED BY IDOCK:  -12.72 KCAL/MOL
REMARK 923 INTER-LIGAND FREE ENERGY PREDICTED BY IDOCK:  -11.22 KCAL/MOL
REMARK 924 INTRA-LIGAND FREE ENERGY PREDICTED BY IDOCK:   -1.50 KCAL/MOL
REMARK 927      BINDING AFFINITY PREDICTED BY RF-SCORE:    0.00 PKD
ROOT
HETATM    1  C   UNL     1      -7.124  15.034  69.378  1.00  0.00    -0.186 C  
HETATM    2  C   UNL     1      -7.584  16.413  68.964  1.00  0.00    -0.232 A  
HETATM    3  C   UNL     1      -6.741  17.485  69.230  1.00  0.00    -0.221 A  
HETATM    4  C   UNL     1      -7.081  18.780  68.869  1.00  0.00    -0.305 A  
HETATM    5  N   UNL     1      -6.114  19.776  69.046  1.00  0.00    -0.262 NA 
HETATM    6  C   UNL     1      -8.265  18.981  68.136  1.00  0.00    -0.349 A  
HETATM    7  H2  UNL     1      -5.259  19.505  68.562  1.00  0.00     0.000 HD 
HETATM    8  C   UNL     1      -8.621  20.249  67.619  1.00  0.00    -0.340 A  
HETATM    9  H1  UNL     1      -6.364  20.728  68.781  1.00  0.00     0.000 HD 
HETATM   10  C   UNL     1      -9.801  20.453  66.907  1.00  0.00    -0.572 A  
HETATM   11  C   UNL     1     -10.668  19.397  66.699  1.00  0.00    -0.529 A  
HETATM   12  C   UNL     1     -10.343  18.129  67.190  1.00  0.00    -0.391 A  
HETATM   13  C   UNL     1      -9.133  17.884  67.888  1.00  0.00    -0.260 A  
HETATM   14  N   UNL     1      -8.766  16.624  68.308  1.00  0.00    -0.209 NA 
ENDROOT
BRANCH  14  15
HETATM   15  C   UNL     1      -9.630  15.455  67.987  1.00  0.00    -0.206 C  
BRANCH  15  16
HETATM   16  C   UNL     1     -10.784  15.349  68.982  1.00  0.00    -0.242 C  
BRANCH  16  17
HETATM   17  C   UNL     1     -11.786  14.274  68.571  1.00  0.00    -0.382 C  
BRANCH  17  18
HETATM   18  C   UNL     1     -11.894  14.111  67.051  1.00  0.00    -0.458 C  
BRANCH  18  19
HETATM   19  C   UNL     1     -11.870  12.646  66.624  1.00  0.00    -0.449 C  
BRANCH  19  20
HETATM   20  C   UNL     1     -10.488  12.173  66.167  1.00  0.00    -0.281 C  
BRANCH  20  21
HETATM   21  C   UNL     1     -10.513  10.856  65.380  1.00  0.00    -0.291 C  
BRANCH  21  22
HETATM   22  C   UNL     1      -9.607   9.781  65.986  1.00  0.00    -0.296 C  
BRANCH  22  23
HETATM   23  C   UNL     1     -10.330   8.877  66.991  1.00  0.00    -0.340 C  
BRANCH  23  24
HETATM   24  C   UNL     1      -9.766   9.040  68.403  1.00  0.00    -0.156 C  
BRANCH  24  25
HETATM   25  N   UNL     1     -10.632   8.355  69.396  1.00  0.00    -0.219 NA 
HETATM   26  C   UNL     1     -10.550   6.999  69.561  1.00  0.00    -0.234 A  
HETATM   27  C   UNL     1     -11.315   6.372  70.548  1.00  0.00    -0.438 A  
HETATM   28  C   UNL     1      -9.627   6.084  68.788  1.00  0.00    -0.148 C  
HETATM   29  C   UNL     1     -12.186   7.085  71.356  1.00  0.00    -0.366 A  
HETATM   30  N   UNL     1     -12.799   6.399  72.408  1.00  0.00    -0.508 NA 
HETATM   31  C   UNL     1     -12.217   8.483  71.222  1.00  0.00    -0.310 A  
HETATM   32  H1  UNL     1     -13.440   6.924  73.003  1.00  0.00     0.000 HD 
HETATM   33  C   UNL     1     -11.456   9.114  70.201  1.00  0.00    -0.087 A  
HETATM   34  H2  UNL     1     -12.083   5.961  72.988  1.00  0.00     0.000 HD 
HETATM   35  C   UNL     1     -11.557  10.523  70.064  1.00  0.00    -0.392 A  
HETATM   36  C   UNL     1     -12.333  11.296  70.924  1.00  0.00    -0.490 A  
HETATM   37  C   UNL     1     -13.037  10.684  71.943  1.00  0.00    -0.563 A  
HETATM   38  C   UNL     1     -12.986   9.298  72.085  1.00  0.00    -0.503 A  
ENDBRANCH  24  25
ENDBRANCH  23  24
ENDBRANCH  22  23
ENDBRANCH  21  22
ENDBRANCH  20  21
ENDBRANCH  19  20
ENDBRANCH  18  19
ENDBRANCH  17  18
ENDBRANCH  16  17
ENDBRANCH  15  16
ENDBRANCH  14  15
TORSDOF 11
ENDMDL
MODEL       62
REMARK 921   NORMALIZED FREE ENERGY PREDICTED BY IDOCK:   -6.91 KCAL/MOL
REMARK 922        TOTAL FREE ENERGY PREDICTED BY IDOCK:  -12.71 KCAL/MOL
REMARK 923 INTER-LIGAND FREE ENERGY PREDICTED BY IDOCK:  -11.79 KCAL/MOL
REMARK 924 INTRA-LIGAND FREE ENERGY PREDICTED BY IDOCK:   -0.92 KCAL/MOL
REMARK 927      BINDING AFFINITY PREDICTED BY RF-SCORE:    0.00 PKD
ROOT
HETATM    1  C   UNL     1     -11.485  11.437  68.630  1.00  0.00    -0.359 C  
HETATM    2  C   UNL     1     -10.825  10.402  69.513  1.00  0.00    -0.255 A  
HETATM    3  C   UNL     1      -9.469  10.164  69.330  1.00  0.00    -0.240 A  
HETATM    4  C   UNL     1      -8.785   9.242  70.108  1.00  0.00    -0.204 A  
HETATM    5  N   UNL     1      -7.396   9.168  69.953  1.00  0.00    -0.058 NA 
HETATM    6  C   UNL     1      -9.475   8.613  71.161  1.00  0.00    -0.274 A  
HETATM    7  H2  UNL     1      -6.992  10.094  70.095  1.00  0.00     0.000 HD 
HETATM    8  C   UNL     1      -8.822   7.758  72.080  1.00  0.00    -0.169 A  
HETATM    9  H1  UNL     1      -6.894   8.490  70.525  1.00  0.00     0.000 HD 
HETATM   10  C   UNL     1      -9.507   7.121  73.113  1.00  0.00    -0.204 A  
HETATM   11  C   UNL     1     -10.869   7.311  73.253  1.00  0.00    -0.404 A  
HETATM   12  C   UNL     1     -11.543   8.155  72.366  1.00  0.00    -0.463 A  
HETATM   13  C   UNL     1     -10.866   8.844  71.327  1.00  0.00    -0.290 A  
HETATM   14  N   UNL     1     -11.506   9.738  70.496  1.00  0.00    -0.281 NA 
ENDROOT
BRANCH  14  15
HETATM   15  C   UNL     1     -12.948  10.047  70.709  1.00  0.00    -0.257 C  
BRANCH  15  16
HETATM   16  C   UNL     1     -13.140  10.872  71.979  1.00  0.00    -0.462 C  
BRANCH  16  17
HETATM   17  C   UNL     1     -12.908  12.359  71.725  1.00  0.00    -0.350 C  
BRANCH  17  18
HETATM   18  C   UNL     1     -13.882  13.254  72.496  1.00  0.00    -0.554 C  
BRANCH  18  19
HETATM   19  C   UNL     1     -13.425  14.709  72.532  1.00  0.00    -0.565 C  
BRANCH  19  20
HETATM   20  C   UNL     1     -12.109  14.947  71.786  1.00  0.00    -0.428 C  
BRANCH  20  21
HETATM   21  C   UNL     1     -12.293  15.451  70.349  1.00  0.00    -0.443 C  
BRANCH  21  22
HETATM   22  C   UNL     1     -11.140  15.052  69.424  1.00  0.00    -0.290 C  
BRANCH  22  23
HETATM   23  C   UNL     1      -9.771  15.522  69.928  1.00  0.00    -0.169 C  
BRANCH  23  24
HETATM   24  C   UNL     1      -8.717  15.473  68.822  1.00  0.00    -0.192 C  
BRANCH  24  25
HETATM   25  N   UNL     1      -9.330  15.762  67.500  1.00  0.00    -0.209 NA 
HETATM   26  C   UNL     1      -9.556  14.747  66.610  1.00  0.00    -0.272 A  
HETATM   27  C   UNL     1     -10.200  15.016  65.399  1.00  0.00    -0.411 A  
HETATM   28  C   UNL     1      -9.216  13.293  66.846  1.00  0.00    -0.242 C  
HETATM   29  C   UNL     1     -10.598  16.298  65.056  1.00  0.00    -0.233 A  
HETATM   30  N   UNL     1     -11.362  16.447  63.894  1.00  0.00    -1.535 NA 
HETATM   31  C   UNL     1     -10.420  17.322  66.001  1.00  0.00    -0.285 A  
HETATM   32  H1  UNL     1     -11.655  17.391  63.641  1.00  0.00     0.000 HD 
HETATM   33  C   UNL     1      -9.742  17.049  67.221  1.00  0.00    -0.253 A  
HETATM   34  H2  UNL     1     -12.182  15.843  63.950  1.00  0.00     0.000 HD 
HETATM   35  C   UNL     1      -9.534  18.122  68.125  1.00  0.00    -0.301 A  
HETATM   36  C   UNL     1     -10.014  19.405  67.874  1.00  0.00    -0.483 A  
HETATM   37  C   UNL     1     -10.710  19.656  66.707  1.00  0.00    -0.562 A  
HETATM   38  C   UNL     1     -10.903  18.632  65.782  1.00  0.00    -0.093 A  
ENDBRANCH  24  25
ENDBRANCH  23  24
ENDBRANCH  22  23
ENDBRANCH  21  22
ENDBRANCH  20  21
ENDBRANCH  19  20
ENDBRANCH  18  19
ENDBRANCH  17  18
ENDBRANCH  16  17
ENDBRANCH  15  16
ENDBRANCH  14  15
TORSDOF 11
ENDMDL
MODEL       63
REMARK 921   NORMALIZED FREE ENERGY PREDICTED BY IDOCK:   -6.89 KCAL/MOL
REMARK 922        TOTAL FREE ENERGY PREDICTED BY IDOCK:  -12.68 KCAL/MOL
REMARK 923 INTER-LIGAND FREE ENERGY PREDICTED BY IDOCK:   -9.94 KCAL/MOL
REMARK 924 INTRA-LIGAND FREE ENERGY PREDICTED BY IDOCK:   -2.74 KCAL/MOL
REMARK 927      BINDING AFFINITY PREDICTED BY RF-SCORE:    0.00 PKD
ROOT
HETATM    1  C   UNL     1     -10.913  16.012  67.850  1.00  0.00    -0.327 C  
HETATM    2  C   UNL     1     -11.447  15.146  68.969  1.00  0.00    -0.309 A  
HETATM    3  C   UNL     1     -12.036  15.781  70.055  1.00  0.00    -0.344 A  
HETATM    4  C   UNL     1     -12.564  15.061  71.116  1.00  0.00    -0.348 A  
HETATM    5  N   UNL     1     -13.264  15.771  72.096  1.00  0.00    -0.458 NA 
HETATM    6  C   UNL     1     -12.576  13.656  71.029  1.00  0.00    -0.441 A  
HETATM    7  H2  UNL     1     -14.007  16.312  71.654  1.00  0.00     0.000 HD 
HETATM    8  C   UNL     1     -13.208  12.851  72.006  1.00  0.00    -0.549 A  
HETATM    9  H1  UNL     1     -13.652  15.241  72.876  1.00  0.00     0.000 HD 
HETATM   10  C   UNL     1     -13.206  11.459  71.930  1.00  0.00    -0.485 A  
HETATM   11  C   UNL     1     -12.563  10.829  70.882  1.00  0.00    -0.498 A  
HETATM   12  C   UNL     1     -11.935  11.596  69.896  1.00  0.00    -0.414 A  
HETATM   13  C   UNL     1     -11.950  13.014  69.928  1.00  0.00    -0.311 A  
HETATM   14  N   UNL     1     -11.403  13.780  68.922  1.00  0.00    -0.270 NA 
ENDROOT
BRANCH  14  15
HETATM   15  C   UNL     1     -10.812  13.119  67.725  1.00  0.00    -0.244 C  
BRANCH  15  16
HETATM   16  C   UNL     1      -9.329  12.828  67.948  1.00  0.00    -0.208 C  
BRANCH  16  17
HETATM   17  C   UNL     1      -8.974  11.392  67.570  1.00  0.00    -0.150 C  
BRANCH  17  18
HETATM   18  C   UNL     1      -8.555  10.545  68.774  1.00  0.00    -0.146 C  
BRANCH  18  19
HETATM   19  C   UNL     1      -8.777   9.054  68.538  1.00  0.00    -0.133 C  
BRANCH  19  20
HETATM   20  C   UNL     1     -10.235   8.702  68.233  1.00  0.00    -0.237 C  
BRANCH  20  21
HETATM   21  C   UNL     1     -10.406   7.736  67.053  1.00  0.00    -0.405 C  
BRANCH  21  22
HETATM   22  C   UNL     1     -10.832   6.331  67.488  1.00  0.00    -0.436 C  
BRANCH  22  23
HETATM   23  C   UNL     1      -9.648   5.424  67.845  1.00  0.00    -0.152 C  
BRANCH  23  24
HETATM   24  C   UNL     1      -9.800   4.826  69.244  1.00  0.00    -0.199 C  
BRANCH  24  25
HETATM   25  N   UNL     1      -9.282   5.763  70.273  1.00  0.00    -0.150 NA 
HETATM   26  C   UNL     1      -7.933   5.945  70.422  1.00  0.00    -0.106 A  
HETATM   27  C   UNL     1      -7.457   6.882  71.342  1.00  0.00    -0.082 A  
HETATM   28  C   UNL     1      -6.868   5.244  69.610  1.00  0.00    -0.056 C  
HETATM   29  C   UNL     1      -8.316   7.623  72.139  1.00  0.00    -0.110 A  
HETATM   30  N   UNL     1      -7.757   8.636  72.923  1.00  0.00    -0.375 NA 
HETATM   31  C   UNL     1      -9.698   7.476  71.935  1.00  0.00    -0.191 A  
HETATM   32  H1  UNL     1      -8.389   9.181  73.509  1.00  0.00     0.000 HD 
HETATM   33  C   UNL     1     -10.179   6.503  71.015  1.00  0.00    -0.189 A  
HETATM   34  H2  UNL     1      -7.222   9.267  72.327  1.00  0.00     0.000 HD 
HETATM   35  C   UNL     1     -11.583   6.348  70.878  1.00  0.00    -0.393 A  
HETATM   36  C   UNL     1     -12.487   7.147  71.574  1.00  0.00    -0.418 A  
HETATM   37  C   UNL     1     -12.015   8.120  72.435  1.00  0.00    -0.431 A  
HETATM   38  C   UNL     1     -10.643   8.276  72.618  1.00  0.00    -0.378 A  
ENDBRANCH  24  25
ENDBRANCH  23  24
ENDBRANCH  22  23
ENDBRANCH  21  22
ENDBRANCH  20  21
ENDBRANCH  19  20
ENDBRANCH  18  19
ENDBRANCH  17  18
ENDBRANCH  16  17
ENDBRANCH  15  16
ENDBRANCH  14  15
TORSDOF 11
ENDMDL
MODEL       64
REMARK 921   NORMALIZED FREE ENERGY PREDICTED BY IDOCK:   -6.89 KCAL/MOL
REMARK 922        TOTAL FREE ENERGY PREDICTED BY IDOCK:  -12.68 KCAL/MOL
REMARK 923 INTER-LIGAND FREE ENERGY PREDICTED BY IDOCK:  -11.24 KCAL/MOL
REMARK 924 INTRA-LIGAND FREE ENERGY PREDICTED BY IDOCK:   -1.44 KCAL/MOL
REMARK 927      BINDING AFFINITY PREDICTED BY RF-SCORE:    0.00 PKD
ROOT
HETATM    1  C   UNL     1     -10.827   5.242  73.586  1.00  0.00    -0.347 C  
HETATM    2  C   UNL     1     -10.519   5.060  72.117  1.00  0.00    -0.210 A  
HETATM    3  C   UNL     1      -9.919   3.870  71.723  1.00  0.00    -0.234 A  
HETATM    4  C   UNL     1      -9.616   3.618  70.393  1.00  0.00    -0.184 A  
HETATM    5  N   UNL     1      -9.145   2.342  70.067  1.00  0.00    -0.098 NA 
HETATM    6  C   UNL     1     -10.019   4.558  69.426  1.00  0.00    -0.212 A  
HETATM    7  H2  UNL     1      -9.809   1.642  70.400  1.00  0.00     0.000 HD 
HETATM    8  C   UNL     1      -9.864   4.320  68.040  1.00  0.00    -0.111 A  
HETATM    9  H1  UNL     1      -8.923   2.156  69.089  1.00  0.00     0.000 HD 
HETATM   10  C   UNL     1     -10.247   5.257  67.082  1.00  0.00    -0.264 A  
HETATM   11  C   UNL     1     -10.785   6.466  67.480  1.00  0.00    -0.396 A  
HETATM   12  C   UNL     1     -10.958   6.730  68.842  1.00  0.00    -0.272 A  
HETATM   13  C   UNL     1     -10.610   5.781  69.838  1.00  0.00    -0.318 A  
HETATM   14  N   UNL     1     -10.848   5.999  71.178  1.00  0.00    -0.266 NA 
ENDROOT
BRANCH  14  15
HETATM   15  C   UNL     1     -11.537   7.244  71.616  1.00  0.00    -0.274 C  
BRANCH  15  16
HETATM   16  C   UNL     1     -13.053   7.070  71.558  1.00  0.00    -0.395 C  
BRANCH  16  17
HETATM   17  C   UNL     1     -13.778   8.410  71.654  1.00  0.00    -0.403 C  
BRANCH  17  18
HETATM   18  C   UNL     1     -12.821   9.593  71.823  1.00  0.00    -0.514 C  
BRANCH  18  19
HETATM   19  C   UNL     1     -13.234  10.795  70.979  1.00  0.00    -0.211 C  
BRANCH  19  20
HETATM   20  C   UNL     1     -12.073  11.407  70.191  1.00  0.00    -0.439 C  
BRANCH  20  21
HETATM   21  C   UNL     1     -10.958  10.408  69.854  1.00  0.00    -0.364 C  
BRANCH  21  22
HETATM   22  C   UNL     1      -9.996  10.926  68.781  1.00  0.00    -0.203 C  
BRANCH  22  23
HETATM   23  C   UNL     1      -9.953  12.456  68.697  1.00  0.00    -0.117 C  
BRANCH  23  24
HETATM   24  C   UNL     1      -9.045  12.932  67.562  1.00  0.00    -0.191 C  
BRANCH  24  25
HETATM   25  N   UNL     1      -9.764  13.887  66.681  1.00  0.00    -0.280 NA 
HETATM   26  C   UNL     1      -9.570  15.235  66.825  1.00  0.00    -0.241 A  
HETATM   27  C   UNL     1     -10.193  16.124  65.945  1.00  0.00    -0.381 A  
HETATM   28  C   UNL     1      -8.660  15.877  67.848  1.00  0.00    -0.164 C  
HETATM   29  C   UNL     1     -11.034  15.680  64.936  1.00  0.00    -0.431 A  
HETATM   30  N   UNL     1     -11.496  16.627  64.018  1.00  0.00    -1.551 NA 
HETATM   31  C   UNL     1     -11.177  14.294  64.757  1.00  0.00    -0.387 A  
HETATM   32  H1  UNL     1     -12.114  16.301  63.275  1.00  0.00     0.000 HD 
HETATM   33  C   UNL     1     -10.561  13.394  65.670  1.00  0.00    -0.282 A  
HETATM   34  H2  UNL     1     -10.699  17.112  63.603  1.00  0.00     0.000 HD 
HETATM   35  C   UNL     1     -10.775  12.004  65.486  1.00  0.00    -0.318 A  
HETATM   36  C   UNL     1     -11.520  11.504  64.420  1.00  0.00    -0.236 A  
HETATM   37  C   UNL     1     -12.082  12.380  63.511  1.00  0.00    -0.651 A  
HETATM   38  C   UNL     1     -11.919  13.754  63.681  1.00  0.00    -0.298 A  
ENDBRANCH  24  25
ENDBRANCH  23  24
ENDBRANCH  22  23
ENDBRANCH  21  22
ENDBRANCH  20  21
ENDBRANCH  19  20
ENDBRANCH  18  19
ENDBRANCH  17  18
ENDBRANCH  16  17
ENDBRANCH  15  16
ENDBRANCH  14  15
TORSDOF 11
ENDMDL
MODEL       65
REMARK 921   NORMALIZED FREE ENERGY PREDICTED BY IDOCK:   -6.89 KCAL/MOL
REMARK 922        TOTAL FREE ENERGY PREDICTED BY IDOCK:  -12.67 KCAL/MOL
REMARK 923 INTER-LIGAND FREE ENERGY PREDICTED BY IDOCK:  -10.69 KCAL/MOL
REMARK 924 INTRA-LIGAND FREE ENERGY PREDICTED BY IDOCK:   -1.97 KCAL/MOL
REMARK 927      BINDING AFFINITY PREDICTED BY RF-SCORE:    0.00 PKD
ROOT
HETATM    1  C   UNL     1      -9.267   4.954  66.388  1.00  0.00    -0.138 C  
HETATM    2  C   UNL     1      -9.679   4.967  67.843  1.00  0.00    -0.155 A  
HETATM    3  C   UNL     1      -9.173   3.970  68.668  1.00  0.00    -0.209 A  
HETATM    4  C   UNL     1      -9.490   3.918  70.018  1.00  0.00    -0.192 A  
HETATM    5  N   UNL     1      -8.826   2.969  70.802  1.00  0.00    -0.076 NA 
HETATM    6  C   UNL     1     -10.265   4.959  70.563  1.00  0.00    -0.288 A  
HETATM    7  H2  UNL     1      -7.818   3.090  70.697  1.00  0.00     0.000 HD 
HETATM    8  C   UNL     1     -10.526   5.050  71.950  1.00  0.00    -0.255 A  
HETATM    9  H1  UNL     1      -9.058   2.931  71.794  1.00  0.00     0.000 HD 
HETATM   10  C   UNL     1     -11.307   6.071  72.490  1.00  0.00    -0.344 A  
HETATM   11  C   UNL     1     -11.861   7.024  71.657  1.00  0.00    -0.348 A  
HETATM   12  C   UNL     1     -11.618   6.966  70.282  1.00  0.00    -0.362 A  
HETATM   13  C   UNL     1     -10.798   5.960  69.709  1.00  0.00    -0.377 A  
HETATM   14  N   UNL     1     -10.487   5.939  68.367  1.00  0.00    -0.215 NA 
ENDROOT
BRANCH  14  15
HETATM   15  C   UNL     1     -10.976   7.026  67.475  1.00  0.00    -0.229 C  
BRANCH  15  16
HETATM   16  C   UNL     1     -10.071   8.253  67.574  1.00  0.00    -0.287 C  
BRANCH  16  17
HETATM   17  C   UNL     1     -10.223   9.164  66.359  1.00  0.00    -0.300 C  
BRANCH  17  18
HETATM   18  C   UNL     1      -9.026   9.091  65.406  1.00  0.00    -0.249 C  
BRANCH  18  19
HETATM   19  C   UNL     1      -8.816  10.394  64.641  1.00  0.00    -0.216 C  
BRANCH  19  20
HETATM   20  C   UNL     1     -10.091  10.910  63.968  1.00  0.00    -0.419 C  
BRANCH  20  21
HETATM   21  C   UNL     1     -10.230  12.438  63.993  1.00  0.00    -0.401 C  
BRANCH  21  22
HETATM   22  C   UNL     1     -11.601  12.905  64.489  1.00  0.00    -0.400 C  
BRANCH  22  23
HETATM   23  C   UNL     1     -11.894  12.489  65.936  1.00  0.00    -0.489 C  
BRANCH  23  24
HETATM   24  C   UNL     1     -10.714  12.794  66.858  1.00  0.00    -0.253 C  
BRANCH  24  25
HETATM   25  N   UNL     1     -11.166  13.544  68.058  1.00  0.00    -0.259 NA 
HETATM   26  C   UNL     1     -11.180  14.914  68.048  1.00  0.00    -0.308 A  
HETATM   27  C   UNL     1     -11.675  15.611  69.153  1.00  0.00    -0.402 A  
HETATM   28  C   UNL     1     -10.749  15.778  66.885  1.00  0.00    -0.299 C  
HETATM   29  C   UNL     1     -12.134  14.952  70.283  1.00  0.00    -0.325 A  
HETATM   30  N   UNL     1     -12.744  15.724  71.276  1.00  0.00    -0.485 NA 
HETATM   31  C   UNL     1     -12.175  13.548  70.259  1.00  0.00    -0.417 A  
HETATM   32  H1  UNL     1     -13.081  15.240  72.108  1.00  0.00     0.000 HD 
HETATM   33  C   UNL     1     -11.647  12.843  69.144  1.00  0.00    -0.322 A  
HETATM   34  H2  UNL     1     -13.508  16.260  70.865  1.00  0.00     0.000 HD 
HETATM   35  C   UNL     1     -11.658  11.425  69.182  1.00  0.00    -0.381 A  
HETATM   36  C   UNL     1     -12.210  10.717  70.248  1.00  0.00    -0.431 A  
HETATM   37  C   UNL     1     -12.762  11.407  71.311  1.00  0.00    -0.498 A  
HETATM   38  C   UNL     1     -12.737  12.801  71.320  1.00  0.00    -0.364 A  
ENDBRANCH  24  25
ENDBRANCH  23  24
ENDBRANCH  22  23
ENDBRANCH  21  22
ENDBRANCH  20  21
ENDBRANCH  19  20
ENDBRANCH  18  19
ENDBRANCH  17  18
ENDBRANCH  16  17
ENDBRANCH  15  16
ENDBRANCH  14  15
TORSDOF 11
ENDMDL
MODEL       66
REMARK 921   NORMALIZED FREE ENERGY PREDICTED BY IDOCK:   -6.88 KCAL/MOL
REMARK 922        TOTAL FREE ENERGY PREDICTED BY IDOCK:  -12.66 KCAL/MOL
REMARK 923 INTER-LIGAND FREE ENERGY PREDICTED BY IDOCK:   -9.76 KCAL/MOL
REMARK 924 INTRA-LIGAND FREE ENERGY PREDICTED BY IDOCK:   -2.91 KCAL/MOL
REMARK 927      BINDING AFFINITY PREDICTED BY RF-SCORE:    0.00 PKD
ROOT
HETATM    1  C   UNL     1     -11.058  16.191  70.295  1.00  0.00    -0.375 C  
HETATM    2  C   UNL     1     -11.101  15.850  68.823  1.00  0.00    -0.328 A  
HETATM    3  C   UNL     1     -10.463  16.711  67.939  1.00  0.00    -0.322 A  
HETATM    4  C   UNL     1     -10.442  16.463  66.575  1.00  0.00    -0.282 A  
HETATM    5  N   UNL     1      -9.659  17.302  65.776  1.00  0.00    -0.535 NA 
HETATM    6  C   UNL     1     -11.004  15.260  66.105  1.00  0.00    -0.307 A  
HETATM    7  H2  UNL     1      -8.703  17.309  66.131  1.00  0.00     0.000 HD 
HETATM    8  C   UNL     1     -10.913  14.870  64.749  1.00  0.00    -0.390 A  
HETATM    9  H1  UNL     1      -9.644  17.120  64.773  1.00  0.00     0.000 HD 
HETATM   10  C   UNL     1     -11.483  13.688  64.279  1.00  0.00    -0.393 A  
HETATM   11  C   UNL     1     -12.172  12.865  65.150  1.00  0.00    -0.519 A  
HETATM   12  C   UNL     1     -12.275  13.218  66.499  1.00  0.00    -0.389 A  
HETATM   13  C   UNL     1     -11.675  14.397  67.012  1.00  0.00    -0.399 A  
HETATM   14  N   UNL     1     -11.703  14.715  68.352  1.00  0.00    -0.318 NA 
ENDROOT
BRANCH  14  15
HETATM   15  C   UNL     1     -12.336  13.780  69.323  1.00  0.00    -0.143 C  
BRANCH  15  16
HETATM   16  C   UNL     1     -11.392  12.627  69.655  1.00  0.00    -0.174 C  
BRANCH  16  17
HETATM   17  C   UNL     1     -12.137  11.298  69.747  1.00  0.00    -0.394 C  
BRANCH  17  18
HETATM   18  C   UNL     1     -11.590  10.383  70.847  1.00  0.00    -0.428 C  
BRANCH  18  19
HETATM   19  C   UNL     1     -12.695   9.829  71.741  1.00  0.00    -0.519 C  
BRANCH  19  20
HETATM   20  C   UNL     1     -12.388   8.432  72.284  1.00  0.00    -0.436 C  
BRANCH  20  21
HETATM   21  C   UNL     1     -12.915   7.294  71.400  1.00  0.00    -0.420 C  
BRANCH  21  22
HETATM   22  C   UNL     1     -11.841   6.707  70.479  1.00  0.00    -0.430 C  
BRANCH  22  23
HETATM   23  C   UNL     1     -10.414   6.942  70.988  1.00  0.00    -0.235 C  
BRANCH  23  24
HETATM   24  C   UNL     1      -9.406   6.976  69.839  1.00  0.00    -0.150 C  
BRANCH  24  25
HETATM   25  N   UNL     1      -8.819   8.333  69.697  1.00  0.00    -0.138 NA 
HETATM   26  C   UNL     1      -7.908   8.789  70.613  1.00  0.00    -0.107 A  
HETATM   27  C   UNL     1      -7.307  10.037  70.432  1.00  0.00    -0.094 A  
HETATM   28  C   UNL     1      -7.427   8.013  71.818  1.00  0.00    -0.088 C  
HETATM   29  C   UNL     1      -7.627  10.850  69.356  1.00  0.00    -0.094 A  
HETATM   30  N   UNL     1      -6.871  12.012  69.179  1.00  0.00    -0.154 NA 
HETATM   31  C   UNL     1      -8.514  10.349  68.389  1.00  0.00    -0.124 A  
HETATM   32  H1  UNL     1      -7.106  12.611  68.387  1.00  0.00     0.000 HD 
HETATM   33  C   UNL     1      -9.143   9.089  68.590  1.00  0.00    -0.137 A  
HETATM   34  H2  UNL     1      -5.881  11.768  69.134  1.00  0.00     0.000 HD 
HETATM   35  C   UNL     1     -10.073   8.643  67.616  1.00  0.00    -0.271 A  
HETATM   36  C   UNL     1     -10.344   9.374  66.462  1.00  0.00    -0.268 A  
HETATM   37  C   UNL     1      -9.698  10.577  66.250  1.00  0.00    -0.254 A  
HETATM   38  C   UNL     1      -8.803  11.060  67.202  1.00  0.00    -0.140 A  
ENDBRANCH  24  25
ENDBRANCH  23  24
ENDBRANCH  22  23
ENDBRANCH  21  22
ENDBRANCH  20  21
ENDBRANCH  19  20
ENDBRANCH  18  19
ENDBRANCH  17  18
ENDBRANCH  16  17
ENDBRANCH  15  16
ENDBRANCH  14  15
TORSDOF 11
ENDMDL
MODEL       67
REMARK 921   NORMALIZED FREE ENERGY PREDICTED BY IDOCK:   -6.87 KCAL/MOL
REMARK 922        TOTAL FREE ENERGY PREDICTED BY IDOCK:  -12.64 KCAL/MOL
REMARK 923 INTER-LIGAND FREE ENERGY PREDICTED BY IDOCK:  -10.65 KCAL/MOL
REMARK 924 INTRA-LIGAND FREE ENERGY PREDICTED BY IDOCK:   -1.99 KCAL/MOL
REMARK 927      BINDING AFFINITY PREDICTED BY RF-SCORE:    0.00 PKD
ROOT
HETATM    1  C   UNL     1      -8.037   7.943  70.116  1.00  0.00    -0.116 C  
HETATM    2  C   UNL     1      -9.444   8.364  70.477  1.00  0.00    -0.169 A  
HETATM    3  C   UNL     1      -9.786   9.699  70.303  1.00  0.00    -0.314 A  
HETATM    4  C   UNL     1     -11.059  10.165  70.596  1.00  0.00    -0.322 A  
HETATM    5  N   UNL     1     -11.358  11.488  70.258  1.00  0.00    -0.491 NA 
HETATM    6  C   UNL     1     -12.038   9.232  70.988  1.00  0.00    -0.349 A  
HETATM    7  H2  UNL     1     -11.166  11.634  69.266  1.00  0.00     0.000 HD 
HETATM    8  C   UNL     1     -13.389   9.601  71.182  1.00  0.00    -0.344 A  
HETATM    9  H1  UNL     1     -12.294  11.830  70.473  1.00  0.00     0.000 HD 
HETATM   10  C   UNL     1     -14.356   8.683  71.586  1.00  0.00    -0.451 A  
HETATM   11  C   UNL     1     -13.999   7.369  71.820  1.00  0.00    -0.469 A  
HETATM   12  C   UNL     1     -12.673   6.969  71.631  1.00  0.00    -0.417 A  
HETATM   13  C   UNL     1     -11.675   7.874  71.186  1.00  0.00    -0.285 A  
HETATM   14  N   UNL     1     -10.383   7.474  70.922  1.00  0.00    -0.201 NA 
ENDROOT
BRANCH  14  15
HETATM   15  C   UNL     1     -10.009   6.038  71.053  1.00  0.00    -0.187 C  
BRANCH  15  16
HETATM   16  C   UNL     1     -10.571   5.227  69.887  1.00  0.00    -0.292 C  
BRANCH  16  17
HETATM   17  C   UNL     1      -9.467   4.502  69.122  1.00  0.00    -0.233 C  
BRANCH  17  18
HETATM   18  C   UNL     1      -9.156   5.150  67.769  1.00  0.00    -0.119 C  
BRANCH  18  19
HETATM   19  C   UNL     1     -10.239   6.135  67.337  1.00  0.00    -0.226 C  
BRANCH  19  20
HETATM   20  C   UNL     1      -9.728   7.208  66.373  1.00  0.00    -0.139 C  
BRANCH  20  21
HETATM   21  C   UNL     1     -10.258   8.616  66.676  1.00  0.00    -0.343 C  
BRANCH  21  22
HETATM   22  C   UNL     1      -9.145   9.664  66.777  1.00  0.00    -0.171 C  
BRANCH  22  23
HETATM   23  C   UNL     1      -9.440  10.937  65.975  1.00  0.00    -0.235 C  
BRANCH  23  24
HETATM   24  C   UNL     1     -10.495  11.803  66.664  1.00  0.00    -0.224 C  
BRANCH  24  25
HETATM   25  N   UNL     1     -10.708  13.066  65.912  1.00  0.00    -0.273 NA 
HETATM   26  C   UNL     1     -11.543  13.088  64.827  1.00  0.00    -0.329 A  
HETATM   27  C   UNL     1     -11.796  14.295  64.169  1.00  0.00    -0.338 A  
HETATM   28  C   UNL     1     -12.297  11.894  64.287  1.00  0.00    -0.310 C  
HETATM   29  C   UNL     1     -11.198  15.480  64.568  1.00  0.00    -0.315 A  
HETATM   30  N   UNL     1     -11.621  16.658  63.944  1.00  0.00    -1.431 NA 
HETATM   31  C   UNL     1     -10.393  15.460  65.719  1.00  0.00    -0.381 A  
HETATM   32  H1  UNL     1     -11.181  17.530  64.238  1.00  0.00     0.000 HD 
HETATM   33  C   UNL     1     -10.119  14.226  66.371  1.00  0.00    -0.288 A  
HETATM   34  H2  UNL     1     -12.633  16.743  64.036  1.00  0.00     0.000 HD 
HETATM   35  C   UNL     1      -9.258  14.241  67.498  1.00  0.00    -0.197 A  
HETATM   36  C   UNL     1      -8.723  15.423  68.005  1.00  0.00    -0.160 A  
HETATM   37  C   UNL     1      -9.026  16.625  67.394  1.00  0.00    -0.204 A  
HETATM   38  C   UNL     1      -9.842  16.642  66.265  1.00  0.00    -0.329 A  
ENDBRANCH  24  25
ENDBRANCH  23  24
ENDBRANCH  22  23
ENDBRANCH  21  22
ENDBRANCH  20  21
ENDBRANCH  19  20
ENDBRANCH  18  19
ENDBRANCH  17  18
ENDBRANCH  16  17
ENDBRANCH  15  16
ENDBRANCH  14  15
TORSDOF 11
ENDMDL
MODEL       68
REMARK 921   NORMALIZED FREE ENERGY PREDICTED BY IDOCK:   -6.87 KCAL/MOL
REMARK 922        TOTAL FREE ENERGY PREDICTED BY IDOCK:  -12.63 KCAL/MOL
REMARK 923 INTER-LIGAND FREE ENERGY PREDICTED BY IDOCK:  -10.32 KCAL/MOL
REMARK 924 INTRA-LIGAND FREE ENERGY PREDICTED BY IDOCK:   -2.31 KCAL/MOL
REMARK 927      BINDING AFFINITY PREDICTED BY RF-SCORE:    0.00 PKD
ROOT
HETATM    1  C   UNL     1     -11.891  15.729  68.844  1.00  0.00    -0.354 C  
HETATM    2  C   UNL     1     -12.152  14.497  69.679  1.00  0.00    -0.323 A  
HETATM    3  C   UNL     1     -12.956  14.633  70.804  1.00  0.00    -0.405 A  
HETATM    4  C   UNL     1     -13.256  13.549  71.616  1.00  0.00    -0.366 A  
HETATM    5  N   UNL     1     -14.185  13.747  72.642  1.00  0.00    -0.673 NA 
HETATM    6  C   UNL     1     -12.803  12.275  71.223  1.00  0.00    -0.337 A  
HETATM    7  H2  UNL     1     -15.048  14.121  72.247  1.00  0.00     0.000 HD 
HETATM    8  C   UNL     1     -13.171  11.102  71.922  1.00  0.00    -0.488 A  
HETATM    9  H1  UNL     1     -14.406  12.950  73.239  1.00  0.00     0.000 HD 
HETATM   10  C   UNL     1     -12.711   9.842  71.545  1.00  0.00    -0.504 A  
HETATM   11  C   UNL     1     -11.859   9.717  70.464  1.00  0.00    -0.316 A  
HETATM   12  C   UNL     1     -11.482  10.856  69.747  1.00  0.00    -0.390 A  
HETATM   13  C   UNL     1     -11.963  12.147  70.086  1.00  0.00    -0.314 A  
HETATM   14  N   UNL     1     -11.660  13.266  69.340  1.00  0.00    -0.297 NA 
ENDROOT
BRANCH  14  15
HETATM   15  C   UNL     1     -10.842  13.133  68.103  1.00  0.00    -0.251 C  
BRANCH  15  16
HETATM   16  C   UNL     1     -11.681  12.559  66.962  1.00  0.00    -0.437 C  
BRANCH  16  17
HETATM   17  C   UNL     1     -12.187  13.656  66.029  1.00  0.00    -0.492 C  
BRANCH  17  18
HETATM   18  C   UNL     1     -12.035  13.295  64.548  1.00  0.00    -0.449 C  
BRANCH  18  19
HETATM   19  C   UNL     1     -10.573  13.208  64.121  1.00  0.00    -0.384 C  
BRANCH  19  20
HETATM   20  C   UNL     1     -10.227  11.894  63.418  1.00  0.00    -0.478 C  
BRANCH  20  21
HETATM   21  C   UNL     1     -10.286  10.665  64.335  1.00  0.00    -0.400 C  
BRANCH  21  22
HETATM   22  C   UNL     1      -9.024   9.801  64.257  1.00  0.00    -0.276 C  
BRANCH  22  23
HETATM   23  C   UNL     1      -8.863   8.857  65.455  1.00  0.00    -0.234 C  
BRANCH  23  24
HETATM   24  C   UNL     1      -9.881   9.164  66.553  1.00  0.00    -0.264 C  
BRANCH  24  25
HETATM   25  N   UNL     1      -9.556   8.414  67.793  1.00  0.00    -0.152 NA 
HETATM   26  C   UNL     1     -10.090   7.171  68.006  1.00  0.00    -0.169 A  
HETATM   27  C   UNL     1      -9.721   6.442  69.140  1.00  0.00    -0.148 A  
HETATM   28  C   UNL     1     -11.032   6.458  67.063  1.00  0.00    -0.463 C  
HETATM   29  C   UNL     1      -8.843   6.955  70.081  1.00  0.00    -0.145 A  
HETATM   30  N   UNL     1      -8.421   6.100  71.104  1.00  0.00    -0.124 NA 
HETATM   31  C   UNL     1      -8.252   8.203  69.824  1.00  0.00    -0.122 A  
HETATM   32  H1  UNL     1      -7.775   6.477  71.796  1.00  0.00     0.000 HD 
HETATM   33  C   UNL     1      -8.648   8.952  68.682  1.00  0.00    -0.133 A  
HETATM   34  H2  UNL     1      -8.021   5.255  70.694  1.00  0.00     0.000 HD 
HETATM   35  C   UNL     1      -8.067  10.231  68.486  1.00  0.00    -0.109 A  
HETATM   36  C   UNL     1      -7.096  10.743  69.345  1.00  0.00    -0.122 A  
HETATM   37  C   UNL     1      -6.683   9.993  70.429  1.00  0.00    -0.138 A  
HETATM   38  C   UNL     1      -7.257   8.746  70.669  1.00  0.00    -0.066 A  
ENDBRANCH  24  25
ENDBRANCH  23  24
ENDBRANCH  22  23
ENDBRANCH  21  22
ENDBRANCH  20  21
ENDBRANCH  19  20
ENDBRANCH  18  19
ENDBRANCH  17  18
ENDBRANCH  16  17
ENDBRANCH  15  16
ENDBRANCH  14  15
TORSDOF 11
ENDMDL
MODEL       69
REMARK 921   NORMALIZED FREE ENERGY PREDICTED BY IDOCK:   -6.86 KCAL/MOL
REMARK 922        TOTAL FREE ENERGY PREDICTED BY IDOCK:  -12.63 KCAL/MOL
REMARK 923 INTER-LIGAND FREE ENERGY PREDICTED BY IDOCK:  -10.98 KCAL/MOL
REMARK 924 INTRA-LIGAND FREE ENERGY PREDICTED BY IDOCK:   -1.65 KCAL/MOL
REMARK 927      BINDING AFFINITY PREDICTED BY RF-SCORE:    0.00 PKD
ROOT
HETATM    1  C   UNL     1     -13.058  12.148  63.887  1.00  0.00    -0.192 C  
HETATM    2  C   UNL     1     -12.008  13.084  64.441  1.00  0.00    -0.397 A  
HETATM    3  C   UNL     1     -12.085  14.426  64.091  1.00  0.00    -0.405 A  
HETATM    4  C   UNL     1     -11.170  15.353  64.568  1.00  0.00    -0.299 A  
HETATM    5  N   UNL     1     -11.405  16.701  64.281  1.00  0.00    -1.364 NA 
HETATM    6  C   UNL     1     -10.206  14.922  65.499  1.00  0.00    -0.401 A  
HETATM    7  H2  UNL     1     -12.340  16.956  64.601  1.00  0.00     0.000 HD 
HETATM    8  C   UNL     1      -9.319  15.824  66.130  1.00  0.00    -0.381 A  
HETATM    9  H1  UNL     1     -10.732  17.382  64.632  1.00  0.00     0.000 HD 
HETATM   10  C   UNL     1      -8.353  15.398  67.040  1.00  0.00    -0.268 A  
HETATM   11  C   UNL     1      -8.237  14.053  67.337  1.00  0.00    -0.203 A  
HETATM   12  C   UNL     1      -9.103  13.135  66.736  1.00  0.00    -0.214 A  
HETATM   13  C   UNL     1     -10.119  13.545  65.834  1.00  0.00    -0.303 A  
HETATM   14  N   UNL     1     -11.027  12.659  65.296  1.00  0.00    -0.280 NA 
ENDROOT
BRANCH  14  15
HETATM   15  C   UNL     1     -10.993  11.226  65.698  1.00  0.00    -0.134 C  
BRANCH  15  16
HETATM   16  C   UNL     1      -9.809  10.513  65.050  1.00  0.00    -0.369 C  
BRANCH  16  17
HETATM   17  C   UNL     1      -9.447   9.230  65.795  1.00  0.00    -0.329 C  
BRANCH  17  18
HETATM   18  C   UNL     1     -10.185   9.090  67.130  1.00  0.00    -0.334 C  
BRANCH  18  19
HETATM   19  C   UNL     1      -9.241   9.191  68.324  1.00  0.00    -0.135 C  
BRANCH  19  20
HETATM   20  C   UNL     1      -9.948   9.604  69.618  1.00  0.00    -0.239 C  
BRANCH  20  21
HETATM   21  C   UNL     1     -11.456   9.835  69.454  1.00  0.00    -0.015 C  
BRANCH  21  22
HETATM   22  C   UNL     1     -12.215   9.789  70.783  1.00  0.00    -0.342 C  
BRANCH  22  23
HETATM   23  C   UNL     1     -12.090  11.083  71.596  1.00  0.00     0.131 C  
BRANCH  23  24
HETATM   24  C   UNL     1     -13.121  12.123  71.159  1.00  0.00    -0.023 C  
BRANCH  24  25
HETATM   25  N   UNL     1     -12.453  13.390  70.766  1.00  0.00    -0.358 NA 
HETATM   26  C   UNL     1     -12.015  13.567  69.480  1.00  0.00    -0.334 A  
HETATM   27  C   UNL     1     -11.454  14.789  69.100  1.00  0.00    -0.323 A  
HETATM   28  C   UNL     1     -12.140  12.546  68.372  1.00  0.00    -0.123 C  
HETATM   29  C   UNL     1     -11.300  15.831  70.001  1.00  0.00    -0.351 A  
HETATM   30  N   UNL     1     -10.864  17.060  69.497  1.00  0.00    -0.369 NA 
HETATM   31  C   UNL     1     -11.809  15.664  71.299  1.00  0.00    -0.473 A  
HETATM   32  H1  UNL     1     -10.751  17.827  70.160  1.00  0.00     0.000 HD 
HETATM   33  C   UNL     1     -12.357  14.411  71.689  1.00  0.00    -0.341 A  
HETATM   34  H2  UNL     1     -11.485  17.355  68.743  1.00  0.00     0.000 HD 
HETATM   35  C   UNL     1     -12.811  14.265  73.025  1.00  0.00    -0.461 A  
HETATM   36  C   UNL     1     -12.780  15.319  73.936  1.00  0.00    -0.662 A  
HETATM   37  C   UNL     1     -12.287  16.548  73.541  1.00  0.00    -0.480 A  
HETATM   38  C   UNL     1     -11.802  16.715  72.245  1.00  0.00    -0.210 A  
ENDBRANCH  24  25
ENDBRANCH  23  24
ENDBRANCH  22  23
ENDBRANCH  21  22
ENDBRANCH  20  21
ENDBRANCH  19  20
ENDBRANCH  18  19
ENDBRANCH  17  18
ENDBRANCH  16  17
ENDBRANCH  15  16
ENDBRANCH  14  15
TORSDOF 11
ENDMDL
MODEL       70
REMARK 921   NORMALIZED FREE ENERGY PREDICTED BY IDOCK:   -6.85 KCAL/MOL
REMARK 922        TOTAL FREE ENERGY PREDICTED BY IDOCK:  -12.60 KCAL/MOL
REMARK 923 INTER-LIGAND FREE ENERGY PREDICTED BY IDOCK:   -9.63 KCAL/MOL
REMARK 924 INTRA-LIGAND FREE ENERGY PREDICTED BY IDOCK:   -2.97 KCAL/MOL
REMARK 927      BINDING AFFINITY PREDICTED BY RF-SCORE:    0.00 PKD
ROOT
HETATM    1  C   UNL     1      -9.502   9.981  63.283  1.00  0.00    -0.230 C  
HETATM    2  C   UNL     1     -10.150  11.092  64.078  1.00  0.00    -0.350 A  
HETATM    3  C   UNL     1     -10.929  12.013  63.389  1.00  0.00    -0.475 A  
HETATM    4  C   UNL     1     -11.570  13.053  64.045  1.00  0.00    -0.430 A  
HETATM    5  N   UNL     1     -12.447  13.847  63.298  1.00  0.00    -1.112 NA 
HETATM    6  C   UNL     1     -11.493  13.106  65.449  1.00  0.00    -0.331 A  
HETATM    7  H2  UNL     1     -13.143  13.251  62.851  1.00  0.00     0.000 HD 
HETATM    8  C   UNL     1     -12.220  14.056  66.204  1.00  0.00    -0.494 A  
HETATM    9  H1  UNL     1     -12.918  14.612  63.780  1.00  0.00     0.000 HD 
HETATM   10  C   UNL     1     -12.133  14.121  67.593  1.00  0.00    -0.337 A  
HETATM   11  C   UNL     1     -11.307  13.244  68.270  1.00  0.00    -0.335 A  
HETATM   12  C   UNL     1     -10.580  12.288  67.555  1.00  0.00    -0.242 A  
HETATM   13  C   UNL     1     -10.676  12.176  66.144  1.00  0.00    -0.272 A  
HETATM   14  N   UNL     1     -10.026  11.188  65.437  1.00  0.00    -0.245 NA 
ENDROOT
BRANCH  14  15
HETATM   15  C   UNL     1      -9.227  10.161  66.162  1.00  0.00    -0.159 C  
BRANCH  15  16
HETATM   16  C   UNL     1     -10.105   8.974  66.554  1.00  0.00    -0.354 C  
BRANCH  16  17
HETATM   17  C   UNL     1      -9.427   7.644  66.241  1.00  0.00    -0.176 C  
BRANCH  17  18
HETATM   18  C   UNL     1      -9.049   6.857  67.500  1.00  0.00    -0.118 C  
BRANCH  18  19
HETATM   19  C   UNL     1     -10.174   5.938  67.966  1.00  0.00    -0.224 C  
BRANCH  19  20
HETATM   20  C   UNL     1      -9.679   4.745  68.787  1.00  0.00    -0.235 C  
BRANCH  20  21
HETATM   21  C   UNL     1      -8.150   4.614  68.830  1.00  0.00    -0.082 C  
BRANCH  21  22
HETATM   22  C   UNL     1      -7.587   4.655  70.253  1.00  0.00    -0.051 C  
BRANCH  22  23
HETATM   23  C   UNL     1      -8.639   4.355  71.328  1.00  0.00    -0.126 C  
BRANCH  23  24
HETATM   24  C   UNL     1      -8.803   5.526  72.297  1.00  0.00    -0.132 C  
BRANCH  24  25
HETATM   25  N   UNL     1      -9.930   6.398  71.878  1.00  0.00    -0.175 NA 
HETATM   26  C   UNL     1     -11.212   6.088  72.243  1.00  0.00    -0.293 A  
HETATM   27  C   UNL     1     -12.258   6.952  71.908  1.00  0.00    -0.370 A  
HETATM   28  C   UNL     1     -11.615   4.881  73.060  1.00  0.00    -0.284 C  
HETATM   29  C   UNL     1     -12.038   8.114  71.184  1.00  0.00    -0.260 A  
HETATM   30  N   UNL     1     -13.118   8.986  71.021  1.00  0.00    -0.531 NA 
HETATM   31  C   UNL     1     -10.713   8.456  70.869  1.00  0.00    -0.260 A  
HETATM   32  H1  UNL     1     -12.957   9.841  70.489  1.00  0.00     0.000 HD 
HETATM   33  C   UNL     1      -9.655   7.562  71.190  1.00  0.00    -0.158 A  
HETATM   34  H2  UNL     1     -13.500   9.226  71.937  1.00  0.00     0.000 HD 
HETATM   35  C   UNL     1      -8.337   7.920  70.806  1.00  0.00    -0.115 A  
HETATM   36  C   UNL     1      -8.052   9.129  70.177  1.00  0.00    -0.145 A  
HETATM   37  C   UNL     1      -9.077  10.014  69.905  1.00  0.00    -0.188 A  
HETATM   38  C   UNL     1     -10.388   9.679  70.239  1.00  0.00    -0.336 A  
ENDBRANCH  24  25
ENDBRANCH  23  24
ENDBRANCH  22  23
ENDBRANCH  21  22
ENDBRANCH  20  21
ENDBRANCH  19  20
ENDBRANCH  18  19
ENDBRANCH  17  18
ENDBRANCH  16  17
ENDBRANCH  15  16
ENDBRANCH  14  15
TORSDOF 11
ENDMDL
MODEL       71
REMARK 921   NORMALIZED FREE ENERGY PREDICTED BY IDOCK:   -6.84 KCAL/MOL
REMARK 922        TOTAL FREE ENERGY PREDICTED BY IDOCK:  -12.59 KCAL/MOL
REMARK 923 INTER-LIGAND FREE ENERGY PREDICTED BY IDOCK:   -9.71 KCAL/MOL
REMARK 924 INTRA-LIGAND FREE ENERGY PREDICTED BY IDOCK:   -2.88 KCAL/MOL
REMARK 927      BINDING AFFINITY PREDICTED BY RF-SCORE:    0.00 PKD
ROOT
HETATM    1  C   UNL     1     -10.307   5.397  74.225  1.00  0.00    -0.302 C  
HETATM    2  C   UNL     1     -10.604   5.587  72.754  1.00  0.00    -0.225 A  
HETATM    3  C   UNL     1     -11.752   6.291  72.411  1.00  0.00    -0.301 A  
HETATM    4  C   UNL     1     -12.090   6.522  71.086  1.00  0.00    -0.258 A  
HETATM    5  N   UNL     1     -13.182   7.359  70.833  1.00  0.00    -0.603 NA 
HETATM    6  C   UNL     1     -11.191   6.108  70.085  1.00  0.00    -0.452 A  
HETATM    7  H2  UNL     1     -13.038   8.252  71.304  1.00  0.00     0.000 HD 
HETATM    8  C   UNL     1     -11.396   6.417  68.720  1.00  0.00    -0.252 A  
HETATM    9  H1  UNL     1     -13.430   7.529  69.858  1.00  0.00     0.000 HD 
HETATM   10  C   UNL     1     -10.515   5.994  67.726  1.00  0.00    -0.300 A  
HETATM   11  C   UNL     1      -9.408   5.239  68.065  1.00  0.00    -0.135 A  
HETATM   12  C   UNL     1      -9.173   4.923  69.406  1.00  0.00    -0.160 A  
HETATM   13  C   UNL     1     -10.032   5.369  70.442  1.00  0.00    -0.223 A  
HETATM   14  N   UNL     1      -9.768   5.130  71.774  1.00  0.00    -0.156 NA 
ENDROOT
BRANCH  14  15
HETATM   15  C   UNL     1      -8.517   4.423  72.166  1.00  0.00    -0.112 C  
BRANCH  15  16
HETATM   16  C   UNL     1      -7.461   5.419  72.639  1.00  0.00    -0.097 C  
BRANCH  16  17
HETATM   17  C   UNL     1      -6.672   6.001  71.469  1.00  0.00    -0.055 C  
BRANCH  17  18
HETATM   18  C   UNL     1      -7.141   7.404  71.075  1.00  0.00    -0.060 C  
BRANCH  18  19
HETATM   19  C   UNL     1      -7.731   8.170  72.255  1.00  0.00    -0.155 C  
BRANCH  19  20
HETATM   20  C   UNL     1      -9.140   8.702  71.986  1.00  0.00    -0.311 C  
BRANCH  20  21
HETATM   21  C   UNL     1      -9.340   9.234  70.560  1.00  0.00    -0.316 C  
BRANCH  21  22
HETATM   22  C   UNL     1     -10.734   9.827  70.334  1.00  0.00    -0.368 C  
BRANCH  22  23
HETATM   23  C   UNL     1     -11.031  10.127  68.860  1.00  0.00    -0.261 C  
BRANCH  23  24
HETATM   24  C   UNL     1     -10.016  11.106  68.270  1.00  0.00    -0.187 C  
BRANCH  24  25
HETATM   25  N   UNL     1     -10.061  11.075  66.785  1.00  0.00    -0.213 NA 
HETATM   26  C   UNL     1      -9.422  10.077  66.099  1.00  0.00    -0.190 A  
HETATM   27  C   UNL     1      -9.529  10.013  64.707  1.00  0.00    -0.366 A  
HETATM   28  C   UNL     1      -8.629   8.957  66.733  1.00  0.00    -0.122 C  
HETATM   29  C   UNL     1     -10.248  10.956  63.989  1.00  0.00    -0.357 A  
HETATM   30  N   UNL     1     -10.420  10.730  62.620  1.00  0.00    -0.724 NA 
HETATM   31  C   UNL     1     -10.951  11.938  64.705  1.00  0.00    -0.366 A  
HETATM   32  H1  UNL     1     -10.949  11.423  62.091  1.00  0.00     0.000 HD 
HETATM   33  C   UNL     1     -10.819  12.015  66.119  1.00  0.00    -0.286 A  
HETATM   34  H2  UNL     1     -10.837   9.810  62.480  1.00  0.00     0.000 HD 
HETATM   35  C   UNL     1     -11.503  13.055  66.800  1.00  0.00    -0.392 A  
HETATM   36  C   UNL     1     -12.327  13.959  66.134  1.00  0.00    -0.504 A  
HETATM   37  C   UNL     1     -12.487  13.855  64.765  1.00  0.00    -0.386 A  
HETATM   38  C   UNL     1     -11.804  12.865  64.061  1.00  0.00    -0.512 A  
ENDBRANCH  24  25
ENDBRANCH  23  24
ENDBRANCH  22  23
ENDBRANCH  21  22
ENDBRANCH  20  21
ENDBRANCH  19  20
ENDBRANCH  18  19
ENDBRANCH  17  18
ENDBRANCH  16  17
ENDBRANCH  15  16
ENDBRANCH  14  15
TORSDOF 11
ENDMDL
MODEL       72
REMARK 921   NORMALIZED FREE ENERGY PREDICTED BY IDOCK:   -6.82 KCAL/MOL
REMARK 922        TOTAL FREE ENERGY PREDICTED BY IDOCK:  -12.56 KCAL/MOL
REMARK 923 INTER-LIGAND FREE ENERGY PREDICTED BY IDOCK:   -9.95 KCAL/MOL
REMARK 924 INTRA-LIGAND FREE ENERGY PREDICTED BY IDOCK:   -2.61 KCAL/MOL
REMARK 927      BINDING AFFINITY PREDICTED BY RF-SCORE:    0.00 PKD
ROOT
HETATM    1  C   UNL     1      -9.255   6.554  73.368  1.00  0.00    -0.145 C  
HETATM    2  C   UNL     1     -10.090   7.558  72.607  1.00  0.00    -0.222 A  
HETATM    3  C   UNL     1     -11.403   7.752  73.017  1.00  0.00    -0.331 A  
HETATM    4  C   UNL     1     -12.233   8.665  72.383  1.00  0.00    -0.349 A  
HETATM    5  N   UNL     1     -13.490   8.899  72.949  1.00  0.00    -0.889 NA 
HETATM    6  C   UNL     1     -11.686   9.469  71.365  1.00  0.00    -0.465 A  
HETATM    7  H2  UNL     1     -13.375   9.172  73.925  1.00  0.00     0.000 HD 
HETATM    8  C   UNL     1     -12.425  10.510  70.755  1.00  0.00    -0.472 A  
HETATM    9  H1  UNL     1     -14.100   9.571  72.482  1.00  0.00     0.000 HD 
HETATM   10  C   UNL     1     -11.891  11.296  69.735  1.00  0.00    -0.437 A  
HETATM   11  C   UNL     1     -10.606  11.058  69.286  1.00  0.00    -0.236 A  
HETATM   12  C   UNL     1      -9.847  10.041  69.872  1.00  0.00    -0.266 A  
HETATM   13  C   UNL     1     -10.351   9.249  70.936  1.00  0.00    -0.296 A  
HETATM   14  N   UNL     1      -9.585   8.297  71.573  1.00  0.00    -0.173 NA 
ENDROOT
BRANCH  14  15
HETATM   15  C   UNL     1      -8.160   8.109  71.183  1.00  0.00    -0.103 C  
BRANCH  15  16
HETATM   16  C   UNL     1      -8.053   7.219  69.946  1.00  0.00    -0.127 C  
BRANCH  16  17
HETATM   17  C   UNL     1      -9.327   6.410  69.724  1.00  0.00    -0.151 C  
BRANCH  17  18
HETATM   18  C   UNL     1      -9.481   5.926  68.278  1.00  0.00    -0.123 C  
BRANCH  18  19
HETATM   19  C   UNL     1     -10.773   6.424  67.637  1.00  0.00    -0.387 C  
BRANCH  19  20
HETATM   20  C   UNL     1     -10.631   7.802  66.985  1.00  0.00    -0.396 C  
BRANCH  20  21
HETATM   21  C   UNL     1      -9.227   8.085  66.434  1.00  0.00    -0.245 C  
BRANCH  21  22
HETATM   22  C   UNL     1      -8.924   9.581  66.311  1.00  0.00    -0.188 C  
BRANCH  22  23
HETATM   23  C   UNL     1     -10.142  10.411  65.889  1.00  0.00    -0.326 C  
BRANCH  23  24
HETATM   24  C   UNL     1      -9.726  11.751  65.280  1.00  0.00    -0.211 C  
BRANCH  24  25
HETATM   25  N   UNL     1     -10.255  12.880  66.087  1.00  0.00    -0.272 NA 
HETATM   26  C   UNL     1     -11.553  13.288  65.932  1.00  0.00    -0.347 A  
HETATM   27  C   UNL     1     -12.064  14.302  66.746  1.00  0.00    -0.446 A  
HETATM   28  C   UNL     1     -12.545  12.681  64.966  1.00  0.00    -0.504 C  
HETATM   29  C   UNL     1     -11.280  14.935  67.699  1.00  0.00    -0.323 A  
HETATM   30  N   UNL     1     -11.914  15.833  68.562  1.00  0.00    -0.488 NA 
HETATM   31  C   UNL     1      -9.971  14.467  67.894  1.00  0.00    -0.228 A  
HETATM   32  H1  UNL     1     -11.338  16.298  69.264  1.00  0.00     0.000 HD 
HETATM   33  C   UNL     1      -9.447  13.452  67.047  1.00  0.00    -0.247 A  
HETATM   34  H2  UNL     1     -12.694  15.364  69.024  1.00  0.00     0.000 HD 
HETATM   35  C   UNL     1      -8.102  13.046  67.242  1.00  0.00    -0.164 A  
HETATM   36  C   UNL     1      -7.309  13.572  68.259  1.00  0.00    -0.116 A  
HETATM   37  C   UNL     1      -7.836  14.528  69.108  1.00  0.00    -0.071 A  
HETATM   38  C   UNL     1      -9.143  14.973  68.923  1.00  0.00    -0.202 A  
ENDBRANCH  24  25
ENDBRANCH  23  24
ENDBRANCH  22  23
ENDBRANCH  21  22
ENDBRANCH  20  21
ENDBRANCH  19  20
ENDBRANCH  18  19
ENDBRANCH  17  18
ENDBRANCH  16  17
ENDBRANCH  15  16
ENDBRANCH  14  15
TORSDOF 11
ENDMDL
MODEL       73
REMARK 921   NORMALIZED FREE ENERGY PREDICTED BY IDOCK:   -6.80 KCAL/MOL
REMARK 922        TOTAL FREE ENERGY PREDICTED BY IDOCK:  -12.53 KCAL/MOL
REMARK 923 INTER-LIGAND FREE ENERGY PREDICTED BY IDOCK:  -10.43 KCAL/MOL
REMARK 924 INTRA-LIGAND FREE ENERGY PREDICTED BY IDOCK:   -2.10 KCAL/MOL
REMARK 927      BINDING AFFINITY PREDICTED BY RF-SCORE:    0.00 PKD
ROOT
HETATM    1  C   UNL     1     -10.786   6.119  67.566  1.00  0.00    -0.422 C  
HETATM    2  C   UNL     1     -10.608   6.586  68.993  1.00  0.00    -0.245 A  
HETATM    3  C   UNL     1     -11.707   6.513  69.840  1.00  0.00    -0.349 A  
HETATM    4  C   UNL     1     -11.624   6.908  71.167  1.00  0.00    -0.319 A  
HETATM    5  N   UNL     1     -12.734   6.668  71.984  1.00  0.00    -0.531 NA 
HETATM    6  C   UNL     1     -10.370   7.299  71.671  1.00  0.00    -0.214 A  
HETATM    7  H2  UNL     1     -12.976   5.678  71.942  1.00  0.00     0.000 HD 
HETATM    8  C   UNL     1     -10.171   7.594  73.041  1.00  0.00    -0.379 A  
HETATM    9  H1  UNL     1     -12.673   6.958  72.960  1.00  0.00     0.000 HD 
HETATM   10  C   UNL     1      -8.934   7.998  73.539  1.00  0.00    -0.327 A  
HETATM   11  C   UNL     1      -7.859   8.130  72.680  1.00  0.00    -0.190 A  
HETATM   12  C   UNL     1      -8.020   7.841  71.322  1.00  0.00    -0.094 A  
HETATM   13  C   UNL     1      -9.258   7.394  70.794  1.00  0.00    -0.159 A  
HETATM   14  N   UNL     1      -9.407   7.030  69.472  1.00  0.00    -0.148 NA 
ENDROOT
BRANCH  14  15
HETATM   15  C   UNL     1      -8.230   7.052  68.560  1.00  0.00    -0.124 C  
BRANCH  15  16
HETATM   16  C   UNL     1      -8.035   8.446  67.966  1.00  0.00    -0.119 C  
BRANCH  16  17
HETATM   17  C   UNL     1      -7.556   8.379  66.519  1.00  0.00    -0.088 C  
BRANCH  17  18
HETATM   18  C   UNL     1      -8.548   9.004  65.533  1.00  0.00    -0.190 C  
BRANCH  18  19
HETATM   19  C   UNL     1      -9.100  10.335  66.034  1.00  0.00    -0.189 C  
BRANCH  19  20
HETATM   20  C   UNL     1      -9.538  11.270  64.904  1.00  0.00    -0.266 C  
BRANCH  20  21
HETATM   21  C   UNL     1     -10.067  12.625  65.391  1.00  0.00    -0.277 C  
BRANCH  21  22
HETATM   22  C   UNL     1     -11.554  12.589  65.759  1.00  0.00    -0.439 C  
BRANCH  22  23
HETATM   23  C   UNL     1     -11.889  13.421  67.002  1.00  0.00    -0.443 C  
BRANCH  23  24
HETATM   24  C   UNL     1     -10.980  13.066  68.179  1.00  0.00    -0.244 C  
BRANCH  24  25
HETATM   25  N   UNL     1     -11.756  12.413  69.263  1.00  0.00    -0.315 NA 
HETATM   26  C   UNL     1     -11.807  11.047  69.347  1.00  0.00    -0.335 A  
HETATM   27  C   UNL     1     -12.480  10.442  70.411  1.00  0.00    -0.348 A  
HETATM   28  C   UNL     1     -11.127  10.093  68.392  1.00  0.00    -0.273 C  
HETATM   29  C   UNL     1     -13.128  11.189  71.382  1.00  0.00    -0.321 A  
HETATM   30  N   UNL     1     -13.647  10.503  72.484  1.00  0.00    -0.405 NA 
HETATM   31  C   UNL     1     -13.017  12.588  71.324  1.00  0.00    -0.301 A  
HETATM   32  H1  UNL     1     -14.124  11.052  73.199  1.00  0.00     0.000 HD 
HETATM   33  C   UNL     1     -12.354  13.201  70.226  1.00  0.00    -0.249 A  
HETATM   34  H2  UNL     1     -12.906   9.954  72.920  1.00  0.00     0.000 HD 
HETATM   35  C   UNL     1     -12.311  14.618  70.176  1.00  0.00    -0.390 A  
HETATM   36  C   UNL     1     -12.850  15.411  71.186  1.00  0.00    -0.520 A  
HETATM   37  C   UNL     1     -13.457  14.810  72.273  1.00  0.00    -0.510 A  
HETATM   38  C   UNL     1     -13.545  13.421  72.337  1.00  0.00    -0.708 A  
ENDBRANCH  24  25
ENDBRANCH  23  24
ENDBRANCH  22  23
ENDBRANCH  21  22
ENDBRANCH  20  21
ENDBRANCH  19  20
ENDBRANCH  18  19
ENDBRANCH  17  18
ENDBRANCH  16  17
ENDBRANCH  15  16
ENDBRANCH  14  15
TORSDOF 11
ENDMDL
MODEL       74
REMARK 921   NORMALIZED FREE ENERGY PREDICTED BY IDOCK:   -6.80 KCAL/MOL
REMARK 922        TOTAL FREE ENERGY PREDICTED BY IDOCK:  -12.52 KCAL/MOL
REMARK 923 INTER-LIGAND FREE ENERGY PREDICTED BY IDOCK:  -10.46 KCAL/MOL
REMARK 924 INTRA-LIGAND FREE ENERGY PREDICTED BY IDOCK:   -2.06 KCAL/MOL
REMARK 927      BINDING AFFINITY PREDICTED BY RF-SCORE:    0.00 PKD
ROOT
HETATM    1  C   UNL     1     -10.881  16.643  67.849  1.00  0.00    -0.321 C  
HETATM    2  C   UNL     1     -11.321  15.618  68.869  1.00  0.00    -0.339 A  
HETATM    3  C   UNL     1     -11.699  16.074  70.125  1.00  0.00    -0.290 A  
HETATM    4  C   UNL     1     -12.129  15.202  71.114  1.00  0.00    -0.333 A  
HETATM    5  N   UNL     1     -12.624  15.759  72.298  1.00  0.00    -0.416 NA 
HETATM    6  C   UNL     1     -12.269  13.840  70.788  1.00  0.00    -0.437 A  
HETATM    7  H2  UNL     1     -13.376  16.412  72.075  1.00  0.00     0.000 HD 
HETATM    8  C   UNL     1     -12.821  12.906  71.695  1.00  0.00    -0.368 A  
HETATM    9  H1  UNL     1     -12.941  15.117  73.024  1.00  0.00     0.000 HD 
HETATM   10  C   UNL     1     -12.945  11.553  71.380  1.00  0.00    -0.450 A  
HETATM   11  C   UNL     1     -12.509  11.092  70.153  1.00  0.00    -0.344 A  
HETATM   12  C   UNL     1     -11.964  11.990  69.231  1.00  0.00    -0.329 A  
HETATM   13  C   UNL     1     -11.859  13.377  69.510  1.00  0.00    -0.332 A  
HETATM   14  N   UNL     1     -11.397  14.283  68.580  1.00  0.00    -0.266 NA 
ENDROOT
BRANCH  14  15
HETATM   15  C   UNL     1     -11.035  13.821  67.211  1.00  0.00    -0.292 C  
BRANCH  15  16
HETATM   16  C   UNL     1     -12.280  13.719  66.331  1.00  0.00    -0.480 C  
BRANCH  16  17
HETATM   17  C   UNL     1     -11.924  13.743  64.847  1.00  0.00    -0.412 C  
BRANCH  17  18
HETATM   18  C   UNL     1     -11.781  12.342  64.246  1.00  0.00    -0.452 C  
BRANCH  18  19
HETATM   19  C   UNL     1     -10.328  11.988  63.944  1.00  0.00    -0.433 C  
BRANCH  19  20
HETATM   20  C   UNL     1      -9.947  10.573  64.385  1.00  0.00    -0.410 C  
BRANCH  20  21
HETATM   21  C   UNL     1     -10.337  10.249  65.833  1.00  0.00    -0.241 C  
BRANCH  21  22
HETATM   22  C   UNL     1      -9.179  10.429  66.819  1.00  0.00    -0.176 C  
BRANCH  22  23
HETATM   23  C   UNL     1      -9.190   9.403  67.958  1.00  0.00    -0.137 C  
BRANCH  23  24
HETATM   24  C   UNL     1     -10.534   8.680  68.050  1.00  0.00    -0.197 C  
BRANCH  24  25
HETATM   25  N   UNL     1     -10.374   7.359  68.711  1.00  0.00    -0.196 NA 
HETATM   26  C   UNL     1      -9.953   6.275  67.989  1.00  0.00    -0.137 A  
HETATM   27  C   UNL     1      -9.735   5.054  68.632  1.00  0.00    -0.221 A  
HETATM   28  C   UNL     1      -9.629   6.288  66.512  1.00  0.00    -0.183 C  
HETATM   29  C   UNL     1      -9.961   4.897  69.991  1.00  0.00    -0.253 A  
HETATM   30  N   UNL     1      -9.578   3.685  70.573  1.00  0.00    -0.186 NA 
HETATM   31  C   UNL     1     -10.332   6.029  70.735  1.00  0.00    -0.280 A  
HETATM   32  H1  UNL     1      -9.744   3.569  71.572  1.00  0.00     0.000 HD 
HETATM   33  C   UNL     1     -10.577   7.263  70.072  1.00  0.00    -0.233 A  
HETATM   34  H2  UNL     1      -8.593   3.511  70.373  1.00  0.00     0.000 HD 
HETATM   35  C   UNL     1     -11.003   8.369  70.852  1.00  0.00    -0.279 A  
HETATM   36  C   UNL     1     -11.137   8.290  72.236  1.00  0.00    -0.429 A  
HETATM   37  C   UNL     1     -10.856   7.101  72.882  1.00  0.00    -0.362 A  
HETATM   38  C   UNL     1     -10.467   5.986  72.141  1.00  0.00    -0.246 A  
ENDBRANCH  24  25
ENDBRANCH  23  24
ENDBRANCH  22  23
ENDBRANCH  21  22
ENDBRANCH  20  21
ENDBRANCH  19  20
ENDBRANCH  18  19
ENDBRANCH  17  18
ENDBRANCH  16  17
ENDBRANCH  15  16
ENDBRANCH  14  15
TORSDOF 11
ENDMDL
MODEL       75
REMARK 921   NORMALIZED FREE ENERGY PREDICTED BY IDOCK:   -6.80 KCAL/MOL
REMARK 922        TOTAL FREE ENERGY PREDICTED BY IDOCK:  -12.52 KCAL/MOL
REMARK 923 INTER-LIGAND FREE ENERGY PREDICTED BY IDOCK:  -11.68 KCAL/MOL
REMARK 924 INTRA-LIGAND FREE ENERGY PREDICTED BY IDOCK:   -0.84 KCAL/MOL
REMARK 927      BINDING AFFINITY PREDICTED BY RF-SCORE:    0.00 PKD
ROOT
HETATM    1  C   UNL     1     -10.791   4.646  73.571  1.00  0.00    -0.362 C  
HETATM    2  C   UNL     1     -10.425   4.643  72.104  1.00  0.00    -0.148 A  
HETATM    3  C   UNL     1      -9.559   3.654  71.654  1.00  0.00    -0.226 A  
HETATM    4  C   UNL     1      -9.185   3.571  70.322  1.00  0.00    -0.155 A  
HETATM    5  N   UNL     1      -8.426   2.463  69.930  1.00  0.00    -0.045 NA 
HETATM    6  C   UNL     1      -9.777   4.460  69.405  1.00  0.00    -0.267 A  
HETATM    7  H2  UNL     1      -8.916   1.609  70.195  1.00  0.00     0.000 HD 
HETATM    8  C   UNL     1      -9.549   4.362  68.012  1.00  0.00    -0.204 A  
HETATM    9  H1  UNL     1      -8.151   2.403  68.950  1.00  0.00     0.000 HD 
HETATM   10  C   UNL     1     -10.121   5.251  67.104  1.00  0.00    -0.239 A  
HETATM   11  C   UNL     1     -10.931   6.273  67.562  1.00  0.00    -0.444 A  
HETATM   12  C   UNL     1     -11.183   6.394  68.932  1.00  0.00    -0.385 A  
HETATM   13  C   UNL     1     -10.642   5.482  69.876  1.00  0.00    -0.317 A  
HETATM   14  N   UNL     1     -10.946   5.545  71.218  1.00  0.00    -0.182 NA 
ENDROOT
BRANCH  14  15
HETATM   15  C   UNL     1     -11.912   6.565  71.713  1.00  0.00    -0.344 C  
BRANCH  15  16
HETATM   16  C   UNL     1     -11.232   7.926  71.853  1.00  0.00    -0.320 C  
BRANCH  16  17
HETATM   17  C   UNL     1     -12.252   9.049  72.023  1.00  0.00    -0.446 C  
BRANCH  17  18
HETATM   18  C   UNL     1     -12.006  10.226  71.074  1.00  0.00    -0.483 C  
BRANCH  18  19
HETATM   19  C   UNL     1     -12.943  11.397  71.349  1.00  0.00    -0.468 C  
BRANCH  19  20
HETATM   20  C   UNL     1     -12.360  12.748  70.930  1.00  0.00    -0.356 C  
BRANCH  20  21
HETATM   21  C   UNL     1     -12.473  13.834  72.008  1.00  0.00    -0.150 C  
BRANCH  21  22
HETATM   22  C   UNL     1     -11.682  15.100  71.666  1.00  0.00    -0.458 C  
BRANCH  22  23
HETATM   23  C   UNL     1     -11.778  15.492  70.187  1.00  0.00    -0.367 C  
BRANCH  23  24
HETATM   24  C   UNL     1     -10.432  15.345  69.478  1.00  0.00    -0.261 C  
BRANCH  24  25
HETATM   25  N   UNL     1     -10.579  15.587  68.020  1.00  0.00    -0.263 NA 
HETATM   26  C   UNL     1     -10.876  14.550  67.176  1.00  0.00    -0.296 A  
HETATM   27  C   UNL     1     -11.084  14.798  65.817  1.00  0.00    -0.338 A  
HETATM   28  C   UNL     1     -11.067  13.112  67.602  1.00  0.00    -0.295 C  
HETATM   29  C   UNL     1     -10.972  16.073  65.285  1.00  0.00    -0.299 A  
HETATM   30  N   UNL     1     -11.340  16.248  63.947  1.00  0.00    -1.442 NA 
HETATM   31  C   UNL     1     -10.730  17.139  66.167  1.00  0.00    -0.094 A  
HETATM   32  H1  UNL     1     -11.257  17.186  63.555  1.00  0.00     0.000 HD 
HETATM   33  C   UNL     1     -10.493  16.879  67.544  1.00  0.00    -0.328 A  
HETATM   34  H2  UNL     1     -12.292  15.909  63.812  1.00  0.00     0.000 HD 
HETATM   35  C   UNL     1     -10.199  17.978  68.392  1.00  0.00    -0.399 A  
HETATM   36  C   UNL     1     -10.185  19.290  67.925  1.00  0.00    -0.511 A  
HETATM   37  C   UNL     1     -10.457  19.543  66.594  1.00  0.00    -0.593 A  
HETATM   38  C   UNL     1     -10.718  18.483  65.727  1.00  0.00    -0.193 A  
ENDBRANCH  24  25
ENDBRANCH  23  24
ENDBRANCH  22  23
ENDBRANCH  21  22
ENDBRANCH  20  21
ENDBRANCH  19  20
ENDBRANCH  18  19
ENDBRANCH  17  18
ENDBRANCH  16  17
ENDBRANCH  15  16
ENDBRANCH  14  15
TORSDOF 11
ENDMDL
MODEL       76
REMARK 921   NORMALIZED FREE ENERGY PREDICTED BY IDOCK:   -6.79 KCAL/MOL
REMARK 922        TOTAL FREE ENERGY PREDICTED BY IDOCK:  -12.51 KCAL/MOL
REMARK 923 INTER-LIGAND FREE ENERGY PREDICTED BY IDOCK:   -9.05 KCAL/MOL
REMARK 924 INTRA-LIGAND FREE ENERGY PREDICTED BY IDOCK:   -3.46 KCAL/MOL
REMARK 927      BINDING AFFINITY PREDICTED BY RF-SCORE:    0.00 PKD
ROOT
HETATM    1  C   UNL     1     -11.215  15.215  65.103  1.00  0.00    -0.392 C  
HETATM    2  C   UNL     1     -11.351  14.609  66.481  1.00  0.00    -0.353 A  
HETATM    3  C   UNL     1     -11.357  15.470  67.571  1.00  0.00    -0.232 A  
HETATM    4  C   UNL     1     -11.492  14.996  68.868  1.00  0.00    -0.314 A  
HETATM    5  N   UNL     1     -11.630  15.940  69.891  1.00  0.00    -0.336 NA 
HETATM    6  C   UNL     1     -11.721  13.620  69.056  1.00  0.00    -0.375 A  
HETATM    7  H2  UNL     1     -12.412  16.558  69.675  1.00  0.00     0.000 HD 
HETATM    8  C   UNL     1     -11.996  13.074  70.331  1.00  0.00    -0.337 A  
HETATM    9  H1  UNL     1     -11.730  15.591  70.844  1.00  0.00     0.000 HD 
HETATM   10  C   UNL     1     -12.207  11.709  70.522  1.00  0.00    -0.451 A  
HETATM   11  C   UNL     1     -12.137  10.847  69.444  1.00  0.00    -0.362 A  
HETATM   12  C   UNL     1     -11.874  11.355  68.169  1.00  0.00    -0.288 A  
HETATM   13  C   UNL     1     -11.690  12.743  67.939  1.00  0.00    -0.357 A  
HETATM   14  N   UNL     1     -11.508  13.264  66.676  1.00  0.00    -0.332 NA 
ENDROOT
BRANCH  14  15
HETATM   15  C   UNL     1     -11.551  12.364  65.490  1.00  0.00    -0.385 C  
BRANCH  15  16
HETATM   16  C   UNL     1     -10.139  11.950  65.078  1.00  0.00    -0.297 C  
BRANCH  16  17
HETATM   17  C   UNL     1     -10.083  10.483  64.660  1.00  0.00    -0.408 C  
BRANCH  17  18
HETATM   18  C   UNL     1      -9.350   9.602  65.676  1.00  0.00    -0.296 C  
BRANCH  18  19
HETATM   19  C   UNL     1      -7.849   9.876  65.703  1.00  0.00    -0.127 C  
BRANCH  19  20
HETATM   20  C   UNL     1      -7.352  10.381  67.059  1.00  0.00    -0.097 C  
BRANCH  20  21
HETATM   21  C   UNL     1      -8.448  10.466  68.129  1.00  0.00    -0.121 C  
BRANCH  21  22
HETATM   22  C   UNL     1      -7.938  10.137  69.535  1.00  0.00    -0.170 C  
BRANCH  22  23
HETATM   23  C   UNL     1      -8.912   9.272  70.344  1.00  0.00    -0.278 C  
BRANCH  23  24
HETATM   24  C   UNL     1      -8.503   7.798  70.327  1.00  0.00    -0.133 C  
BRANCH  24  25
HETATM   25  N   UNL     1      -9.175   7.081  69.214  1.00  0.00    -0.140 NA 
HETATM   26  C   UNL     1     -10.520   6.830  69.269  1.00  0.00    -0.215 A  
HETATM   27  C   UNL     1     -11.158   6.219  68.186  1.00  0.00    -0.364 A  
HETATM   28  C   UNL     1     -11.429   7.220  70.412  1.00  0.00    -0.279 C  
HETATM   29  C   UNL     1     -10.459   5.831  67.055  1.00  0.00    -0.280 A  
HETATM   30  N   UNL     1     -11.201   5.362  65.967  1.00  0.00    -0.774 NA 
HETATM   31  C   UNL     1      -9.093   6.149  66.979  1.00  0.00    -0.119 A  
HETATM   32  H1  UNL     1     -10.687   5.076  65.134  1.00  0.00     0.000 HD 
HETATM   33  C   UNL     1      -8.442   6.747  68.093  1.00  0.00    -0.121 A  
HETATM   34  H2  UNL     1     -11.899   6.061  65.709  1.00  0.00     0.000 HD 
HETATM   35  C   UNL     1      -7.050   7.003  67.998  1.00  0.00    -0.086 A  
HETATM   36  C   UNL     1      -6.326   6.733  66.839  1.00  0.00    -0.042 A  
HETATM   37  C   UNL     1      -6.971   6.191  65.743  1.00  0.00    -0.057 A  
HETATM   38  C   UNL     1      -8.331   5.897  65.815  1.00  0.00    -0.140 A  
ENDBRANCH  24  25
ENDBRANCH  23  24
ENDBRANCH  22  23
ENDBRANCH  21  22
ENDBRANCH  20  21
ENDBRANCH  19  20
ENDBRANCH  18  19
ENDBRANCH  17  18
ENDBRANCH  16  17
ENDBRANCH  15  16
ENDBRANCH  14  15
TORSDOF 11
ENDMDL
MODEL       77
REMARK 921   NORMALIZED FREE ENERGY PREDICTED BY IDOCK:   -6.77 KCAL/MOL
REMARK 922        TOTAL FREE ENERGY PREDICTED BY IDOCK:  -12.48 KCAL/MOL
REMARK 923 INTER-LIGAND FREE ENERGY PREDICTED BY IDOCK:  -10.08 KCAL/MOL
REMARK 924 INTRA-LIGAND FREE ENERGY PREDICTED BY IDOCK:   -2.40 KCAL/MOL
REMARK 927      BINDING AFFINITY PREDICTED BY RF-SCORE:    0.00 PKD
ROOT
HETATM    1  C   UNL     1     -10.985  12.724  65.740  1.00  0.00    -0.306 C  
HETATM    2  C   UNL     1     -11.410  12.866  67.184  1.00  0.00    -0.306 A  
HETATM    3  C   UNL     1     -11.704  14.141  67.651  1.00  0.00    -0.421 A  
HETATM    4  C   UNL     1     -12.115  14.356  68.958  1.00  0.00    -0.263 A  
HETATM    5  N   UNL     1     -12.526  15.648  69.303  1.00  0.00    -0.553 NA 
HETATM    6  C   UNL     1     -12.322  13.237  69.786  1.00  0.00    -0.189 A  
HETATM    7  H2  UNL     1     -13.263  15.948  68.664  1.00  0.00     0.000 HD 
HETATM    8  C   UNL     1     -12.861  13.359  71.088  1.00  0.00    -0.372 A  
HETATM    9  H1  UNL     1     -12.828  15.806  70.264  1.00  0.00     0.000 HD 
HETATM   10  C   UNL     1     -13.052  12.253  71.916  1.00  0.00    -0.469 A  
HETATM   11  C   UNL     1     -12.698  10.994  71.471  1.00  0.00    -0.521 A  
HETATM   12  C   UNL     1     -12.169  10.838  70.187  1.00  0.00    -0.425 A  
HETATM   13  C   UNL     1     -11.997  11.940  69.310  1.00  0.00    -0.281 A  
HETATM   14  N   UNL     1     -11.550  11.788  68.015  1.00  0.00    -0.396 NA 
ENDROOT
BRANCH  14  15
HETATM   15  C   UNL     1     -11.279  10.425  67.479  1.00  0.00    -0.179 C  
BRANCH  15  16
HETATM   16  C   UNL     1      -9.803  10.066  67.643  1.00  0.00    -0.194 C  
BRANCH  16  17
HETATM   17  C   UNL     1      -9.207   9.531  66.344  1.00  0.00    -0.210 C  
BRANCH  17  18
HETATM   18  C   UNL     1      -7.722   9.872  66.186  1.00  0.00    -0.107 C  
BRANCH  18  19
HETATM   19  C   UNL     1      -7.157  10.579  67.414  1.00  0.00    -0.090 C  
BRANCH  19  20
HETATM   20  C   UNL     1      -6.162  11.689  67.067  1.00  0.00    -0.144 C  
BRANCH  20  21
HETATM   21  C   UNL     1      -6.406  13.000  67.825  1.00  0.00    -0.149 C  
BRANCH  21  22
HETATM   22  C   UNL     1      -7.892  13.352  67.947  1.00  0.00    -0.152 C  
BRANCH  22  23
HETATM   23  C   UNL     1      -8.195  14.818  67.617  1.00  0.00    -0.187 C  
BRANCH  23  24
HETATM   24  C   UNL     1      -8.506  15.626  68.877  1.00  0.00    -0.213 C  
BRANCH  24  25
HETATM   25  N   UNL     1      -7.916  16.986  68.785  1.00  0.00    -0.254 NA 
HETATM   26  C   UNL     1      -6.626  17.206  69.191  1.00  0.00    -0.231 A  
HETATM   27  C   UNL     1      -6.055  18.471  69.034  1.00  0.00    -0.240 A  
HETATM   28  C   UNL     1      -5.704  16.151  69.759  1.00  0.00    -0.155 C  
HETATM   29  C   UNL     1      -6.770  19.532  68.500  1.00  0.00    -0.288 A  
HETATM   30  N   UNL     1      -6.074  20.717  68.247  1.00  0.00    -0.323 NA 
HETATM   31  C   UNL     1      -8.070  19.282  68.029  1.00  0.00    -0.341 A  
HETATM   32  H1  UNL     1      -6.600  21.498  67.854  1.00  0.00     0.000 HD 
HETATM   33  C   UNL     1      -8.656  18.000  68.213  1.00  0.00    -0.287 A  
HETATM   34  H2  UNL     1      -5.272  20.517  67.650  1.00  0.00     0.000 HD 
HETATM   35  C   UNL     1      -9.990  17.804  67.772  1.00  0.00    -0.322 A  
HETATM   36  C   UNL     1     -10.711  18.807  67.128  1.00  0.00    -0.469 A  
HETATM   37  C   UNL     1     -10.123  20.039  66.913  1.00  0.00    -0.601 A  
HETATM   38  C   UNL     1      -8.825  20.275  67.363  1.00  0.00    -0.442 A  
ENDBRANCH  24  25
ENDBRANCH  23  24
ENDBRANCH  22  23
ENDBRANCH  21  22
ENDBRANCH  20  21
ENDBRANCH  19  20
ENDBRANCH  18  19
ENDBRANCH  17  18
ENDBRANCH  16  17
ENDBRANCH  15  16
ENDBRANCH  14  15
TORSDOF 11
ENDMDL
MODEL       78
REMARK 921   NORMALIZED FREE ENERGY PREDICTED BY IDOCK:   -6.75 KCAL/MOL
REMARK 922        TOTAL FREE ENERGY PREDICTED BY IDOCK:  -12.45 KCAL/MOL
REMARK 923 INTER-LIGAND FREE ENERGY PREDICTED BY IDOCK:  -10.76 KCAL/MOL
REMARK 924 INTRA-LIGAND FREE ENERGY PREDICTED BY IDOCK:   -1.69 KCAL/MOL
REMARK 927      BINDING AFFINITY PREDICTED BY RF-SCORE:    0.00 PKD
ROOT
HETATM    1  C   UNL     1     -10.771   7.419  73.216  1.00  0.00    -0.441 C  
HETATM    2  C   UNL     1     -10.538   7.235  71.734  1.00  0.00    -0.205 A  
HETATM    3  C   UNL     1     -10.314   5.946  71.267  1.00  0.00    -0.276 A  
HETATM    4  C   UNL     1     -10.106   5.690  69.920  1.00  0.00    -0.222 A  
HETATM    5  N   UNL     1     -10.031   4.351  69.520  1.00  0.00    -0.185 NA 
HETATM    6  C   UNL     1     -10.221   6.758  69.011  1.00  0.00    -0.191 A  
HETATM    7  H2  UNL     1     -10.869   3.859  69.831  1.00  0.00     0.000 HD 
HETATM    8  C   UNL     1     -10.151   6.562  67.612  1.00  0.00    -0.180 A  
HETATM    9  H1  UNL     1      -9.879   4.163  68.530  1.00  0.00     0.000 HD 
HETATM   10  C   UNL     1     -10.248   7.621  66.711  1.00  0.00    -0.333 A  
HETATM   11  C   UNL     1     -10.407   8.910  67.182  1.00  0.00    -0.351 A  
HETATM   12  C   UNL     1     -10.487   9.138  68.558  1.00  0.00    -0.238 A  
HETATM   13  C   UNL     1     -10.427   8.076  69.497  1.00  0.00    -0.226 A  
HETATM   14  N   UNL     1     -10.583   8.280  70.851  1.00  0.00    -0.203 NA 
ENDROOT
BRANCH  14  15
HETATM   15  C   UNL     1     -10.875   9.646  71.367  1.00  0.00    -0.224 C  
BRANCH  15  16
HETATM   16  C   UNL     1     -12.316  10.043  71.054  1.00  0.00    -0.458 C  
BRANCH  16  17
HETATM   17  C   UNL     1     -12.479  11.559  70.980  1.00  0.00    -0.458 C  
BRANCH  17  18
HETATM   18  C   UNL     1     -13.211  12.139  72.194  1.00  0.00    -0.438 C  
BRANCH  18  19
HETATM   19  C   UNL     1     -13.640  13.587  71.972  1.00  0.00    -0.589 C  
BRANCH  19  20
HETATM   20  C   UNL     1     -12.837  14.588  72.805  1.00  0.00    -0.518 C  
BRANCH  20  21
HETATM   21  C   UNL     1     -12.085  15.630  71.967  1.00  0.00    -0.529 C  
BRANCH  21  22
HETATM   22  C   UNL     1     -11.356  15.018  70.768  1.00  0.00    -0.307 C  
BRANCH  22  23
HETATM   23  C   UNL     1     -11.926  15.471  69.418  1.00  0.00    -0.358 C  
BRANCH  23  24
HETATM   24  C   UNL     1     -10.832  16.013  68.498  1.00  0.00    -0.304 C  
BRANCH  24  25
HETATM   25  N   UNL     1     -10.101  14.899  67.842  1.00  0.00    -0.226 NA 
HETATM   26  C   UNL     1      -8.836  14.570  68.250  1.00  0.00    -0.179 A  
HETATM   27  C   UNL     1      -8.183  13.475  67.677  1.00  0.00    -0.178 A  
HETATM   28  C   UNL     1      -8.069  15.271  69.349  1.00  0.00    -0.230 C  
HETATM   29  C   UNL     1      -8.773  12.719  66.677  1.00  0.00    -0.058 A  
HETATM   30  N   UNL     1      -8.108  11.560  66.268  1.00  0.00    -0.357 NA 
HETATM   31  C   UNL     1     -10.094  13.024  66.309  1.00  0.00    -0.283 A  
HETATM   32  H1  UNL     1      -8.541  11.002  65.532  1.00  0.00     0.000 HD 
HETATM   33  C   UNL     1     -10.745  14.153  66.876  1.00  0.00    -0.286 A  
HETATM   34  H2  UNL     1      -7.932  10.967  67.079  1.00  0.00     0.000 HD 
HETATM   35  C   UNL     1     -12.059  14.459  66.437  1.00  0.00    -0.390 A  
HETATM   36  C   UNL     1     -12.736  13.663  65.516  1.00  0.00    -0.514 A  
HETATM   37  C   UNL     1     -12.115  12.541  64.999  1.00  0.00    -0.504 A  
HETATM   38  C   UNL     1     -10.812  12.231  65.384  1.00  0.00    -0.324 A  
ENDBRANCH  24  25
ENDBRANCH  23  24
ENDBRANCH  22  23
ENDBRANCH  21  22
ENDBRANCH  20  21
ENDBRANCH  19  20
ENDBRANCH  18  19
ENDBRANCH  17  18
ENDBRANCH  16  17
ENDBRANCH  15  16
ENDBRANCH  14  15
TORSDOF 11
ENDMDL
MODEL       79
REMARK 921   NORMALIZED FREE ENERGY PREDICTED BY IDOCK:   -6.75 KCAL/MOL
REMARK 922        TOTAL FREE ENERGY PREDICTED BY IDOCK:  -12.44 KCAL/MOL
REMARK 923 INTER-LIGAND FREE ENERGY PREDICTED BY IDOCK:  -10.51 KCAL/MOL
REMARK 924 INTRA-LIGAND FREE ENERGY PREDICTED BY IDOCK:   -1.93 KCAL/MOL
REMARK 927      BINDING AFFINITY PREDICTED BY RF-SCORE:    0.00 PKD
ROOT
HETATM    1  C   UNL     1     -13.153  10.006  71.855  1.00  0.00    -0.563 C  
HETATM    2  C   UNL     1     -13.014  11.472  71.513  1.00  0.00    -0.380 A  
HETATM    3  C   UNL     1     -13.367  12.400  72.485  1.00  0.00    -0.026 A  
HETATM    4  C   UNL     1     -13.256  13.764  72.257  1.00  0.00    -0.467 A  
HETATM    5  N   UNL     1     -13.497  14.622  73.335  1.00  0.00    -0.482 NA 
HETATM    6  C   UNL     1     -12.684  14.195  71.045  1.00  0.00    -0.433 A  
HETATM    7  H2  UNL     1     -12.893  14.360  74.115  1.00  0.00     0.000 HD 
HETATM    8  C   UNL     1     -12.418  15.559  70.786  1.00  0.00    -0.491 A  
HETATM    9  H1  UNL     1     -13.415  15.624  73.168  1.00  0.00     0.000 HD 
HETATM   10  C   UNL     1     -11.867  15.990  69.580  1.00  0.00    -0.234 A  
HETATM   11  C   UNL     1     -11.577  15.069  68.591  1.00  0.00    -0.347 A  
HETATM   12  C   UNL     1     -11.822  13.711  68.818  1.00  0.00    -0.395 A  
HETATM   13  C   UNL     1     -12.349  13.241  70.048  1.00  0.00    -0.200 A  
HETATM   14  N   UNL     1     -12.521  11.899  70.312  1.00  0.00    -0.174 NA 
ENDROOT
BRANCH  14  15
HETATM   15  C   UNL     1     -12.101  10.886  69.304  1.00  0.00    -0.261 C  
BRANCH  15  16
HETATM   16  C   UNL     1     -10.689  10.385  69.600  1.00  0.00    -0.304 C  
BRANCH  16  17
HETATM   17  C   UNL     1     -10.299   9.227  68.685  1.00  0.00    -0.229 C  
BRANCH  17  18
HETATM   18  C   UNL     1      -9.388   8.206  69.372  1.00  0.00    -0.155 C  
BRANCH  18  19
HETATM   19  C   UNL     1      -7.985   8.189  68.774  1.00  0.00    -0.115 C  
BRANCH  19  20
HETATM   20  C   UNL     1      -7.344   9.577  68.699  1.00  0.00    -0.075 C  
BRANCH  20  21
HETATM   21  C   UNL     1      -6.606   9.850  67.382  1.00  0.00    -0.069 C  
BRANCH  21  22
HETATM   22  C   UNL     1      -6.535  11.339  67.034  1.00  0.00    -0.114 C  
BRANCH  22  23
HETATM   23  C   UNL     1      -7.808  11.862  66.357  1.00  0.00     0.167 C  
BRANCH  23  24
HETATM   24  C   UNL     1      -8.570  12.830  67.264  1.00  0.00    -0.197 C  
BRANCH  24  25
HETATM   25  N   UNL     1      -9.360  13.793  66.455  1.00  0.00    -0.260 NA 
HETATM   26  C   UNL     1      -9.000  15.114  66.413  1.00  0.00    -0.279 A  
HETATM   27  C   UNL     1      -9.705  15.999  65.592  1.00  0.00    -0.273 A  
HETATM   28  C   UNL     1      -7.829  15.718  67.152  1.00  0.00    -0.247 C  
HETATM   29  C   UNL     1     -10.786  15.582  64.832  1.00  0.00    -0.427 A  
HETATM   30  N   UNL     1     -11.336  16.502  63.935  1.00  0.00    -1.559 NA 
HETATM   31  C   UNL     1     -11.108  14.215  64.833  1.00  0.00    -0.389 A  
HETATM   32  H1  UNL     1     -12.132  16.196  63.375  1.00  0.00     0.000 HD 
HETATM   33  C   UNL     1     -10.405  13.322  65.688  1.00  0.00    -0.287 A  
HETATM   34  H2  UNL     1     -10.603  16.850  63.316  1.00  0.00     0.000 HD 
HETATM   35  C   UNL     1     -10.797  11.959  65.700  1.00  0.00    -0.333 A  
HETATM   36  C   UNL     1     -11.804  11.471  64.870  1.00  0.00     0.117 A  
HETATM   37  C   UNL     1     -12.456  12.334  64.010  1.00  0.00    -0.556 A  
HETATM   38  C   UNL     1     -12.118  13.686  63.997  1.00  0.00    -0.474 A  
ENDBRANCH  24  25
ENDBRANCH  23  24
ENDBRANCH  22  23
ENDBRANCH  21  22
ENDBRANCH  20  21
ENDBRANCH  19  20
ENDBRANCH  18  19
ENDBRANCH  17  18
ENDBRANCH  16  17
ENDBRANCH  15  16
ENDBRANCH  14  15
TORSDOF 11
ENDMDL
MODEL       80
REMARK 921   NORMALIZED FREE ENERGY PREDICTED BY IDOCK:   -6.75 KCAL/MOL
REMARK 922        TOTAL FREE ENERGY PREDICTED BY IDOCK:  -12.44 KCAL/MOL
REMARK 923 INTER-LIGAND FREE ENERGY PREDICTED BY IDOCK:   -9.64 KCAL/MOL
REMARK 924 INTRA-LIGAND FREE ENERGY PREDICTED BY IDOCK:   -2.80 KCAL/MOL
REMARK 927      BINDING AFFINITY PREDICTED BY RF-SCORE:    0.00 PKD
ROOT
HETATM    1  C   UNL     1     -10.597  16.804  69.014  1.00  0.00    -0.343 C  
HETATM    2  C   UNL     1      -9.730  17.597  68.063  1.00  0.00    -0.301 A  
HETATM    3  C   UNL     1     -10.178  18.852  67.671  1.00  0.00    -0.459 A  
HETATM    4  C   UNL     1      -9.436  19.650  66.813  1.00  0.00    -0.367 A  
HETATM    5  N   UNL     1      -9.892  20.952  66.584  1.00  0.00    -0.508 NA 
HETATM    6  C   UNL     1      -8.162  19.201  66.416  1.00  0.00    -0.323 A  
HETATM    7  H2  UNL     1     -10.004  21.432  67.477  1.00  0.00     0.000 HD 
HETATM    8  C   UNL     1      -7.290  20.007  65.648  1.00  0.00    -0.311 A  
HETATM    9  H1  UNL     1      -9.346  21.539  65.953  1.00  0.00     0.000 HD 
HETATM   10  C   UNL     1      -6.035  19.557  65.240  1.00  0.00    -0.256 A  
HETATM   11  C   UNL     1      -5.619  18.284  65.579  1.00  0.00    -0.227 A  
HETATM   12  C   UNL     1      -6.454  17.464  66.343  1.00  0.00    -0.283 A  
HETATM   13  C   UNL     1      -7.721  17.908  66.802  1.00  0.00    -0.223 A  
HETATM   14  N   UNL     1      -8.519  17.138  67.621  1.00  0.00    -0.199 NA 
ENDROOT
BRANCH  14  15
HETATM   15  C   UNL     1      -8.035  15.812  68.094  1.00  0.00    -0.135 C  
BRANCH  15  16
HETATM   16  C   UNL     1      -8.339  14.728  67.062  1.00  0.00    -0.228 C  
BRANCH  16  17
HETATM   17  C   UNL     1      -7.768  13.376  67.481  1.00  0.00    -0.182 C  
BRANCH  17  18
HETATM   18  C   UNL     1      -7.180  13.390  68.895  1.00  0.00    -0.062 C  
BRANCH  18  19
HETATM   19  C   UNL     1      -6.656  12.021  69.317  1.00  0.00    -0.109 C  
BRANCH  19  20
HETATM   20  C   UNL     1      -6.946  10.922  68.292  1.00  0.00    -0.069 C  
BRANCH  20  21
HETATM   21  C   UNL     1      -7.785   9.763  68.846  1.00  0.00    -0.082 C  
BRANCH  21  22
HETATM   22  C   UNL     1      -8.364   8.866  67.748  1.00  0.00    -0.110 C  
BRANCH  22  23
HETATM   23  C   UNL     1      -8.505   9.578  66.398  1.00  0.00    -0.131 C  
BRANCH  23  24
HETATM   24  C   UNL     1      -9.961   9.622  65.934  1.00  0.00    -0.281 C  
BRANCH  24  25
HETATM   25  N   UNL     1     -10.343  11.001  65.535  1.00  0.00    -0.263 NA 
HETATM   26  C   UNL     1     -10.241  11.391  64.227  1.00  0.00    -0.315 A  
HETATM   27  C   UNL     1     -10.671  12.666  63.847  1.00  0.00    -0.465 A  
HETATM   28  C   UNL     1      -9.745  10.519  63.097  1.00  0.00    -0.351 C  
HETATM   29  C   UNL     1     -11.177  13.567  64.770  1.00  0.00    -0.352 A  
HETATM   30  N   UNL     1     -11.715  14.760  64.278  1.00  0.00    -0.661 NA 
HETATM   31  C   UNL     1     -11.337  13.137  66.097  1.00  0.00    -0.343 A  
HETATM   32  H1  UNL     1     -12.088  15.424  64.956  1.00  0.00     0.000 HD 
HETATM   33  C   UNL     1     -10.875  11.848  66.484  1.00  0.00    -0.278 A  
HETATM   34  H2  UNL     1     -12.434  14.546  63.586  1.00  0.00     0.000 HD 
HETATM   35  C   UNL     1     -11.006  11.472  67.846  1.00  0.00    -0.287 A  
HETATM   36  C   UNL     1     -11.610  12.300  68.788  1.00  0.00    -0.380 A  
HETATM   37  C   UNL     1     -12.096  13.534  68.399  1.00  0.00    -0.293 A  
HETATM   38  C   UNL     1     -11.955  13.948  67.076  1.00  0.00    -0.459 A  
ENDBRANCH  24  25
ENDBRANCH  23  24
ENDBRANCH  22  23
ENDBRANCH  21  22
ENDBRANCH  20  21
ENDBRANCH  19  20
ENDBRANCH  18  19
ENDBRANCH  17  18
ENDBRANCH  16  17
ENDBRANCH  15  16
ENDBRANCH  14  15
TORSDOF 11
ENDMDL
MODEL       81
REMARK 921   NORMALIZED FREE ENERGY PREDICTED BY IDOCK:   -6.74 KCAL/MOL
REMARK 922        TOTAL FREE ENERGY PREDICTED BY IDOCK:  -12.42 KCAL/MOL
REMARK 923 INTER-LIGAND FREE ENERGY PREDICTED BY IDOCK:   -9.66 KCAL/MOL
REMARK 924 INTRA-LIGAND FREE ENERGY PREDICTED BY IDOCK:   -2.76 KCAL/MOL
REMARK 927      BINDING AFFINITY PREDICTED BY RF-SCORE:    0.00 PKD
ROOT
HETATM    1  C   UNL     1     -10.750  15.174  67.755  1.00  0.00    -0.279 C  
HETATM    2  C   UNL     1     -11.324  14.359  68.892  1.00  0.00    -0.274 A  
HETATM    3  C   UNL     1     -11.663  15.027  70.062  1.00  0.00    -0.345 A  
HETATM    4  C   UNL     1     -12.209  14.356  71.146  1.00  0.00    -0.350 A  
HETATM    5  N   UNL     1     -12.652  15.125  72.227  1.00  0.00    -0.324 NA 
HETATM    6  C   UNL     1     -12.504  12.986  71.005  1.00  0.00    -0.385 A  
HETATM    7  H2  UNL     1     -13.317  15.823  71.893  1.00  0.00     0.000 HD 
HETATM    8  C   UNL     1     -13.177  12.258  72.013  1.00  0.00    -0.508 A  
HETATM    9  H1  UNL     1     -13.053  14.631  73.024  1.00  0.00     0.000 HD 
HETATM   10  C   UNL     1     -13.455  10.898  71.882  1.00  0.00    -0.306 A  
HETATM   11  C   UNL     1     -13.059  10.223  70.743  1.00  0.00    -0.360 A  
HETATM   12  C   UNL     1     -12.398  10.916  69.725  1.00  0.00    -0.326 A  
HETATM   13  C   UNL     1     -12.133  12.306  69.815  1.00  0.00    -0.229 A  
HETATM   14  N   UNL     1     -11.553  13.015  68.785  1.00  0.00    -0.288 NA 
ENDROOT
BRANCH  14  15
HETATM   15  C   UNL     1     -11.229  12.328  67.504  1.00  0.00    -0.297 C  
BRANCH  15  16
HETATM   16  C   UNL     1      -9.813  11.755  67.543  1.00  0.00    -0.195 C  
BRANCH  16  17
HETATM   17  C   UNL     1      -9.823  10.229  67.522  1.00  0.00    -0.204 C  
BRANCH  17  18
HETATM   18  C   UNL     1      -8.686   9.616  68.345  1.00  0.00    -0.120 C  
BRANCH  18  19
HETATM   19  C   UNL     1      -8.937   9.722  69.847  1.00  0.00    -0.254 C  
BRANCH  19  20
HETATM   20  C   UNL     1      -8.217   8.642  70.657  1.00  0.00    -0.147 C  
BRANCH  20  21
HETATM   21  C   UNL     1      -8.873   8.342  72.012  1.00  0.00    -0.277 C  
BRANCH  21  22
HETATM   22  C   UNL     1     -10.337   8.785  72.078  1.00  0.00    -0.411 C  
BRANCH  22  23
HETATM   23  C   UNL     1     -11.229   7.809  72.854  1.00  0.00    -0.434 C  
BRANCH  23  24
HETATM   24  C   UNL     1     -11.979   6.864  71.914  1.00  0.00    -0.327 C  
BRANCH  24  25
HETATM   25  N   UNL     1     -11.077   5.790  71.423  1.00  0.00    -0.242 NA 
HETATM   26  C   UNL     1     -10.611   4.835  72.286  1.00  0.00    -0.157 A  
HETATM   27  C   UNL     1      -9.823   3.787  71.802  1.00  0.00    -0.244 A  
HETATM   28  C   UNL     1     -10.931   4.768  73.762  1.00  0.00    -0.371 C  
HETATM   29  C   UNL     1      -9.471   3.699  70.464  1.00  0.00    -0.185 A  
HETATM   30  N   UNL     1      -8.805   2.543  70.047  1.00  0.00    -0.071 NA 
HETATM   31  C   UNL     1     -10.005   4.648  69.576  1.00  0.00    -0.266 A  
HETATM   32  H1  UNL     1      -8.546   2.478  69.063  1.00  0.00     0.000 HD 
HETATM   33  C   UNL     1     -10.786   5.726  70.076  1.00  0.00    -0.330 A  
HETATM   34  H2  UNL     1      -9.356   1.724  70.305  1.00  0.00     0.000 HD 
HETATM   35  C   UNL     1     -11.261   6.692  69.153  1.00  0.00    -0.305 A  
HETATM   36  C   UNL     1     -11.028   6.586  67.784  1.00  0.00    -0.407 A  
HETATM   37  C   UNL     1     -10.305   5.514  67.297  1.00  0.00    -0.290 A  
HETATM   38  C   UNL     1      -9.796   4.564  68.180  1.00  0.00    -0.152 A  
ENDBRANCH  24  25
ENDBRANCH  23  24
ENDBRANCH  22  23
ENDBRANCH  21  22
ENDBRANCH  20  21
ENDBRANCH  19  20
ENDBRANCH  18  19
ENDBRANCH  17  18
ENDBRANCH  16  17
ENDBRANCH  15  16
ENDBRANCH  14  15
TORSDOF 11
ENDMDL
MODEL       82
REMARK 921   NORMALIZED FREE ENERGY PREDICTED BY IDOCK:   -6.73 KCAL/MOL
REMARK 922        TOTAL FREE ENERGY PREDICTED BY IDOCK:  -12.42 KCAL/MOL
REMARK 923 INTER-LIGAND FREE ENERGY PREDICTED BY IDOCK:   -9.35 KCAL/MOL
REMARK 924 INTRA-LIGAND FREE ENERGY PREDICTED BY IDOCK:   -3.07 KCAL/MOL
REMARK 927      BINDING AFFINITY PREDICTED BY RF-SCORE:    0.00 PKD
ROOT
HETATM    1  C   UNL     1      -8.367   8.138  74.203  1.00  0.00    -0.286 C  
HETATM    2  C   UNL     1      -9.175   7.590  73.049  1.00  0.00    -0.183 A  
HETATM    3  C   UNL     1     -10.559   7.687  73.123  1.00  0.00    -0.438 A  
HETATM    4  C   UNL     1     -11.373   7.222  72.102  1.00  0.00    -0.265 A  
HETATM    5  N   UNL     1     -12.744   7.488  72.194  1.00  0.00    -0.494 NA 
HETATM    6  C   UNL     1     -10.763   6.729  70.933  1.00  0.00    -0.269 A  
HETATM    7  H2  UNL     1     -12.885   8.492  72.306  1.00  0.00     0.000 HD 
HETATM    8  C   UNL     1     -11.516   6.354  69.796  1.00  0.00    -0.468 A  
HETATM    9  H1  UNL     1     -13.342   7.146  71.442  1.00  0.00     0.000 HD 
HETATM   10  C   UNL     1     -10.915   5.850  68.643  1.00  0.00    -0.289 A  
HETATM   11  C   UNL     1      -9.543   5.695  68.597  1.00  0.00    -0.163 A  
HETATM   12  C   UNL     1      -8.769   6.062  69.702  1.00  0.00    -0.133 A  
HETATM   13  C   UNL     1      -9.350   6.611  70.874  1.00  0.00    -0.157 A  
HETATM   14  N   UNL     1      -8.590   7.049  71.938  1.00  0.00    -0.121 NA 
ENDROOT
BRANCH  14  15
HETATM   15  C   UNL     1      -7.104   7.000  71.857  1.00  0.00    -0.069 C  
BRANCH  15  16
HETATM   16  C   UNL     1      -6.556   8.282  71.232  1.00  0.00    -0.048 C  
BRANCH  16  17
HETATM   17  C   UNL     1      -5.662   7.985  70.032  1.00  0.00    -0.023 C  
BRANCH  17  18
HETATM   18  C   UNL     1      -6.298   8.391  68.699  1.00  0.00    -0.053 C  
BRANCH  18  19
HETATM   19  C   UNL     1      -7.419   9.409  68.881  1.00  0.00    -0.074 C  
BRANCH  19  20
HETATM   20  C   UNL     1      -8.551   9.250  67.863  1.00  0.00    -0.120 C  
BRANCH  20  21
HETATM   21  C   UNL     1      -9.952   9.445  68.457  1.00  0.00    -0.190 C  
BRANCH  21  22
HETATM   22  C   UNL     1      -9.926  10.059  69.859  1.00  0.00    -0.280 C  
BRANCH  22  23
HETATM   23  C   UNL     1     -11.318  10.438  70.379  1.00  0.00    -0.417 C  
BRANCH  23  24
HETATM   24  C   UNL     1     -12.113  11.223  69.334  1.00  0.00    -0.315 C  
BRANCH  24  25
HETATM   25  N   UNL     1     -11.813  12.674  69.429  1.00  0.00    -0.305 NA 
HETATM   26  C   UNL     1     -11.076  13.290  68.454  1.00  0.00    -0.270 A  
HETATM   27  C   UNL     1     -10.860  14.669  68.513  1.00  0.00    -0.256 A  
HETATM   28  C   UNL     1     -10.500  12.602  67.237  1.00  0.00    -0.237 C  
HETATM   29  C   UNL     1     -11.352  15.439  69.555  1.00  0.00    -0.301 A  
HETATM   30  N   UNL     1     -11.212  16.826  69.455  1.00  0.00    -0.296 NA 
HETATM   31  C   UNL     1     -12.160  14.810  70.517  1.00  0.00    -0.378 A  
HETATM   32  H1  UNL     1     -11.574  17.393  70.222  1.00  0.00     0.000 HD 
HETATM   33  C   UNL     1     -12.356  13.403  70.467  1.00  0.00    -0.329 A  
HETATM   34  H2  UNL     1     -11.624  17.144  68.578  1.00  0.00     0.000 HD 
HETATM   35  C   UNL     1     -13.134  12.799  71.488  1.00  0.00    -0.380 A  
HETATM   36  C   UNL     1     -13.743  13.545  72.495  1.00  0.00    -0.664 A  
HETATM   37  C   UNL     1     -13.585  14.918  72.515  1.00  0.00    -0.562 A  
HETATM   38  C   UNL     1     -12.800  15.539  71.546  1.00  0.00    -0.519 A  
ENDBRANCH  24  25
ENDBRANCH  23  24
ENDBRANCH  22  23
ENDBRANCH  21  22
ENDBRANCH  20  21
ENDBRANCH  19  20
ENDBRANCH  18  19
ENDBRANCH  17  18
ENDBRANCH  16  17
ENDBRANCH  15  16
ENDBRANCH  14  15
TORSDOF 11
ENDMDL
MODEL       83
REMARK 921   NORMALIZED FREE ENERGY PREDICTED BY IDOCK:   -6.73 KCAL/MOL
REMARK 922        TOTAL FREE ENERGY PREDICTED BY IDOCK:  -12.40 KCAL/MOL
REMARK 923 INTER-LIGAND FREE ENERGY PREDICTED BY IDOCK:  -11.04 KCAL/MOL
REMARK 924 INTRA-LIGAND FREE ENERGY PREDICTED BY IDOCK:   -1.36 KCAL/MOL
REMARK 927      BINDING AFFINITY PREDICTED BY RF-SCORE:    0.00 PKD
ROOT
HETATM    1  C   UNL     1     -11.638  10.856  70.054  1.00  0.00    -0.424 C  
HETATM    2  C   UNL     1     -11.213   9.445  70.395  1.00  0.00    -0.262 A  
HETATM    3  C   UNL     1     -11.352   9.026  71.712  1.00  0.00    -0.447 A  
HETATM    4  C   UNL     1     -10.999   7.744  72.105  1.00  0.00    -0.266 A  
HETATM    5  N   UNL     1     -11.305   7.361  73.415  1.00  0.00    -0.600 NA 
HETATM    6  C   UNL     1     -10.581   6.833  71.116  1.00  0.00    -0.252 A  
HETATM    7  H2  UNL     1     -12.301   7.503  73.584  1.00  0.00     0.000 HD 
HETATM    8  C   UNL     1     -10.326   5.474  71.411  1.00  0.00    -0.291 A  
HETATM    9  H1  UNL     1     -11.046   6.419  73.704  1.00  0.00     0.000 HD 
HETATM   10  C   UNL     1      -9.895   4.574  70.436  1.00  0.00    -0.302 A  
HETATM   11  C   UNL     1      -9.696   5.010  69.140  1.00  0.00    -0.243 A  
HETATM   12  C   UNL     1      -9.946   6.346  68.815  1.00  0.00    -0.165 A  
HETATM   13  C   UNL     1     -10.418   7.276  69.777  1.00  0.00    -0.227 A  
HETATM   14  N   UNL     1     -10.743   8.575  69.450  1.00  0.00    -0.198 NA 
ENDROOT
BRANCH  14  15
HETATM   15  C   UNL     1     -10.649   9.029  68.035  1.00  0.00    -0.186 C  
BRANCH  15  16
HETATM   16  C   UNL     1      -9.228   9.483  67.708  1.00  0.00    -0.136 C  
BRANCH  16  17
HETATM   17  C   UNL     1      -9.207  10.900  67.140  1.00  0.00    -0.159 C  
BRANCH  17  18
HETATM   18  C   UNL     1      -9.033  10.928  65.619  1.00  0.00    -0.209 C  
BRANCH  18  19
HETATM   19  C   UNL     1     -10.258  10.388  64.887  1.00  0.00    -0.330 C  
BRANCH  19  20
HETATM   20  C   UNL     1     -10.650  11.224  63.667  1.00  0.00    -0.453 C  
BRANCH  20  21
HETATM   21  C   UNL     1     -12.036  11.873  63.778  1.00  0.00    -0.547 C  
BRANCH  21  22
HETATM   22  C   UNL     1     -12.054  13.330  63.310  1.00  0.00    -0.407 C  
BRANCH  22  23
HETATM   23  C   UNL     1     -12.163  14.335  64.463  1.00  0.00    -0.476 C  
BRANCH  23  24
HETATM   24  C   UNL     1     -10.846  14.454  65.232  1.00  0.00    -0.361 C  
BRANCH  24  25
HETATM   25  N   UNL     1     -11.086  14.971  66.603  1.00  0.00    -0.330 NA 
HETATM   26  C   UNL     1     -11.675  14.172  67.547  1.00  0.00    -0.386 A  
HETATM   27  C   UNL     1     -11.831  14.640  68.854  1.00  0.00    -0.344 A  
HETATM   28  C   UNL     1     -12.138  12.751  67.314  1.00  0.00    -0.228 C  
HETATM   29  C   UNL     1     -11.427  15.913  69.224  1.00  0.00    -0.374 A  
HETATM   30  N   UNL     1     -11.489  16.240  70.582  1.00  0.00    -0.511 NA 
HETATM   31  C   UNL     1     -10.767  16.701  68.267  1.00  0.00    -0.351 A  
HETATM   32  H1  UNL     1     -11.191  17.177  70.854  1.00  0.00     0.000 HD 
HETATM   33  C   UNL     1     -10.633  16.232  66.932  1.00  0.00    -0.270 A  
HETATM   34  H2  UNL     1     -10.963  15.550  71.119  1.00  0.00     0.000 HD 
HETATM   35  C   UNL     1     -10.008  17.081  65.983  1.00  0.00    -0.288 A  
HETATM   36  C   UNL     1      -9.486  18.324  66.333  1.00  0.00    -0.290 A  
HETATM   37  C   UNL     1      -9.579  18.759  67.641  1.00  0.00    -0.340 A  
HETATM   38  C   UNL     1     -10.216  17.963  68.591  1.00  0.00    -0.387 A  
ENDBRANCH  24  25
ENDBRANCH  23  24
ENDBRANCH  22  23
ENDBRANCH  21  22
ENDBRANCH  20  21
ENDBRANCH  19  20
ENDBRANCH  18  19
ENDBRANCH  17  18
ENDBRANCH  16  17
ENDBRANCH  15  16
ENDBRANCH  14  15
TORSDOF 11
ENDMDL
MODEL       84
REMARK 921   NORMALIZED FREE ENERGY PREDICTED BY IDOCK:   -6.71 KCAL/MOL
REMARK 922        TOTAL FREE ENERGY PREDICTED BY IDOCK:  -12.39 KCAL/MOL
REMARK 923 INTER-LIGAND FREE ENERGY PREDICTED BY IDOCK:  -10.42 KCAL/MOL
REMARK 924 INTRA-LIGAND FREE ENERGY PREDICTED BY IDOCK:   -1.97 KCAL/MOL
REMARK 927      BINDING AFFINITY PREDICTED BY RF-SCORE:    0.00 PKD
ROOT
HETATM    1  C   UNL     1      -7.874   7.916  66.589  1.00  0.00    -0.102 C  
HETATM    2  C   UNL     1      -8.694   8.963  65.869  1.00  0.00    -0.170 A  
HETATM    3  C   UNL     1      -8.646   8.983  64.481  1.00  0.00    -0.181 A  
HETATM    4  C   UNL     1      -9.379   9.901  63.744  1.00  0.00    -0.197 A  
HETATM    5  N   UNL     1      -9.383   9.758  62.353  1.00  0.00    -0.444 NA 
HETATM    6  C   UNL     1     -10.256  10.761  64.432  1.00  0.00    -0.432 A  
HETATM    7  H2  UNL     1      -9.686   8.815  62.112  1.00  0.00     0.000 HD 
HETATM    8  C   UNL     1     -11.132  11.638  63.750  1.00  0.00    -0.499 A  
HETATM    9  H1  UNL     1      -9.923  10.434  61.812  1.00  0.00     0.000 HD 
HETATM   10  C   UNL     1     -11.989  12.502  64.429  1.00  0.00    -0.476 A  
HETATM   11  C   UNL     1     -11.988  12.525  65.811  1.00  0.00    -0.482 A  
HETATM   12  C   UNL     1     -11.139  11.667  66.515  1.00  0.00    -0.357 A  
HETATM   13  C   UNL     1     -10.281  10.751  65.851  1.00  0.00    -0.259 A  
HETATM   14  N   UNL     1      -9.498   9.846  66.535  1.00  0.00    -0.172 NA 
ENDROOT
BRANCH  14  15
HETATM   15  C   UNL     1      -9.573   9.775  68.020  1.00  0.00    -0.142 C  
BRANCH  15  16
HETATM   16  C   UNL     1     -10.588   8.720  68.458  1.00  0.00    -0.171 C  
BRANCH  16  17
HETATM   17  C   UNL     1     -11.123   9.002  69.859  1.00  0.00    -0.155 C  
BRANCH  17  18
HETATM   18  C   UNL     1     -10.945  10.463  70.283  1.00  0.00    -0.353 C  
BRANCH  18  19
HETATM   19  C   UNL     1     -12.207  11.289  70.057  1.00  0.00    -0.389 C  
BRANCH  19  20
HETATM   20  C   UNL     1     -12.505  12.261  71.201  1.00  0.00    -0.328 C  
BRANCH  20  21
HETATM   21  C   UNL     1     -12.304  13.736  70.829  1.00  0.00    -0.451 C  
BRANCH  21  22
HETATM   22  C   UNL     1     -11.864  13.931  69.375  1.00  0.00    -0.384 C  
BRANCH  22  23
HETATM   23  C   UNL     1     -11.341  15.343  69.086  1.00  0.00    -0.323 C  
BRANCH  23  24
HETATM   24  C   UNL     1     -11.052  15.543  67.599  1.00  0.00    -0.311 C  
BRANCH  24  25
HETATM   25  N   UNL     1      -9.698  16.121  67.402  1.00  0.00    -0.231 NA 
HETATM   26  C   UNL     1      -8.618  15.299  67.219  1.00  0.00    -0.190 A  
HETATM   27  C   UNL     1      -7.360  15.851  66.962  1.00  0.00    -0.243 A  
HETATM   28  C   UNL     1      -8.669  13.788  67.209  1.00  0.00    -0.226 C  
HETATM   29  C   UNL     1      -7.164  17.222  66.912  1.00  0.00    -0.200 A  
HETATM   30  N   UNL     1      -5.907  17.680  66.507  1.00  0.00    -0.177 NA 
HETATM   31  C   UNL     1      -8.287  18.056  67.037  1.00  0.00    -0.248 A  
HETATM   32  H1  UNL     1      -5.762  18.689  66.469  1.00  0.00     0.000 HD 
HETATM   33  C   UNL     1      -9.561  17.491  67.324  1.00  0.00    -0.273 A  
HETATM   34  H2  UNL     1      -5.676  17.273  65.600  1.00  0.00     0.000 HD 
HETATM   35  C   UNL     1     -10.660  18.371  67.496  1.00  0.00    -0.447 A  
HETATM   36  C   UNL     1     -10.535  19.751  67.345  1.00  0.00    -0.577 A  
HETATM   37  C   UNL     1      -9.304  20.292  67.024  1.00  0.00    -0.526 A  
HETATM   38  C   UNL     1      -8.197  19.458  66.880  1.00  0.00    -0.302 A  
ENDBRANCH  24  25
ENDBRANCH  23  24
ENDBRANCH  22  23
ENDBRANCH  21  22
ENDBRANCH  20  21
ENDBRANCH  19  20
ENDBRANCH  18  19
ENDBRANCH  17  18
ENDBRANCH  16  17
ENDBRANCH  15  16
ENDBRANCH  14  15
TORSDOF 11
ENDMDL
MODEL       85
REMARK 921   NORMALIZED FREE ENERGY PREDICTED BY IDOCK:   -6.70 KCAL/MOL
REMARK 922        TOTAL FREE ENERGY PREDICTED BY IDOCK:  -12.37 KCAL/MOL
REMARK 923 INTER-LIGAND FREE ENERGY PREDICTED BY IDOCK:  -10.67 KCAL/MOL
REMARK 924 INTRA-LIGAND FREE ENERGY PREDICTED BY IDOCK:   -1.69 KCAL/MOL
REMARK 927      BINDING AFFINITY PREDICTED BY RF-SCORE:    0.00 PKD
ROOT
HETATM    1  C   UNL     1     -11.002  19.580  67.245  1.00  0.00    -0.460 C  
HETATM    2  C   UNL     1      -9.666  18.873  67.215  1.00  0.00    -0.311 A  
HETATM    3  C   UNL     1      -8.774  19.214  66.206  1.00  0.00    -0.304 A  
HETATM    4  C   UNL     1      -7.522  18.623  66.116  1.00  0.00    -0.255 A  
HETATM    5  N   UNL     1      -6.637  19.126  65.158  1.00  0.00    -0.445 NA 
HETATM    6  C   UNL     1      -7.130  17.730  67.131  1.00  0.00    -0.201 A  
HETATM    7  H2  UNL     1      -6.525  20.131  65.296  1.00  0.00     0.000 HD 
HETATM    8  C   UNL     1      -5.827  17.183  67.185  1.00  0.00    -0.192 A  
HETATM    9  H1  UNL     1      -5.717  18.691  65.092  1.00  0.00     0.000 HD 
HETATM   10  C   UNL     1      -5.442  16.286  68.180  1.00  0.00    -0.107 A  
HETATM   11  C   UNL     1      -6.352  15.900  69.145  1.00  0.00    -0.146 A  
HETATM   12  C   UNL     1      -7.646  16.428  69.125  1.00  0.00    -0.225 A  
HETATM   13  C   UNL     1      -8.055  17.369  68.146  1.00  0.00    -0.232 A  
HETATM   14  N   UNL     1      -9.303  17.955  68.162  1.00  0.00    -0.277 NA 
ENDROOT
BRANCH  14  15
HETATM   15  C   UNL     1     -10.255  17.642  69.264  1.00  0.00    -0.147 C  
BRANCH  15  16
HETATM   16  C   UNL     1     -10.731  16.194  69.169  1.00  0.00    -0.292 C  
BRANCH  16  17
HETATM   17  C   UNL     1     -11.954  15.945  70.047  1.00  0.00    -0.297 C  
BRANCH  17  18
HETATM   18  C   UNL     1     -11.687  14.936  71.168  1.00  0.00    -0.377 C  
BRANCH  18  19
HETATM   19  C   UNL     1     -12.975  14.352  71.740  1.00  0.00    -0.419 C  
BRANCH  19  20
HETATM   20  C   UNL     1     -13.049  12.827  71.626  1.00  0.00    -0.428 C  
BRANCH  20  21
HETATM   21  C   UNL     1     -12.059  12.232  70.617  1.00  0.00    -0.330 C  
BRANCH  21  22
HETATM   22  C   UNL     1     -12.259  10.730  70.398  1.00  0.00    -0.437 C  
BRANCH  22  23
HETATM   23  C   UNL     1     -11.698  10.233  69.060  1.00  0.00    -0.083 C  
BRANCH  23  24
HETATM   24  C   UNL     1     -10.526  11.094  68.588  1.00  0.00    -0.197 C  
BRANCH  24  25
HETATM   25  N   UNL     1     -10.477  11.143  67.104  1.00  0.00    -0.219 NA 
HETATM   26  C   UNL     1      -9.914  10.112  66.401  1.00  0.00    -0.234 A  
HETATM   27  C   UNL     1      -9.936  10.131  65.004  1.00  0.00    -0.375 A  
HETATM   28  C   UNL     1      -9.299   8.875  67.016  1.00  0.00    -0.194 C  
HETATM   29  C   UNL     1     -10.493  11.187  64.299  1.00  0.00    -0.362 A  
HETATM   30  N   UNL     1     -10.600  11.051  62.912  1.00  0.00    -0.803 NA 
HETATM   31  C   UNL     1     -11.123  12.208  65.028  1.00  0.00    -0.368 A  
HETATM   32  H1  UNL     1     -11.009  11.828  62.393  1.00  0.00     0.000 HD 
HETATM   33  C   UNL     1     -11.076  12.198  66.449  1.00  0.00    -0.314 A  
HETATM   34  H2  UNL     1     -11.110  10.195  62.695  1.00  0.00     0.000 HD 
HETATM   35  C   UNL     1     -11.679  13.276  67.147  1.00  0.00    -0.425 A  
HETATM   36  C   UNL     1     -12.348  14.304  66.486  1.00  0.00    -0.345 A  
HETATM   37  C   UNL     1     -12.428  14.288  65.106  1.00  0.00    -0.423 A  
HETATM   38  C   UNL     1     -11.819  13.260  64.389  1.00  0.00    -0.448 A  
ENDBRANCH  24  25
ENDBRANCH  23  24
ENDBRANCH  22  23
ENDBRANCH  21  22
ENDBRANCH  20  21
ENDBRANCH  19  20
ENDBRANCH  18  19
ENDBRANCH  17  18
ENDBRANCH  16  17
ENDBRANCH  15  16
ENDBRANCH  14  15
TORSDOF 11
ENDMDL
MODEL       86
REMARK 921   NORMALIZED FREE ENERGY PREDICTED BY IDOCK:   -6.70 KCAL/MOL
REMARK 922        TOTAL FREE ENERGY PREDICTED BY IDOCK:  -12.36 KCAL/MOL
REMARK 923 INTER-LIGAND FREE ENERGY PREDICTED BY IDOCK:   -9.51 KCAL/MOL
REMARK 924 INTRA-LIGAND FREE ENERGY PREDICTED BY IDOCK:   -2.84 KCAL/MOL
REMARK 927      BINDING AFFINITY PREDICTED BY RF-SCORE:    0.00 PKD
ROOT
HETATM    1  C   UNL     1     -10.551  16.511  65.194  1.00  0.00    -0.237 C  
HETATM    2  C   UNL     1     -11.011  15.757  66.421  1.00  0.00    -0.159 A  
HETATM    3  C   UNL     1     -11.428  14.442  66.256  1.00  0.00    -0.361 A  
HETATM    4  C   UNL     1     -11.852  13.676  67.331  1.00  0.00    -0.393 A  
HETATM    5  N   UNL     1     -12.118  12.323  67.098  1.00  0.00    -0.528 NA 
HETATM    6  C   UNL     1     -11.762  14.230  68.623  1.00  0.00    -0.380 A  
HETATM    7  H2  UNL     1     -11.298  11.887  66.676  1.00  0.00     0.000 HD 
HETATM    8  C   UNL     1     -12.051  13.475  69.783  1.00  0.00    -0.381 A  
HETATM    9  H1  UNL     1     -12.429  11.760  67.889  1.00  0.00     0.000 HD 
HETATM   10  C   UNL     1     -11.979  14.026  71.061  1.00  0.00    -0.313 A  
HETATM   11  C   UNL     1     -11.625  15.353  71.217  1.00  0.00    -0.440 A  
HETATM   12  C   UNL     1     -11.326  16.125  70.091  1.00  0.00    -0.347 A  
HETATM   13  C   UNL     1     -11.357  15.582  68.781  1.00  0.00    -0.334 A  
HETATM   14  N   UNL     1     -10.988  16.311  67.671  1.00  0.00    -0.288 NA 
ENDROOT
BRANCH  14  15
HETATM   15  C   UNL     1     -10.490  17.705  67.833  1.00  0.00    -0.392 C  
BRANCH  15  16
HETATM   16  C   UNL     1      -9.064  17.707  68.381  1.00  0.00    -0.277 C  
BRANCH  16  17
HETATM   17  C   UNL     1      -8.036  17.938  67.277  1.00  0.00    -0.222 C  
BRANCH  17  18
HETATM   18  C   UNL     1      -7.227  16.682  66.945  1.00  0.00    -0.261 C  
BRANCH  18  19
HETATM   19  C   UNL     1      -7.408  15.584  67.989  1.00  0.00    -0.139 C  
BRANCH  19  20
HETATM   20  C   UNL     1      -7.791  14.232  67.383  1.00  0.00    -0.207 C  
BRANCH  20  21
HETATM   21  C   UNL     1      -8.242  13.193  68.419  1.00  0.00    -0.130 C  
BRANCH  21  22
HETATM   22  C   UNL     1      -8.624  11.850  67.791  1.00  0.00    -0.154 C  
BRANCH  22  23
HETATM   23  C   UNL     1      -8.943  10.767  68.829  1.00  0.00    -0.171 C  
BRANCH  23  24
HETATM   24  C   UNL     1      -9.958   9.757  68.293  1.00  0.00    -0.153 C  
BRANCH  24  25
HETATM   25  N   UNL     1     -10.184   8.669  69.278  1.00  0.00    -0.207 NA 
HETATM   26  C   UNL     1      -9.441   7.520  69.217  1.00  0.00    -0.154 A  
HETATM   27  C   UNL     1      -9.608   6.532  70.191  1.00  0.00    -0.171 A  
HETATM   28  C   UNL     1      -8.370   7.233  68.190  1.00  0.00    -0.124 C  
HETATM   29  C   UNL     1     -10.534   6.668  71.214  1.00  0.00    -0.215 A  
HETATM   30  N   UNL     1     -10.530   5.699  72.221  1.00  0.00    -0.206 NA 
HETATM   31  C   UNL     1     -11.246   7.875  71.305  1.00  0.00    -0.283 A  
HETATM   32  H1  UNL     1     -11.211   5.799  72.974  1.00  0.00     0.000 HD 
HETATM   33  C   UNL     1     -11.091   8.867  70.298  1.00  0.00    -0.228 A  
HETATM   34  H2  UNL     1      -9.593   5.632  72.621  1.00  0.00     0.000 HD 
HETATM   35  C   UNL     1     -11.869  10.050  70.398  1.00  0.00    -0.343 A  
HETATM   36  C   UNL     1     -12.731  10.281  71.468  1.00  0.00    -0.557 A  
HETATM   37  C   UNL     1     -12.847   9.333  72.466  1.00  0.00    -0.351 A  
HETATM   38  C   UNL     1     -12.121   8.146  72.382  1.00  0.00    -0.406 A  
ENDBRANCH  24  25
ENDBRANCH  23  24
ENDBRANCH  22  23
ENDBRANCH  21  22
ENDBRANCH  20  21
ENDBRANCH  19  20
ENDBRANCH  18  19
ENDBRANCH  17  18
ENDBRANCH  16  17
ENDBRANCH  15  16
ENDBRANCH  14  15
TORSDOF 11
ENDMDL
MODEL       87
REMARK 921   NORMALIZED FREE ENERGY PREDICTED BY IDOCK:   -6.70 KCAL/MOL
REMARK 922        TOTAL FREE ENERGY PREDICTED BY IDOCK:  -12.35 KCAL/MOL
REMARK 923 INTER-LIGAND FREE ENERGY PREDICTED BY IDOCK:  -10.29 KCAL/MOL
REMARK 924 INTRA-LIGAND FREE ENERGY PREDICTED BY IDOCK:   -2.07 KCAL/MOL
REMARK 927      BINDING AFFINITY PREDICTED BY RF-SCORE:    0.00 PKD
ROOT
HETATM    1  C   UNL     1     -12.355  14.512  64.299  1.00  0.00    -0.396 C  
HETATM    2  C   UNL     1     -11.392  13.369  64.527  1.00  0.00    -0.366 A  
HETATM    3  C   UNL     1     -11.260  12.421  63.520  1.00  0.00    -0.540 A  
HETATM    4  C   UNL     1     -10.388  11.350  63.643  1.00  0.00    -0.410 A  
HETATM    5  N   UNL     1     -10.213  10.526  62.527  1.00  0.00    -0.718 NA 
HETATM    6  C   UNL     1      -9.559  11.291  64.780  1.00  0.00    -0.269 A  
HETATM    7  H2  UNL     1      -9.935  11.096  61.728  1.00  0.00     0.000 HD 
HETATM    8  C   UNL     1      -8.555  10.306  64.924  1.00  0.00    -0.192 A  
HETATM    9  H1  UNL     1      -9.572   9.738  62.618  1.00  0.00     0.000 HD 
HETATM   10  C   UNL     1      -7.744  10.235  66.056  1.00  0.00    -0.130 A  
HETATM   11  C   UNL     1      -7.922  11.141  67.084  1.00  0.00    -0.139 A  
HETATM   12  C   UNL     1      -8.901  12.132  66.970  1.00  0.00    -0.203 A  
HETATM   13  C   UNL     1      -9.716  12.250  65.815  1.00  0.00    -0.216 A  
HETATM   14  N   UNL     1     -10.630  13.269  65.659  1.00  0.00    -0.278 NA 
ENDROOT
BRANCH  14  15
HETATM   15  C   UNL     1     -10.750  14.324  66.704  1.00  0.00    -0.290 C  
BRANCH  15  16
HETATM   16  C   UNL     1     -11.935  14.037  67.625  1.00  0.00    -0.404 C  
BRANCH  16  17
HETATM   17  C   UNL     1     -11.478  13.707  69.043  1.00  0.00    -0.346 C  
BRANCH  17  18
HETATM   18  C   UNL     1     -12.060  12.390  69.565  1.00  0.00    -0.250 C  
BRANCH  18  19
HETATM   19  C   UNL     1     -12.315  12.426  71.069  1.00  0.00    -0.309 C  
BRANCH  19  20
HETATM   20  C   UNL     1     -13.034  11.180  71.589  1.00  0.00    -0.548 C  
BRANCH  20  21
HETATM   21  C   UNL     1     -12.175   9.909  71.558  1.00  0.00    -0.505 C  
BRANCH  21  22
HETATM   22  C   UNL     1     -13.007   8.624  71.596  1.00  0.00    -0.377 C  
BRANCH  22  23
HETATM   23  C   UNL     1     -12.209   7.376  71.200  1.00  0.00    -0.357 C  
BRANCH  23  24
HETATM   24  C   UNL     1     -10.815   7.738  70.688  1.00  0.00    -0.237 C  
BRANCH  24  25
HETATM   25  N   UNL     1     -10.571   7.129  69.356  1.00  0.00    -0.228 NA 
HETATM   26  C   UNL     1     -10.611   7.904  68.227  1.00  0.00    -0.109 A  
HETATM   27  C   UNL     1     -10.309   7.338  66.986  1.00  0.00    -0.376 A  
HETATM   28  C   UNL     1     -10.903   9.387  68.202  1.00  0.00    -0.174 C  
HETATM   29  C   UNL     1      -9.994   5.995  66.855  1.00  0.00    -0.169 A  
HETATM   30  N   UNL     1      -9.566   5.551  65.601  1.00  0.00    -0.357 NA 
HETATM   31  C   UNL     1      -9.894   5.223  68.024  1.00  0.00    -0.193 A  
HETATM   32  H1  UNL     1      -9.333   4.563  65.505  1.00  0.00     0.000 HD 
HETATM   33  C   UNL     1     -10.226   5.796  69.283  1.00  0.00    -0.226 A  
HETATM   34  H2  UNL     1      -8.772   6.115  65.296  1.00  0.00     0.000 HD 
HETATM   35  C   UNL     1     -10.164   4.967  70.433  1.00  0.00    -0.324 A  
HETATM   36  C   UNL     1      -9.744   3.641  70.368  1.00  0.00    -0.201 A  
HETATM   37  C   UNL     1      -9.381   3.100  69.149  1.00  0.00    -0.228 A  
HETATM   38  C   UNL     1      -9.462   3.877  67.995  1.00  0.00    -0.221 A  
ENDBRANCH  24  25
ENDBRANCH  23  24
ENDBRANCH  22  23
ENDBRANCH  21  22
ENDBRANCH  20  21
ENDBRANCH  19  20
ENDBRANCH  18  19
ENDBRANCH  17  18
ENDBRANCH  16  17
ENDBRANCH  15  16
ENDBRANCH  14  15
TORSDOF 11
ENDMDL
MODEL       88
REMARK 921   NORMALIZED FREE ENERGY PREDICTED BY IDOCK:   -6.69 KCAL/MOL
REMARK 922        TOTAL FREE ENERGY PREDICTED BY IDOCK:  -12.35 KCAL/MOL
REMARK 923 INTER-LIGAND FREE ENERGY PREDICTED BY IDOCK:  -10.04 KCAL/MOL
REMARK 924 INTRA-LIGAND FREE ENERGY PREDICTED BY IDOCK:   -2.30 KCAL/MOL
REMARK 927      BINDING AFFINITY PREDICTED BY RF-SCORE:    0.00 PKD
ROOT
HETATM    1  C   UNL     1      -9.084   4.535  74.547  1.00  0.00    -0.113 C  
HETATM    2  C   UNL     1      -9.756   4.944  73.256  1.00  0.00    -0.137 A  
HETATM    3  C   UNL     1     -11.053   5.437  73.329  1.00  0.00    -0.352 A  
HETATM    4  C   UNL     1     -11.736   5.848  72.194  1.00  0.00    -0.227 A  
HETATM    5  N   UNL     1     -12.980   6.462  72.374  1.00  0.00    -0.456 NA 
HETATM    6  C   UNL     1     -11.051   5.846  70.964  1.00  0.00    -0.315 A  
HETATM    7  H2  UNL     1     -12.876   7.253  73.009  1.00  0.00     0.000 HD 
HETATM    8  C   UNL     1     -11.629   6.368  69.784  1.00  0.00    -0.397 A  
HETATM    9  H1  UNL     1     -13.482   6.764  71.539  1.00  0.00     0.000 HD 
HETATM   10  C   UNL     1     -10.959   6.351  68.562  1.00  0.00    -0.396 A  
HETATM   11  C   UNL     1      -9.694   5.802  68.481  1.00  0.00    -0.161 A  
HETATM   12  C   UNL     1      -9.091   5.284  69.630  1.00  0.00    -0.149 A  
HETATM   13  C   UNL     1      -9.734   5.319  70.894  1.00  0.00    -0.184 A  
HETATM   14  N   UNL     1      -9.119   4.883  72.047  1.00  0.00    -0.134 NA 
ENDROOT
BRANCH  14  15
HETATM   15  C   UNL     1      -7.711   4.399  71.999  1.00  0.00    -0.081 C  
BRANCH  15  16
HETATM   16  C   UNL     1      -6.772   5.406  72.660  1.00  0.00    -0.075 C  
BRANCH  16  17
HETATM   17  C   UNL     1      -6.886   6.786  72.018  1.00  0.00    -0.063 C  
BRANCH  17  18
HETATM   18  C   UNL     1      -7.374   7.859  72.996  1.00  0.00    -0.132 C  
BRANCH  18  19
HETATM   19  C   UNL     1      -8.768   8.371  72.644  1.00  0.00    -0.267 C  
BRANCH  19  20
HETATM   20  C   UNL     1      -8.861   8.941  71.227  1.00  0.00    -0.298 C  
BRANCH  20  21
HETATM   21  C   UNL     1     -10.247   9.496  70.872  1.00  0.00    -0.356 C  
BRANCH  21  22
HETATM   22  C   UNL     1     -10.386   9.852  69.389  1.00  0.00    -0.238 C  
BRANCH  22  23
HETATM   23  C   UNL     1     -11.058  11.210  69.153  1.00  0.00    -0.306 C  
BRANCH  23  24
HETATM   24  C   UNL     1     -10.155  12.153  68.358  1.00  0.00    -0.209 C  
BRANCH  24  25
HETATM   25  N   UNL     1     -10.833  12.602  67.115  1.00  0.00    -0.248 NA 
HETATM   26  C   UNL     1     -11.630  13.715  67.128  1.00  0.00    -0.361 A  
HETATM   27  C   UNL     1     -12.205  14.172  65.940  1.00  0.00    -0.458 A  
HETATM   28  C   UNL     1     -11.911  14.566  68.345  1.00  0.00    -0.351 C  
HETATM   29  C   UNL     1     -12.013  13.510  64.737  1.00  0.00    -0.390 A  
HETATM   30  N   UNL     1     -12.505  14.119  63.579  1.00  0.00    -1.106 NA 
HETATM   31  C   UNL     1     -11.144  12.407  64.720  1.00  0.00    -0.345 A  
HETATM   32  H1  UNL     1     -12.364  13.633  62.694  1.00  0.00     0.000 HD 
HETATM   33  C   UNL     1     -10.581  11.930  65.936  1.00  0.00    -0.266 A  
HETATM   34  H2  UNL     1     -12.127  15.064  63.508  1.00  0.00     0.000 HD 
HETATM   35  C   UNL     1      -9.751  10.781  65.884  1.00  0.00    -0.272 A  
HETATM   36  C   UNL     1      -9.438  10.147  64.684  1.00  0.00    -0.357 A  
HETATM   37  C   UNL     1      -9.953  10.639  63.499  1.00  0.00    -0.347 A  
HETATM   38  C   UNL     1     -10.798  11.747  63.519  1.00  0.00    -0.496 A  
ENDBRANCH  24  25
ENDBRANCH  23  24
ENDBRANCH  22  23
ENDBRANCH  21  22
ENDBRANCH  20  21
ENDBRANCH  19  20
ENDBRANCH  18  19
ENDBRANCH  17  18
ENDBRANCH  16  17
ENDBRANCH  15  16
ENDBRANCH  14  15
TORSDOF 11
ENDMDL
MODEL       89
REMARK 921   NORMALIZED FREE ENERGY PREDICTED BY IDOCK:   -6.68 KCAL/MOL
REMARK 922        TOTAL FREE ENERGY PREDICTED BY IDOCK:  -12.33 KCAL/MOL
REMARK 923 INTER-LIGAND FREE ENERGY PREDICTED BY IDOCK:  -10.33 KCAL/MOL
REMARK 924 INTRA-LIGAND FREE ENERGY PREDICTED BY IDOCK:   -1.99 KCAL/MOL
REMARK 927      BINDING AFFINITY PREDICTED BY RF-SCORE:    0.00 PKD
ROOT
HETATM    1  C   UNL     1     -11.568   7.844  72.784  1.00  0.00    -0.387 C  
HETATM    2  C   UNL     1     -11.015   6.479  72.440  1.00  0.00    -0.246 A  
HETATM    3  C   UNL     1     -11.089   5.487  73.410  1.00  0.00    -0.280 A  
HETATM    4  C   UNL     1     -10.619   4.205  73.171  1.00  0.00    -0.184 A  
HETATM    5  N   UNL     1     -10.862   3.233  74.148  1.00  0.00    -0.186 NA 
HETATM    6  C   UNL     1     -10.145   3.896  71.881  1.00  0.00    -0.204 A  
HETATM    7  H2  UNL     1     -11.862   3.194  74.342  1.00  0.00     0.000 HD 
HETATM    8  C   UNL     1      -9.767   2.583  71.517  1.00  0.00    -0.222 A  
HETATM    9  H1  UNL     1     -10.516   2.291  73.971  1.00  0.00     0.000 HD 
HETATM   10  C   UNL     1      -9.282   2.279  70.246  1.00  0.00    -0.193 A  
HETATM   11  C   UNL     1      -9.150   3.281  69.304  1.00  0.00    -0.200 A  
HETATM   12  C   UNL     1      -9.521   4.589  69.630  1.00  0.00    -0.244 A  
HETATM   13  C   UNL     1     -10.050   4.921  70.904  1.00  0.00    -0.222 A  
HETATM   14  N   UNL     1     -10.493   6.190  71.210  1.00  0.00    -0.216 NA 
ENDROOT
BRANCH  14  15
HETATM   15  C   UNL     1     -10.469   7.255  70.169  1.00  0.00    -0.218 C  
BRANCH  15  16
HETATM   16  C   UNL     1      -9.093   7.914  70.103  1.00  0.00    -0.152 C  
BRANCH  16  17
HETATM   17  C   UNL     1      -9.180   9.421  70.330  1.00  0.00    -0.285 C  
BRANCH  17  18
HETATM   18  C   UNL     1      -8.708  10.233  69.120  1.00  0.00    -0.176 C  
BRANCH  18  19
HETATM   19  C   UNL     1      -9.055   9.555  67.798  1.00  0.00    -0.133 C  
BRANCH  19  20
HETATM   20  C   UNL     1     -10.342  10.091  67.165  1.00  0.00    -0.300 C  
BRANCH  20  21
HETATM   21  C   UNL     1     -10.190  11.481  66.533  1.00  0.00    -0.253 C  
BRANCH  21  22
HETATM   22  C   UNL     1     -11.532  12.126  66.178  1.00  0.00    -0.429 C  
BRANCH  22  23
HETATM   23  C   UNL     1     -11.792  13.434  66.934  1.00  0.00    -0.453 C  
BRANCH  23  24
HETATM   24  C   UNL     1     -10.753  13.665  68.032  1.00  0.00    -0.247 C  
BRANCH  24  25
HETATM   25  N   UNL     1     -11.404  14.157  69.273  1.00  0.00    -0.269 NA 
HETATM   26  C   UNL     1     -11.513  15.502  69.507  1.00  0.00    -0.333 A  
HETATM   27  C   UNL     1     -12.190  15.957  70.641  1.00  0.00    -0.345 A  
HETATM   28  C   UNL     1     -11.001  16.587  68.587  1.00  0.00    -0.344 C  
HETATM   29  C   UNL     1     -12.739  15.079  71.562  1.00  0.00    -0.340 A  
HETATM   30  N   UNL     1     -13.522  15.623  72.585  1.00  0.00    -0.523 NA 
HETATM   31  C   UNL     1     -12.679  13.704  71.283  1.00  0.00    -0.443 A  
HETATM   32  H1  UNL     1     -13.926  14.977  73.263  1.00  0.00     0.000 HD 
HETATM   33  C   UNL     1     -11.967  13.244  70.141  1.00  0.00    -0.318 A  
HETATM   34  H2  UNL     1     -14.264  16.191  72.177  1.00  0.00     0.000 HD 
HETATM   35  C   UNL     1     -11.883  11.845  69.923  1.00  0.00    -0.418 A  
HETATM   36  C   UNL     1     -12.513  10.926  70.760  1.00  0.00    -0.489 A  
HETATM   37  C   UNL     1     -13.240  11.379  71.844  1.00  0.00    -0.485 A  
HETATM   38  C   UNL     1     -13.315  12.746  72.105  1.00  0.00    -0.593 A  
ENDBRANCH  24  25
ENDBRANCH  23  24
ENDBRANCH  22  23
ENDBRANCH  21  22
ENDBRANCH  20  21
ENDBRANCH  19  20
ENDBRANCH  18  19
ENDBRANCH  17  18
ENDBRANCH  16  17
ENDBRANCH  15  16
ENDBRANCH  14  15
TORSDOF 11
ENDMDL
MODEL       90
REMARK 921   NORMALIZED FREE ENERGY PREDICTED BY IDOCK:   -6.65 KCAL/MOL
REMARK 922        TOTAL FREE ENERGY PREDICTED BY IDOCK:  -12.29 KCAL/MOL
REMARK 923 INTER-LIGAND FREE ENERGY PREDICTED BY IDOCK:  -10.72 KCAL/MOL
REMARK 924 INTRA-LIGAND FREE ENERGY PREDICTED BY IDOCK:   -1.56 KCAL/MOL
REMARK 927      BINDING AFFINITY PREDICTED BY RF-SCORE:    0.00 PKD
ROOT
HETATM    1  C   UNL     1     -12.416  12.825  70.718  1.00  0.00    -0.357 C  
HETATM    2  C   UNL     1     -12.340  11.340  70.988  1.00  0.00    -0.366 A  
HETATM    3  C   UNL     1     -13.164  10.818  71.977  1.00  0.00    -0.466 A  
HETATM    4  C   UNL     1     -13.166   9.464  72.278  1.00  0.00    -0.446 A  
HETATM    5  N   UNL     1     -14.126   9.004  73.185  1.00  0.00    -1.223 NA 
HETATM    6  C   UNL     1     -12.379   8.603  71.490  1.00  0.00    -0.370 A  
HETATM    7  H2  UNL     1     -15.054   9.278  72.863  1.00  0.00     0.000 HD 
HETATM    8  C   UNL     1     -12.420   7.198  71.645  1.00  0.00    -0.405 A  
HETATM    9  H1  UNL     1     -14.127   8.008  73.406  1.00  0.00     0.000 HD 
HETATM   10  C   UNL     1     -11.629   6.345  70.877  1.00  0.00    -0.393 A  
HETATM   11  C   UNL     1     -10.764   6.873  69.938  1.00  0.00    -0.278 A  
HETATM   12  C   UNL     1     -10.703   8.257  69.755  1.00  0.00    -0.221 A  
HETATM   13  C   UNL     1     -11.522   9.147  70.497  1.00  0.00    -0.229 A  
HETATM   14  N   UNL     1     -11.528  10.506  70.270  1.00  0.00    -0.311 NA 
ENDROOT
BRANCH  14  15
HETATM   15  C   UNL     1     -10.690  11.079  69.180  1.00  0.00    -0.234 C  
BRANCH  15  16
HETATM   16  C   UNL     1     -11.408  10.970  67.836  1.00  0.00    -0.381 C  
BRANCH  16  17
HETATM   17  C   UNL     1     -10.553  11.517  66.696  1.00  0.00    -0.294 C  
BRANCH  17  18
HETATM   18  C   UNL     1      -9.465  10.537  66.244  1.00  0.00    -0.217 C  
BRANCH  18  19
HETATM   19  C   UNL     1      -8.066  11.134  66.360  1.00  0.00    -0.159 C  
BRANCH  19  20
HETATM   20  C   UNL     1      -8.039  12.471  67.103  1.00  0.00    -0.156 C  
BRANCH  20  21
HETATM   21  C   UNL     1      -7.326  12.412  68.461  1.00  0.00    -0.105 C  
BRANCH  21  22
HETATM   22  C   UNL     1      -6.533  13.684  68.775  1.00  0.00    -0.097 C  
BRANCH  22  23
HETATM   23  C   UNL     1      -7.022  14.909  67.992  1.00  0.00    -0.150 C  
BRANCH  23  24
HETATM   24  C   UNL     1      -7.715  15.920  68.906  1.00  0.00    -0.194 C  
BRANCH  24  25
HETATM   25  N   UNL     1      -8.409  16.960  68.104  1.00  0.00    -0.205 NA 
HETATM   26  C   UNL     1      -9.665  16.725  67.611  1.00  0.00    -0.251 A  
HETATM   27  C   UNL     1     -10.340  17.735  66.920  1.00  0.00    -0.344 A  
HETATM   28  C   UNL     1     -10.447  15.446  67.803  1.00  0.00    -0.266 C  
HETATM   29  C   UNL     1      -9.760  18.973  66.692  1.00  0.00    -0.341 A  
HETATM   30  N   UNL     1     -10.563  19.965  66.122  1.00  0.00    -0.460 NA 
HETATM   31  C   UNL     1      -8.499  19.227  67.255  1.00  0.00    -0.314 A  
HETATM   32  H1  UNL     1     -10.137  20.877  65.954  1.00  0.00     0.000 HD 
HETATM   33  C   UNL     1      -7.805  18.189  67.936  1.00  0.00    -0.244 A  
HETATM   34  H2  UNL     1     -11.403  20.086  66.687  1.00  0.00     0.000 HD 
HETATM   35  C   UNL     1      -6.510  18.470  68.443  1.00  0.00    -0.226 A  
HETATM   36  C   UNL     1      -5.931  19.732  68.336  1.00  0.00    -0.269 A  
HETATM   37  C   UNL     1      -6.627  20.750  67.712  1.00  0.00    -0.385 A  
HETATM   38  C   UNL     1      -7.887  20.499  67.173  1.00  0.00    -0.363 A  
ENDBRANCH  24  25
ENDBRANCH  23  24
ENDBRANCH  22  23
ENDBRANCH  21  22
ENDBRANCH  20  21
ENDBRANCH  19  20
ENDBRANCH  18  19
ENDBRANCH  17  18
ENDBRANCH  16  17
ENDBRANCH  15  16
ENDBRANCH  14  15
TORSDOF 11
ENDMDL
MODEL       91
REMARK 921   NORMALIZED FREE ENERGY PREDICTED BY IDOCK:   -6.65 KCAL/MOL
REMARK 922        TOTAL FREE ENERGY PREDICTED BY IDOCK:  -12.28 KCAL/MOL
REMARK 923 INTER-LIGAND FREE ENERGY PREDICTED BY IDOCK:   -9.35 KCAL/MOL
REMARK 924 INTRA-LIGAND FREE ENERGY PREDICTED BY IDOCK:   -2.93 KCAL/MOL
REMARK 927      BINDING AFFINITY PREDICTED BY RF-SCORE:    0.00 PKD
ROOT
HETATM    1  C   UNL     1     -10.760   7.307  67.838  1.00  0.00    -0.239 C  
HETATM    2  C   UNL     1     -10.538   7.386  69.331  1.00  0.00    -0.226 A  
HETATM    3  C   UNL     1     -11.529   6.879  70.162  1.00  0.00    -0.354 A  
HETATM    4  C   UNL     1     -11.398   6.899  71.542  1.00  0.00    -0.266 A  
HETATM    5  N   UNL     1     -12.375   6.241  72.295  1.00  0.00    -0.531 NA 
HETATM    6  C   UNL     1     -10.187   7.361  72.091  1.00  0.00    -0.226 A  
HETATM    7  H2  UNL     1     -12.451   5.274  71.978  1.00  0.00     0.000 HD 
HETATM    8  C   UNL     1      -9.921   7.296  73.479  1.00  0.00    -0.366 A  
HETATM    9  H1  UNL     1     -12.278   6.255  73.310  1.00  0.00     0.000 HD 
HETATM   10  C   UNL     1      -8.729   7.769  74.026  1.00  0.00    -0.316 A  
HETATM   11  C   UNL     1      -7.772   8.331  73.204  1.00  0.00    -0.180 A  
HETATM   12  C   UNL     1      -8.000   8.404  71.827  1.00  0.00    -0.173 A  
HETATM   13  C   UNL     1      -9.188   7.899  71.238  1.00  0.00    -0.146 A  
HETATM   14  N   UNL     1      -9.390   7.895  69.874  1.00  0.00    -0.157 NA 
ENDROOT
BRANCH  14  15
HETATM   15  C   UNL     1      -8.319   8.387  68.964  1.00  0.00    -0.119 C  
BRANCH  15  16
HETATM   16  C   UNL     1      -8.525   9.865  68.639  1.00  0.00    -0.114 C  
BRANCH  16  17
HETATM   17  C   UNL     1      -8.131  10.185  67.200  1.00  0.00    -0.120 C  
BRANCH  17  18
HETATM   18  C   UNL     1      -7.848  11.673  66.977  1.00  0.00    -0.164 C  
BRANCH  18  19
HETATM   19  C   UNL     1      -7.812  12.457  68.285  1.00  0.00    -0.150 C  
BRANCH  19  20
HETATM   20  C   UNL     1      -7.346  13.904  68.109  1.00  0.00    -0.123 C  
BRANCH  20  21
HETATM   21  C   UNL     1      -7.989  14.887  69.096  1.00  0.00    -0.165 C  
BRANCH  21  22
HETATM   22  C   UNL     1      -8.701  16.051  68.401  1.00  0.00    -0.186 C  
BRANCH  22  23
HETATM   23  C   UNL     1      -9.927  16.556  69.171  1.00  0.00    -0.275 C  
BRANCH  23  24
HETATM   24  C   UNL     1     -11.230  16.105  68.511  1.00  0.00    -0.365 C  
BRANCH  24  25
HETATM   25  N   UNL     1     -11.413  14.639  68.660  1.00  0.00    -0.285 NA 
HETATM   26  C   UNL     1     -11.817  14.115  69.859  1.00  0.00    -0.325 A  
HETATM   27  C   UNL     1     -12.057  12.743  69.971  1.00  0.00    -0.355 A  
HETATM   28  C   UNL     1     -12.097  14.919  71.108  1.00  0.00    -0.384 C  
HETATM   29  C   UNL     1     -11.871  11.882  68.901  1.00  0.00    -0.307 A  
HETATM   30  N   UNL     1     -12.274  10.553  69.064  1.00  0.00    -0.755 NA 
HETATM   31  C   UNL     1     -11.519  12.436  67.659  1.00  0.00    -0.399 A  
HETATM   32  H1  UNL     1     -12.138   9.919  68.277  1.00  0.00     0.000 HD 
HETATM   33  C   UNL     1     -11.251  13.829  67.556  1.00  0.00    -0.294 A  
HETATM   34  H2  UNL     1     -13.254  10.530  69.349  1.00  0.00     0.000 HD 
HETATM   35  C   UNL     1     -10.845  14.340  66.296  1.00  0.00    -0.310 A  
HETATM   36  C   UNL     1     -10.752  13.533  65.165  1.00  0.00    -0.349 A  
HETATM   37  C   UNL     1     -11.054  12.188  65.260  1.00  0.00    -0.367 A  
HETATM   38  C   UNL     1     -11.425  11.647  66.490  1.00  0.00    -0.260 A  
ENDBRANCH  24  25
ENDBRANCH  23  24
ENDBRANCH  22  23
ENDBRANCH  21  22
ENDBRANCH  20  21
ENDBRANCH  19  20
ENDBRANCH  18  19
ENDBRANCH  17  18
ENDBRANCH  16  17
ENDBRANCH  15  16
ENDBRANCH  14  15
TORSDOF 11
ENDMDL
MODEL       92
REMARK 921   NORMALIZED FREE ENERGY PREDICTED BY IDOCK:   -6.61 KCAL/MOL
REMARK 922        TOTAL FREE ENERGY PREDICTED BY IDOCK:  -12.22 KCAL/MOL
REMARK 923 INTER-LIGAND FREE ENERGY PREDICTED BY IDOCK:   -9.87 KCAL/MOL
REMARK 924 INTRA-LIGAND FREE ENERGY PREDICTED BY IDOCK:   -2.35 KCAL/MOL
REMARK 927      BINDING AFFINITY PREDICTED BY RF-SCORE:    0.00 PKD
ROOT
HETATM    1  C   UNL     1     -12.335  14.419  68.144  1.00  0.00    -0.001 C  
HETATM    2  C   UNL     1     -11.950  13.633  66.911  1.00  0.00    -0.410 A  
HETATM    3  C   UNL     1     -12.412  14.087  65.682  1.00  0.00    -0.531 A  
HETATM    4  C   UNL     1     -12.092  13.432  64.502  1.00  0.00    -0.409 A  
HETATM    5  N   UNL     1     -12.479  14.037  63.301  1.00  0.00    -1.112 NA 
HETATM    6  C   UNL     1     -11.204  12.342  64.562  1.00  0.00    -0.378 A  
HETATM    7  H2  UNL     1     -12.111  14.988  63.269  1.00  0.00     0.000 HD 
HETATM    8  C   UNL     1     -10.727  11.700  63.395  1.00  0.00    -0.460 A  
HETATM    9  H1  UNL     1     -12.244  13.556  62.434  1.00  0.00     0.000 HD 
HETATM   10  C   UNL     1      -9.861  10.609  63.453  1.00  0.00    -0.376 A  
HETATM   11  C   UNL     1      -9.455  10.120  64.680  1.00  0.00    -0.357 A  
HETATM   12  C   UNL     1      -9.902  10.736  65.852  1.00  0.00    -0.290 A  
HETATM   13  C   UNL     1     -10.756  11.869  65.823  1.00  0.00    -0.284 A  
HETATM   14  N   UNL     1     -11.140  12.532  66.969  1.00  0.00    -0.267 NA 
ENDROOT
BRANCH  14  15
HETATM   15  C   UNL     1     -10.615  12.092  68.291  1.00  0.00    -0.212 C  
BRANCH  15  16
HETATM   16  C   UNL     1     -11.396  10.885  68.806  1.00  0.00    -0.357 C  
BRANCH  16  17
HETATM   17  C   UNL     1     -10.467   9.807  69.358  1.00  0.00    -0.241 C  
BRANCH  17  18
HETATM   18  C   UNL     1      -9.038  10.310  69.581  1.00  0.00    -0.149 C  
BRANCH  18  19
HETATM   19  C   UNL     1      -8.008   9.477  68.824  1.00  0.00    -0.088 C  
BRANCH  19  20
HETATM   20  C   UNL     1      -6.990  10.325  68.058  1.00  0.00    -0.082 C  
BRANCH  20  21
HETATM   21  C   UNL     1      -6.927  11.787  68.522  1.00  0.00    -0.083 C  
BRANCH  21  22
HETATM   22  C   UNL     1      -7.101  12.786  67.374  1.00  0.00    -0.134 C  
BRANCH  22  23
HETATM   23  C   UNL     1      -6.582  14.189  67.711  1.00  0.00    -0.188 C  
BRANCH  23  24
HETATM   24  C   UNL     1      -7.644  15.023  68.429  1.00  0.00    -0.115 C  
BRANCH  24  25
HETATM   25  N   UNL     1      -7.668  16.410  67.897  1.00  0.00    -0.149 NA 
HETATM   26  C   UNL     1      -8.436  16.715  66.805  1.00  0.00    -0.235 A  
HETATM   27  C   UNL     1      -8.510  18.036  66.356  1.00  0.00    -0.262 A  
HETATM   28  C   UNL     1      -9.294  15.729  66.045  1.00  0.00    -0.384 C  
HETATM   29  C   UNL     1      -7.801  19.055  66.972  1.00  0.00    -0.242 A  
HETATM   30  N   UNL     1      -8.049  20.363  66.545  1.00  0.00    -0.518 NA 
HETATM   31  C   UNL     1      -7.066  18.744  68.128  1.00  0.00    -0.269 A  
HETATM   32  H1  UNL     1      -7.527  21.113  66.999  1.00  0.00     0.000 HD 
HETATM   33  C   UNL     1      -6.973  17.395  68.567  1.00  0.00    -0.215 A  
HETATM   34  H2  UNL     1      -9.048  20.557  66.617  1.00  0.00     0.000 HD 
HETATM   35  C   UNL     1      -6.178  17.116  69.708  1.00  0.00    -0.204 A  
HETATM   36  C   UNL     1      -5.536  18.122  70.427  1.00  0.00    -0.251 A  
HETATM   37  C   UNL     1      -5.664  19.437  70.022  1.00  0.00    -0.278 A  
HETATM   38  C   UNL     1      -6.411  19.742  68.886  1.00  0.00    -0.338 A  
ENDBRANCH  24  25
ENDBRANCH  23  24
ENDBRANCH  22  23
ENDBRANCH  21  22
ENDBRANCH  20  21
ENDBRANCH  19  20
ENDBRANCH  18  19
ENDBRANCH  17  18
ENDBRANCH  16  17
ENDBRANCH  15  16
ENDBRANCH  14  15
TORSDOF 11
ENDMDL
MODEL       93
REMARK 921   NORMALIZED FREE ENERGY PREDICTED BY IDOCK:   -6.61 KCAL/MOL
REMARK 922        TOTAL FREE ENERGY PREDICTED BY IDOCK:  -12.21 KCAL/MOL
REMARK 923 INTER-LIGAND FREE ENERGY PREDICTED BY IDOCK:  -10.14 KCAL/MOL
REMARK 924 INTRA-LIGAND FREE ENERGY PREDICTED BY IDOCK:   -2.07 KCAL/MOL
REMARK 927      BINDING AFFINITY PREDICTED BY RF-SCORE:    0.00 PKD
ROOT
HETATM    1  C   UNL     1     -12.444  10.231  71.429  1.00  0.00    -0.528 C  
HETATM    2  C   UNL     1     -11.829   8.871  71.187  1.00  0.00    -0.298 A  
HETATM    3  C   UNL     1     -12.069   7.875  72.124  1.00  0.00    -0.371 A  
HETATM    4  C   UNL     1     -11.555   6.596  71.970  1.00  0.00    -0.301 A  
HETATM    5  N   UNL     1     -11.963   5.619  72.884  1.00  0.00    -0.538 NA 
HETATM    6  C   UNL     1     -10.856   6.296  70.785  1.00  0.00    -0.339 A  
HETATM    7  H2  UNL     1     -12.982   5.573  72.896  1.00  0.00     0.000 HD 
HETATM    8  C   UNL     1     -10.410   4.986  70.491  1.00  0.00    -0.285 A  
HETATM    9  H1  UNL     1     -11.584   4.679  72.770  1.00  0.00     0.000 HD 
HETATM   10  C   UNL     1      -9.703   4.690  69.326  1.00  0.00    -0.266 A  
HETATM   11  C   UNL     1      -9.411   5.697  68.426  1.00  0.00    -0.133 A  
HETATM   12  C   UNL     1      -9.843   7.001  68.684  1.00  0.00    -0.148 A  
HETATM   13  C   UNL     1     -10.595   7.325  69.843  1.00  0.00    -0.231 A  
HETATM   14  N   UNL     1     -11.093   8.590  70.069  1.00  0.00    -0.202 NA 
ENDROOT
BRANCH  14  15
HETATM   15  C   UNL     1     -10.890   9.659  69.052  1.00  0.00    -0.183 C  
BRANCH  15  16
HETATM   16  C   UNL     1      -9.875  10.687  69.546  1.00  0.00    -0.115 C  
BRANCH  16  17
HETATM   17  C   UNL     1      -8.826  10.999  68.482  1.00  0.00    -0.159 C  
BRANCH  17  18
HETATM   18  C   UNL     1      -8.179   9.740  67.898  1.00  0.00    -0.113 C  
BRANCH  18  19
HETATM   19  C   UNL     1      -8.181   9.744  66.372  1.00  0.00    -0.120 C  
BRANCH  19  20
HETATM   20  C   UNL     1      -9.540   9.382  65.769  1.00  0.00    -0.340 C  
BRANCH  20  21
HETATM   21  C   UNL     1     -10.142  10.485  64.889  1.00  0.00    -0.403 C  
BRANCH  21  22
HETATM   22  C   UNL     1     -11.191  11.328  65.621  1.00  0.00    -0.074 C  
BRANCH  22  23
HETATM   23  C   UNL     1     -10.727  12.763  65.897  1.00  0.00    -0.294 C  
BRANCH  23  24
HETATM   24  C   UNL     1     -11.881  13.646  66.371  1.00  0.00    -0.398 C  
BRANCH  24  25
HETATM   25  N   UNL     1     -11.367  14.833  67.100  1.00  0.00    -0.347 NA 
HETATM   26  C   UNL     1     -10.873  15.906  66.407  1.00  0.00    -0.193 A  
HETATM   27  C   UNL     1     -10.459  17.048  67.098  1.00  0.00    -0.291 A  
HETATM   28  C   UNL     1     -10.786  16.001  64.901  1.00  0.00    -0.391 C  
HETATM   29  C   UNL     1     -10.507  17.120  68.481  1.00  0.00    -0.377 A  
HETATM   30  N   UNL     1     -10.210  18.350  69.074  1.00  0.00    -0.461 NA 
HETATM   31  C   UNL     1     -11.073  16.041  69.180  1.00  0.00    -0.317 A  
HETATM   32  H1  UNL     1     -10.246  18.403  70.092  1.00  0.00     0.000 HD 
HETATM   33  C   UNL     1     -11.470  14.871  68.476  1.00  0.00    -0.315 A  
HETATM   34  H2  UNL     1     -10.815  19.070  68.678  1.00  0.00     0.000 HD 
HETATM   35  C   UNL     1     -11.987  13.782  69.224  1.00  0.00    -0.399 A  
HETATM   36  C   UNL     1     -12.159  13.848  70.605  1.00  0.00    -0.417 A  
HETATM   37  C   UNL     1     -11.812  15.003  71.280  1.00  0.00    -0.389 A  
HETATM   38  C   UNL     1     -11.271  16.079  70.579  1.00  0.00    -0.397 A  
ENDBRANCH  24  25
ENDBRANCH  23  24
ENDBRANCH  22  23
ENDBRANCH  21  22
ENDBRANCH  20  21
ENDBRANCH  19  20
ENDBRANCH  18  19
ENDBRANCH  17  18
ENDBRANCH  16  17
ENDBRANCH  15  16
ENDBRANCH  14  15
TORSDOF 11
ENDMDL
MODEL       94
REMARK 921   NORMALIZED FREE ENERGY PREDICTED BY IDOCK:   -6.59 KCAL/MOL
REMARK 922        TOTAL FREE ENERGY PREDICTED BY IDOCK:  -12.18 KCAL/MOL
REMARK 923 INTER-LIGAND FREE ENERGY PREDICTED BY IDOCK:   -9.04 KCAL/MOL
REMARK 924 INTRA-LIGAND FREE ENERGY PREDICTED BY IDOCK:   -3.14 KCAL/MOL
REMARK 927      BINDING AFFINITY PREDICTED BY RF-SCORE:    0.00 PKD
ROOT
HETATM    1  C   UNL     1      -8.989   7.950  73.512  1.00  0.00    -0.343 C  
HETATM    2  C   UNL     1      -9.524   7.435  72.195  1.00  0.00    -0.139 A  
HETATM    3  C   UNL     1     -10.901   7.312  72.058  1.00  0.00    -0.264 A  
HETATM    4  C   UNL     1     -11.474   6.862  70.878  1.00  0.00    -0.323 A  
HETATM    5  N   UNL     1     -12.869   6.904  70.778  1.00  0.00    -0.486 NA 
HETATM    6  C   UNL     1     -10.632   6.618  69.777  1.00  0.00    -0.270 A  
HETATM    7  H2  UNL     1     -13.191   7.853  70.968  1.00  0.00     0.000 HD 
HETATM    8  C   UNL     1     -11.144   6.279  68.503  1.00  0.00    -0.397 A  
HETATM    9  H1  UNL     1     -13.289   6.573  69.911  1.00  0.00     0.000 HD 
HETATM   10  C   UNL     1     -10.311   6.021  67.416  1.00  0.00    -0.268 A  
HETATM   11  C   UNL     1      -8.939   6.082  67.573  1.00  0.00    -0.111 A  
HETATM   12  C   UNL     1      -8.401   6.420  68.817  1.00  0.00    -0.121 A  
HETATM   13  C   UNL     1      -9.224   6.723  69.932  1.00  0.00    -0.147 A  
HETATM   14  N   UNL     1      -8.706   7.133  71.141  1.00  0.00    -0.132 NA 
ENDROOT
BRANCH  14  15
HETATM   15  C   UNL     1      -7.237   7.320  71.293  1.00  0.00    -0.072 C  
BRANCH  15  16
HETATM   16  C   UNL     1      -6.848   8.773  71.026  1.00  0.00    -0.074 C  
BRANCH  16  17
HETATM   17  C   UNL     1      -5.571   8.871  70.196  1.00  0.00    -0.027 C  
BRANCH  17  18
HETATM   18  C   UNL     1      -5.835   8.807  68.689  1.00  0.00    -0.044 C  
BRANCH  18  19
HETATM   19  C   UNL     1      -6.645  10.000  68.192  1.00  0.00    -0.055 C  
BRANCH  19  20
HETATM   20  C   UNL     1      -7.716   9.619  67.168  1.00  0.00    -0.091 C  
BRANCH  20  21
HETATM   21  C   UNL     1      -9.152   9.831  67.664  1.00  0.00    -0.140 C  
BRANCH  21  22
HETATM   22  C   UNL     1      -9.226  10.684  68.933  1.00  0.00    -0.189 C  
BRANCH  22  23
HETATM   23  C   UNL     1     -10.384  10.291  69.859  1.00  0.00    -0.281 C  
BRANCH  23  24
HETATM   24  C   UNL     1     -11.728  10.776  69.315  1.00  0.00    -0.303 C  
BRANCH  24  25
HETATM   25  N   UNL     1     -12.278  11.860  70.167  1.00  0.00    -0.272 NA 
HETATM   26  C   UNL     1     -12.890  11.558  71.355  1.00  0.00    -0.384 A  
HETATM   27  C   UNL     1     -13.340  12.588  72.185  1.00  0.00    -0.540 A  
HETATM   28  C   UNL     1     -13.080  10.162  71.903  1.00  0.00    -0.571 C  
HETATM   29  C   UNL     1     -13.209  13.921  71.828  1.00  0.00    -0.376 A  
HETATM   30  N   UNL     1     -13.555  14.881  72.783  1.00  0.00    -0.447 NA 
HETATM   31  C   UNL     1     -12.524  14.223  70.640  1.00  0.00    -0.428 A  
HETATM   32  H1  UNL     1     -13.458  15.862  72.521  1.00  0.00     0.000 HD 
HETATM   33  C   UNL     1     -12.090  13.172  69.786  1.00  0.00    -0.270 A  
HETATM   34  H2  UNL     1     -13.029  14.709  73.641  1.00  0.00     0.000 HD 
HETATM   35  C   UNL     1     -11.450  13.520  68.568  1.00  0.00    -0.345 A  
HETATM   36  C   UNL     1     -11.195  14.844  68.218  1.00  0.00    -0.306 A  
HETATM   37  C   UNL     1     -11.580  15.861  69.072  1.00  0.00    -0.392 A  
HETATM   38  C   UNL     1     -12.241  15.555  70.260  1.00  0.00    -0.432 A  
ENDBRANCH  24  25
ENDBRANCH  23  24
ENDBRANCH  22  23
ENDBRANCH  21  22
ENDBRANCH  20  21
ENDBRANCH  19  20
ENDBRANCH  18  19
ENDBRANCH  17  18
ENDBRANCH  16  17
ENDBRANCH  15  16
ENDBRANCH  14  15
TORSDOF 11
ENDMDL
MODEL       95
REMARK 921   NORMALIZED FREE ENERGY PREDICTED BY IDOCK:   -6.58 KCAL/MOL
REMARK 922        TOTAL FREE ENERGY PREDICTED BY IDOCK:  -12.16 KCAL/MOL
REMARK 923 INTER-LIGAND FREE ENERGY PREDICTED BY IDOCK:  -10.15 KCAL/MOL
REMARK 924 INTRA-LIGAND FREE ENERGY PREDICTED BY IDOCK:   -2.01 KCAL/MOL
REMARK 927      BINDING AFFINITY PREDICTED BY RF-SCORE:    0.00 PKD
ROOT
HETATM    1  C   UNL     1     -10.406  16.945  66.343  1.00  0.00    -0.302 C  
HETATM    2  C   UNL     1     -10.802  15.999  67.454  1.00  0.00    -0.277 A  
HETATM    3  C   UNL     1     -11.032  16.538  68.713  1.00  0.00    -0.330 A  
HETATM    4  C   UNL     1     -11.414  15.742  69.783  1.00  0.00    -0.349 A  
HETATM    5  N   UNL     1     -11.761  16.384  70.976  1.00  0.00    -0.597 NA 
HETATM    6  C   UNL     1     -11.659  14.376  69.545  1.00  0.00    -0.352 A  
HETATM    7  H2  UNL     1     -12.493  17.069  70.789  1.00  0.00     0.000 HD 
HETATM    8  C   UNL     1     -12.173  13.522  70.548  1.00  0.00    -0.433 A  
HETATM    9  H1  UNL     1     -12.042  15.798  71.762  1.00  0.00     0.000 HD 
HETATM   10  C   UNL     1     -12.401  12.166  70.320  1.00  0.00    -0.269 A  
HETATM   11  C   UNL     1     -12.111  11.621  69.084  1.00  0.00    -0.315 A  
HETATM   12  C   UNL     1     -11.608  12.439  68.068  1.00  0.00    -0.403 A  
HETATM   13  C   UNL     1     -11.400  13.829  68.261  1.00  0.00    -0.285 A  
HETATM   14  N   UNL     1     -10.979  14.659  67.245  1.00  0.00    -0.308 NA 
ENDROOT
BRANCH  14  15
HETATM   15  C   UNL     1     -10.777  14.111  65.875  1.00  0.00    -0.298 C  
BRANCH  15  16
HETATM   16  C   UNL     1     -12.094  14.095  65.102  1.00  0.00    -0.416 C  
BRANCH  16  17
HETATM   17  C   UNL     1     -11.973  13.306  63.800  1.00  0.00    -0.551 C  
BRANCH  17  18
HETATM   18  C   UNL     1     -11.412  11.897  64.008  1.00  0.00    -0.480 C  
BRANCH  18  19
HETATM   19  C   UNL     1     -10.103  11.679  63.255  1.00  0.00    -0.454 C  
BRANCH  19  20
HETATM   20  C   UNL     1      -9.413  10.361  63.613  1.00  0.00    -0.353 C  
BRANCH  20  21
HETATM   21  C   UNL     1      -9.228  10.147  65.122  1.00  0.00    -0.262 C  
BRANCH  21  22
HETATM   22  C   UNL     1      -8.973   8.683  65.491  1.00  0.00    -0.209 C  
BRANCH  22  23
HETATM   23  C   UNL     1      -9.481   8.315  66.889  1.00  0.00    -0.240 C  
BRANCH  23  24
HETATM   24  C   UNL     1      -9.561   9.541  67.800  1.00  0.00    -0.133 C  
BRANCH  24  25
HETATM   25  N   UNL     1      -8.825   9.301  69.067  1.00  0.00    -0.133 NA 
HETATM   26  C   UNL     1      -7.481   9.549  69.140  1.00  0.00    -0.074 A  
HETATM   27  C   UNL     1      -6.810   9.390  70.356  1.00  0.00    -0.089 A  
HETATM   28  C   UNL     1      -6.629  10.057  67.999  1.00  0.00    -0.063 C  
HETATM   29  C   UNL     1      -7.466   8.958  71.498  1.00  0.00    -0.050 A  
HETATM   30  N   UNL     1      -6.748   8.968  72.697  1.00  0.00    -0.313 NA 
HETATM   31  C   UNL     1      -8.856   8.767  71.430  1.00  0.00    -0.292 A  
HETATM   32  H1  UNL     1      -7.231   8.650  73.537  1.00  0.00     0.000 HD 
HETATM   33  C   UNL     1      -9.530   8.905  70.185  1.00  0.00    -0.180 A  
HETATM   34  H2  UNL     1      -6.373   9.902  72.858  1.00  0.00     0.000 HD 
HETATM   35  C   UNL     1     -10.925   8.651  70.148  1.00  0.00    -0.234 A  
HETATM   36  C   UNL     1     -11.649   8.322  71.292  1.00  0.00    -0.318 A  
HETATM   37  C   UNL     1     -10.998   8.231  72.507  1.00  0.00    -0.424 A  
HETATM   38  C   UNL     1      -9.622   8.442  72.573  1.00  0.00    -0.358 A  
ENDBRANCH  24  25
ENDBRANCH  23  24
ENDBRANCH  22  23
ENDBRANCH  21  22
ENDBRANCH  20  21
ENDBRANCH  19  20
ENDBRANCH  18  19
ENDBRANCH  17  18
ENDBRANCH  16  17
ENDBRANCH  15  16
ENDBRANCH  14  15
TORSDOF 11
ENDMDL
MODEL       96
REMARK 921   NORMALIZED FREE ENERGY PREDICTED BY IDOCK:   -6.57 KCAL/MOL
REMARK 922        TOTAL FREE ENERGY PREDICTED BY IDOCK:  -12.15 KCAL/MOL
REMARK 923 INTER-LIGAND FREE ENERGY PREDICTED BY IDOCK:   -8.93 KCAL/MOL
REMARK 924 INTRA-LIGAND FREE ENERGY PREDICTED BY IDOCK:   -3.22 KCAL/MOL
REMARK 927      BINDING AFFINITY PREDICTED BY RF-SCORE:    0.00 PKD
ROOT
HETATM    1  C   UNL     1     -12.228   7.786  72.433  1.00  0.00    -0.251 C  
HETATM    2  C   UNL     1     -11.544   6.849  71.463  1.00  0.00    -0.290 A  
HETATM    3  C   UNL     1     -11.865   6.963  70.116  1.00  0.00    -0.266 A  
HETATM    4  C   UNL     1     -11.272   6.153  69.160  1.00  0.00    -0.339 A  
HETATM    5  N   UNL     1     -11.545   6.430  67.817  1.00  0.00    -0.512 NA 
HETATM    6  C   UNL     1     -10.257   5.267  69.571  1.00  0.00    -0.338 A  
HETATM    7  H2  UNL     1     -11.317   7.404  67.620  1.00  0.00     0.000 HD 
HETATM    8  C   UNL     1      -9.514   4.499  68.644  1.00  0.00    -0.220 A  
HETATM    9  H1  UNL     1     -11.109   5.834  67.114  1.00  0.00     0.000 HD 
HETATM   10  C   UNL     1      -8.520   3.609  69.050  1.00  0.00    -0.101 A  
HETATM   11  C   UNL     1      -8.248   3.452  70.396  1.00  0.00    -0.072 A  
HETATM   12  C   UNL     1      -8.960   4.201  71.337  1.00  0.00    -0.165 A  
HETATM   13  C   UNL     1      -9.952   5.140  70.951  1.00  0.00    -0.210 A  
HETATM   14  N   UNL     1     -10.604   5.940  71.864  1.00  0.00    -0.223 NA 
ENDROOT
BRANCH  14  15
HETATM   15  C   UNL     1     -10.238   5.870  73.306  1.00  0.00    -0.203 C  
BRANCH  15  16
HETATM   16  C   UNL     1      -8.839   6.438  73.535  1.00  0.00    -0.131 C  
BRANCH  16  17
HETATM   17  C   UNL     1      -8.823   7.960  73.423  1.00  0.00    -0.324 C  
BRANCH  17  18
HETATM   18  C   UNL     1      -8.340   8.452  72.055  1.00  0.00    -0.231 C  
BRANCH  18  19
HETATM   19  C   UNL     1      -7.169   7.630  71.527  1.00  0.00    -0.063 C  
BRANCH  19  20
HETATM   20  C   UNL     1      -7.246   7.369  70.020  1.00  0.00    -0.073 C  
BRANCH  20  21
HETATM   21  C   UNL     1      -8.191   8.320  69.274  1.00  0.00    -0.118 C  
BRANCH  21  22
HETATM   22  C   UNL     1      -8.302   8.001  67.780  1.00  0.00    -0.129 C  
BRANCH  22  23
HETATM   23  C   UNL     1      -8.667   9.221  66.927  1.00  0.00    -0.136 C  
BRANCH  23  24
HETATM   24  C   UNL     1     -10.171   9.290  66.659  1.00  0.00    -0.253 C  
BRANCH  24  25
HETATM   25  N   UNL     1     -10.667  10.681  66.813  1.00  0.00    -0.238 NA 
HETATM   26  C   UNL     1     -10.784  11.496  65.718  1.00  0.00    -0.271 A  
HETATM   27  C   UNL     1     -11.320  12.778  65.861  1.00  0.00    -0.363 A  
HETATM   28  C   UNL     1     -10.430  11.102  64.302  1.00  0.00    -0.427 C  
HETATM   29  C   UNL     1     -11.717  13.268  67.095  1.00  0.00    -0.376 A  
HETATM   30  N   UNL     1     -12.374  14.501  67.119  1.00  0.00    -0.545 NA 
HETATM   31  C   UNL     1     -11.653  12.404  68.201  1.00  0.00    -0.395 A  
HETATM   32  H1  UNL     1     -12.667  14.862  68.027  1.00  0.00     0.000 HD 
HETATM   33  C   UNL     1     -11.084  11.109  68.057  1.00  0.00    -0.276 A  
HETATM   34  H2  UNL     1     -13.181  14.466  66.495  1.00  0.00     0.000 HD 
HETATM   35  C   UNL     1     -10.988  10.288  69.209  1.00  0.00    -0.284 A  
HETATM   36  C   UNL     1     -11.475  10.693  70.450  1.00  0.00    -0.422 A  
HETATM   37  C   UNL     1     -12.067  11.935  70.577  1.00  0.00    -0.422 A  
HETATM   38  C   UNL     1     -12.147  12.780  69.472  1.00  0.00    -0.265 A  
ENDBRANCH  24  25
ENDBRANCH  23  24
ENDBRANCH  22  23
ENDBRANCH  21  22
ENDBRANCH  20  21
ENDBRANCH  19  20
ENDBRANCH  18  19
ENDBRANCH  17  18
ENDBRANCH  16  17
ENDBRANCH  15  16
ENDBRANCH  14  15
TORSDOF 11
ENDMDL
MODEL       97
REMARK 921   NORMALIZED FREE ENERGY PREDICTED BY IDOCK:   -6.57 KCAL/MOL
REMARK 922        TOTAL FREE ENERGY PREDICTED BY IDOCK:  -12.15 KCAL/MOL
REMARK 923 INTER-LIGAND FREE ENERGY PREDICTED BY IDOCK:  -10.42 KCAL/MOL
REMARK 924 INTRA-LIGAND FREE ENERGY PREDICTED BY IDOCK:   -1.73 KCAL/MOL
REMARK 927      BINDING AFFINITY PREDICTED BY RF-SCORE:    0.00 PKD
ROOT
HETATM    1  C   UNL     1     -11.168  11.398  64.460  1.00  0.00    -0.251 C  
HETATM    2  C   UNL     1     -10.916  12.754  65.079  1.00  0.00    -0.289 A  
HETATM    3  C   UNL     1     -11.189  13.878  64.311  1.00  0.00    -0.278 A  
HETATM    4  C   UNL     1     -10.999  15.159  64.808  1.00  0.00    -0.377 A  
HETATM    5  N   UNL     1     -11.433  16.230  64.021  1.00  0.00    -1.521 NA 
HETATM    6  C   UNL     1     -10.610  15.302  66.154  1.00  0.00    -0.318 A  
HETATM    7  H2  UNL     1     -12.419  16.101  63.790  1.00  0.00     0.000 HD 
HETATM    8  C   UNL     1     -10.518  16.569  66.775  1.00  0.00    -0.269 A  
HETATM    9  H1  UNL     1     -11.294  17.172  64.387  1.00  0.00     0.000 HD 
HETATM   10  C   UNL     1     -10.117  16.714  68.102  1.00  0.00    -0.267 A  
HETATM   11  C   UNL     1      -9.784  15.597  68.845  1.00  0.00    -0.220 A  
HETATM   12  C   UNL     1      -9.871  14.330  68.262  1.00  0.00    -0.235 A  
HETATM   13  C   UNL     1     -10.310  14.149  66.925  1.00  0.00    -0.269 A  
HETATM   14  N   UNL     1     -10.474  12.900  66.366  1.00  0.00    -0.263 NA 
ENDROOT
BRANCH  14  15
HETATM   15  C   UNL     1     -10.236  11.682  67.188  1.00  0.00    -0.213 C  
BRANCH  15  16
HETATM   16  C   UNL     1     -11.522  11.243  67.886  1.00  0.00    -0.360 C  
BRANCH  16  17
HETATM   17  C   UNL     1     -11.299  11.003  69.377  1.00  0.00    -0.352 C  
BRANCH  17  18
HETATM   18  C   UNL     1     -12.026  12.023  70.260  1.00  0.00    -0.398 C  
BRANCH  18  19
HETATM   19  C   UNL     1     -12.813  11.356  71.384  1.00  0.00    -0.502 C  
BRANCH  19  20
HETATM   20  C   UNL     1     -13.417  10.009  70.982  1.00  0.00    -0.253 C  
BRANCH  20  21
HETATM   21  C   UNL     1     -13.565   9.023  72.148  1.00  0.00    -0.523 C  
BRANCH  21  22
HETATM   22  C   UNL     1     -12.256   8.310  72.498  1.00  0.00    -0.367 C  
BRANCH  22  23
HETATM   23  C   UNL     1     -11.868   7.226  71.486  1.00  0.00    -0.335 C  
BRANCH  23  24
HETATM   24  C   UNL     1     -10.353   7.029  71.424  1.00  0.00    -0.197 C  
BRANCH  24  25
HETATM   25  N   UNL     1     -10.008   5.908  70.514  1.00  0.00    -0.182 NA 
HETATM   26  C   UNL     1      -9.752   4.662  71.022  1.00  0.00    -0.188 A  
HETATM   27  C   UNL     1      -9.500   3.596  70.155  1.00  0.00    -0.258 A  
HETATM   28  C   UNL     1      -9.779   4.302  72.490  1.00  0.00    -0.200 C  
HETATM   29  C   UNL     1      -9.472   3.768  68.780  1.00  0.00    -0.151 A  
HETATM   30  N   UNL     1      -9.356   2.622  67.988  1.00  0.00    -0.207 NA 
HETATM   31  C   UNL     1      -9.797   5.034  68.264  1.00  0.00    -0.211 A  
HETATM   32  H1  UNL     1      -9.335   2.748  66.976  1.00  0.00     0.000 HD 
HETATM   33  C   UNL     1     -10.029   6.121  69.151  1.00  0.00    -0.154 A  
HETATM   34  H2  UNL     1     -10.100   1.967  68.231  1.00  0.00     0.000 HD 
HETATM   35  C   UNL     1     -10.300   7.396  68.590  1.00  0.00    -0.215 A  
HETATM   36  C   UNL     1     -10.393   7.595  67.215  1.00  0.00    -0.367 A  
HETATM   37  C   UNL     1     -10.210   6.526  66.358  1.00  0.00    -0.039 A  
HETATM   38  C   UNL     1      -9.909   5.268  66.874  1.00  0.00    -0.191 A  
ENDBRANCH  24  25
ENDBRANCH  23  24
ENDBRANCH  22  23
ENDBRANCH  21  22
ENDBRANCH  20  21
ENDBRANCH  19  20
ENDBRANCH  18  19
ENDBRANCH  17  18
ENDBRANCH  16  17
ENDBRANCH  15  16
ENDBRANCH  14  15
TORSDOF 11
ENDMDL
MODEL       98
REMARK 921   NORMALIZED FREE ENERGY PREDICTED BY IDOCK:   -6.56 KCAL/MOL
REMARK 922        TOTAL FREE ENERGY PREDICTED BY IDOCK:  -12.13 KCAL/MOL
REMARK 923 INTER-LIGAND FREE ENERGY PREDICTED BY IDOCK:   -9.05 KCAL/MOL
REMARK 924 INTRA-LIGAND FREE ENERGY PREDICTED BY IDOCK:   -3.09 KCAL/MOL
REMARK 927      BINDING AFFINITY PREDICTED BY RF-SCORE:    0.00 PKD
ROOT
HETATM    1  C   UNL     1     -11.156  16.236  68.434  1.00  0.00    -0.362 C  
HETATM    2  C   UNL     1     -10.103  17.006  67.670  1.00  0.00    -0.298 A  
HETATM    3  C   UNL     1     -10.465  18.229  67.120  1.00  0.00    -0.417 A  
HETATM    4  C   UNL     1      -9.556  19.005  66.417  1.00  0.00    -0.353 A  
HETATM    5  N   UNL     1      -9.964  20.283  66.022  1.00  0.00    -0.622 NA 
HETATM    6  C   UNL     1      -8.219  18.570  66.349  1.00  0.00    -0.289 A  
HETATM    7  H2  UNL     1     -10.287  20.801  66.839  1.00  0.00     0.000 HD 
HETATM    8  C   UNL     1      -7.203  19.361  65.763  1.00  0.00    -0.302 A  
HETATM    9  H1  UNL     1      -9.295  20.853  65.505  1.00  0.00     0.000 HD 
HETATM   10  C   UNL     1      -5.882  18.925  65.680  1.00  0.00    -0.217 A  
HETATM   11  C   UNL     1      -5.538  17.680  66.171  1.00  0.00    -0.241 A  
HETATM   12  C   UNL     1      -6.516  16.876  66.762  1.00  0.00    -0.247 A  
HETATM   13  C   UNL     1      -7.861  17.308  66.892  1.00  0.00    -0.218 A  
HETATM   14  N   UNL     1      -8.817  16.558  67.543  1.00  0.00    -0.190 NA 
ENDROOT
BRANCH  14  15
HETATM   15  C   UNL     1      -8.437  15.268  68.183  1.00  0.00    -0.151 C  
BRANCH  15  16
HETATM   16  C   UNL     1      -8.579  14.113  67.194  1.00  0.00    -0.230 C  
BRANCH  16  17
HETATM   17  C   UNL     1      -7.507  13.049  67.412  1.00  0.00    -0.136 C  
BRANCH  17  18
HETATM   18  C   UNL     1      -7.981  11.900  68.307  1.00  0.00    -0.148 C  
BRANCH  18  19
HETATM   19  C   UNL     1      -7.121  10.651  68.148  1.00  0.00    -0.081 C  
BRANCH  19  20
HETATM   20  C   UNL     1      -6.174  10.718  66.948  1.00  0.00    -0.076 C  
BRANCH  20  21
HETATM   21  C   UNL     1      -5.972   9.371  66.241  1.00  0.00    -0.059 C  
BRANCH  21  22
HETATM   22  C   UNL     1      -6.370   9.407  64.762  1.00  0.00    -0.078 C  
BRANCH  22  23
HETATM   23  C   UNL     1      -7.533  10.363  64.472  1.00  0.00    -0.024 C  
BRANCH  23  24
HETATM   24  C   UNL     1      -8.856   9.611  64.326  1.00  0.00    -0.228 C  
BRANCH  24  25
HETATM   25  N   UNL     1      -9.773   9.941  65.447  1.00  0.00    -0.290 NA 
HETATM   26  C   UNL     1      -9.908   9.078  66.502  1.00  0.00    -0.268 A  
HETATM   27  C   UNL     1     -10.716   9.428  67.586  1.00  0.00    -0.295 A  
HETATM   28  C   UNL     1      -9.190   7.754  66.637  1.00  0.00    -0.220 C  
HETATM   29  C   UNL     1     -11.415  10.625  67.617  1.00  0.00    -0.086 A  
HETATM   30  N   UNL     1     -12.079  10.954  68.802  1.00  0.00    -0.763 NA 
HETATM   31  C   UNL     1     -11.221  11.531  66.561  1.00  0.00    -0.324 A  
HETATM   32  H1  UNL     1     -12.593  11.834  68.825  1.00  0.00     0.000 HD 
HETATM   33  C   UNL     1     -10.418  11.160  65.448  1.00  0.00    -0.259 A  
HETATM   34  H2  UNL     1     -11.417  10.930  69.578  1.00  0.00     0.000 HD 
HETATM   35  C   UNL     1     -10.291  12.083  64.378  1.00  0.00    -0.342 A  
HETATM   36  C   UNL     1     -10.883  13.343  64.412  1.00  0.00    -0.422 A  
HETATM   37  C   UNL     1     -11.628  13.716  65.515  1.00  0.00    -0.337 A  
HETATM   38  C   UNL     1     -11.799  12.821  66.570  1.00  0.00    -0.471 A  
ENDBRANCH  24  25
ENDBRANCH  23  24
ENDBRANCH  22  23
ENDBRANCH  21  22
ENDBRANCH  20  21
ENDBRANCH  19  20
ENDBRANCH  18  19
ENDBRANCH  17  18
ENDBRANCH  16  17
ENDBRANCH  15  16
ENDBRANCH  14  15
TORSDOF 11
ENDMDL
MODEL       99
REMARK 921   NORMALIZED FREE ENERGY PREDICTED BY IDOCK:   -6.56 KCAL/MOL
REMARK 922        TOTAL FREE ENERGY PREDICTED BY IDOCK:  -12.12 KCAL/MOL
REMARK 923 INTER-LIGAND FREE ENERGY PREDICTED BY IDOCK:   -8.65 KCAL/MOL
REMARK 924 INTRA-LIGAND FREE ENERGY PREDICTED BY IDOCK:   -3.48 KCAL/MOL
REMARK 927      BINDING AFFINITY PREDICTED BY RF-SCORE:    0.00 PKD
ROOT
HETATM    1  C   UNL     1     -10.033   4.888  67.627  1.00  0.00    -0.192 C  
HETATM    2  C   UNL     1     -10.106   5.779  68.846  1.00  0.00    -0.186 A  
HETATM    3  C   UNL     1     -11.353   6.264  69.221  1.00  0.00    -0.411 A  
HETATM    4  C   UNL     1     -11.510   7.075  70.334  1.00  0.00    -0.310 A  
HETATM    5  N   UNL     1     -12.815   7.400  70.720  1.00  0.00    -0.589 NA 
HETATM    6  C   UNL     1     -10.385   7.325  71.142  1.00  0.00    -0.207 A  
HETATM    7  H2  UNL     1     -13.351   6.542  70.851  1.00  0.00     0.000 HD 
HETATM    8  C   UNL     1     -10.482   8.034  72.362  1.00  0.00    -0.368 A  
HETATM    9  H1  UNL     1     -12.930   7.996  71.539  1.00  0.00     0.000 HD 
HETATM   10  C   UNL     1      -9.366   8.298  73.155  1.00  0.00    -0.281 A  
HETATM   11  C   UNL     1      -8.118   7.869  72.747  1.00  0.00    -0.183 A  
HETATM   12  C   UNL     1      -7.988   7.159  71.550  1.00  0.00    -0.102 A  
HETATM   13  C   UNL     1      -9.110   6.846  70.740  1.00  0.00    -0.154 A  
HETATM   14  N   UNL     1      -9.005   6.081  69.599  1.00  0.00    -0.131 NA 
ENDROOT
BRANCH  14  15
HETATM   15  C   UNL     1      -7.687   5.509  69.208  1.00  0.00    -0.087 C  
BRANCH  15  16
HETATM   16  C   UNL     1      -6.932   6.473  68.295  1.00  0.00    -0.080 C  
BRANCH  16  17
HETATM   17  C   UNL     1      -5.562   6.831  68.864  1.00  0.00    -0.017 C  
BRANCH  17  18
HETATM   18  C   UNL     1      -5.388   8.335  69.096  1.00  0.00    -0.031 C  
BRANCH  18  19
HETATM   19  C   UNL     1      -6.612   9.133  68.655  1.00  0.00    -0.054 C  
BRANCH  19  20
HETATM   20  C   UNL     1      -7.124  10.095  69.730  1.00  0.00    -0.127 C  
BRANCH  20  21
HETATM   21  C   UNL     1      -8.649  10.269  69.730  1.00  0.00    -0.078 C  
BRANCH  21  22
HETATM   22  C   UNL     1      -9.316   9.694  68.477  1.00  0.00    -0.138 C  
BRANCH  22  23
HETATM   23  C   UNL     1      -9.768  10.772  67.485  1.00  0.00    -0.188 C  
BRANCH  23  24
HETATM   24  C   UNL     1     -11.278  11.003  67.554  1.00  0.00    -0.302 C  
BRANCH  24  25
HETATM   25  N   UNL     1     -11.581  12.279  68.251  1.00  0.00    -0.310 NA 
HETATM   26  C   UNL     1     -11.491  13.469  67.578  1.00  0.00    -0.329 A  
HETATM   27  C   UNL     1     -11.848  14.658  68.220  1.00  0.00    -0.333 A  
HETATM   28  C   UNL     1     -11.083  13.618  66.130  1.00  0.00    -0.299 C  
HETATM   29  C   UNL     1     -12.269  14.674  69.540  1.00  0.00    -0.258 A  
HETATM   30  N   UNL     1     -12.743  15.886  70.051  1.00  0.00    -0.615 NA 
HETATM   31  C   UNL     1     -12.419  13.444  70.202  1.00  0.00    -0.243 A  
HETATM   32  H1  UNL     1     -13.053  15.898  71.023  1.00  0.00     0.000 HD 
HETATM   33  C   UNL     1     -12.031  12.239  69.554  1.00  0.00    -0.270 A  
HETATM   34  H2  UNL     1     -13.493  16.234  69.454  1.00  0.00     0.000 HD 
HETATM   35  C   UNL     1     -12.147  11.024  70.276  1.00  0.00    -0.448 A  
HETATM   36  C   UNL     1     -12.670  10.976  71.566  1.00  0.00    -0.521 A  
HETATM   37  C   UNL     1     -13.086  12.144  72.176  1.00  0.00    -0.380 A  
HETATM   38  C   UNL     1     -12.956  13.360  71.507  1.00  0.00    -0.429 A  
ENDBRANCH  24  25
ENDBRANCH  23  24
ENDBRANCH  22  23
ENDBRANCH  21  22
ENDBRANCH  20  21
ENDBRANCH  19  20
ENDBRANCH  18  19
ENDBRANCH  17  18
ENDBRANCH  16  17
ENDBRANCH  15  16
ENDBRANCH  14  15
TORSDOF 11
ENDMDL
MODEL      100
REMARK 921   NORMALIZED FREE ENERGY PREDICTED BY IDOCK:   -6.55 KCAL/MOL
REMARK 922        TOTAL FREE ENERGY PREDICTED BY IDOCK:  -12.12 KCAL/MOL
REMARK 923 INTER-LIGAND FREE ENERGY PREDICTED BY IDOCK:  -10.04 KCAL/MOL
REMARK 924 INTRA-LIGAND FREE ENERGY PREDICTED BY IDOCK:   -2.08 KCAL/MOL
REMARK 927      BINDING AFFINITY PREDICTED BY RF-SCORE:    0.00 PKD
ROOT
HETATM    1  C   UNL     1     -13.862  15.458  72.420  1.00  0.00    -0.661 C  
HETATM    2  C   UNL     1     -13.330  14.206  71.761  1.00  0.00    -0.380 A  
HETATM    3  C   UNL     1     -13.485  13.002  72.437  1.00  0.00    -0.615 A  
HETATM    4  C   UNL     1     -13.039  11.805  71.896  1.00  0.00    -0.376 A  
HETATM    5  N   UNL     1     -13.363  10.627  72.576  1.00  0.00    -0.398 NA 
HETATM    6  C   UNL     1     -12.504  11.819  70.594  1.00  0.00    -0.364 A  
HETATM    7  H2  UNL     1     -14.373  10.580  72.707  1.00  0.00     0.000 HD 
HETATM    8  C   UNL     1     -12.144  10.629  69.919  1.00  0.00    -0.372 A  
HETATM    9  H1  UNL     1     -13.034   9.747  72.178  1.00  0.00     0.000 HD 
HETATM   10  C   UNL     1     -11.598  10.642  68.637  1.00  0.00    -0.297 A  
HETATM   11  C   UNL     1     -11.386  11.846  67.993  1.00  0.00    -0.352 A  
HETATM   12  C   UNL     1     -11.737  13.040  68.629  1.00  0.00    -0.359 A  
HETATM   13  C   UNL     1     -12.327  13.056  69.920  1.00  0.00    -0.110 A  
HETATM   14  N   UNL     1     -12.749  14.221  70.523  1.00  0.00    -0.347 NA 
ENDROOT
BRANCH  14  15
HETATM   15  C   UNL     1     -12.638  15.516  69.795  1.00  0.00    -0.062 C  
BRANCH  15  16
HETATM   16  C   UNL     1     -11.200  16.031  69.830  1.00  0.00    -0.344 C  
BRANCH  16  17
HETATM   17  C   UNL     1     -10.904  16.951  68.648  1.00  0.00    -0.314 C  
BRANCH  17  18
HETATM   18  C   UNL     1     -10.025  18.145  69.029  1.00  0.00    -0.294 C  
BRANCH  18  19
HETATM   19  C   UNL     1      -8.940  18.419  67.991  1.00  0.00    -0.305 C  
BRANCH  19  20
HETATM   20  C   UNL     1      -7.532  18.083  68.488  1.00  0.00    -0.283 C  
BRANCH  20  21
HETATM   21  C   UNL     1      -6.985  16.754  67.950  1.00  0.00    -0.156 C  
BRANCH  21  22
HETATM   22  C   UNL     1      -7.523  15.537  68.708  1.00  0.00    -0.141 C  
BRANCH  22  23
HETATM   23  C   UNL     1      -8.618  14.784  67.943  1.00  0.00    -0.166 C  
BRANCH  23  24
HETATM   24  C   UNL     1      -8.444  14.922  66.430  1.00  0.00     0.134 C  
BRANCH  24  25
HETATM   25  N   UNL     1      -9.613  14.350  65.714  1.00  0.00    -0.236 NA 
HETATM   26  C   UNL     1     -10.576  15.175  65.198  1.00  0.00    -0.424 A  
HETATM   27  C   UNL     1     -11.634  14.634  64.463  1.00  0.00    -0.377 A  
HETATM   28  C   UNL     1     -10.572  16.684  65.300  1.00  0.00    -0.224 C  
HETATM   29  C   UNL     1     -11.755  13.268  64.261  1.00  0.00    -0.407 A  
HETATM   30  N   UNL     1     -12.761  12.831  63.394  1.00  0.00    -0.684 NA 
HETATM   31  C   UNL     1     -10.730  12.435  64.739  1.00  0.00    -0.332 A  
HETATM   32  H1  UNL     1     -12.851  11.826  63.245  1.00  0.00     0.000 HD 
HETATM   33  C   UNL     1      -9.669  12.987  65.508  1.00  0.00    -0.052 A  
HETATM   34  H2  UNL     1     -12.656  13.297  62.493  1.00  0.00     0.000 HD 
HETATM   35  C   UNL     1      -8.683  12.104  66.019  1.00  0.00     0.174 A  
HETATM   36  C   UNL     1      -8.701  10.738  65.748  1.00  0.00    -0.194 A  
HETATM   37  C   UNL     1      -9.710  10.212  64.965  1.00  0.00    -0.384 A  
HETATM   38  C   UNL     1     -10.713  11.046  64.475  1.00  0.00    -0.335 A  
ENDBRANCH  24  25
ENDBRANCH  23  24
ENDBRANCH  22  23
ENDBRANCH  21  22
ENDBRANCH  20  21
ENDBRANCH  19  20
ENDBRANCH  18  19
ENDBRANCH  17  18
ENDBRANCH  16  17
ENDBRANCH  15  16
ENDBRANCH  14  15
TORSDOF 11
ENDMDL
MODEL      101
REMARK 921   NORMALIZED FREE ENERGY PREDICTED BY IDOCK:   -6.54 KCAL/MOL
REMARK 922        TOTAL FREE ENERGY PREDICTED BY IDOCK:  -12.09 KCAL/MOL
REMARK 923 INTER-LIGAND FREE ENERGY PREDICTED BY IDOCK:  -10.14 KCAL/MOL
REMARK 924 INTRA-LIGAND FREE ENERGY PREDICTED BY IDOCK:   -1.95 KCAL/MOL
REMARK 927      BINDING AFFINITY PREDICTED BY RF-SCORE:    0.00 PKD
ROOT
HETATM    1  C   UNL     1     -12.968   6.910  71.571  1.00  0.00    -0.362 C  
HETATM    2  C   UNL     1     -11.786   6.223  70.926  1.00  0.00    -0.146 A  
HETATM    3  C   UNL     1     -11.511   6.519  69.597  1.00  0.00    -0.417 A  
HETATM    4  C   UNL     1     -10.437   5.944  68.934  1.00  0.00    -0.259 A  
HETATM    5  N   UNL     1     -10.149   6.404  67.646  1.00  0.00    -0.138 NA 
HETATM    6  C   UNL     1      -9.564   5.118  69.668  1.00  0.00    -0.234 A  
HETATM    7  H2  UNL     1     -10.027   7.417  67.669  1.00  0.00     0.000 HD 
HETATM    8  C   UNL     1      -8.377   4.595  69.104  1.00  0.00    -0.085 A  
HETATM    9  H1  UNL     1      -9.359   5.981  67.159  1.00  0.00     0.000 HD 
HETATM   10  C   UNL     1      -7.520   3.763  69.824  1.00  0.00    -0.052 A  
HETATM   11  C   UNL     1      -7.831   3.420  71.126  1.00  0.00    -0.054 A  
HETATM   12  C   UNL     1      -8.993   3.925  71.715  1.00  0.00    -0.153 A  
HETATM   13  C   UNL     1      -9.865   4.801  71.019  1.00  0.00    -0.197 A  
HETATM   14  N   UNL     1     -10.972   5.367  71.615  1.00  0.00    -0.169 NA 
ENDROOT
BRANCH  14  15
HETATM   15  C   UNL     1     -11.255   5.103  73.053  1.00  0.00    -0.322 C  
BRANCH  15  16
HETATM   16  C   UNL     1     -10.060   5.497  73.919  1.00  0.00    -0.232 C  
BRANCH  16  17
HETATM   17  C   UNL     1      -9.922   7.013  74.032  1.00  0.00    -0.353 C  
BRANCH  17  18
HETATM   18  C   UNL     1      -8.538   7.518  73.613  1.00  0.00    -0.242 C  
BRANCH  18  19
HETATM   19  C   UNL     1      -8.538   8.098  72.202  1.00  0.00    -0.226 C  
BRANCH  19  20
HETATM   20  C   UNL     1      -9.777   8.942  71.896  1.00  0.00    -0.349 C  
BRANCH  20  21
HETATM   21  C   UNL     1      -9.712   9.674  70.549  1.00  0.00    -0.280 C  
BRANCH  21  22
HETATM   22  C   UNL     1     -11.090  10.102  70.034  1.00  0.00    -0.368 C  
BRANCH  22  23
HETATM   23  C   UNL     1     -11.131  10.304  68.515  1.00  0.00    -0.294 C  
BRANCH  23  24
HETATM   24  C   UNL     1     -10.254  11.478  68.079  1.00  0.00    -0.191 C  
BRANCH  24  25
HETATM   25  N   UNL     1     -10.861  12.185  66.923  1.00  0.00    -0.239 NA 
HETATM   26  C   UNL     1     -11.618  13.309  67.123  1.00  0.00    -0.357 A  
HETATM   27  C   UNL     1     -12.125  14.009  66.026  1.00  0.00    -0.461 A  
HETATM   28  C   UNL     1     -11.919  13.923  68.471  1.00  0.00    -0.394 C  
HETATM   29  C   UNL     1     -11.906  13.581  64.726  1.00  0.00    -0.381 A  
HETATM   30  N   UNL     1     -12.327  14.422  63.691  1.00  0.00    -1.106 NA 
HETATM   31  C   UNL     1     -11.078  12.465  64.527  1.00  0.00    -0.360 A  
HETATM   32  H1  UNL     1     -12.166  14.108  62.734  1.00  0.00     0.000 HD 
HETATM   33  C   UNL     1     -10.584  11.741  65.647  1.00  0.00    -0.268 A  
HETATM   34  H2  UNL     1     -11.912  15.345  63.816  1.00  0.00     0.000 HD 
HETATM   35  C   UNL     1      -9.795  10.587  65.403  1.00  0.00    -0.335 A  
HETATM   36  C   UNL     1      -9.456  10.182  64.114  1.00  0.00    -0.353 A  
HETATM   37  C   UNL     1      -9.901  10.913  63.030  1.00  0.00    -0.358 A  
HETATM   38  C   UNL     1     -10.706  12.033  63.233  1.00  0.00    -0.400 A  
ENDBRANCH  24  25
ENDBRANCH  23  24
ENDBRANCH  22  23
ENDBRANCH  21  22
ENDBRANCH  20  21
ENDBRANCH  19  20
ENDBRANCH  18  19
ENDBRANCH  17  18
ENDBRANCH  16  17
ENDBRANCH  15  16
ENDBRANCH  14  15
TORSDOF 11
ENDMDL
MODEL      102
REMARK 921   NORMALIZED FREE ENERGY PREDICTED BY IDOCK:   -6.53 KCAL/MOL
REMARK 922        TOTAL FREE ENERGY PREDICTED BY IDOCK:  -12.09 KCAL/MOL
REMARK 923 INTER-LIGAND FREE ENERGY PREDICTED BY IDOCK:   -8.58 KCAL/MOL
REMARK 924 INTRA-LIGAND FREE ENERGY PREDICTED BY IDOCK:   -3.51 KCAL/MOL
REMARK 927      BINDING AFFINITY PREDICTED BY RF-SCORE:    0.00 PKD
ROOT
HETATM    1  C   UNL     1     -11.204  16.112  70.196  1.00  0.00    -0.374 C  
HETATM    2  C   UNL     1     -11.220  15.720  68.735  1.00  0.00    -0.342 A  
HETATM    3  C   UNL     1     -10.609  16.576  67.828  1.00  0.00    -0.332 A  
HETATM    4  C   UNL     1     -10.567  16.284  66.473  1.00  0.00    -0.256 A  
HETATM    5  N   UNL     1      -9.810  17.127  65.652  1.00  0.00    -0.561 NA 
HETATM    6  C   UNL     1     -11.077  15.045  66.040  1.00  0.00    -0.329 A  
HETATM    7  H2  UNL     1      -8.858  17.184  66.014  1.00  0.00     0.000 HD 
HETATM    8  C   UNL     1     -10.958  14.615  64.698  1.00  0.00    -0.340 A  
HETATM    9  H1  UNL     1      -9.779  16.912  64.656  1.00  0.00     0.000 HD 
HETATM   10  C   UNL     1     -11.477  13.396  64.264  1.00  0.00    -0.429 A  
HETATM   11  C   UNL     1     -12.141  12.576  65.157  1.00  0.00    -0.503 A  
HETATM   12  C   UNL     1     -12.269  12.969  66.492  1.00  0.00    -0.316 A  
HETATM   13  C   UNL     1     -11.721  14.187  66.970  1.00  0.00    -0.405 A  
HETATM   14  N   UNL     1     -11.773  14.548  68.299  1.00  0.00    -0.328 NA 
ENDROOT
BRANCH  14  15
HETATM   15  C   UNL     1     -12.378  13.621  69.295  1.00  0.00    -0.116 C  
BRANCH  15  16
HETATM   16  C   UNL     1     -11.318  12.685  69.873  1.00  0.00    -0.038 C  
BRANCH  16  17
HETATM   17  C   UNL     1     -11.867  11.278  70.090  1.00  0.00    -0.449 C  
BRANCH  17  18
HETATM   18  C   UNL     1     -11.399  10.285  69.023  1.00  0.00    -0.237 C  
BRANCH  18  19
HETATM   19  C   UNL     1     -10.911   8.973  69.629  1.00  0.00    -0.196 C  
BRANCH  19  20
HETATM   20  C   UNL     1     -11.201   8.855  71.127  1.00  0.00    -0.352 C  
BRANCH  20  21
HETATM   21  C   UNL     1      -9.941   8.738  71.995  1.00  0.00    -0.391 C  
BRANCH  21  22
HETATM   22  C   UNL     1      -8.762   8.099  71.255  1.00  0.00    -0.173 C  
BRANCH  22  23
HETATM   23  C   UNL     1      -7.674   9.107  70.866  1.00  0.00    -0.152 C  
BRANCH  23  24
HETATM   24  C   UNL     1      -6.863   8.624  69.664  1.00  0.00    -0.046 C  
BRANCH  24  25
HETATM   25  N   UNL     1      -7.582   8.913  68.397  1.00  0.00    -0.090 NA 
HETATM   26  C   UNL     1      -8.118   7.890  67.661  1.00  0.00    -0.124 A  
HETATM   27  C   UNL     1      -8.856   8.176  66.509  1.00  0.00    -0.173 A  
HETATM   28  C   UNL     1      -8.037   6.425  68.023  1.00  0.00    -0.116 C  
HETATM   29  C   UNL     1      -9.040   9.477  66.067  1.00  0.00    -0.176 A  
HETATM   30  N   UNL     1      -9.910   9.676  64.991  1.00  0.00    -0.434 NA 
HETATM   31  C   UNL     1      -8.541  10.523  66.862  1.00  0.00    -0.125 A  
HETATM   32  H1  UNL     1     -10.047  10.633  64.666  1.00  0.00     0.000 HD 
HETATM   33  C   UNL     1      -7.770  10.226  68.019  1.00  0.00    -0.089 A  
HETATM   34  H2  UNL     1     -10.817   9.262  65.210  1.00  0.00     0.000 HD 
HETATM   35  C   UNL     1      -7.239  11.310  68.765  1.00  0.00    -0.104 A  
HETATM   36  C   UNL     1      -7.491  12.637  68.424  1.00  0.00    -0.127 A  
HETATM   37  C   UNL     1      -8.276  12.921  67.323  1.00  0.00    -0.176 A  
HETATM   38  C   UNL     1      -8.787  11.880  66.550  1.00  0.00    -0.178 A  
ENDBRANCH  24  25
ENDBRANCH  23  24
ENDBRANCH  22  23
ENDBRANCH  21  22
ENDBRANCH  20  21
ENDBRANCH  19  20
ENDBRANCH  18  19
ENDBRANCH  17  18
ENDBRANCH  16  17
ENDBRANCH  15  16
ENDBRANCH  14  15
TORSDOF 11
ENDMDL
MODEL      103
REMARK 921   NORMALIZED FREE ENERGY PREDICTED BY IDOCK:   -6.53 KCAL/MOL
REMARK 922        TOTAL FREE ENERGY PREDICTED BY IDOCK:  -12.08 KCAL/MOL
REMARK 923 INTER-LIGAND FREE ENERGY PREDICTED BY IDOCK:  -10.18 KCAL/MOL
REMARK 924 INTRA-LIGAND FREE ENERGY PREDICTED BY IDOCK:   -1.90 KCAL/MOL
REMARK 927      BINDING AFFINITY PREDICTED BY RF-SCORE:    0.00 PKD
ROOT
HETATM    1  C   UNL     1      -7.831   7.255  70.187  1.00  0.00    -0.100 C  
HETATM    2  C   UNL     1      -9.213   7.608  70.688  1.00  0.00    -0.162 A  
HETATM    3  C   UNL     1      -9.889   6.661  71.447  1.00  0.00    -0.191 A  
HETATM    4  C   UNL     1     -11.154   6.911  71.958  1.00  0.00    -0.245 A  
HETATM    5  N   UNL     1     -11.701   5.962  72.827  1.00  0.00    -0.513 NA 
HETATM    6  C   UNL     1     -11.709   8.191  71.770  1.00  0.00    -0.343 A  
HETATM    7  H2  UNL     1     -11.053   5.799  73.598  1.00  0.00     0.000 HD 
HETATM    8  C   UNL     1     -12.936   8.570  72.365  1.00  0.00    -0.354 A  
HETATM    9  H1  UNL     1     -12.631   6.146  73.202  1.00  0.00     0.000 HD 
HETATM   10  C   UNL     1     -13.495   9.831  72.168  1.00  0.00    -0.491 A  
HETATM   11  C   UNL     1     -12.851  10.749  71.360  1.00  0.00    -0.557 A  
HETATM   12  C   UNL     1     -11.634  10.408  70.762  1.00  0.00    -0.450 A  
HETATM   13  C   UNL     1     -11.023   9.145  70.974  1.00  0.00    -0.305 A  
HETATM   14  N   UNL     1      -9.787   8.828  70.454  1.00  0.00    -0.175 NA 
ENDROOT
BRANCH  14  15
HETATM   15  C   UNL     1      -9.024   9.847  69.681  1.00  0.00    -0.216 C  
BRANCH  15  16
HETATM   16  C   UNL     1      -9.274   9.684  68.183  1.00  0.00    -0.130 C  
BRANCH  16  17
HETATM   17  C   UNL     1      -8.131  10.266  67.355  1.00  0.00    -0.110 C  
BRANCH  17  18
HETATM   18  C   UNL     1      -8.020  11.788  67.480  1.00  0.00    -0.148 C  
BRANCH  18  19
HETATM   19  C   UNL     1      -6.618  12.235  67.881  1.00  0.00    -0.087 C  
BRANCH  19  20
HETATM   20  C   UNL     1      -6.347  13.712  67.587  1.00  0.00    -0.149 C  
BRANCH  20  21
HETATM   21  C   UNL     1      -6.379  14.609  68.832  1.00  0.00    -0.088 C  
BRANCH  21  22
HETATM   22  C   UNL     1      -7.560  15.582  68.836  1.00  0.00    -0.166 C  
BRANCH  22  23
HETATM   23  C   UNL     1      -8.816  15.005  69.500  1.00  0.00    -0.060 C  
BRANCH  23  24
HETATM   24  C   UNL     1     -10.009  15.952  69.366  1.00  0.00    -0.274 C  
BRANCH  24  25
HETATM   25  N   UNL     1     -10.442  16.052  67.948  1.00  0.00    -0.283 NA 
HETATM   26  C   UNL     1     -10.230  17.207  67.243  1.00  0.00    -0.316 A  
HETATM   27  C   UNL     1     -10.573  17.267  65.890  1.00  0.00    -0.206 A  
HETATM   28  C   UNL     1      -9.578  18.453  67.796  1.00  0.00    -0.300 C  
HETATM   29  C   UNL     1     -11.154  16.191  65.238  1.00  0.00    -0.181 A  
HETATM   30  N   UNL     1     -11.329  16.293  63.855  1.00  0.00    -1.442 NA 
HETATM   31  C   UNL     1     -11.309  14.991  65.951  1.00  0.00    -0.273 A  
HETATM   32  H1  UNL     1     -11.756  15.501  63.374  1.00  0.00     0.000 HD 
HETATM   33  C   UNL     1     -10.982  14.941  67.334  1.00  0.00    -0.314 A  
HETATM   34  H2  UNL     1     -10.433  16.509  63.416  1.00  0.00     0.000 HD 
HETATM   35  C   UNL     1     -11.204  13.726  68.031  1.00  0.00    -0.293 A  
HETATM   36  C   UNL     1     -11.681  12.583  67.393  1.00  0.00    -0.432 A  
HETATM   37  C   UNL     1     -11.958  12.623  66.040  1.00  0.00    -0.478 A  
HETATM   38  C   UNL     1     -11.781  13.811  65.332  1.00  0.00    -0.346 A  
ENDBRANCH  24  25
ENDBRANCH  23  24
ENDBRANCH  22  23
ENDBRANCH  21  22
ENDBRANCH  20  21
ENDBRANCH  19  20
ENDBRANCH  18  19
ENDBRANCH  17  18
ENDBRANCH  16  17
ENDBRANCH  15  16
ENDBRANCH  14  15
TORSDOF 11
ENDMDL
MODEL      104
REMARK 921   NORMALIZED FREE ENERGY PREDICTED BY IDOCK:   -6.52 KCAL/MOL
REMARK 922        TOTAL FREE ENERGY PREDICTED BY IDOCK:  -12.07 KCAL/MOL
REMARK 923 INTER-LIGAND FREE ENERGY PREDICTED BY IDOCK:   -9.02 KCAL/MOL
REMARK 924 INTRA-LIGAND FREE ENERGY PREDICTED BY IDOCK:   -3.05 KCAL/MOL
REMARK 927      BINDING AFFINITY PREDICTED BY RF-SCORE:    0.00 PKD
ROOT
HETATM    1  C   UNL     1     -10.650   5.854  67.566  1.00  0.00    -0.347 C  
HETATM    2  C   UNL     1     -10.530   6.425  68.960  1.00  0.00    -0.224 A  
HETATM    3  C   UNL     1     -11.647   6.365  69.784  1.00  0.00    -0.397 A  
HETATM    4  C   UNL     1     -11.618   6.853  71.082  1.00  0.00    -0.319 A  
HETATM    5  N   UNL     1     -12.739   6.624  71.885  1.00  0.00    -0.482 NA 
HETATM    6  C   UNL     1     -10.394   7.331  71.588  1.00  0.00    -0.214 A  
HETATM    7  H2  UNL     1     -12.940   5.624  71.907  1.00  0.00     0.000 HD 
HETATM    8  C   UNL     1     -10.246   7.727  72.937  1.00  0.00    -0.377 A  
HETATM    9  H1  UNL     1     -12.717   6.983  72.839  1.00  0.00     0.000 HD 
HETATM   10  C   UNL     1      -9.040   8.216  73.436  1.00  0.00    -0.309 A  
HETATM   11  C   UNL     1      -7.948   8.334  72.597  1.00  0.00    -0.193 A  
HETATM   12  C   UNL     1      -8.059   7.945  71.260  1.00  0.00    -0.101 A  
HETATM   13  C   UNL     1      -9.263   7.411  70.733  1.00  0.00    -0.159 A  
HETATM   14  N   UNL     1      -9.361   6.952  69.438  1.00  0.00    -0.146 NA 
ENDROOT
BRANCH  14  15
HETATM   15  C   UNL     1      -8.162   6.960  68.555  1.00  0.00    -0.121 C  
BRANCH  15  16
HETATM   16  C   UNL     1      -7.990   8.326  67.893  1.00  0.00    -0.123 C  
BRANCH  16  17
HETATM   17  C   UNL     1      -8.097   8.232  66.374  1.00  0.00    -0.105 C  
BRANCH  17  18
HETATM   18  C   UNL     1      -8.206   9.603  65.699  1.00  0.00    -0.121 C  
BRANCH  18  19
HETATM   19  C   UNL     1      -9.621   9.897  65.212  1.00  0.00    -0.361 C  
BRANCH  19  20
HETATM   20  C   UNL     1      -9.730  11.207  64.429  1.00  0.00    -0.312 C  
BRANCH  20  21
HETATM   21  C   UNL     1     -11.095  11.419  63.761  1.00  0.00    -0.417 C  
BRANCH  21  22
HETATM   22  C   UNL     1     -11.656  12.827  63.981  1.00  0.00    -0.488 C  
BRANCH  22  23
HETATM   23  C   UNL     1     -12.738  12.883  65.066  1.00  0.00    -0.474 C  
BRANCH  23  24
HETATM   24  C   UNL     1     -12.379  13.881  66.167  1.00  0.00    -0.465 C  
BRANCH  24  25
HETATM   25  N   UNL     1     -11.023  13.603  66.705  1.00  0.00    -0.290 NA 
HETATM   26  C   UNL     1      -9.985  14.452  66.427  1.00  0.00    -0.294 A  
HETATM   27  C   UNL     1      -8.729  14.222  66.996  1.00  0.00    -0.231 A  
HETATM   28  C   UNL     1     -10.086  15.698  65.578  1.00  0.00    -0.395 C  
HETATM   29  C   UNL     1      -8.492  13.134  67.821  1.00  0.00    -0.185 A  
HETATM   30  N   UNL     1      -7.249  13.066  68.458  1.00  0.00    -0.099 NA 
HETATM   31  C   UNL     1      -9.577  12.305  68.151  1.00  0.00    -0.213 A  
HETATM   32  H1  UNL     1      -7.074  12.266  69.065  1.00  0.00     0.000 HD 
HETATM   33  C   UNL     1     -10.846  12.527  67.550  1.00  0.00    -0.232 A  
HETATM   34  H2  UNL     1      -7.092  13.927  68.983  1.00  0.00     0.000 HD 
HETATM   35  C   UNL     1     -11.902  11.635  67.868  1.00  0.00    -0.273 A  
HETATM   36  C   UNL     1     -11.742  10.592  68.778  1.00  0.00    -0.259 A  
HETATM   37  C   UNL     1     -10.518  10.406  69.392  1.00  0.00    -0.261 A  
HETATM   38  C   UNL     1      -9.450  11.245  69.078  1.00  0.00    -0.030 A  
ENDBRANCH  24  25
ENDBRANCH  23  24
ENDBRANCH  22  23
ENDBRANCH  21  22
ENDBRANCH  20  21
ENDBRANCH  19  20
ENDBRANCH  18  19
ENDBRANCH  17  18
ENDBRANCH  16  17
ENDBRANCH  15  16
ENDBRANCH  14  15
TORSDOF 11
ENDMDL
MODEL      105
REMARK 921   NORMALIZED FREE ENERGY PREDICTED BY IDOCK:   -6.52 KCAL/MOL
REMARK 922        TOTAL FREE ENERGY PREDICTED BY IDOCK:  -12.07 KCAL/MOL
REMARK 923 INTER-LIGAND FREE ENERGY PREDICTED BY IDOCK:   -9.33 KCAL/MOL
REMARK 924 INTRA-LIGAND FREE ENERGY PREDICTED BY IDOCK:   -2.74 KCAL/MOL
REMARK 927      BINDING AFFINITY PREDICTED BY RF-SCORE:    0.00 PKD
ROOT
HETATM    1  C   UNL     1     -11.150  16.496  67.990  1.00  0.00    -0.275 C  
HETATM    2  C   UNL     1      -9.980  17.454  67.998  1.00  0.00    -0.302 A  
HETATM    3  C   UNL     1     -10.162  18.703  67.417  1.00  0.00    -0.422 A  
HETATM    4  C   UNL     1      -9.145  19.646  67.395  1.00  0.00    -0.315 A  
HETATM    5  N   UNL     1      -9.457  20.924  66.919  1.00  0.00    -0.670 NA 
HETATM    6  C   UNL     1      -7.942  19.347  68.063  1.00  0.00    -0.340 A  
HETATM    7  H2  UNL     1     -10.249  21.294  67.444  1.00  0.00     0.000 HD 
HETATM    8  C   UNL     1      -6.905  20.299  68.198  1.00  0.00    -0.324 A  
HETATM    9  H1  UNL     1      -8.710  21.617  66.903  1.00  0.00     0.000 HD 
HETATM   10  C   UNL     1      -5.707  20.000  68.844  1.00  0.00    -0.276 A  
HETATM   11  C   UNL     1      -5.505  18.736  69.365  1.00  0.00    -0.214 A  
HETATM   12  C   UNL     1      -6.513  17.774  69.254  1.00  0.00    -0.244 A  
HETATM   13  C   UNL     1      -7.756  18.061  68.633  1.00  0.00    -0.296 A  
HETATM   14  N   UNL     1      -8.786  17.146  68.588  1.00  0.00    -0.271 NA 
ENDROOT
BRANCH  14  15
HETATM   15  C   UNL     1      -8.629  15.820  69.249  1.00  0.00    -0.259 C  
BRANCH  15  16
HETATM   16  C   UNL     1      -7.679  14.929  68.452  1.00  0.00    -0.115 C  
BRANCH  16  17
HETATM   17  C   UNL     1      -8.396  14.233  67.298  1.00  0.00    -0.222 C  
BRANCH  17  18
HETATM   18  C   UNL     1      -8.030  12.751  67.177  1.00  0.00    -0.112 C  
BRANCH  18  19
HETATM   19  C   UNL     1      -7.939  12.065  68.537  1.00  0.00    -0.132 C  
BRANCH  19  20
HETATM   20  C   UNL     1      -7.447  10.619  68.452  1.00  0.00    -0.093 C  
BRANCH  20  21
HETATM   21  C   UNL     1      -7.071  10.174  67.032  1.00  0.00    -0.090 C  
BRANCH  21  22
HETATM   22  C   UNL     1      -8.009   9.100  66.475  1.00  0.00    -0.100 C  
BRANCH  22  23
HETATM   23  C   UNL     1      -8.855   8.416  67.555  1.00  0.00    -0.139 C  
BRANCH  23  24
HETATM   24  C   UNL     1     -10.351   8.579  67.285  1.00  0.00    -0.302 C  
BRANCH  24  25
HETATM   25  N   UNL     1     -10.902   9.719  68.061  1.00  0.00    -0.245 NA 
HETATM   26  C   UNL     1     -11.016   9.634  69.423  1.00  0.00    -0.190 A  
HETATM   27  C   UNL     1     -11.467  10.737  70.152  1.00  0.00    -0.415 A  
HETATM   28  C   UNL     1     -10.626   8.432  70.253  1.00  0.00    -0.234 C  
HETATM   29  C   UNL     1     -11.834  11.920  69.530  1.00  0.00    -0.331 A  
HETATM   30  N   UNL     1     -12.133  13.013  70.349  1.00  0.00    -0.468 NA 
HETATM   31  C   UNL     1     -11.654  12.020  68.141  1.00  0.00    -0.403 A  
HETATM   32  H1  UNL     1     -12.402  13.884  69.891  1.00  0.00     0.000 HD 
HETATM   33  C   UNL     1     -11.219  10.887  67.399  1.00  0.00    -0.273 A  
HETATM   34  H2  UNL     1     -11.347  13.191  70.975  1.00  0.00     0.000 HD 
HETATM   35  C   UNL     1     -11.102  11.014  65.991  1.00  0.00    -0.053 A  
HETATM   36  C   UNL     1     -11.352  12.215  65.333  1.00  0.00    -0.388 A  
HETATM   37  C   UNL     1     -11.734  13.326  66.062  1.00  0.00    -0.408 A  
HETATM   38  C   UNL     1     -11.889  13.227  67.443  1.00  0.00    -0.413 A  
ENDBRANCH  24  25
ENDBRANCH  23  24
ENDBRANCH  22  23
ENDBRANCH  21  22
ENDBRANCH  20  21
ENDBRANCH  19  20
ENDBRANCH  18  19
ENDBRANCH  17  18
ENDBRANCH  16  17
ENDBRANCH  15  16
ENDBRANCH  14  15
TORSDOF 11
ENDMDL
MODEL      106
REMARK 921   NORMALIZED FREE ENERGY PREDICTED BY IDOCK:   -6.51 KCAL/MOL
REMARK 922        TOTAL FREE ENERGY PREDICTED BY IDOCK:  -12.05 KCAL/MOL
REMARK 923 INTER-LIGAND FREE ENERGY PREDICTED BY IDOCK:   -9.92 KCAL/MOL
REMARK 924 INTRA-LIGAND FREE ENERGY PREDICTED BY IDOCK:   -2.13 KCAL/MOL
REMARK 927      BINDING AFFINITY PREDICTED BY RF-SCORE:    0.00 PKD
ROOT
HETATM    1  C   UNL     1     -10.971   6.316  67.879  1.00  0.00    -0.421 C  
HETATM    2  C   UNL     1     -10.889   6.289  69.388  1.00  0.00    -0.340 A  
HETATM    3  C   UNL     1     -12.034   6.614  70.106  1.00  0.00    -0.250 A  
HETATM    4  C   UNL     1     -12.048   6.599  71.492  1.00  0.00    -0.355 A  
HETATM    5  N   UNL     1     -13.277   6.799  72.129  1.00  0.00    -0.540 NA 
HETATM    6  C   UNL     1     -10.896   6.152  72.168  1.00  0.00    -0.289 A  
HETATM    7  H2  UNL     1     -13.953   6.121  71.779  1.00  0.00     0.000 HD 
HETATM    8  C   UNL     1     -10.869   5.985  73.572  1.00  0.00    -0.222 A  
HETATM    9  H1  UNL     1     -13.287   6.788  73.149  1.00  0.00     0.000 HD 
HETATM   10  C   UNL     1      -9.724   5.559  74.244  1.00  0.00    -0.182 A  
HETATM   11  C   UNL     1      -8.568   5.298  73.533  1.00  0.00    -0.112 A  
HETATM   12  C   UNL     1      -8.563   5.447  72.143  1.00  0.00    -0.126 A  
HETATM   13  C   UNL     1      -9.723   5.845  71.429  1.00  0.00    -0.166 A  
HETATM   14  N   UNL     1      -9.752   5.919  70.053  1.00  0.00    -0.162 NA 
ENDROOT
BRANCH  14  15
HETATM   15  C   UNL     1      -8.552   5.526  69.264  1.00  0.00    -0.104 C  
BRANCH  15  16
HETATM   16  C   UNL     1      -7.901   6.752  68.626  1.00  0.00    -0.118 C  
BRANCH  16  17
HETATM   17  C   UNL     1      -6.814   7.341  69.520  1.00  0.00    -0.050 C  
BRANCH  17  18
HETATM   18  C   UNL     1      -7.338   8.442  70.448  1.00  0.00    -0.056 C  
BRANCH  18  19
HETATM   19  C   UNL     1      -8.150   9.493  69.697  1.00  0.00    -0.128 C  
BRANCH  19  20
HETATM   20  C   UNL     1      -9.579   9.641  70.222  1.00  0.00    -0.307 C  
BRANCH  20  21
HETATM   21  C   UNL     1     -10.577  10.146  69.172  1.00  0.00    -0.247 C  
BRANCH  21  22
HETATM   22  C   UNL     1     -10.225   9.700  67.750  1.00  0.00    -0.253 C  
BRANCH  22  23
HETATM   23  C   UNL     1     -10.292  10.838  66.726  1.00  0.00    -0.294 C  
BRANCH  23  24
HETATM   24  C   UNL     1     -11.518  11.724  66.948  1.00  0.00    -0.293 C  
BRANCH  24  25
HETATM   25  N   UNL     1     -11.428  12.959  66.128  1.00  0.00    -0.330 NA 
HETATM   26  C   UNL     1     -11.944  12.982  64.860  1.00  0.00    -0.396 A  
HETATM   27  C   UNL     1     -11.921  14.168  64.122  1.00  0.00    -0.421 A  
HETATM   28  C   UNL     1     -12.619  11.815  64.176  1.00  0.00    -0.207 C  
HETATM   29  C   UNL     1     -11.360  15.330  64.629  1.00  0.00    -0.358 A  
HETATM   30  N   UNL     1     -11.511  16.500  63.880  1.00  0.00    -1.599 NA 
HETATM   31  C   UNL     1     -10.890  15.314  65.953  1.00  0.00    -0.345 A  
HETATM   32  H1  UNL     1     -11.099  17.355  64.253  1.00  0.00     0.000 HD 
HETATM   33  C   UNL     1     -10.893  14.099  66.691  1.00  0.00    -0.299 A  
HETATM   34  H2  UNL     1     -12.503  16.657  63.696  1.00  0.00     0.000 HD 
HETATM   35  C   UNL     1     -10.361  14.113  68.006  1.00  0.00    -0.231 A  
HETATM   36  C   UNL     1      -9.888  15.280  68.601  1.00  0.00    -0.211 A  
HETATM   37  C   UNL     1      -9.926  16.468  67.895  1.00  0.00    -0.245 A  
HETATM   38  C   UNL     1     -10.413  16.483  66.589  1.00  0.00    -0.266 A  
ENDBRANCH  24  25
ENDBRANCH  23  24
ENDBRANCH  22  23
ENDBRANCH  21  22
ENDBRANCH  20  21
ENDBRANCH  19  20
ENDBRANCH  18  19
ENDBRANCH  17  18
ENDBRANCH  16  17
ENDBRANCH  15  16
ENDBRANCH  14  15
TORSDOF 11
ENDMDL
MODEL      107
REMARK 921   NORMALIZED FREE ENERGY PREDICTED BY IDOCK:   -6.49 KCAL/MOL
REMARK 922        TOTAL FREE ENERGY PREDICTED BY IDOCK:  -12.02 KCAL/MOL
REMARK 923 INTER-LIGAND FREE ENERGY PREDICTED BY IDOCK:  -10.98 KCAL/MOL
REMARK 924 INTRA-LIGAND FREE ENERGY PREDICTED BY IDOCK:   -1.04 KCAL/MOL
REMARK 927      BINDING AFFINITY PREDICTED BY RF-SCORE:    0.00 PKD
ROOT
HETATM    1  C   UNL     1     -11.841  11.821  68.465  1.00  0.00    -0.365 C  
HETATM    2  C   UNL     1     -11.059  10.838  69.306  1.00  0.00    -0.256 A  
HETATM    3  C   UNL     1      -9.698  10.710  69.057  1.00  0.00    -0.214 A  
HETATM    4  C   UNL     1      -8.906   9.842  69.793  1.00  0.00    -0.211 A  
HETATM    5  N   UNL     1      -7.525   9.881  69.571  1.00  0.00    -0.097 NA 
HETATM    6  C   UNL     1      -9.492   9.155  70.872  1.00  0.00    -0.343 A  
HETATM    7  H2  UNL     1      -7.190  10.836  69.701  1.00  0.00     0.000 HD 
HETATM    8  C   UNL     1      -8.729   8.351  71.751  1.00  0.00    -0.241 A  
HETATM    9  H1  UNL     1      -6.943   9.243  70.113  1.00  0.00     0.000 HD 
HETATM   10  C   UNL     1      -9.310   7.656  72.810  1.00  0.00    -0.236 A  
HETATM   11  C   UNL     1     -10.674   7.735  73.016  1.00  0.00    -0.446 A  
HETATM   12  C   UNL     1     -11.456   8.527  72.170  1.00  0.00    -0.446 A  
HETATM   13  C   UNL     1     -10.887   9.273  71.106  1.00  0.00    -0.337 A  
HETATM   14  N   UNL     1     -11.636  10.117  70.315  1.00  0.00    -0.284 NA 
ENDROOT
BRANCH  14  15
HETATM   15  C   UNL     1     -13.086  10.308  70.599  1.00  0.00    -0.226 C  
BRANCH  15  16
HETATM   16  C   UNL     1     -13.282  11.085  71.899  1.00  0.00    -0.503 C  
BRANCH  16  17
HETATM   17  C   UNL     1     -13.024  12.577  71.707  1.00  0.00    -0.419 C  
BRANCH  17  18
HETATM   18  C   UNL     1     -14.121  13.455  72.316  1.00  0.00    -0.515 C  
BRANCH  18  19
HETATM   19  C   UNL     1     -13.785  14.941  72.233  1.00  0.00    -0.564 C  
BRANCH  19  20
HETATM   20  C   UNL     1     -12.283  15.215  72.128  1.00  0.00    -0.451 C  
BRANCH  20  21
HETATM   21  C   UNL     1     -11.892  16.073  70.917  1.00  0.00    -0.409 C  
BRANCH  21  22
HETATM   22  C   UNL     1     -10.480  15.776  70.406  1.00  0.00    -0.169 C  
BRANCH  22  23
HETATM   23  C   UNL     1     -10.450  14.719  69.295  1.00  0.00    -0.231 C  
BRANCH  23  24
HETATM   24  C   UNL     1      -9.766  15.248  68.034  1.00  0.00    -0.211 C  
BRANCH  24  25
HETATM   25  N   UNL     1      -8.823  16.345  68.371  1.00  0.00    -0.206 NA 
HETATM   26  C   UNL     1      -7.585  16.056  68.880  1.00  0.00    -0.192 A  
HETATM   27  C   UNL     1      -6.676  17.089  69.125  1.00  0.00    -0.241 A  
HETATM   28  C   UNL     1      -7.064  14.664  69.157  1.00  0.00    -0.135 C  
HETATM   29  C   UNL     1      -7.003  18.416  68.892  1.00  0.00    -0.282 A  
HETATM   30  N   UNL     1      -5.985  19.364  69.029  1.00  0.00    -0.230 NA 
HETATM   31  C   UNL     1      -8.250  18.698  68.311  1.00  0.00    -0.349 A  
HETATM   32  H1  UNL     1      -6.224  20.340  68.857  1.00  0.00     0.000 HD 
HETATM   33  C   UNL     1      -9.181  17.646  68.086  1.00  0.00    -0.282 A  
HETATM   34  H2  UNL     1      -5.197  19.101  68.435  1.00  0.00     0.000 HD 
HETATM   35  C   UNL     1     -10.450  17.980  67.548  1.00  0.00    -0.408 A  
HETATM   36  C   UNL     1     -10.784  19.285  67.193  1.00  0.00    -0.584 A  
HETATM   37  C   UNL     1      -9.861  20.298  67.373  1.00  0.00    -0.586 A  
HETATM   38  C   UNL     1      -8.616  20.009  67.930  1.00  0.00    -0.309 A  
ENDBRANCH  24  25
ENDBRANCH  23  24
ENDBRANCH  22  23
ENDBRANCH  21  22
ENDBRANCH  20  21
ENDBRANCH  19  20
ENDBRANCH  18  19
ENDBRANCH  17  18
ENDBRANCH  16  17
ENDBRANCH  15  16
ENDBRANCH  14  15
TORSDOF 11
ENDMDL
MODEL      108
REMARK 921   NORMALIZED FREE ENERGY PREDICTED BY IDOCK:   -6.48 KCAL/MOL
REMARK 922        TOTAL FREE ENERGY PREDICTED BY IDOCK:  -12.00 KCAL/MOL
REMARK 923 INTER-LIGAND FREE ENERGY PREDICTED BY IDOCK:   -9.86 KCAL/MOL
REMARK 924 INTRA-LIGAND FREE ENERGY PREDICTED BY IDOCK:   -2.15 KCAL/MOL
REMARK 927      BINDING AFFINITY PREDICTED BY RF-SCORE:    0.00 PKD
ROOT
HETATM    1  C   UNL     1     -12.233   7.660  72.235  1.00  0.00    -0.261 C  
HETATM    2  C   UNL     1     -11.588   6.706  71.255  1.00  0.00    -0.323 A  
HETATM    3  C   UNL     1     -11.784   6.938  69.900  1.00  0.00    -0.199 A  
HETATM    4  C   UNL     1     -11.215   6.120  68.935  1.00  0.00    -0.261 A  
HETATM    5  N   UNL     1     -11.345   6.509  67.598  1.00  0.00    -0.702 NA 
HETATM    6  C   UNL     1     -10.349   5.093  69.356  1.00  0.00    -0.265 A  
HETATM    7  H2  UNL     1     -10.989   7.458  67.487  1.00  0.00     0.000 HD 
HETATM    8  C   UNL     1      -9.629   4.297  68.436  1.00  0.00    -0.197 A  
HETATM    9  H1  UNL     1     -10.927   5.907  66.889  1.00  0.00     0.000 HD 
HETATM   10  C   UNL     1      -8.783   3.269  68.850  1.00  0.00    -0.143 A  
HETATM   11  C   UNL     1      -8.641   2.999  70.198  1.00  0.00    -0.109 A  
HETATM   12  C   UNL     1      -9.333   3.773  71.134  1.00  0.00    -0.219 A  
HETATM   13  C   UNL     1     -10.172   4.847  70.743  1.00  0.00    -0.206 A  
HETATM   14  N   UNL     1     -10.797   5.666  71.660  1.00  0.00    -0.252 NA 
ENDROOT
BRANCH  14  15
HETATM   15  C   UNL     1     -10.560   5.465  73.116  1.00  0.00    -0.239 C  
BRANCH  15  16
HETATM   16  C   UNL     1      -9.142   5.892  73.494  1.00  0.00    -0.131 C  
BRANCH  16  17
HETATM   17  C   UNL     1      -9.087   7.361  73.903  1.00  0.00    -0.298 C  
BRANCH  17  18
HETATM   18  C   UNL     1      -8.041   8.158  73.118  1.00  0.00    -0.237 C  
BRANCH  18  19
HETATM   19  C   UNL     1      -8.191   7.981  71.610  1.00  0.00    -0.143 C  
BRANCH  19  20
HETATM   20  C   UNL     1      -8.851   9.179  70.923  1.00  0.00    -0.292 C  
BRANCH  20  21
HETATM   21  C   UNL     1      -8.926   9.054  69.396  1.00  0.00    -0.145 C  
BRANCH  21  22
HETATM   22  C   UNL     1      -9.982   9.972  68.773  1.00  0.00    -0.181 C  
BRANCH  22  23
HETATM   23  C   UNL     1     -10.834  10.706  69.815  1.00  0.00    -0.317 C  
BRANCH  23  24
HETATM   24  C   UNL     1     -11.876  11.609  69.153  1.00  0.00    -0.326 C  
BRANCH  24  25
HETATM   25  N   UNL     1     -11.587  13.038  69.438  1.00  0.00    -0.296 NA 
HETATM   26  C   UNL     1     -10.739  13.744  68.627  1.00  0.00    -0.256 A  
HETATM   27  C   UNL     1     -10.529  15.106  68.858  1.00  0.00    -0.241 A  
HETATM   28  C   UNL     1     -10.026  13.182  67.418  1.00  0.00    -0.229 C  
HETATM   29  C   UNL     1     -11.139  15.767  69.914  1.00  0.00    -0.331 A  
HETATM   30  N   UNL     1     -10.985  17.155  69.980  1.00  0.00    -0.195 NA 
HETATM   31  C   UNL     1     -12.055  15.051  70.702  1.00  0.00    -0.375 A  
HETATM   32  H1  UNL     1     -11.434  17.641  70.756  1.00  0.00     0.000 HD 
HETATM   33  C   UNL     1     -12.246  13.660  70.478  1.00  0.00    -0.368 A  
HETATM   34  H2  UNL     1     -11.291  17.571  69.100  1.00  0.00     0.000 HD 
HETATM   35  C   UNL     1     -13.140  12.962  71.331  1.00  0.00    -0.331 A  
HETATM   36  C   UNL     1     -13.860  13.605  72.335  1.00  0.00    -0.691 A  
HETATM   37  C   UNL     1     -13.704  14.965  72.521  1.00  0.00    -0.568 A  
HETATM   38  C   UNL     1     -12.809  15.675  71.722  1.00  0.00    -0.530 A  
ENDBRANCH  24  25
ENDBRANCH  23  24
ENDBRANCH  22  23
ENDBRANCH  21  22
ENDBRANCH  20  21
ENDBRANCH  19  20
ENDBRANCH  18  19
ENDBRANCH  17  18
ENDBRANCH  16  17
ENDBRANCH  15  16
ENDBRANCH  14  15
TORSDOF 11
ENDMDL
MODEL      109
REMARK 921   NORMALIZED FREE ENERGY PREDICTED BY IDOCK:   -6.48 KCAL/MOL
REMARK 922        TOTAL FREE ENERGY PREDICTED BY IDOCK:  -12.00 KCAL/MOL
REMARK 923 INTER-LIGAND FREE ENERGY PREDICTED BY IDOCK:   -8.72 KCAL/MOL
REMARK 924 INTRA-LIGAND FREE ENERGY PREDICTED BY IDOCK:   -3.28 KCAL/MOL
REMARK 927      BINDING AFFINITY PREDICTED BY RF-SCORE:    0.00 PKD
ROOT
HETATM    1  C   UNL     1      -9.023   9.922  63.914  1.00  0.00    -0.280 C  
HETATM    2  C   UNL     1      -9.727  11.042  64.645  1.00  0.00    -0.266 A  
HETATM    3  C   UNL     1     -11.030  11.344  64.269  1.00  0.00    -0.390 A  
HETATM    4  C   UNL     1     -11.751  12.348  64.898  1.00  0.00    -0.365 A  
HETATM    5  N   UNL     1     -13.100  12.489  64.554  1.00  0.00    -0.839 NA 
HETATM    6  C   UNL     1     -11.167  12.999  66.002  1.00  0.00    -0.320 A  
HETATM    7  H2  UNL     1     -13.577  11.597  64.687  1.00  0.00     0.000 HD 
HETATM    8  C   UNL     1     -11.881  13.941  66.778  1.00  0.00    -0.452 A  
HETATM    9  H1  UNL     1     -13.630  13.227  65.017  1.00  0.00     0.000 HD 
HETATM   10  C   UNL     1     -11.299  14.599  67.861  1.00  0.00    -0.332 A  
HETATM   11  C   UNL     1      -9.982  14.342  68.193  1.00  0.00    -0.223 A  
HETATM   12  C   UNL     1      -9.251  13.411  67.450  1.00  0.00    -0.213 A  
HETATM   13  C   UNL     1      -9.828  12.701  66.365  1.00  0.00    -0.259 A  
HETATM   14  N   UNL     1      -9.142  11.724  65.676  1.00  0.00    -0.099 NA 
ENDROOT
BRANCH  14  15
HETATM   15  C   UNL     1      -7.763  11.350  66.097  1.00  0.00     0.073 C  
BRANCH  15  16
HETATM   16  C   UNL     1      -7.796  10.549  67.397  1.00  0.00    -0.106 C  
BRANCH  16  17
HETATM   17  C   UNL     1      -6.470  10.641  68.148  1.00  0.00    -0.062 C  
BRANCH  17  18
HETATM   18  C   UNL     1      -6.647  10.670  69.669  1.00  0.00    -0.106 C  
BRANCH  18  19
HETATM   19  C   UNL     1      -7.849   9.848  70.126  1.00  0.00    -0.186 C  
BRANCH  19  20
HETATM   20  C   UNL     1      -7.460   8.502  70.742  1.00  0.00    -0.072 C  
BRANCH  20  21
HETATM   21  C   UNL     1      -7.627   8.445  72.266  1.00  0.00    -0.146 C  
BRANCH  21  22
HETATM   22  C   UNL     1      -8.579   7.336  72.721  1.00  0.00    -0.141 C  
BRANCH  22  23
HETATM   23  C   UNL     1     -10.002   7.836  72.999  1.00  0.00    -0.356 C  
BRANCH  23  24
HETATM   24  C   UNL     1     -11.035   7.093  72.152  1.00  0.00    -0.241 C  
BRANCH  24  25
HETATM   25  N   UNL     1     -10.787   7.320  70.705  1.00  0.00    -0.236 NA 
HETATM   26  C   UNL     1     -10.383   6.285  69.905  1.00  0.00    -0.196 A  
HETATM   27  C   UNL     1     -10.222   6.490  68.533  1.00  0.00    -0.190 A  
HETATM   28  C   UNL     1     -10.142   4.868  70.375  1.00  0.00    -0.316 C  
HETATM   29  C   UNL     1     -10.436   7.730  67.952  1.00  0.00    -0.201 A  
HETATM   30  N   UNL     1     -10.392   7.806  66.557  1.00  0.00    -0.496 NA 
HETATM   31  C   UNL     1     -10.911   8.770  68.769  1.00  0.00    -0.026 A  
HETATM   32  H1  UNL     1     -10.550   8.718  66.130  1.00  0.00     0.000 HD 
HETATM   33  C   UNL     1     -11.049   8.564  70.169  1.00  0.00    -0.188 A  
HETATM   34  H2  UNL     1     -11.049   7.132  66.162  1.00  0.00     0.000 HD 
HETATM   35  C   UNL     1     -11.479   9.655  70.967  1.00  0.00    -0.444 A  
HETATM   36  C   UNL     1     -11.813  10.890  70.414  1.00  0.00    -0.449 A  
HETATM   37  C   UNL     1     -11.719  11.073  69.048  1.00  0.00    -0.402 A  
HETATM   38  C   UNL     1     -11.267  10.031  68.239  1.00  0.00    -0.195 A  
ENDBRANCH  24  25
ENDBRANCH  23  24
ENDBRANCH  22  23
ENDBRANCH  21  22
ENDBRANCH  20  21
ENDBRANCH  19  20
ENDBRANCH  18  19
ENDBRANCH  17  18
ENDBRANCH  16  17
ENDBRANCH  15  16
ENDBRANCH  14  15
TORSDOF 11
ENDMDL
MODEL      110
REMARK 921   NORMALIZED FREE ENERGY PREDICTED BY IDOCK:   -6.48 KCAL/MOL
REMARK 922        TOTAL FREE ENERGY PREDICTED BY IDOCK:  -12.00 KCAL/MOL
REMARK 923 INTER-LIGAND FREE ENERGY PREDICTED BY IDOCK:   -9.39 KCAL/MOL
REMARK 924 INTRA-LIGAND FREE ENERGY PREDICTED BY IDOCK:   -2.61 KCAL/MOL
REMARK 927      BINDING AFFINITY PREDICTED BY RF-SCORE:    0.00 PKD
ROOT
HETATM    1  C   UNL     1     -11.732  16.188  68.759  1.00  0.00    -0.231 C  
HETATM    2  C   UNL     1     -11.993  14.974  69.623  1.00  0.00    -0.321 A  
HETATM    3  C   UNL     1     -12.457  15.186  70.915  1.00  0.00    -0.425 A  
HETATM    4  C   UNL     1     -12.735  14.128  71.767  1.00  0.00    -0.337 A  
HETATM    5  N   UNL     1     -13.332  14.426  72.997  1.00  0.00    -0.635 NA 
HETATM    6  C   UNL     1     -12.628  12.818  71.263  1.00  0.00    -0.347 A  
HETATM    7  H2  UNL     1     -14.185  14.962  72.836  1.00  0.00     0.000 HD 
HETATM    8  C   UNL     1     -13.015  11.689  72.022  1.00  0.00    -0.365 A  
HETATM    9  H1  UNL     1     -13.536  13.648  73.623  1.00  0.00     0.000 HD 
HETATM   10  C   UNL     1     -12.894  10.390  71.531  1.00  0.00    -0.569 A  
HETATM   11  C   UNL     1     -12.372  10.180  70.269  1.00  0.00    -0.211 A  
HETATM   12  C   UNL     1     -11.987  11.275  69.489  1.00  0.00    -0.421 A  
HETATM   13  C   UNL     1     -12.131  12.609  69.949  1.00  0.00    -0.252 A  
HETATM   14  N   UNL     1     -11.828  13.698  69.160  1.00  0.00    -0.329 NA 
ENDROOT
BRANCH  14  15
HETATM   15  C   UNL     1     -11.379  13.493  67.755  1.00  0.00    -0.296 C  
BRANCH  15  16
HETATM   16  C   UNL     1      -9.860  13.346  67.692  1.00  0.00    -0.226 C  
BRANCH  16  17
HETATM   17  C   UNL     1      -9.422  12.540  66.472  1.00  0.00    -0.240 C  
BRANCH  17  18
HETATM   18  C   UNL     1     -10.477  11.525  66.020  1.00  0.00    -0.298 C  
BRANCH  18  19
HETATM   19  C   UNL     1      -9.912  10.112  65.914  1.00  0.00    -0.334 C  
BRANCH  19  20
HETATM   20  C   UNL     1      -9.732   9.430  67.272  1.00  0.00    -0.215 C  
BRANCH  20  21
HETATM   21  C   UNL     1      -8.408   9.774  67.968  1.00  0.00    -0.110 C  
BRANCH  21  22
HETATM   22  C   UNL     1      -7.318   8.726  67.728  1.00  0.00    -0.088 C  
BRANCH  22  23
HETATM   23  C   UNL     1      -7.868   7.300  67.599  1.00  0.00    -0.113 C  
BRANCH  23  24
HETATM   24  C   UNL     1      -7.756   6.533  68.917  1.00  0.00    -0.109 C  
BRANCH  24  25
HETATM   25  N   UNL     1      -8.992   6.697  69.724  1.00  0.00    -0.143 NA 
HETATM   26  C   UNL     1     -10.176   6.168  69.285  1.00  0.00    -0.201 A  
HETATM   27  C   UNL     1     -11.318   6.263  70.085  1.00  0.00    -0.476 A  
HETATM   28  C   UNL     1     -10.361   5.406  67.993  1.00  0.00    -0.215 C  
HETATM   29  C   UNL     1     -11.296   6.908  71.312  1.00  0.00    -0.279 A  
HETATM   30  N   UNL     1     -12.444   6.828  72.104  1.00  0.00    -0.529 NA 
HETATM   31  C   UNL     1     -10.064   7.392  71.782  1.00  0.00    -0.197 A  
HETATM   32  H1  UNL     1     -12.428   7.302  73.007  1.00  0.00     0.000 HD 
HETATM   33  C   UNL     1      -8.910   7.315  70.955  1.00  0.00    -0.149 A  
HETATM   34  H2  UNL     1     -12.690   5.847  72.244  1.00  0.00     0.000 HD 
HETATM   35  C   UNL     1      -7.697   7.864  71.445  1.00  0.00    -0.085 A  
HETATM   36  C   UNL     1      -7.598   8.423  72.717  1.00  0.00    -0.119 A  
HETATM   37  C   UNL     1      -8.711   8.457  73.535  1.00  0.00    -0.160 A  
HETATM   38  C   UNL     1      -9.927   7.956  73.071  1.00  0.00    -0.362 A  
ENDBRANCH  24  25
ENDBRANCH  23  24
ENDBRANCH  22  23
ENDBRANCH  21  22
ENDBRANCH  20  21
ENDBRANCH  19  20
ENDBRANCH  18  19
ENDBRANCH  17  18
ENDBRANCH  16  17
ENDBRANCH  15  16
ENDBRANCH  14  15
TORSDOF 11
ENDMDL
MODEL      111
REMARK 921   NORMALIZED FREE ENERGY PREDICTED BY IDOCK:   -6.48 KCAL/MOL
REMARK 922        TOTAL FREE ENERGY PREDICTED BY IDOCK:  -11.99 KCAL/MOL
REMARK 923 INTER-LIGAND FREE ENERGY PREDICTED BY IDOCK:  -10.42 KCAL/MOL
REMARK 924 INTRA-LIGAND FREE ENERGY PREDICTED BY IDOCK:   -1.57 KCAL/MOL
REMARK 927      BINDING AFFINITY PREDICTED BY RF-SCORE:    0.00 PKD
ROOT
HETATM    1  C   UNL     1     -10.531   8.525  68.982  1.00  0.00    -0.216 C  
HETATM    2  C   UNL     1     -10.469   7.248  69.789  1.00  0.00    -0.227 A  
HETATM    3  C   UNL     1     -10.073   6.087  69.137  1.00  0.00    -0.229 A  
HETATM    4  C   UNL     1      -9.976   4.877  69.808  1.00  0.00    -0.244 A  
HETATM    5  N   UNL     1      -9.434   3.792  69.111  1.00  0.00    -0.176 NA 
HETATM    6  C   UNL     1     -10.197   4.864  71.199  1.00  0.00    -0.261 A  
HETATM    7  H2  UNL     1      -8.517   4.050  68.747  1.00  0.00     0.000 HD 
HETATM    8  C   UNL     1      -9.994   3.702  71.978  1.00  0.00    -0.232 A  
HETATM    9  H1  UNL     1      -9.363   2.903  69.605  1.00  0.00     0.000 HD 
HETATM   10  C   UNL     1     -10.229   3.683  73.352  1.00  0.00    -0.220 A  
HETATM   11  C   UNL     1     -10.684   4.823  73.986  1.00  0.00    -0.358 A  
HETATM   12  C   UNL     1     -10.888   5.991  73.246  1.00  0.00    -0.277 A  
HETATM   13  C   UNL     1     -10.624   6.049  71.853  1.00  0.00    -0.226 A  
HETATM   14  N   UNL     1     -10.747   7.215  71.128  1.00  0.00    -0.231 NA 
ENDROOT
BRANCH  14  15
HETATM   15  C   UNL     1     -11.120   8.481  71.818  1.00  0.00    -0.307 C  
BRANCH  15  16
HETATM   16  C   UNL     1     -12.619   8.513  72.110  1.00  0.00    -0.431 C  
BRANCH  16  17
HETATM   17  C   UNL     1     -13.199   9.913  71.925  1.00  0.00    -0.558 C  
BRANCH  17  18
HETATM   18  C   UNL     1     -12.374  10.777  70.965  1.00  0.00    -0.509 C  
BRANCH  18  19
HETATM   19  C   UNL     1     -12.733  12.256  71.067  1.00  0.00    -0.319 C  
BRANCH  19  20
HETATM   20  C   UNL     1     -12.004  13.125  70.039  1.00  0.00    -0.391 C  
BRANCH  20  21
HETATM   21  C   UNL     1     -12.157  14.633  70.282  1.00  0.00    -0.380 C  
BRANCH  21  22
HETATM   22  C   UNL     1     -11.677  15.480  69.100  1.00  0.00    -0.380 C  
BRANCH  22  23
HETATM   23  C   UNL     1     -12.029  14.871  67.738  1.00  0.00    -0.192 C  
BRANCH  23  24
HETATM   24  C   UNL     1     -10.876  15.012  66.744  1.00  0.00    -0.318 C  
BRANCH  24  25
HETATM   25  N   UNL     1     -10.827  13.843  65.829  1.00  0.00    -0.285 NA 
HETATM   26  C   UNL     1     -11.465  13.889  64.619  1.00  0.00    -0.377 A  
HETATM   27  C   UNL     1     -11.354  12.814  63.733  1.00  0.00    -0.520 A  
HETATM   28  C   UNL     1     -12.263  15.065  64.102  1.00  0.00    -0.234 C  
HETATM   29  C   UNL     1     -10.630  11.677  64.058  1.00  0.00    -0.373 A  
HETATM   30  N   UNL     1     -10.454  10.717  63.057  1.00  0.00    -0.727 NA 
HETATM   31  C   UNL     1      -9.927  11.664  65.274  1.00  0.00    -0.292 A  
HETATM   32  H1  UNL     1      -9.922   9.880  63.295  1.00  0.00     0.000 HD 
HETATM   33  C   UNL     1     -10.064  12.749  66.182  1.00  0.00    -0.266 A  
HETATM   34  H2  UNL     1     -10.038  11.158  62.236  1.00  0.00     0.000 HD 
HETATM   35  C   UNL     1      -9.381  12.674  67.423  1.00  0.00    -0.189 A  
HETATM   36  C   UNL     1      -8.552  11.602  67.748  1.00  0.00    -0.144 A  
HETATM   37  C   UNL     1      -8.388  10.570  66.844  1.00  0.00    -0.126 A  
HETATM   38  C   UNL     1      -9.071  10.597  65.630  1.00  0.00    -0.206 A  
ENDBRANCH  24  25
ENDBRANCH  23  24
ENDBRANCH  22  23
ENDBRANCH  21  22
ENDBRANCH  20  21
ENDBRANCH  19  20
ENDBRANCH  18  19
ENDBRANCH  17  18
ENDBRANCH  16  17
ENDBRANCH  15  16
ENDBRANCH  14  15
TORSDOF 11
ENDMDL
MODEL      112
REMARK 921   NORMALIZED FREE ENERGY PREDICTED BY IDOCK:   -6.47 KCAL/MOL
REMARK 922        TOTAL FREE ENERGY PREDICTED BY IDOCK:  -11.99 KCAL/MOL
REMARK 923 INTER-LIGAND FREE ENERGY PREDICTED BY IDOCK:   -9.94 KCAL/MOL
REMARK 924 INTRA-LIGAND FREE ENERGY PREDICTED BY IDOCK:   -2.05 KCAL/MOL
REMARK 927      BINDING AFFINITY PREDICTED BY RF-SCORE:    0.00 PKD
ROOT
HETATM    1  C   UNL     1     -10.938   6.538  67.823  1.00  0.00    -0.407 C  
HETATM    2  C   UNL     1     -10.749   6.827  69.295  1.00  0.00    -0.253 A  
HETATM    3  C   UNL     1     -11.812   6.564  70.150  1.00  0.00    -0.331 A  
HETATM    4  C   UNL     1     -11.716   6.788  71.515  1.00  0.00    -0.317 A  
HETATM    5  N   UNL     1     -12.780   6.363  72.317  1.00  0.00    -0.540 NA 
HETATM    6  C   UNL     1     -10.476   7.201  72.039  1.00  0.00    -0.232 A  
HETATM    7  H2  UNL     1     -12.954   5.372  72.150  1.00  0.00     0.000 HD 
HETATM    8  C   UNL     1     -10.256   7.328  73.430  1.00  0.00    -0.394 A  
HETATM    9  H1  UNL     1     -12.709   6.528  73.321  1.00  0.00     0.000 HD 
HETATM   10  C   UNL     1      -9.034   7.752  73.950  1.00  0.00    -0.317 A  
HETATM   11  C   UNL     1      -7.998   8.074  73.093  1.00  0.00    -0.218 A  
HETATM   12  C   UNL     1      -8.181   7.953  71.713  1.00  0.00    -0.139 A  
HETATM   13  C   UNL     1      -9.401   7.489  71.157  1.00  0.00    -0.151 A  
HETATM   14  N   UNL     1      -9.566   7.291  69.803  1.00  0.00    -0.163 NA 
ENDROOT
BRANCH  14  15
HETATM   15  C   UNL     1      -8.423   7.518  68.876  1.00  0.00    -0.129 C  
BRANCH  15  16
HETATM   16  C   UNL     1      -8.707   8.698  67.949  1.00  0.00    -0.137 C  
BRANCH  16  17
HETATM   17  C   UNL     1      -8.565  10.032  68.676  1.00  0.00    -0.123 C  
BRANCH  17  18
HETATM   18  C   UNL     1      -8.032  11.148  67.773  1.00  0.00    -0.116 C  
BRANCH  18  19
HETATM   19  C   UNL     1      -7.422  12.296  68.572  1.00  0.00    -0.113 C  
BRANCH  19  20
HETATM   20  C   UNL     1      -8.213  13.601  68.453  1.00  0.00    -0.146 C  
BRANCH  20  21
HETATM   21  C   UNL     1      -7.825  14.453  67.237  1.00  0.00    -0.188 C  
BRANCH  21  22
HETATM   22  C   UNL     1      -8.647  15.739  67.122  1.00  0.00    -0.226 C  
BRANCH  22  23
HETATM   23  C   UNL     1      -9.511  15.794  65.856  1.00  0.00    -0.377 C  
BRANCH  23  24
HETATM   24  C   UNL     1     -11.001  15.721  66.188  1.00  0.00    -0.169 C  
BRANCH  24  25
HETATM   25  N   UNL     1     -11.343  14.400  66.776  1.00  0.00    -0.340 NA 
HETATM   26  C   UNL     1     -11.270  13.267  66.011  1.00  0.00    -0.297 A  
HETATM   27  C   UNL     1     -11.522  12.021  66.590  1.00  0.00    -0.411 A  
HETATM   28  C   UNL     1     -10.866  13.228  64.554  1.00  0.00    -0.409 C  
HETATM   29  C   UNL     1     -11.876  11.897  67.924  1.00  0.00    -0.238 A  
HETATM   30  N   UNL     1     -11.967  10.605  68.450  1.00  0.00    -0.811 NA 
HETATM   31  C   UNL     1     -11.887  13.057  68.716  1.00  0.00    -0.355 A  
HETATM   32  H1  UNL     1     -12.227  10.513  69.432  1.00  0.00     0.000 HD 
HETATM   33  C   UNL     1     -11.654  14.326  68.118  1.00  0.00    -0.332 A  
HETATM   34  H2  UNL     1     -11.089  10.111  68.287  1.00  0.00     0.000 HD 
HETATM   35  C   UNL     1     -11.728  15.478  68.941  1.00  0.00    -0.385 A  
HETATM   36  C   UNL     1     -11.970  15.395  70.311  1.00  0.00    -0.386 A  
HETATM   37  C   UNL     1     -12.153  14.157  70.896  1.00  0.00    -0.416 A  
HETATM   38  C   UNL     1     -12.120  13.007  70.110  1.00  0.00    -0.377 A  
ENDBRANCH  24  25
ENDBRANCH  23  24
ENDBRANCH  22  23
ENDBRANCH  21  22
ENDBRANCH  20  21
ENDBRANCH  19  20
ENDBRANCH  18  19
ENDBRANCH  17  18
ENDBRANCH  16  17
ENDBRANCH  15  16
ENDBRANCH  14  15
TORSDOF 11
ENDMDL
MODEL      113
REMARK 921   NORMALIZED FREE ENERGY PREDICTED BY IDOCK:   -6.47 KCAL/MOL
REMARK 922        TOTAL FREE ENERGY PREDICTED BY IDOCK:  -11.98 KCAL/MOL
REMARK 923 INTER-LIGAND FREE ENERGY PREDICTED BY IDOCK:   -9.41 KCAL/MOL
REMARK 924 INTRA-LIGAND FREE ENERGY PREDICTED BY IDOCK:   -2.57 KCAL/MOL
REMARK 927      BINDING AFFINITY PREDICTED BY RF-SCORE:    0.00 PKD
ROOT
HETATM    1  C   UNL     1     -10.492  16.657  65.209  1.00  0.00    -0.195 C  
HETATM    2  C   UNL     1     -11.015  15.903  66.411  1.00  0.00    -0.115 A  
HETATM    3  C   UNL     1     -11.508  14.620  66.207  1.00  0.00    -0.351 A  
HETATM    4  C   UNL     1     -11.992  13.855  67.257  1.00  0.00    -0.411 A  
HETATM    5  N   UNL     1     -12.335  12.526  66.986  1.00  0.00    -0.290 NA 
HETATM    6  C   UNL     1     -11.888  14.370  68.563  1.00  0.00    -0.369 A  
HETATM    7  H2  UNL     1     -11.537  12.051  66.564  1.00  0.00     0.000 HD 
HETATM    8  C   UNL     1     -12.239  13.606  69.700  1.00  0.00    -0.326 A  
HETATM    9  H1  UNL     1     -12.692  11.964  67.758  1.00  0.00     0.000 HD 
HETATM   10  C   UNL     1     -12.153  14.120  70.992  1.00  0.00    -0.411 A  
HETATM   11  C   UNL     1     -11.722  15.419  71.186  1.00  0.00    -0.418 A  
HETATM   12  C   UNL     1     -11.361  16.199  70.084  1.00  0.00    -0.347 A  
HETATM   13  C   UNL     1     -11.405  15.691  68.761  1.00  0.00    -0.349 A  
HETATM   14  N   UNL     1     -10.977  16.424  67.675  1.00  0.00    -0.275 NA 
ENDROOT
BRANCH  14  15
HETATM   15  C   UNL     1     -10.398  17.781  67.878  1.00  0.00    -0.386 C  
BRANCH  15  16
HETATM   16  C   UNL     1      -8.984  17.683  68.446  1.00  0.00    -0.280 C  
BRANCH  16  17
HETATM   17  C   UNL     1      -7.932  17.695  67.340  1.00  0.00    -0.217 C  
BRANCH  17  18
HETATM   18  C   UNL     1      -7.325  16.313  67.080  1.00  0.00    -0.244 C  
BRANCH  18  19
HETATM   19  C   UNL     1      -7.703  15.304  68.160  1.00  0.00    -0.120 C  
BRANCH  19  20
HETATM   20  C   UNL     1      -8.094  13.935  67.596  1.00  0.00    -0.183 C  
BRANCH  20  21
HETATM   21  C   UNL     1      -8.643  12.965  68.650  1.00  0.00     0.053 C  
BRANCH  21  22
HETATM   22  C   UNL     1      -9.142  11.648  68.047  1.00  0.00    -0.177 C  
BRANCH  22  23
HETATM   23  C   UNL     1      -9.400  10.562  69.098  1.00  0.00    -0.200 C  
BRANCH  23  24
HETATM   24  C   UNL     1     -10.685   9.788  68.803  1.00  0.00    -0.215 C  
BRANCH  24  25
HETATM   25  N   UNL     1     -10.942   8.778  69.861  1.00  0.00    -0.218 NA 
HETATM   26  C   UNL     1     -11.701   9.103  70.953  1.00  0.00    -0.284 A  
HETATM   27  C   UNL     1     -11.999   8.127  71.908  1.00  0.00    -0.367 A  
HETATM   28  C   UNL     1     -12.323  10.458  71.206  1.00  0.00    -0.507 C  
HETATM   29  C   UNL     1     -11.523   6.830  71.795  1.00  0.00    -0.281 A  
HETATM   30  N   UNL     1     -11.991   5.889  72.717  1.00  0.00    -0.539 NA 
HETATM   31  C   UNL     1     -10.799   6.489  70.641  1.00  0.00    -0.317 A  
HETATM   32  H1  UNL     1     -11.640   4.935  72.635  1.00  0.00     0.000 HD 
HETATM   33  C   UNL     1     -10.476   7.491  69.685  1.00  0.00    -0.234 A  
HETATM   34  H2  UNL     1     -13.011   5.876  72.698  1.00  0.00     0.000 HD 
HETATM   35  C   UNL     1      -9.698   7.117  68.560  1.00  0.00    -0.143 A  
HETATM   36  C   UNL     1      -9.290   5.802  68.346  1.00  0.00    -0.130 A  
HETATM   37  C   UNL     1      -9.642   4.823  69.256  1.00  0.00    -0.243 A  
HETATM   38  C   UNL     1     -10.378   5.163  70.389  1.00  0.00    -0.326 A  
ENDBRANCH  24  25
ENDBRANCH  23  24
ENDBRANCH  22  23
ENDBRANCH  21  22
ENDBRANCH  20  21
ENDBRANCH  19  20
ENDBRANCH  18  19
ENDBRANCH  17  18
ENDBRANCH  16  17
ENDBRANCH  15  16
ENDBRANCH  14  15
TORSDOF 11
ENDMDL
MODEL      114
REMARK 921   NORMALIZED FREE ENERGY PREDICTED BY IDOCK:   -6.47 KCAL/MOL
REMARK 922        TOTAL FREE ENERGY PREDICTED BY IDOCK:  -11.98 KCAL/MOL
REMARK 923 INTER-LIGAND FREE ENERGY PREDICTED BY IDOCK:   -9.68 KCAL/MOL
REMARK 924 INTRA-LIGAND FREE ENERGY PREDICTED BY IDOCK:   -2.30 KCAL/MOL
REMARK 927      BINDING AFFINITY PREDICTED BY RF-SCORE:    0.00 PKD
ROOT
HETATM    1  C   UNL     1     -12.403   7.770  72.515  1.00  0.00    -0.135 C  
HETATM    2  C   UNL     1     -11.716   6.780  71.602  1.00  0.00    -0.314 A  
HETATM    3  C   UNL     1     -11.869   6.948  70.231  1.00  0.00    -0.311 A  
HETATM    4  C   UNL     1     -11.261   6.093  69.324  1.00  0.00    -0.367 A  
HETATM    5  N   UNL     1     -11.351   6.419  67.967  1.00  0.00    -0.599 NA 
HETATM    6  C   UNL     1     -10.398   5.098  69.820  1.00  0.00    -0.332 A  
HETATM    7  H2  UNL     1     -11.001   7.366  67.824  1.00  0.00     0.000 HD 
HETATM    8  C   UNL     1      -9.640   4.268  68.961  1.00  0.00    -0.240 A  
HETATM    9  H1  UNL     1     -10.903   5.790  67.301  1.00  0.00     0.000 HD 
HETATM   10  C   UNL     1      -8.798   3.271  69.450  1.00  0.00    -0.153 A  
HETATM   11  C   UNL     1      -8.697   3.065  70.813  1.00  0.00    -0.130 A  
HETATM   12  C   UNL     1      -9.427   3.872  71.689  1.00  0.00    -0.220 A  
HETATM   13  C   UNL     1     -10.265   4.917  71.222  1.00  0.00    -0.178 A  
HETATM   14  N   UNL     1     -10.928   5.769  72.079  1.00  0.00    -0.254 NA 
ENDROOT
BRANCH  14  15
HETATM   15  C   UNL     1     -10.736   5.638  73.550  1.00  0.00    -0.275 C  
BRANCH  15  16
HETATM   16  C   UNL     1      -9.298   5.975  73.938  1.00  0.00    -0.133 C  
BRANCH  16  17
HETATM   17  C   UNL     1      -9.091   7.481  74.079  1.00  0.00    -0.295 C  
BRANCH  17  18
HETATM   18  C   UNL     1      -7.864   7.988  73.316  1.00  0.00    -0.217 C  
BRANCH  18  19
HETATM   19  C   UNL     1      -7.992   7.778  71.810  1.00  0.00    -0.104 C  
BRANCH  19  20
HETATM   20  C   UNL     1      -8.594   8.983  71.083  1.00  0.00    -0.250 C  
BRANCH  20  21
HETATM   21  C   UNL     1      -8.542   8.873  69.553  1.00  0.00    -0.134 C  
BRANCH  21  22
HETATM   22  C   UNL     1      -9.694   9.609  68.862  1.00  0.00    -0.163 C  
BRANCH  22  23
HETATM   23  C   UNL     1     -10.675  10.255  69.847  1.00  0.00    -0.344 C  
BRANCH  23  24
HETATM   24  C   UNL     1     -11.860  10.895  69.122  1.00  0.00    -0.317 C  
BRANCH  24  25
HETATM   25  N   UNL     1     -12.110  12.265  69.636  1.00  0.00    -0.253 NA 
HETATM   26  C   UNL     1     -12.704  12.444  70.857  1.00  0.00    -0.185 A  
HETATM   27  C   UNL     1     -12.870  13.735  71.366  1.00  0.00    -0.449 A  
HETATM   28  C   UNL     1     -13.161  11.331  71.772  1.00  0.00    -0.527 C  
HETATM   29  C   UNL     1     -12.472  14.855  70.653  1.00  0.00    -0.352 A  
HETATM   30  N   UNL     1     -12.544  16.092  71.301  1.00  0.00    -0.551 NA 
HETATM   31  C   UNL     1     -11.808  14.659  69.431  1.00  0.00    -0.368 A  
HETATM   32  H1  UNL     1     -12.252  16.916  70.777  1.00  0.00     0.000 HD 
HETATM   33  C   UNL     1     -11.663  13.346  68.905  1.00  0.00    -0.328 A  
HETATM   34  H2  UNL     1     -12.021  16.045  72.176  1.00  0.00     0.000 HD 
HETATM   35  C   UNL     1     -11.034  13.196  67.643  1.00  0.00    -0.282 A  
HETATM   36  C   UNL     1     -10.518  14.282  66.939  1.00  0.00    -0.272 A  
HETATM   37  C   UNL     1     -10.622  15.552  67.474  1.00  0.00    -0.297 A  
HETATM   38  C   UNL     1     -11.263  15.738  68.697  1.00  0.00    -0.351 A  
ENDBRANCH  24  25
ENDBRANCH  23  24
ENDBRANCH  22  23
ENDBRANCH  21  22
ENDBRANCH  20  21
ENDBRANCH  19  20
ENDBRANCH  18  19
ENDBRANCH  17  18
ENDBRANCH  16  17
ENDBRANCH  15  16
ENDBRANCH  14  15
TORSDOF 11
ENDMDL
MODEL      115
REMARK 921   NORMALIZED FREE ENERGY PREDICTED BY IDOCK:   -6.46 KCAL/MOL
REMARK 922        TOTAL FREE ENERGY PREDICTED BY IDOCK:  -11.97 KCAL/MOL
REMARK 923 INTER-LIGAND FREE ENERGY PREDICTED BY IDOCK:   -9.20 KCAL/MOL
REMARK 924 INTRA-LIGAND FREE ENERGY PREDICTED BY IDOCK:   -2.76 KCAL/MOL
REMARK 927      BINDING AFFINITY PREDICTED BY RF-SCORE:    0.00 PKD
ROOT
HETATM    1  C   UNL     1     -11.360  16.517  68.322  1.00  0.00    -0.180 C  
HETATM    2  C   UNL     1     -10.161  17.411  68.096  1.00  0.00    -0.350 A  
HETATM    3  C   UNL     1     -10.396  18.731  67.735  1.00  0.00    -0.467 A  
HETATM    4  C   UNL     1      -9.353  19.620  67.523  1.00  0.00    -0.328 A  
HETATM    5  N   UNL     1      -9.680  20.962  67.303  1.00  0.00    -0.615 NA 
HETATM    6  C   UNL     1      -8.039  19.182  67.776  1.00  0.00    -0.310 A  
HETATM    7  H2  UNL     1     -10.259  21.299  68.073  1.00  0.00     0.000 HD 
HETATM    8  C   UNL     1      -6.931  20.058  67.710  1.00  0.00    -0.305 A  
HETATM    9  H1  UNL     1      -8.913  21.616  67.147  1.00  0.00     0.000 HD 
HETATM   10  C   UNL     1      -5.628  19.622  67.944  1.00  0.00    -0.208 A  
HETATM   11  C   UNL     1      -5.392  18.293  68.241  1.00  0.00    -0.167 A  
HETATM   12  C   UNL     1      -6.466  17.402  68.321  1.00  0.00    -0.172 A  
HETATM   13  C   UNL     1      -7.806  17.825  68.123  1.00  0.00    -0.264 A  
HETATM   14  N   UNL     1      -8.878  16.973  68.277  1.00  0.00    -0.234 NA 
ENDROOT
BRANCH  14  15
HETATM   15  C   UNL     1      -8.651  15.567  68.714  1.00  0.00    -0.188 C  
BRANCH  15  16
HETATM   16  C   UNL     1      -8.658  14.622  67.514  1.00  0.00    -0.196 C  
BRANCH  16  17
HETATM   17  C   UNL     1      -7.521  13.608  67.590  1.00  0.00    -0.191 C  
BRANCH  17  18
HETATM   18  C   UNL     1      -7.904  12.340  68.359  1.00  0.00    -0.151 C  
BRANCH  18  19
HETATM   19  C   UNL     1      -7.443  11.071  67.648  1.00  0.00    -0.096 C  
BRANCH  19  20
HETATM   20  C   UNL     1      -7.394  11.216  66.125  1.00  0.00    -0.007 C  
BRANCH  20  21
HETATM   21  C   UNL     1      -7.807   9.948  65.367  1.00  0.00    -0.132 C  
BRANCH  21  22
HETATM   22  C   UNL     1      -8.961  10.186  64.389  1.00  0.00    -0.264 C  
BRANCH  22  23
HETATM   23  C   UNL     1      -9.799  11.423  64.732  1.00  0.00    -0.302 C  
BRANCH  23  24
HETATM   24  C   UNL     1     -11.174  11.037  65.280  1.00  0.00     0.174 C  
BRANCH  24  25
HETATM   25  N   UNL     1     -11.329  11.505  66.681  1.00  0.00    -0.397 NA 
HETATM   26  C   UNL     1     -11.800  12.765  66.938  1.00  0.00    -0.371 A  
HETATM   27  C   UNL     1     -12.012  13.171  68.258  1.00  0.00    -0.328 A  
HETATM   28  C   UNL     1     -12.184  13.779  65.885  1.00  0.00    -0.501 C  
HETATM   29  C   UNL     1     -11.732  12.338  69.329  1.00  0.00    -0.330 A  
HETATM   30  N   UNL     1     -12.112  12.774  70.602  1.00  0.00    -0.509 NA 
HETATM   31  C   UNL     1     -11.311  11.026  69.055  1.00  0.00    -0.345 A  
HETATM   32  H1  UNL     1     -11.907  12.161  71.391  1.00  0.00     0.000 HD 
HETATM   33  C   UNL     1     -11.072  10.625  67.712  1.00  0.00    -0.321 A  
HETATM   34  H2  UNL     1     -13.108  12.997  70.599  1.00  0.00     0.000 HD 
HETATM   35  C   UNL     1     -10.595   9.309  67.481  1.00  0.00    -0.329 A  
HETATM   36  C   UNL     1     -10.405   8.398  68.518  1.00  0.00    -0.232 A  
HETATM   37  C   UNL     1     -10.679   8.778  69.818  1.00  0.00    -0.220 A  
HETATM   38  C   UNL     1     -11.118  10.074  70.083  1.00  0.00    -0.371 A  
ENDBRANCH  24  25
ENDBRANCH  23  24
ENDBRANCH  22  23
ENDBRANCH  21  22
ENDBRANCH  20  21
ENDBRANCH  19  20
ENDBRANCH  18  19
ENDBRANCH  17  18
ENDBRANCH  16  17
ENDBRANCH  15  16
ENDBRANCH  14  15
TORSDOF 11
ENDMDL
MODEL      116
REMARK 921   NORMALIZED FREE ENERGY PREDICTED BY IDOCK:   -6.45 KCAL/MOL
REMARK 922        TOTAL FREE ENERGY PREDICTED BY IDOCK:  -11.96 KCAL/MOL
REMARK 923 INTER-LIGAND FREE ENERGY PREDICTED BY IDOCK:   -8.89 KCAL/MOL
REMARK 924 INTRA-LIGAND FREE ENERGY PREDICTED BY IDOCK:   -3.07 KCAL/MOL
REMARK 927      BINDING AFFINITY PREDICTED BY RF-SCORE:    0.00 PKD
ROOT
HETATM    1  C   UNL     1     -11.021  16.682  68.808  1.00  0.00    -0.309 C  
HETATM    2  C   UNL     1     -11.557  15.587  69.703  1.00  0.00    -0.348 A  
HETATM    3  C   UNL     1     -12.284  15.965  70.825  1.00  0.00    -0.373 A  
HETATM    4  C   UNL     1     -12.823  15.024  71.689  1.00  0.00    -0.345 A  
HETATM    5  N   UNL     1     -13.657  15.487  72.712  1.00  0.00    -0.537 NA 
HETATM    6  C   UNL     1     -12.701  13.662  71.354  1.00  0.00    -0.437 A  
HETATM    7  H2  UNL     1     -14.411  16.043  72.306  1.00  0.00     0.000 HD 
HETATM    8  C   UNL     1     -13.330  12.646  72.111  1.00  0.00    -0.570 A  
HETATM    9  H1  UNL     1     -14.054  14.795  73.347  1.00  0.00     0.000 HD 
HETATM   10  C   UNL     1     -13.196  11.296  71.791  1.00  0.00    -0.480 A  
HETATM   11  C   UNL     1     -12.421  10.920  70.710  1.00  0.00    -0.489 A  
HETATM   12  C   UNL     1     -11.791  11.900  69.938  1.00  0.00    -0.418 A  
HETATM   13  C   UNL     1     -11.938  13.283  70.219  1.00  0.00    -0.300 A  
HETATM   14  N   UNL     1     -11.386  14.261  69.419  1.00  0.00    -0.271 NA 
ENDROOT
BRANCH  14  15
HETATM   15  C   UNL     1     -10.648  13.878  68.183  1.00  0.00    -0.252 C  
BRANCH  15  16
HETATM   16  C   UNL     1      -9.140  13.932  68.418  1.00  0.00    -0.184 C  
BRANCH  16  17
HETATM   17  C   UNL     1      -8.372  13.208  67.316  1.00  0.00    -0.182 C  
BRANCH  17  18
HETATM   18  C   UNL     1      -7.401  12.155  67.860  1.00  0.00    -0.108 C  
BRANCH  18  19
HETATM   19  C   UNL     1      -8.091  11.151  68.778  1.00  0.00    -0.140 C  
BRANCH  19  20
HETATM   20  C   UNL     1      -7.153  10.055  69.288  1.00  0.00    -0.074 C  
BRANCH  20  21
HETATM   21  C   UNL     1      -7.674   9.322  70.532  1.00  0.00    -0.160 C  
BRANCH  21  22
HETATM   22  C   UNL     1      -9.197   9.166  70.539  1.00  0.00    -0.286 C  
BRANCH  22  23
HETATM   23  C   UNL     1      -9.657   7.712  70.379  1.00  0.00    -0.168 C  
BRANCH  23  24
HETATM   24  C   UNL     1     -10.485   7.521  69.108  1.00  0.00    -0.215 C  
BRANCH  24  25
HETATM   25  N   UNL     1      -9.623   7.610  67.902  1.00  0.00    -0.142 NA 
HETATM   26  C   UNL     1      -8.731   6.611  67.618  1.00  0.00    -0.118 A  
HETATM   27  C   UNL     1      -7.975   6.668  66.444  1.00  0.00    -0.106 A  
HETATM   28  C   UNL     1      -8.520   5.371  68.457  1.00  0.00    -0.096 C  
HETATM   29  C   UNL     1      -8.082   7.730  65.560  1.00  0.00    -0.128 A  
HETATM   30  N   UNL     1      -7.398   7.631  64.346  1.00  0.00    -0.081 NA 
HETATM   31  C   UNL     1      -9.044   8.718  65.828  1.00  0.00    -0.267 A  
HETATM   32  H1  UNL     1      -7.476   8.413  63.695  1.00  0.00     0.000 HD 
HETATM   33  C   UNL     1      -9.793   8.670  67.036  1.00  0.00    -0.220 A  
HETATM   34  H2  UNL     1      -7.674   6.770  63.872  1.00  0.00     0.000 HD 
HETATM   35  C   UNL     1     -10.716   9.716  67.293  1.00  0.00    -0.284 A  
HETATM   36  C   UNL     1     -10.939  10.747  66.384  1.00  0.00    -0.108 A  
HETATM   37  C   UNL     1     -10.241  10.767  65.191  1.00  0.00    -0.365 A  
HETATM   38  C   UNL     1      -9.303   9.772  64.921  1.00  0.00    -0.327 A  
ENDBRANCH  24  25
ENDBRANCH  23  24
ENDBRANCH  22  23
ENDBRANCH  21  22
ENDBRANCH  20  21
ENDBRANCH  19  20
ENDBRANCH  18  19
ENDBRANCH  17  18
ENDBRANCH  16  17
ENDBRANCH  15  16
ENDBRANCH  14  15
TORSDOF 11
ENDMDL
MODEL      117
REMARK 921   NORMALIZED FREE ENERGY PREDICTED BY IDOCK:   -6.45 KCAL/MOL
REMARK 922        TOTAL FREE ENERGY PREDICTED BY IDOCK:  -11.95 KCAL/MOL
REMARK 923 INTER-LIGAND FREE ENERGY PREDICTED BY IDOCK:   -9.14 KCAL/MOL
REMARK 924 INTRA-LIGAND FREE ENERGY PREDICTED BY IDOCK:   -2.82 KCAL/MOL
REMARK 927      BINDING AFFINITY PREDICTED BY RF-SCORE:    0.00 PKD
ROOT
HETATM    1  C   UNL     1      -7.249   8.673  72.187  1.00  0.00    -0.058 C  
HETATM    2  C   UNL     1      -8.215   8.004  71.235  1.00  0.00    -0.109 A  
HETATM    3  C   UNL     1      -9.146   7.122  71.770  1.00  0.00    -0.146 A  
HETATM    4  C   UNL     1     -10.077   6.478  70.968  1.00  0.00    -0.184 A  
HETATM    5  N   UNL     1     -11.065   5.721  71.605  1.00  0.00    -0.254 NA 
HETATM    6  C   UNL     1     -10.123   6.809  69.600  1.00  0.00    -0.197 A  
HETATM    7  H2  UNL     1     -11.553   6.305  72.283  1.00  0.00     0.000 HD 
HETATM    8  C   UNL     1     -11.122   6.296  68.740  1.00  0.00    -0.424 A  
HETATM    9  H1  UNL     1     -11.749   5.247  71.015  1.00  0.00     0.000 HD 
HETATM   10  C   UNL     1     -11.160   6.609  67.382  1.00  0.00    -0.398 A  
HETATM   11  C   UNL     1     -10.193   7.436  66.841  1.00  0.00    -0.346 A  
HETATM   12  C   UNL     1      -9.197   7.965  67.666  1.00  0.00    -0.147 A  
HETATM   13  C   UNL     1      -9.154   7.692  69.057  1.00  0.00    -0.144 A  
HETATM   14  N   UNL     1      -8.223   8.271  69.893  1.00  0.00    -0.120 NA 
ENDROOT
BRANCH  14  15
HETATM   15  C   UNL     1      -7.249   9.257  69.349  1.00  0.00    -0.068 C  
BRANCH  15  16
HETATM   16  C   UNL     1      -7.849  10.662  69.350  1.00  0.00    -0.126 C  
BRANCH  16  17
HETATM   17  C   UNL     1      -7.421  11.457  68.120  1.00  0.00    -0.100 C  
BRANCH  17  18
HETATM   18  C   UNL     1      -7.027  12.900  68.450  1.00  0.00    -0.096 C  
BRANCH  18  19
HETATM   19  C   UNL     1      -7.917  13.918  67.743  1.00  0.00    -0.174 C  
BRANCH  19  20
HETATM   20  C   UNL     1      -8.451  15.005  68.679  1.00  0.00    -0.168 C  
BRANCH  20  21
HETATM   21  C   UNL     1      -9.088  16.195  67.949  1.00  0.00    -0.192 C  
BRANCH  21  22
HETATM   22  C   UNL     1     -10.217  16.852  68.748  1.00  0.00    -0.311 C  
BRANCH  22  23
HETATM   23  C   UNL     1     -10.715  15.988  69.912  1.00  0.00    -0.334 C  
BRANCH  23  24
HETATM   24  C   UNL     1     -12.152  15.515  69.687  1.00  0.00    -0.328 C  
BRANCH  24  25
HETATM   25  N   UNL     1     -12.405  14.245  70.414  1.00  0.00    -0.333 NA 
HETATM   26  C   UNL     1     -13.058  14.260  71.618  1.00  0.00    -0.346 A  
HETATM   27  C   UNL     1     -13.357  13.056  72.260  1.00  0.00    -0.606 A  
HETATM   28  C   UNL     1     -13.560  15.502  72.318  1.00  0.00    -0.618 C  
HETATM   29  C   UNL     1     -12.985  11.833  71.723  1.00  0.00    -0.361 A  
HETATM   30  N   UNL     1     -13.453  10.680  72.361  1.00  0.00    -0.502 NA 
HETATM   31  C   UNL     1     -12.373  11.824  70.459  1.00  0.00    -0.387 A  
HETATM   32  H1  UNL     1     -13.180   9.780  71.966  1.00  0.00     0.000 HD 
HETATM   33  C   UNL     1     -12.048  13.052  69.821  1.00  0.00    -0.258 A  
HETATM   34  H2  UNL     1     -14.470  10.722  72.431  1.00  0.00     0.000 HD 
HETATM   35  C   UNL     1     -11.382  13.000  68.570  1.00  0.00    -0.323 A  
HETATM   36  C   UNL     1     -11.087  11.794  67.938  1.00  0.00    -0.302 A  
HETATM   37  C   UNL     1     -11.443  10.603  68.541  1.00  0.00    -0.333 A  
HETATM   38  C   UNL     1     -12.069  10.618  69.786  1.00  0.00    -0.343 A  
ENDBRANCH  24  25
ENDBRANCH  23  24
ENDBRANCH  22  23
ENDBRANCH  21  22
ENDBRANCH  20  21
ENDBRANCH  19  20
ENDBRANCH  18  19
ENDBRANCH  17  18
ENDBRANCH  16  17
ENDBRANCH  15  16
ENDBRANCH  14  15
TORSDOF 11
ENDMDL
MODEL      118
REMARK 921   NORMALIZED FREE ENERGY PREDICTED BY IDOCK:   -6.44 KCAL/MOL
REMARK 922        TOTAL FREE ENERGY PREDICTED BY IDOCK:  -11.94 KCAL/MOL
REMARK 923 INTER-LIGAND FREE ENERGY PREDICTED BY IDOCK:  -10.64 KCAL/MOL
REMARK 924 INTRA-LIGAND FREE ENERGY PREDICTED BY IDOCK:   -1.30 KCAL/MOL
REMARK 927      BINDING AFFINITY PREDICTED BY RF-SCORE:    0.00 PKD
ROOT
HETATM    1  C   UNL     1     -12.085  11.052  69.037  1.00  0.00    -0.285 C  
HETATM    2  C   UNL     1     -11.742  10.184  70.226  1.00  0.00    -0.282 A  
HETATM    3  C   UNL     1     -12.764   9.862  71.110  1.00  0.00    -0.462 A  
HETATM    4  C   UNL     1     -12.537   9.059  72.218  1.00  0.00    -0.375 A  
HETATM    5  N   UNL     1     -13.647   8.669  72.974  1.00  0.00    -0.875 NA 
HETATM    6  C   UNL     1     -11.259   8.492  72.382  1.00  0.00    -0.399 A  
HETATM    7  H2  UNL     1     -14.328   8.216  72.363  1.00  0.00     0.000 HD 
HETATM    8  C   UNL     1     -10.978   7.563  73.410  1.00  0.00    -0.259 A  
HETATM    9  H1  UNL     1     -13.480   8.079  73.788  1.00  0.00     0.000 HD 
HETATM   10  C   UNL     1      -9.709   7.013  73.584  1.00  0.00    -0.283 A  
HETATM   11  C   UNL     1      -8.679   7.385  72.741  1.00  0.00    -0.160 A  
HETATM   12  C   UNL     1      -8.924   8.296  71.711  1.00  0.00    -0.241 A  
HETATM   13  C   UNL     1     -10.214   8.845  71.488  1.00  0.00    -0.328 A  
HETATM   14  N   UNL     1     -10.485   9.683  70.428  1.00  0.00    -0.273 NA 
ENDROOT
BRANCH  14  15
HETATM   15  C   UNL     1      -9.416   9.999  69.440  1.00  0.00    -0.223 C  
BRANCH  15  16
HETATM   16  C   UNL     1      -9.066   8.765  68.611  1.00  0.00    -0.141 C  
BRANCH  16  17
HETATM   17  C   UNL     1     -10.238   8.321  67.740  1.00  0.00    -0.282 C  
BRANCH  17  18
HETATM   18  C   UNL     1     -10.515   9.282  66.580  1.00  0.00    -0.237 C  
BRANCH  18  19
HETATM   19  C   UNL     1      -9.280   9.515  65.715  1.00  0.00    -0.267 C  
BRANCH  19  20
HETATM   20  C   UNL     1      -9.487  10.588  64.644  1.00  0.00    -0.316 C  
BRANCH  20  21
HETATM   21  C   UNL     1     -10.959  10.944  64.399  1.00  0.00     0.002 C  
BRANCH  21  22
HETATM   22  C   UNL     1     -11.245  12.441  64.554  1.00  0.00    -0.371 C  
BRANCH  22  23
HETATM   23  C   UNL     1     -11.036  12.951  65.984  1.00  0.00    -0.301 C  
BRANCH  23  24
HETATM   24  C   UNL     1     -12.118  13.953  66.388  1.00  0.00    -0.455 C  
BRANCH  24  25
HETATM   25  N   UNL     1     -11.518  15.122  67.081  1.00  0.00    -0.299 NA 
HETATM   26  C   UNL     1     -10.953  16.136  66.356  1.00  0.00    -0.036 A  
HETATM   27  C   UNL     1     -10.456  17.266  67.012  1.00  0.00    -0.287 A  
HETATM   28  C   UNL     1     -10.865  16.181  64.847  1.00  0.00    -0.353 C  
HETATM   29  C   UNL     1     -10.494  17.380  68.393  1.00  0.00    -0.384 A  
HETATM   30  N   UNL     1     -10.108  18.603  68.949  1.00  0.00    -0.451 NA 
HETATM   31  C   UNL     1     -11.132  16.364  69.123  1.00  0.00    -0.303 A  
HETATM   32  H1  UNL     1     -10.136  18.688  69.965  1.00  0.00     0.000 HD 
HETATM   33  C   UNL     1     -11.613  15.206  68.454  1.00  0.00    -0.337 A  
HETATM   34  H2  UNL     1     -10.662  19.353  68.533  1.00  0.00     0.000 HD 
HETATM   35  C   UNL     1     -12.203  14.179  69.235  1.00  0.00    -0.308 A  
HETATM   36  C   UNL     1     -12.364  14.297  70.614  1.00  0.00    -0.431 A  
HETATM   37  C   UNL     1     -11.934  15.443  71.254  1.00  0.00    -0.431 A  
HETATM   38  C   UNL     1     -11.320  16.457  70.522  1.00  0.00    -0.211 A  
ENDBRANCH  24  25
ENDBRANCH  23  24
ENDBRANCH  22  23
ENDBRANCH  21  22
ENDBRANCH  20  21
ENDBRANCH  19  20
ENDBRANCH  18  19
ENDBRANCH  17  18
ENDBRANCH  16  17
ENDBRANCH  15  16
ENDBRANCH  14  15
TORSDOF 11
ENDMDL
MODEL      119
REMARK 921   NORMALIZED FREE ENERGY PREDICTED BY IDOCK:   -6.43 KCAL/MOL
REMARK 922        TOTAL FREE ENERGY PREDICTED BY IDOCK:  -11.93 KCAL/MOL
REMARK 923 INTER-LIGAND FREE ENERGY PREDICTED BY IDOCK:   -9.98 KCAL/MOL
REMARK 924 INTRA-LIGAND FREE ENERGY PREDICTED BY IDOCK:   -1.94 KCAL/MOL
REMARK 927      BINDING AFFINITY PREDICTED BY RF-SCORE:    0.00 PKD
ROOT
HETATM    1  C   UNL     1     -12.441   8.199  72.084  1.00  0.00    -0.364 C  
HETATM    2  C   UNL     1     -11.698   7.161  71.275  1.00  0.00    -0.306 A  
HETATM    3  C   UNL     1     -11.899   7.143  69.901  1.00  0.00     0.044 A  
HETATM    4  C   UNL     1     -11.244   6.233  69.085  1.00  0.00    -0.371 A  
HETATM    5  N   UNL     1     -11.395   6.378  67.702  1.00  0.00    -0.676 NA 
HETATM    6  C   UNL     1     -10.290   5.378  69.668  1.00  0.00    -0.361 A  
HETATM    7  H2  UNL     1     -11.129   7.325  67.431  1.00  0.00     0.000 HD 
HETATM    8  C   UNL     1      -9.487   4.511  68.891  1.00  0.00    -0.225 A  
HETATM    9  H1  UNL     1     -10.914   5.708  67.102  1.00  0.00     0.000 HD 
HETATM   10  C   UNL     1      -8.553   3.652  69.469  1.00  0.00    -0.109 A  
HETATM   11  C   UNL     1      -8.401   3.627  70.842  1.00  0.00    -0.088 A  
HETATM   12  C   UNL     1      -9.174   4.477  71.638  1.00  0.00    -0.183 A  
HETATM   13  C   UNL     1     -10.107   5.386  71.076  1.00  0.00    -0.216 A  
HETATM   14  N   UNL     1     -10.817   6.283  71.845  1.00  0.00    -0.233 NA 
ENDROOT
BRANCH  14  15
HETATM   15  C   UNL     1     -10.578   6.353  73.313  1.00  0.00    -0.268 C  
BRANCH  15  16
HETATM   16  C   UNL     1      -9.210   6.965  73.608  1.00  0.00    -0.190 C  
BRANCH  16  17
HETATM   17  C   UNL     1      -9.114   8.399  73.094  1.00  0.00    -0.225 C  
BRANCH  17  18
HETATM   18  C   UNL     1      -8.126   8.551  71.934  1.00  0.00    -0.185 C  
BRANCH  18  19
HETATM   19  C   UNL     1      -8.761   9.217  70.717  1.00  0.00    -0.285 C  
BRANCH  19  20
HETATM   20  C   UNL     1      -8.431   8.509  69.401  1.00  0.00    -0.127 C  
BRANCH  20  21
HETATM   21  C   UNL     1      -8.662   9.376  68.156  1.00  0.00    -0.124 C  
BRANCH  21  22
HETATM   22  C   UNL     1     -10.062   9.995  68.110  1.00  0.00    -0.186 C  
BRANCH  22  23
HETATM   23  C   UNL     1     -10.325  10.801  66.833  1.00  0.00    -0.290 C  
BRANCH  23  24
HETATM   24  C   UNL     1     -11.626  11.598  66.929  1.00  0.00    -0.167 C  
BRANCH  24  25
HETATM   25  N   UNL     1     -11.527  12.859  66.150  1.00  0.00    -0.330 NA 
HETATM   26  C   UNL     1     -12.041  12.928  64.883  1.00  0.00    -0.432 A  
HETATM   27  C   UNL     1     -12.008  14.138  64.185  1.00  0.00    -0.421 A  
HETATM   28  C   UNL     1     -12.722  11.789  64.159  1.00  0.00    -0.152 C  
HETATM   29  C   UNL     1     -11.440  15.278  64.732  1.00  0.00    -0.363 A  
HETATM   30  N   UNL     1     -11.582  16.474  64.022  1.00  0.00    -1.544 NA 
HETATM   31  C   UNL     1     -10.972  15.215  66.055  1.00  0.00    -0.332 A  
HETATM   32  H1  UNL     1     -11.164  17.313  64.424  1.00  0.00     0.000 HD 
HETATM   33  C   UNL     1     -10.985  13.975  66.752  1.00  0.00    -0.297 A  
HETATM   34  H2  UNL     1     -12.572  16.644  63.842  1.00  0.00     0.000 HD 
HETATM   35  C   UNL     1     -10.454  13.942  68.067  1.00  0.00    -0.243 A  
HETATM   36  C   UNL     1      -9.974  15.086  68.701  1.00  0.00    -0.220 A  
HETATM   37  C   UNL     1     -10.003  16.297  68.036  1.00  0.00    -0.240 A  
HETATM   38  C   UNL     1     -10.488  16.358  66.731  1.00  0.00    -0.273 A  
ENDBRANCH  24  25
ENDBRANCH  23  24
ENDBRANCH  22  23
ENDBRANCH  21  22
ENDBRANCH  20  21
ENDBRANCH  19  20
ENDBRANCH  18  19
ENDBRANCH  17  18
ENDBRANCH  16  17
ENDBRANCH  15  16
ENDBRANCH  14  15
TORSDOF 11
ENDMDL
MODEL      120
REMARK 921   NORMALIZED FREE ENERGY PREDICTED BY IDOCK:   -6.42 KCAL/MOL
REMARK 922        TOTAL FREE ENERGY PREDICTED BY IDOCK:  -11.90 KCAL/MOL
REMARK 923 INTER-LIGAND FREE ENERGY PREDICTED BY IDOCK:  -10.35 KCAL/MOL
REMARK 924 INTRA-LIGAND FREE ENERGY PREDICTED BY IDOCK:   -1.55 KCAL/MOL
REMARK 927      BINDING AFFINITY PREDICTED BY RF-SCORE:    0.00 PKD
ROOT
HETATM    1  C   UNL     1     -10.572   8.916  68.993  1.00  0.00    -0.203 C  
HETATM    2  C   UNL     1     -10.525   7.602  69.740  1.00  0.00    -0.232 A  
HETATM    3  C   UNL     1     -10.120   6.472  69.041  1.00  0.00    -0.186 A  
HETATM    4  C   UNL     1     -10.036   5.232  69.655  1.00  0.00    -0.257 A  
HETATM    5  N   UNL     1      -9.485   4.180  68.917  1.00  0.00    -0.164 NA 
HETATM    6  C   UNL     1     -10.280   5.154  71.039  1.00  0.00    -0.295 A  
HETATM    7  H2  UNL     1      -8.561   4.452  68.580  1.00  0.00     0.000 HD 
HETATM    8  C   UNL     1     -10.092   3.956  71.767  1.00  0.00    -0.186 A  
HETATM    9  H1  UNL     1      -9.423   3.268  69.369  1.00  0.00     0.000 HD 
HETATM   10  C   UNL     1     -10.349   3.872  73.134  1.00  0.00    -0.241 A  
HETATM   11  C   UNL     1     -10.813   4.982  73.814  1.00  0.00    -0.366 A  
HETATM   12  C   UNL     1     -11.003   6.184  73.126  1.00  0.00    -0.258 A  
HETATM   13  C   UNL     1     -10.716   6.308  71.742  1.00  0.00    -0.236 A  
HETATM   14  N   UNL     1     -10.825   7.507  71.071  1.00  0.00    -0.233 NA 
ENDROOT
BRANCH  14  15
HETATM   15  C   UNL     1     -11.208   8.740  71.814  1.00  0.00    -0.340 C  
BRANCH  15  16
HETATM   16  C   UNL     1     -12.727   8.890  71.861  1.00  0.00    -0.436 C  
BRANCH  16  17
HETATM   17  C   UNL     1     -13.147  10.357  71.886  1.00  0.00    -0.563 C  
BRANCH  17  18
HETATM   18  C   UNL     1     -12.350  11.222  70.904  1.00  0.00    -0.490 C  
BRANCH  18  19
HETATM   19  C   UNL     1     -12.639  12.710  71.079  1.00  0.00    -0.354 C  
BRANCH  19  20
HETATM   20  C   UNL     1     -12.135  13.563  69.913  1.00  0.00    -0.408 C  
BRANCH  20  21
HETATM   21  C   UNL     1     -11.973  15.050  70.256  1.00  0.00    -0.362 C  
BRANCH  21  22
HETATM   22  C   UNL     1     -11.656  15.915  69.033  1.00  0.00    -0.392 C  
BRANCH  22  23
HETATM   23  C   UNL     1     -11.759  15.149  67.709  1.00  0.00    -0.250 C  
BRANCH  23  24
HETATM   24  C   UNL     1     -10.456  15.225  66.912  1.00  0.00    -0.289 C  
BRANCH  24  25
HETATM   25  N   UNL     1     -10.004  13.867  66.516  1.00  0.00    -0.277 NA 
HETATM   26  C   UNL     1      -9.058  13.213  67.260  1.00  0.00    -0.217 A  
HETATM   27  C   UNL     1      -8.691  11.908  66.923  1.00  0.00    -0.191 A  
HETATM   28  C   UNL     1      -8.389  13.769  68.496  1.00  0.00    -0.120 C  
HETATM   29  C   UNL     1      -9.242  11.256  65.831  1.00  0.00    -0.212 A  
HETATM   30  N   UNL     1      -8.923   9.906  65.657  1.00  0.00    -0.161 NA 
HETATM   31  C   UNL     1     -10.256  11.910  65.112  1.00  0.00    -0.314 A  
HETATM   32  H1  UNL     1      -9.328   9.426  64.854  1.00  0.00     0.000 HD 
HETATM   33  C   UNL     1     -10.608  13.247  65.443  1.00  0.00    -0.296 A  
HETATM   34  H2  UNL     1      -9.155   9.392  66.508  1.00  0.00     0.000 HD 
HETATM   35  C   UNL     1     -11.600  13.891  64.659  1.00  0.00    -0.398 A  
HETATM   36  C   UNL     1     -12.262  13.239  63.621  1.00  0.00    -0.522 A  
HETATM   37  C   UNL     1     -11.947  11.925  63.330  1.00  0.00    -0.528 A  
HETATM   38  C   UNL     1     -10.954  11.274  64.060  1.00  0.00    -0.377 A  
ENDBRANCH  24  25
ENDBRANCH  23  24
ENDBRANCH  22  23
ENDBRANCH  21  22
ENDBRANCH  20  21
ENDBRANCH  19  20
ENDBRANCH  18  19
ENDBRANCH  17  18
ENDBRANCH  16  17
ENDBRANCH  15  16
ENDBRANCH  14  15
TORSDOF 11
ENDMDL
MODEL      121
REMARK 921   NORMALIZED FREE ENERGY PREDICTED BY IDOCK:   -6.42 KCAL/MOL
REMARK 922        TOTAL FREE ENERGY PREDICTED BY IDOCK:  -11.90 KCAL/MOL
REMARK 923 INTER-LIGAND FREE ENERGY PREDICTED BY IDOCK:   -9.21 KCAL/MOL
REMARK 924 INTRA-LIGAND FREE ENERGY PREDICTED BY IDOCK:   -2.69 KCAL/MOL
REMARK 927      BINDING AFFINITY PREDICTED BY RF-SCORE:    0.00 PKD
ROOT
HETATM    1  C   UNL     1      -7.965   5.982  71.221  1.00  0.00    -0.113 C  
HETATM    2  C   UNL     1      -7.948   5.754  69.726  1.00  0.00    -0.100 A  
HETATM    3  C   UNL     1      -6.731   5.865  69.067  1.00  0.00    -0.060 A  
HETATM    4  C   UNL     1      -6.626   5.657  67.700  1.00  0.00    -0.053 A  
HETATM    5  N   UNL     1      -5.343   5.648  67.143  1.00  0.00    -0.005 NA 
HETATM    6  C   UNL     1      -7.771   5.233  66.999  1.00  0.00    -0.096 A  
HETATM    7  H2  UNL     1      -4.767   4.963  67.633  1.00  0.00     0.000 HD 
HETATM    8  C   UNL     1      -7.722   4.876  65.631  1.00  0.00    -0.087 A  
HETATM    9  H1  UNL     1      -5.266   5.495  66.138  1.00  0.00     0.000 HD 
HETATM   10  C   UNL     1      -8.858   4.472  64.931  1.00  0.00    -0.148 A  
HETATM   11  C   UNL     1     -10.079   4.424  65.575  1.00  0.00    -0.251 A  
HETATM   12  C   UNL     1     -10.161   4.764  66.929  1.00  0.00    -0.246 A  
HETATM   13  C   UNL     1      -9.016   5.144  67.675  1.00  0.00    -0.109 A  
HETATM   14  N   UNL     1      -9.071   5.406  69.027  1.00  0.00    -0.113 NA 
ENDROOT
BRANCH  14  15
HETATM   15  C   UNL     1     -10.356   5.242  69.762  1.00  0.00    -0.299 C  
BRANCH  15  16
HETATM   16  C   UNL     1     -11.270   6.442  69.521  1.00  0.00    -0.477 C  
BRANCH  16  17
HETATM   17  C   UNL     1     -12.101   6.773  70.758  1.00  0.00    -0.402 C  
BRANCH  17  18
HETATM   18  C   UNL     1     -11.242   7.128  71.975  1.00  0.00    -0.286 C  
BRANCH  18  19
HETATM   19  C   UNL     1     -11.475   8.560  72.449  1.00  0.00    -0.419 C  
BRANCH  19  20
HETATM   20  C   UNL     1     -12.860   9.099  72.084  1.00  0.00    -0.486 C  
BRANCH  20  21
HETATM   21  C   UNL     1     -12.834  10.491  71.439  1.00  0.00    -0.551 C  
BRANCH  21  22
HETATM   22  C   UNL     1     -11.689  10.664  70.437  1.00  0.00    -0.446 C  
BRANCH  22  23
HETATM   23  C   UNL     1     -12.062  11.547  69.240  1.00  0.00    -0.344 C  
BRANCH  23  24
HETATM   24  C   UNL     1     -10.820  12.117  68.553  1.00  0.00    -0.236 C  
BRANCH  24  25
HETATM   25  N   UNL     1     -10.825  11.787  67.105  1.00  0.00    -0.244 NA 
HETATM   26  C   UNL     1     -11.448  12.619  66.213  1.00  0.00    -0.364 A  
HETATM   27  C   UNL     1     -11.386  12.340  64.845  1.00  0.00    -0.373 A  
HETATM   28  C   UNL     1     -12.175  13.893  66.575  1.00  0.00    -0.482 C  
HETATM   29  C   UNL     1     -10.729  11.221  64.359  1.00  0.00    -0.339 A  
HETATM   30  N   UNL     1     -10.595  11.102  62.972  1.00  0.00    -0.801 NA 
HETATM   31  C   UNL     1     -10.040  10.409  65.275  1.00  0.00    -0.370 A  
HETATM   32  H1  UNL     1     -10.111  10.279  62.615  1.00  0.00     0.000 HD 
HETATM   33  C   UNL     1     -10.127  10.681  66.668  1.00  0.00    -0.220 A  
HETATM   34  H2  UNL     1     -10.148  11.942  62.604  1.00  0.00     0.000 HD 
HETATM   35  C   UNL     1      -9.461   9.806  67.564  1.00  0.00    -0.170 A  
HETATM   36  C   UNL     1      -8.695   8.732  67.117  1.00  0.00    -0.127 A  
HETATM   37  C   UNL     1      -8.578   8.496  65.760  1.00  0.00    -0.190 A  
HETATM   38  C   UNL     1      -9.246   9.317  64.854  1.00  0.00    -0.206 A  
ENDBRANCH  24  25
ENDBRANCH  23  24
ENDBRANCH  22  23
ENDBRANCH  21  22
ENDBRANCH  20  21
ENDBRANCH  19  20
ENDBRANCH  18  19
ENDBRANCH  17  18
ENDBRANCH  16  17
ENDBRANCH  15  16
ENDBRANCH  14  15
TORSDOF 11
ENDMDL
MODEL      122
REMARK 921   NORMALIZED FREE ENERGY PREDICTED BY IDOCK:   -6.42 KCAL/MOL
REMARK 922        TOTAL FREE ENERGY PREDICTED BY IDOCK:  -11.90 KCAL/MOL
REMARK 923 INTER-LIGAND FREE ENERGY PREDICTED BY IDOCK:   -9.65 KCAL/MOL
REMARK 924 INTRA-LIGAND FREE ENERGY PREDICTED BY IDOCK:   -2.25 KCAL/MOL
REMARK 927      BINDING AFFINITY PREDICTED BY RF-SCORE:    0.00 PKD
ROOT
HETATM    1  C   UNL     1      -8.015   7.739  69.176  1.00  0.00    -0.119 C  
HETATM    2  C   UNL     1      -8.181   7.166  67.787  1.00  0.00    -0.115 A  
HETATM    3  C   UNL     1      -7.352   7.651  66.783  1.00  0.00    -0.089 A  
HETATM    4  C   UNL     1      -7.429   7.169  65.485  1.00  0.00    -0.083 A  
HETATM    5  N   UNL     1      -6.464   7.609  64.572  1.00  0.00    -0.044 NA 
HETATM    6  C   UNL     1      -8.306   6.099  65.220  1.00  0.00    -0.144 A  
HETATM    7  H2  UNL     1      -5.535   7.420  64.947  1.00  0.00     0.000 HD 
HETATM    8  C   UNL     1      -8.352   5.465  63.957  1.00  0.00    -0.116 A  
HETATM    9  H1  UNL     1      -6.521   7.254  63.618  1.00  0.00     0.000 HD 
HETATM   10  C   UNL     1      -9.231   4.417  63.688  1.00  0.00    -0.121 A  
HETATM   11  C   UNL     1     -10.099   3.979  64.671  1.00  0.00    -0.215 A  
HETATM   12  C   UNL     1     -10.073   4.581  65.932  1.00  0.00    -0.279 A  
HETATM   13  C   UNL     1      -9.165   5.625  66.245  1.00  0.00    -0.156 A  
HETATM   14  N   UNL     1      -9.077   6.171  67.507  1.00  0.00    -0.111 NA 
ENDROOT
BRANCH  14  15
HETATM   15  C   UNL     1      -9.920   5.630  68.610  1.00  0.00    -0.162 C  
BRANCH  15  16
HETATM   16  C   UNL     1     -11.260   6.360  68.671  1.00  0.00    -0.338 C  
BRANCH  16  17
HETATM   17  C   UNL     1     -11.783   6.457  70.102  1.00  0.00    -0.372 C  
BRANCH  17  18
HETATM   18  C   UNL     1     -10.696   6.207  71.151  1.00  0.00    -0.312 C  
BRANCH  18  19
HETATM   19  C   UNL     1     -10.664   7.295  72.220  1.00  0.00    -0.266 C  
BRANCH  19  20
HETATM   20  C   UNL     1     -11.527   8.510  71.871  1.00  0.00    -0.405 C  
BRANCH  20  21
HETATM   21  C   UNL     1     -10.761   9.628  71.151  1.00  0.00    -0.365 C  
BRANCH  21  22
HETATM   22  C   UNL     1     -11.682  10.598  70.405  1.00  0.00    -0.446 C  
BRANCH  22  23
HETATM   23  C   UNL     1     -11.533  10.522  68.881  1.00  0.00    -0.292 C  
BRANCH  23  24
HETATM   24  C   UNL     1     -10.499  11.524  68.366  1.00  0.00    -0.207 C  
BRANCH  24  25
HETATM   25  N   UNL     1     -11.036  12.282  67.207  1.00  0.00    -0.244 NA 
HETATM   26  C   UNL     1     -11.676  13.476  67.403  1.00  0.00    -0.380 A  
HETATM   27  C   UNL     1     -12.114  14.218  66.303  1.00  0.00    -0.433 A  
HETATM   28  C   UNL     1     -11.910  14.125  68.749  1.00  0.00    -0.384 C  
HETATM   29  C   UNL     1     -11.942  13.765  65.005  1.00  0.00    -0.383 A  
HETATM   30  N   UNL     1     -12.280  14.638  63.967  1.00  0.00    -0.954 NA 
HETATM   31  C   UNL     1     -11.230  12.570  64.810  1.00  0.00    -0.344 A  
HETATM   32  H1  UNL     1     -12.154  14.304  63.011  1.00  0.00     0.000 HD 
HETATM   33  C   UNL     1     -10.808  11.806  65.933  1.00  0.00    -0.291 A  
HETATM   34  H2  UNL     1     -11.774  15.516  64.086  1.00  0.00     0.000 HD 
HETATM   35  C   UNL     1     -10.138  10.578  65.693  1.00  0.00    -0.333 A  
HETATM   36  C   UNL     1      -9.844  10.134  64.406  1.00  0.00    -0.307 A  
HETATM   37  C   UNL     1     -10.218  10.901  63.319  1.00  0.00    -0.317 A  
HETATM   38  C   UNL     1     -10.906  12.096  63.518  1.00  0.00    -0.518 A  
ENDBRANCH  24  25
ENDBRANCH  23  24
ENDBRANCH  22  23
ENDBRANCH  21  22
ENDBRANCH  20  21
ENDBRANCH  19  20
ENDBRANCH  18  19
ENDBRANCH  17  18
ENDBRANCH  16  17
ENDBRANCH  15  16
ENDBRANCH  14  15
TORSDOF 11
ENDMDL
MODEL      123
REMARK 921   NORMALIZED FREE ENERGY PREDICTED BY IDOCK:   -6.41 KCAL/MOL
REMARK 922        TOTAL FREE ENERGY PREDICTED BY IDOCK:  -11.88 KCAL/MOL
REMARK 923 INTER-LIGAND FREE ENERGY PREDICTED BY IDOCK:   -9.45 KCAL/MOL
REMARK 924 INTRA-LIGAND FREE ENERGY PREDICTED BY IDOCK:   -2.43 KCAL/MOL
REMARK 927      BINDING AFFINITY PREDICTED BY RF-SCORE:    0.00 PKD
ROOT
HETATM    1  C   UNL     1     -10.986   6.497  67.669  1.00  0.00    -0.426 C  
HETATM    2  C   UNL     1     -10.979   6.209  69.154  1.00  0.00    -0.381 A  
HETATM    3  C   UNL     1     -11.852   6.931  69.958  1.00  0.00    -0.207 A  
HETATM    4  C   UNL     1     -11.919   6.718  71.327  1.00  0.00    -0.365 A  
HETATM    5  N   UNL     1     -12.923   7.385  72.037  1.00  0.00    -0.505 NA 
HETATM    6  C   UNL     1     -11.146   5.680  71.880  1.00  0.00    -0.278 A  
HETATM    7  H2  UNL     1     -13.829   7.173  71.619  1.00  0.00     0.000 HD 
HETATM    8  C   UNL     1     -11.250   5.313  73.242  1.00  0.00    -0.359 A  
HETATM    9  H1  UNL     1     -12.972   7.228  73.044  1.00  0.00     0.000 HD 
HETATM   10  C   UNL     1     -10.474   4.296  73.796  1.00  0.00    -0.277 A  
HETATM   11  C   UNL     1      -9.561   3.623  73.006  1.00  0.00    -0.160 A  
HETATM   12  C   UNL     1      -9.437   3.957  71.655  1.00  0.00    -0.220 A  
HETATM   13  C   UNL     1     -10.239   4.963  71.056  1.00  0.00    -0.192 A  
HETATM   14  N   UNL     1     -10.182   5.246  69.708  1.00  0.00    -0.272 NA 
ENDROOT
BRANCH  14  15
HETATM   15  C   UNL     1      -9.291   4.449  68.820  1.00  0.00    -0.151 C  
BRANCH  15  16
HETATM   16  C   UNL     1      -8.105   5.290  68.352  1.00  0.00    -0.091 C  
BRANCH  16  17
HETATM   17  C   UNL     1      -6.859   5.024  69.192  1.00  0.00    -0.054 C  
BRANCH  17  18
HETATM   18  C   UNL     1      -6.719   5.989  70.373  1.00  0.00    -0.052 C  
BRANCH  18  19
HETATM   19  C   UNL     1      -7.188   7.398  70.026  1.00  0.00    -0.073 C  
BRANCH  19  20
HETATM   20  C   UNL     1      -8.186   7.968  71.038  1.00  0.00    -0.106 C  
BRANCH  20  21
HETATM   21  C   UNL     1      -9.036   9.121  70.489  1.00  0.00    -0.284 C  
BRANCH  21  22
HETATM   22  C   UNL     1      -8.641   9.529  69.067  1.00  0.00    -0.133 C  
BRANCH  22  23
HETATM   23  C   UNL     1      -9.253  10.866  68.630  1.00  0.00    -0.187 C  
BRANCH  23  24
HETATM   24  C   UNL     1     -10.678  10.689  68.107  1.00  0.00    -0.225 C  
BRANCH  24  25
HETATM   25  N   UNL     1     -11.005  11.740  67.110  1.00  0.00    -0.260 NA 
HETATM   26  C   UNL     1     -11.622  12.897  67.506  1.00  0.00    -0.356 A  
HETATM   27  C   UNL     1     -11.860  13.911  66.575  1.00  0.00    -0.440 A  
HETATM   28  C   UNL     1     -12.033  13.219  68.925  1.00  0.00    -0.336 C  
HETATM   29  C   UNL     1     -11.511  13.771  65.241  1.00  0.00    -0.312 A  
HETATM   30  N   UNL     1     -11.654  14.890  64.416  1.00  0.00    -0.647 NA 
HETATM   31  C   UNL     1     -10.822  12.609  64.856  1.00  0.00    -0.329 A  
HETATM   32  H1  UNL     1     -11.397  14.788  63.434  1.00  0.00     0.000 HD 
HETATM   33  C   UNL     1     -10.604  11.569  65.801  1.00  0.00    -0.263 A  
HETATM   34  H2  UNL     1     -11.140  15.674  64.818  1.00  0.00     0.000 HD 
HETATM   35  C   UNL     1      -9.953  10.389  65.359  1.00  0.00    -0.362 A  
HETATM   36  C   UNL     1      -9.484  10.246  64.055  1.00  0.00    -0.356 A  
HETATM   37  C   UNL     1      -9.659  11.277  63.151  1.00  0.00    -0.391 A  
HETATM   38  C   UNL     1     -10.324  12.437  63.544  1.00  0.00    -0.397 A  
ENDBRANCH  24  25
ENDBRANCH  23  24
ENDBRANCH  22  23
ENDBRANCH  21  22
ENDBRANCH  20  21
ENDBRANCH  19  20
ENDBRANCH  18  19
ENDBRANCH  17  18
ENDBRANCH  16  17
ENDBRANCH  15  16
ENDBRANCH  14  15
TORSDOF 11
ENDMDL
MODEL      124
REMARK 921   NORMALIZED FREE ENERGY PREDICTED BY IDOCK:   -6.40 KCAL/MOL
REMARK 922        TOTAL FREE ENERGY PREDICTED BY IDOCK:  -11.87 KCAL/MOL
REMARK 923 INTER-LIGAND FREE ENERGY PREDICTED BY IDOCK:   -9.60 KCAL/MOL
REMARK 924 INTRA-LIGAND FREE ENERGY PREDICTED BY IDOCK:   -2.27 KCAL/MOL
REMARK 927      BINDING AFFINITY PREDICTED BY RF-SCORE:    0.00 PKD
ROOT
HETATM    1  C   UNL     1     -10.307   5.608  67.382  1.00  0.00    -0.284 C  
HETATM    2  C   UNL     1     -10.417   6.026  68.830  1.00  0.00    -0.248 A  
HETATM    3  C   UNL     1     -11.640   6.512  69.274  1.00  0.00    -0.183 A  
HETATM    4  C   UNL     1     -11.829   6.903  70.591  1.00  0.00    -0.368 A  
HETATM    5  N   UNL     1     -13.127   7.244  70.986  1.00  0.00    -0.594 NA 
HETATM    6  C   UNL     1     -10.774   6.710  71.504  1.00  0.00    -0.263 A  
HETATM    7  H2  UNL     1     -13.758   6.472  70.771  1.00  0.00     0.000 HD 
HETATM    8  C   UNL     1     -10.925   6.962  72.887  1.00  0.00    -0.315 A  
HETATM    9  H1  UNL     1     -13.265   7.532  71.954  1.00  0.00     0.000 HD 
HETATM   10  C   UNL     1      -9.877   6.787  73.789  1.00  0.00    -0.289 A  
HETATM   11  C   UNL     1      -8.643   6.365  73.334  1.00  0.00    -0.128 A  
HETATM   12  C   UNL     1      -8.462   6.101  71.973  1.00  0.00    -0.121 A  
HETATM   13  C   UNL     1      -9.520   6.236  71.037  1.00  0.00    -0.175 A  
HETATM   14  N   UNL     1      -9.375   5.903  69.708  1.00  0.00    -0.146 NA 
ENDROOT
BRANCH  14  15
HETATM   15  C   UNL     1      -8.087   5.333  69.223  1.00  0.00    -0.092 C  
BRANCH  15  16
HETATM   16  C   UNL     1      -7.255   6.404  68.520  1.00  0.00    -0.085 C  
BRANCH  16  17
HETATM   17  C   UNL     1      -6.167   6.960  69.435  1.00  0.00    -0.034 C  
BRANCH  17  18
HETATM   18  C   UNL     1      -6.406   8.423  69.822  1.00  0.00    -0.035 C  
BRANCH  18  19
HETATM   19  C   UNL     1      -7.681   8.985  69.201  1.00  0.00    -0.092 C  
BRANCH  19  20
HETATM   20  C   UNL     1      -8.597   9.670  70.218  1.00  0.00    -0.234 C  
BRANCH  20  21
HETATM   21  C   UNL     1     -10.033   9.878  69.718  1.00  0.00    -0.275 C  
BRANCH  21  22
HETATM   22  C   UNL     1     -10.095  10.547  68.342  1.00  0.00    -0.181 C  
BRANCH  22  23
HETATM   23  C   UNL     1      -9.654  12.015  68.363  1.00  0.00    -0.190 C  
BRANCH  23  24
HETATM   24  C   UNL     1      -8.905  12.396  67.085  1.00  0.00    -0.197 C  
BRANCH  24  25
HETATM   25  N   UNL     1      -9.637  13.457  66.346  1.00  0.00    -0.272 NA 
HETATM   26  C   UNL     1      -9.344  14.776  66.567  1.00  0.00    -0.290 A  
HETATM   27  C   UNL     1      -9.985  15.765  65.816  1.00  0.00    -0.389 A  
HETATM   28  C   UNL     1      -8.308  15.284  67.544  1.00  0.00    -0.191 C  
HETATM   29  C   UNL     1     -10.939  15.449  64.861  1.00  0.00    -0.437 A  
HETATM   30  N   UNL     1     -11.418  16.489  64.060  1.00  0.00    -1.581 NA 
HETATM   31  C   UNL     1     -11.186  14.092  64.597  1.00  0.00    -0.377 A  
HETATM   32  H1  UNL     1     -12.120  16.257  63.357  1.00  0.00     0.000 HD 
HETATM   33  C   UNL     1     -10.551  13.090  65.381  1.00  0.00    -0.292 A  
HETATM   34  H2  UNL     1     -10.632  16.958  63.609  1.00  0.00     0.000 HD 
HETATM   35  C   UNL     1     -10.869  11.733  65.118  1.00  0.00    -0.351 A  
HETATM   36  C   UNL     1     -11.737  11.361  64.094  1.00  0.00    -0.036 A  
HETATM   37  C   UNL     1     -12.320  12.335  63.307  1.00  0.00    -0.518 A  
HETATM   38  C   UNL     1     -12.054  13.680  63.559  1.00  0.00    -0.341 A  
ENDBRANCH  24  25
ENDBRANCH  23  24
ENDBRANCH  22  23
ENDBRANCH  21  22
ENDBRANCH  20  21
ENDBRANCH  19  20
ENDBRANCH  18  19
ENDBRANCH  17  18
ENDBRANCH  16  17
ENDBRANCH  15  16
ENDBRANCH  14  15
TORSDOF 11
ENDMDL
MODEL      125
REMARK 921   NORMALIZED FREE ENERGY PREDICTED BY IDOCK:   -6.40 KCAL/MOL
REMARK 922        TOTAL FREE ENERGY PREDICTED BY IDOCK:  -11.87 KCAL/MOL
REMARK 923 INTER-LIGAND FREE ENERGY PREDICTED BY IDOCK:  -11.12 KCAL/MOL
REMARK 924 INTRA-LIGAND FREE ENERGY PREDICTED BY IDOCK:   -0.74 KCAL/MOL
REMARK 927      BINDING AFFINITY PREDICTED BY RF-SCORE:    0.00 PKD
ROOT
HETATM    1  C   UNL     1     -11.690  13.657  68.052  1.00  0.00    -0.387 C  
HETATM    2  C   UNL     1     -11.296  14.995  67.468  1.00  0.00    -0.333 A  
HETATM    3  C   UNL     1     -11.285  15.121  66.085  1.00  0.00    -0.271 A  
HETATM    4  C   UNL     1     -10.949  16.317  65.469  1.00  0.00    -0.149 A  
HETATM    5  N   UNL     1     -11.103  16.397  64.081  1.00  0.00    -1.262 NA 
HETATM    6  C   UNL     1     -10.708  17.442  66.281  1.00  0.00    -0.082 A  
HETATM    7  H2  UNL     1     -12.060  16.148  63.833  1.00  0.00     0.000 HD 
HETATM    8  C   UNL     1     -10.486  18.727  65.734  1.00  0.00    -0.317 A  
HETATM    9  H1  UNL     1     -10.856  17.276  63.629  1.00  0.00     0.000 HD 
HETATM   10  C   UNL     1     -10.230  19.838  66.535  1.00  0.00    -0.606 A  
HETATM   11  C   UNL     1     -10.178  19.696  67.909  1.00  0.00    -0.574 A  
HETATM   12  C   UNL     1     -10.401  18.441  68.483  1.00  0.00    -0.326 A  
HETATM   13  C   UNL     1     -10.698  17.299  67.694  1.00  0.00    -0.307 A  
HETATM   14  N   UNL     1     -10.996  16.075  68.252  1.00  0.00    -0.321 NA 
ENDROOT
BRANCH  14  15
HETATM   15  C   UNL     1     -11.062  15.932  69.733  1.00  0.00    -0.324 C  
BRANCH  15  16
HETATM   16  C   UNL     1     -12.509  15.763  70.193  1.00  0.00    -0.240 C  
BRANCH  16  17
HETATM   17  C   UNL     1     -12.604  15.616  71.709  1.00  0.00    -0.510 C  
BRANCH  17  18
HETATM   18  C   UNL     1     -12.297  14.194  72.189  1.00  0.00    -0.181 C  
BRANCH  18  19
HETATM   19  C   UNL     1     -13.071  13.139  71.404  1.00  0.00    -0.352 C  
BRANCH  19  20
HETATM   20  C   UNL     1     -12.315  11.816  71.265  1.00  0.00    -0.250 C  
BRANCH  20  21
HETATM   21  C   UNL     1     -13.219  10.577  71.315  1.00  0.00    -0.399 C  
BRANCH  21  22
HETATM   22  C   UNL     1     -12.586   9.406  72.072  1.00  0.00    -0.462 C  
BRANCH  22  23
HETATM   23  C   UNL     1     -11.590   8.606  71.224  1.00  0.00    -0.340 C  
BRANCH  23  24
HETATM   24  C   UNL     1     -12.190   7.284  70.747  1.00  0.00    -0.217 C  
BRANCH  24  25
HETATM   25  N   UNL     1     -11.132   6.254  70.591  1.00  0.00    -0.305 NA 
HETATM   26  C   UNL     1     -10.605   5.636  71.694  1.00  0.00    -0.241 A  
HETATM   27  C   UNL     1      -9.662   4.617  71.535  1.00  0.00    -0.241 A  
HETATM   28  C   UNL     1     -11.006   5.920  73.123  1.00  0.00    -0.286 C  
HETATM   29  C   UNL     1      -9.218   4.226  70.282  1.00  0.00    -0.133 A  
HETATM   30  N   UNL     1      -8.386   3.104  70.213  1.00  0.00    -0.048 NA 
HETATM   31  C   UNL     1      -9.809   4.820  69.155  1.00  0.00    -0.254 A  
HETATM   32  H1  UNL     1      -8.059   2.816  69.291  1.00  0.00     0.000 HD 
HETATM   33  C   UNL     1     -10.750   5.874  69.321  1.00  0.00    -0.331 A  
HETATM   34  H2  UNL     1      -8.845   2.315  70.669  1.00  0.00     0.000 HD 
HETATM   35  C   UNL     1     -11.283   6.485  68.158  1.00  0.00    -0.250 A  
HETATM   36  C   UNL     1     -10.952   6.052  66.876  1.00  0.00    -0.350 A  
HETATM   37  C   UNL     1     -10.071   4.999  66.719  1.00  0.00    -0.270 A  
HETATM   38  C   UNL     1      -9.503   4.398  67.841  1.00  0.00    -0.209 A  
ENDBRANCH  24  25
ENDBRANCH  23  24
ENDBRANCH  22  23
ENDBRANCH  21  22
ENDBRANCH  20  21
ENDBRANCH  19  20
ENDBRANCH  18  19
ENDBRANCH  17  18
ENDBRANCH  16  17
ENDBRANCH  15  16
ENDBRANCH  14  15
TORSDOF 11
ENDMDL
MODEL      126
REMARK 921   NORMALIZED FREE ENERGY PREDICTED BY IDOCK:   -6.40 KCAL/MOL
REMARK 922        TOTAL FREE ENERGY PREDICTED BY IDOCK:  -11.87 KCAL/MOL
REMARK 923 INTER-LIGAND FREE ENERGY PREDICTED BY IDOCK:  -10.77 KCAL/MOL
REMARK 924 INTRA-LIGAND FREE ENERGY PREDICTED BY IDOCK:   -1.09 KCAL/MOL
REMARK 927      BINDING AFFINITY PREDICTED BY RF-SCORE:    0.00 PKD
ROOT
HETATM    1  C   UNL     1      -9.418   8.640  70.700  1.00  0.00    -0.218 C  
HETATM    2  C   UNL     1      -9.391   7.182  71.099  1.00  0.00    -0.157 A  
HETATM    3  C   UNL     1      -8.306   6.417  70.690  1.00  0.00    -0.133 A  
HETATM    4  C   UNL     1      -8.198   5.076  71.026  1.00  0.00    -0.109 A  
HETATM    5  N   UNL     1      -7.007   4.420  70.695  1.00  0.00    -0.036 NA 
HETATM    6  C   UNL     1      -9.171   4.520  71.878  1.00  0.00    -0.178 A  
HETATM    7  H2  UNL     1      -6.219   4.931  71.093  1.00  0.00     0.000 HD 
HETATM    8  C   UNL     1      -9.066   3.198  72.371  1.00  0.00    -0.136 A  
HETATM    9  H1  UNL     1      -6.928   3.434  70.942  1.00  0.00     0.000 HD 
HETATM   10  C   UNL     1     -10.037   2.640  73.202  1.00  0.00    -0.197 A  
HETATM   11  C   UNL     1     -11.147   3.383  73.555  1.00  0.00    -0.317 A  
HETATM   12  C   UNL     1     -11.277   4.695  73.090  1.00  0.00    -0.367 A  
HETATM   13  C   UNL     1     -10.289   5.301  72.272  1.00  0.00    -0.212 A  
HETATM   14  N   UNL     1     -10.368   6.617  71.873  1.00  0.00    -0.198 NA 
ENDROOT
BRANCH  14  15
HETATM   15  C   UNL     1     -11.496   7.468  72.343  1.00  0.00    -0.315 C  
BRANCH  15  16
HETATM   16  C   UNL     1     -12.690   7.349  71.397  1.00  0.00    -0.408 C  
BRANCH  16  17
HETATM   17  C   UNL     1     -13.887   8.153  71.898  1.00  0.00    -0.424 C  
BRANCH  17  18
HETATM   18  C   UNL     1     -13.571   9.641  72.081  1.00  0.00    -0.471 C  
BRANCH  18  19
HETATM   19  C   UNL     1     -13.265  10.333  70.756  1.00  0.00    -0.283 C  
BRANCH  19  20
HETATM   20  C   UNL     1     -12.047  11.256  70.825  1.00  0.00    -0.450 C  
BRANCH  20  21
HETATM   21  C   UNL     1     -12.383  12.742  70.645  1.00  0.00    -0.381 C  
BRANCH  21  22
HETATM   22  C   UNL     1     -11.717  13.362  69.414  1.00  0.00    -0.382 C  
BRANCH  22  23
HETATM   23  C   UNL     1     -10.806  12.383  68.663  1.00  0.00    -0.273 C  
BRANCH  23  24
HETATM   24  C   UNL     1      -9.618  13.100  68.020  1.00  0.00    -0.220 C  
BRANCH  24  25
HETATM   25  N   UNL     1     -10.072  13.961  66.898  1.00  0.00    -0.256 NA 
HETATM   26  C   UNL     1     -10.625  13.398  65.778  1.00  0.00    -0.282 A  
HETATM   27  C   UNL     1     -11.115  14.218  64.759  1.00  0.00    -0.398 A  
HETATM   28  C   UNL     1     -10.818  11.915  65.558  1.00  0.00    -0.343 C  
HETATM   29  C   UNL     1     -11.034  15.600  64.834  1.00  0.00    -0.431 A  
HETATM   30  N   UNL     1     -11.680  16.339  63.838  1.00  0.00    -1.518 NA 
HETATM   31  C   UNL     1     -10.524  16.169  66.012  1.00  0.00    -0.349 A  
HETATM   32  H1  UNL     1     -11.621  17.355  63.893  1.00  0.00     0.000 HD 
HETATM   33  C   UNL     1     -10.003  15.332  67.036  1.00  0.00    -0.234 A  
HETATM   34  H2  UNL     1     -12.660  16.061  63.794  1.00  0.00     0.000 HD 
HETATM   35  C   UNL     1      -9.447  15.948  68.187  1.00  0.00    -0.203 A  
HETATM   36  C   UNL     1      -9.445  17.330  68.358  1.00  0.00    -0.283 A  
HETATM   37  C   UNL     1      -9.991  18.139  67.380  1.00  0.00    -0.329 A  
HETATM   38  C   UNL     1     -10.515  17.568  66.222  1.00  0.00    -0.283 A  
ENDBRANCH  24  25
ENDBRANCH  23  24
ENDBRANCH  22  23
ENDBRANCH  21  22
ENDBRANCH  20  21
ENDBRANCH  19  20
ENDBRANCH  18  19
ENDBRANCH  17  18
ENDBRANCH  16  17
ENDBRANCH  15  16
ENDBRANCH  14  15
TORSDOF 11
ENDMDL
MODEL      127
REMARK 921   NORMALIZED FREE ENERGY PREDICTED BY IDOCK:   -6.38 KCAL/MOL
REMARK 922        TOTAL FREE ENERGY PREDICTED BY IDOCK:  -11.84 KCAL/MOL
REMARK 923 INTER-LIGAND FREE ENERGY PREDICTED BY IDOCK:  -10.50 KCAL/MOL
REMARK 924 INTRA-LIGAND FREE ENERGY PREDICTED BY IDOCK:   -1.34 KCAL/MOL
REMARK 927      BINDING AFFINITY PREDICTED BY RF-SCORE:    0.00 PKD
ROOT
HETATM    1  C   UNL     1     -11.476  11.835  65.300  1.00  0.00    -0.250 C  
HETATM    2  C   UNL     1     -11.139  13.272  65.626  1.00  0.00    -0.282 A  
HETATM    3  C   UNL     1     -11.312  14.221  64.626  1.00  0.00    -0.375 A  
HETATM    4  C   UNL     1     -11.040  15.563  64.846  1.00  0.00    -0.416 A  
HETATM    5  N   UNL     1     -11.377  16.466  63.833  1.00  0.00    -1.535 NA 
HETATM    6  C   UNL     1     -10.671  15.966  66.143  1.00  0.00    -0.273 A  
HETATM    7  H2  UNL     1     -12.364  16.357  63.598  1.00  0.00     0.000 HD 
HETATM    8  C   UNL     1     -10.501  17.328  66.484  1.00  0.00    -0.260 A  
HETATM    9  H1  UNL     1     -11.177  17.453  63.995  1.00  0.00     0.000 HD 
HETATM   10  C   UNL     1     -10.119  17.728  67.764  1.00  0.00    -0.345 A  
HETATM   11  C   UNL     1      -9.886  16.776  68.739  1.00  0.00    -0.264 A  
HETATM   12  C   UNL     1     -10.053  15.422  68.437  1.00  0.00    -0.215 A  
HETATM   13  C   UNL     1     -10.474  14.988  67.153  1.00  0.00    -0.277 A  
HETATM   14  N   UNL     1     -10.717  13.662  66.867  1.00  0.00    -0.274 NA 
ENDROOT
BRANCH  14  15
HETATM   15  C   UNL     1     -10.587  12.636  67.939  1.00  0.00    -0.220 C  
BRANCH  15  16
HETATM   16  C   UNL     1     -11.921  12.433  68.655  1.00  0.00    -0.272 C  
BRANCH  16  17
HETATM   17  C   UNL     1     -11.724  11.894  70.069  1.00  0.00    -0.366 C  
BRANCH  17  18
HETATM   18  C   UNL     1     -12.939  12.131  70.971  1.00  0.00    -0.160 C  
BRANCH  18  19
HETATM   19  C   UNL     1     -12.986  11.158  72.145  1.00  0.00    -0.220 C  
BRANCH  19  20
HETATM   20  C   UNL     1     -13.254   9.712  71.720  1.00  0.00    -0.520 C  
BRANCH  20  21
HETATM   21  C   UNL     1     -12.244   8.703  72.282  1.00  0.00    -0.447 C  
BRANCH  21  22
HETATM   22  C   UNL     1     -10.849   8.847  71.665  1.00  0.00    -0.420 C  
BRANCH  22  23
HETATM   23  C   UNL     1     -10.762   8.302  70.235  1.00  0.00    -0.237 C  
BRANCH  23  24
HETATM   24  C   UNL     1     -11.643   7.066  70.049  1.00  0.00    -0.178 C  
BRANCH  24  25
HETATM   25  N   UNL     1     -10.824   5.896  69.643  1.00  0.00    -0.348 NA 
HETATM   26  C   UNL     1     -10.462   5.731  68.332  1.00  0.00    -0.222 A  
HETATM   27  C   UNL     1      -9.631   4.667  67.970  1.00  0.00    -0.207 A  
HETATM   28  C   UNL     1     -10.840   6.662  67.203  1.00  0.00    -0.471 C  
HETATM   29  C   UNL     1      -9.179   3.747  68.903  1.00  0.00    -0.156 A  
HETATM   30  N   UNL     1      -8.239   2.805  68.476  1.00  0.00    -0.063 NA 
HETATM   31  C   UNL     1      -9.504   3.959  70.253  1.00  0.00    -0.255 A  
HETATM   32  H1  UNL     1      -7.906   2.127  69.162  1.00  0.00     0.000 HD 
HETATM   33  C   UNL     1     -10.370   5.028  70.614  1.00  0.00    -0.208 A  
HETATM   34  H2  UNL     1      -7.440   3.288  68.065  1.00  0.00     0.000 HD 
HETATM   35  C   UNL     1     -10.717   5.175  71.981  1.00  0.00    -0.236 A  
HETATM   36  C   UNL     1     -10.199   4.343  72.970  1.00  0.00    -0.225 A  
HETATM   37  C   UNL     1      -9.324   3.332  72.621  1.00  0.00    -0.147 A  
HETATM   38  C   UNL     1      -8.988   3.139  71.282  1.00  0.00    -0.160 A  
ENDBRANCH  24  25
ENDBRANCH  23  24
ENDBRANCH  22  23
ENDBRANCH  21  22
ENDBRANCH  20  21
ENDBRANCH  19  20
ENDBRANCH  18  19
ENDBRANCH  17  18
ENDBRANCH  16  17
ENDBRANCH  15  16
ENDBRANCH  14  15
TORSDOF 11
ENDMDL
MODEL      128
REMARK 921   NORMALIZED FREE ENERGY PREDICTED BY IDOCK:   -6.38 KCAL/MOL
REMARK 922        TOTAL FREE ENERGY PREDICTED BY IDOCK:  -11.83 KCAL/MOL
REMARK 923 INTER-LIGAND FREE ENERGY PREDICTED BY IDOCK:   -9.10 KCAL/MOL
REMARK 924 INTRA-LIGAND FREE ENERGY PREDICTED BY IDOCK:   -2.73 KCAL/MOL
REMARK 927      BINDING AFFINITY PREDICTED BY RF-SCORE:    0.00 PKD
ROOT
HETATM    1  C   UNL     1      -9.905   4.691  67.889  1.00  0.00    -0.177 C  
HETATM    2  C   UNL     1     -10.157   5.303  69.249  1.00  0.00    -0.230 A  
HETATM    3  C   UNL     1     -11.278   6.108  69.400  1.00  0.00    -0.466 A  
HETATM    4  C   UNL     1     -11.589   6.696  70.617  1.00  0.00    -0.382 A  
HETATM    5  N   UNL     1     -12.810   7.373  70.716  1.00  0.00    -0.589 NA 
HETATM    6  C   UNL     1     -10.792   6.382  71.734  1.00  0.00    -0.283 A  
HETATM    7  H2  UNL     1     -13.566   6.745  70.441  1.00  0.00     0.000 HD 
HETATM    8  C   UNL     1     -11.114   6.834  73.034  1.00  0.00    -0.252 A  
HETATM    9  H1  UNL     1     -13.038   7.804  71.611  1.00  0.00     0.000 HD 
HETATM   10  C   UNL     1     -10.317   6.538  74.139  1.00  0.00    -0.351 A  
HETATM   11  C   UNL     1      -9.167   5.790  73.974  1.00  0.00    -0.127 A  
HETATM   12  C   UNL     1      -8.824   5.321  72.703  1.00  0.00    -0.123 A  
HETATM   13  C   UNL     1      -9.635   5.577  71.567  1.00  0.00    -0.150 A  
HETATM   14  N   UNL     1      -9.348   5.054  70.324  1.00  0.00    -0.145 NA 
ENDROOT
BRANCH  14  15
HETATM   15  C   UNL     1      -8.180   4.147  70.153  1.00  0.00    -0.057 C  
BRANCH  15  16
HETATM   16  C   UNL     1      -7.067   4.844  69.373  1.00  0.00    -0.055 C  
BRANCH  16  17
HETATM   17  C   UNL     1      -6.096   5.567  70.302  1.00  0.00    -0.025 C  
BRANCH  17  18
HETATM   18  C   UNL     1      -6.253   7.090  70.260  1.00  0.00    -0.030 C  
BRANCH  18  19
HETATM   19  C   UNL     1      -6.542   7.680  71.636  1.00  0.00    -0.042 C  
BRANCH  19  20
HETATM   20  C   UNL     1      -7.659   8.727  71.622  1.00  0.00    -0.109 C  
BRANCH  20  21
HETATM   21  C   UNL     1      -8.473   8.747  70.321  1.00  0.00    -0.154 C  
BRANCH  21  22
HETATM   22  C   UNL     1      -9.660   9.713  70.375  1.00  0.00    -0.292 C  
BRANCH  22  23
HETATM   23  C   UNL     1      -9.711  10.674  69.181  1.00  0.00    -0.205 C  
BRANCH  23  24
HETATM   24  C   UNL     1     -10.992  10.489  68.365  1.00  0.00    -0.261 C  
BRANCH  24  25
HETATM   25  N   UNL     1     -10.724  10.687  66.918  1.00  0.00    -0.255 NA 
HETATM   26  C   UNL     1     -10.090   9.711  66.196  1.00  0.00    -0.258 A  
HETATM   27  C   UNL     1      -9.906   9.873  64.820  1.00  0.00    -0.239 A  
HETATM   28  C   UNL     1      -9.603   8.394  66.757  1.00  0.00    -0.283 C  
HETATM   29  C   UNL     1     -10.327  11.017  64.160  1.00  0.00    -0.369 A  
HETATM   30  N   UNL     1     -10.233  11.028  62.765  1.00  0.00    -0.732 NA 
HETATM   31  C   UNL     1     -11.032  11.984  64.896  1.00  0.00    -0.356 A  
HETATM   32  H1  UNL     1     -10.543  11.869  62.279  1.00  0.00     0.000 HD 
HETATM   33  C   UNL     1     -11.194  11.826  66.300  1.00  0.00    -0.312 A  
HETATM   34  H2  UNL     1     -10.727  10.220  62.387  1.00  0.00     0.000 HD 
HETATM   35  C   UNL     1     -11.865  12.851  67.015  1.00  0.00    -0.437 A  
HETATM   36  C   UNL     1     -12.405  13.967  66.379  1.00  0.00    -0.468 A  
HETATM   37  C   UNL     1     -12.282  14.095  65.008  1.00  0.00    -0.450 A  
HETATM   38  C   UNL     1     -11.600  13.122  64.279  1.00  0.00    -0.440 A  
ENDBRANCH  24  25
ENDBRANCH  23  24
ENDBRANCH  22  23
ENDBRANCH  21  22
ENDBRANCH  20  21
ENDBRANCH  19  20
ENDBRANCH  18  19
ENDBRANCH  17  18
ENDBRANCH  16  17
ENDBRANCH  15  16
ENDBRANCH  14  15
TORSDOF 11
ENDMDL
MODEL      129
REMARK 921   NORMALIZED FREE ENERGY PREDICTED BY IDOCK:   -6.35 KCAL/MOL
REMARK 922        TOTAL FREE ENERGY PREDICTED BY IDOCK:  -11.79 KCAL/MOL
REMARK 923 INTER-LIGAND FREE ENERGY PREDICTED BY IDOCK:  -10.31 KCAL/MOL
REMARK 924 INTRA-LIGAND FREE ENERGY PREDICTED BY IDOCK:   -1.48 KCAL/MOL
REMARK 927      BINDING AFFINITY PREDICTED BY RF-SCORE:    0.00 PKD
ROOT
HETATM    1  C   UNL     1     -10.635  12.037  65.834  1.00  0.00    -0.302 C  
HETATM    2  C   UNL     1     -10.555  13.539  65.994  1.00  0.00    -0.285 A  
HETATM    3  C   UNL     1     -10.884  14.326  64.899  1.00  0.00    -0.429 A  
HETATM    4  C   UNL     1     -10.851  15.711  64.966  1.00  0.00    -0.450 A  
HETATM    5  N   UNL     1     -11.334  16.425  63.864  1.00  0.00    -1.535 NA 
HETATM    6  C   UNL     1     -10.566  16.313  66.206  1.00  0.00    -0.256 A  
HETATM    7  H2  UNL     1     -12.285  16.121  63.656  1.00  0.00     0.000 HD 
HETATM    8  C   UNL     1     -10.637  17.713  66.393  1.00  0.00    -0.208 A  
HETATM    9  H1  UNL     1     -11.309  17.443  63.914  1.00  0.00     0.000 HD 
HETATM   10  C   UNL     1     -10.339  18.312  67.616  1.00  0.00    -0.414 A  
HETATM   11  C   UNL     1      -9.950  17.530  68.686  1.00  0.00    -0.347 A  
HETATM   12  C   UNL     1      -9.876  16.142  68.537  1.00  0.00    -0.226 A  
HETATM   13  C   UNL     1     -10.208  15.502  67.315  1.00  0.00    -0.260 A  
HETATM   14  N   UNL     1     -10.214  14.131  67.180  1.00  0.00    -0.256 NA 
ENDROOT
BRANCH  14  15
HETATM   15  C   UNL     1      -9.914  13.268  68.356  1.00  0.00    -0.226 C  
BRANCH  15  16
HETATM   16  C   UNL     1     -11.198  12.912  69.104  1.00  0.00    -0.293 C  
BRANCH  16  17
HETATM   17  C   UNL     1     -11.299  11.412  69.366  1.00  0.00    -0.365 C  
BRANCH  17  18
HETATM   18  C   UNL     1     -12.199  11.075  70.558  1.00  0.00    -0.472 C  
BRANCH  18  19
HETATM   19  C   UNL     1     -11.825   9.746  71.207  1.00  0.00    -0.481 C  
BRANCH  19  20
HETATM   20  C   UNL     1     -12.986   9.096  71.964  1.00  0.00    -0.496 C  
BRANCH  20  21
HETATM   21  C   UNL     1     -13.095   7.581  71.750  1.00  0.00    -0.362 C  
BRANCH  21  22
HETATM   22  C   UNL     1     -12.207   7.073  70.611  1.00  0.00    -0.289 C  
BRANCH  22  23
HETATM   23  C   UNL     1     -11.113   6.107  71.082  1.00  0.00    -0.360 C  
BRANCH  23  24
HETATM   24  C   UNL     1     -10.255   5.617  69.915  1.00  0.00    -0.250 C  
BRANCH  24  25
HETATM   25  N   UNL     1      -9.553   6.754  69.267  1.00  0.00    -0.145 NA 
HETATM   26  C   UNL     1      -9.902   7.149  68.003  1.00  0.00    -0.138 A  
HETATM   27  C   UNL     1      -9.287   8.265  67.429  1.00  0.00    -0.171 A  
HETATM   28  C   UNL     1     -10.976   6.503  67.158  1.00  0.00    -0.480 C  
HETATM   29  C   UNL     1      -8.303   8.977  68.097  1.00  0.00    -0.121 A  
HETATM   30  N   UNL     1      -7.850  10.160  67.506  1.00  0.00    -0.102 NA 
HETATM   31  C   UNL     1      -7.997   8.604  69.416  1.00  0.00    -0.102 A  
HETATM   32  H1  UNL     1      -7.127  10.685  67.997  1.00  0.00     0.000 HD 
HETATM   33  C   UNL     1      -8.606   7.453  69.987  1.00  0.00    -0.140 A  
HETATM   34  H2  UNL     1      -8.646  10.773  67.325  1.00  0.00     0.000 HD 
HETATM   35  C   UNL     1      -8.229   7.079  71.302  1.00  0.00    -0.113 A  
HETATM   36  C   UNL     1      -7.327   7.828  72.055  1.00  0.00    -0.079 A  
HETATM   37  C   UNL     1      -6.769   8.969  71.512  1.00  0.00    -0.058 A  
HETATM   38  C   UNL     1      -7.093   9.347  70.211  1.00  0.00    -0.097 A  
ENDBRANCH  24  25
ENDBRANCH  23  24
ENDBRANCH  22  23
ENDBRANCH  21  22
ENDBRANCH  20  21
ENDBRANCH  19  20
ENDBRANCH  18  19
ENDBRANCH  17  18
ENDBRANCH  16  17
ENDBRANCH  15  16
ENDBRANCH  14  15
TORSDOF 11
ENDMDL
MODEL      130
REMARK 921   NORMALIZED FREE ENERGY PREDICTED BY IDOCK:   -6.35 KCAL/MOL
REMARK 922        TOTAL FREE ENERGY PREDICTED BY IDOCK:  -11.78 KCAL/MOL
REMARK 923 INTER-LIGAND FREE ENERGY PREDICTED BY IDOCK:   -9.64 KCAL/MOL
REMARK 924 INTRA-LIGAND FREE ENERGY PREDICTED BY IDOCK:   -2.14 KCAL/MOL
REMARK 927      BINDING AFFINITY PREDICTED BY RF-SCORE:    0.00 PKD
ROOT
HETATM    1  C   UNL     1      -7.283  10.984  69.153  1.00  0.00    -0.121 C  
HETATM    2  C   UNL     1      -8.177   9.794  69.423  1.00  0.00    -0.135 A  
HETATM    3  C   UNL     1      -8.759   9.692  70.680  1.00  0.00    -0.073 A  
HETATM    4  C   UNL     1      -9.603   8.641  71.004  1.00  0.00    -0.209 A  
HETATM    5  N   UNL     1     -10.256   8.692  72.240  1.00  0.00    -0.322 NA 
HETATM    6  C   UNL     1      -9.938   7.718  69.995  1.00  0.00    -0.187 A  
HETATM    7  H2  UNL     1     -10.769   9.570  72.314  1.00  0.00     0.000 HD 
HETATM    8  C   UNL     1     -10.889   6.692  70.205  1.00  0.00    -0.321 A  
HETATM    9  H1  UNL     1     -10.876   7.918  72.478  1.00  0.00     0.000 HD 
HETATM   10  C   UNL     1     -11.210   5.767  69.213  1.00  0.00    -0.083 A  
HETATM   11  C   UNL     1     -10.582   5.834  67.984  1.00  0.00    -0.295 A  
HETATM   12  C   UNL     1      -9.642   6.840  67.742  1.00  0.00    -0.133 A  
HETATM   13  C   UNL     1      -9.321   7.815  68.720  1.00  0.00    -0.146 A  
HETATM   14  N   UNL     1      -8.455   8.857  68.466  1.00  0.00    -0.128 NA 
ENDROOT
BRANCH  14  15
HETATM   15  C   UNL     1      -7.861   9.013  67.110  1.00  0.00    -0.099 C  
BRANCH  15  16
HETATM   16  C   UNL     1      -8.809   9.783  66.192  1.00  0.00    -0.162 C  
BRANCH  16  17
HETATM   17  C   UNL     1      -8.052  10.518  65.090  1.00  0.00    -0.112 C  
BRANCH  17  18
HETATM   18  C   UNL     1      -8.773  10.473  63.740  1.00  0.00    -0.185 C  
BRANCH  18  19
HETATM   19  C   UNL     1     -10.226  10.928  63.845  1.00  0.00    -0.418 C  
BRANCH  19  20
HETATM   20  C   UNL     1     -10.400  12.438  63.665  1.00  0.00    -0.434 C  
BRANCH  20  21
HETATM   21  C   UNL     1     -10.699  13.188  64.970  1.00  0.00    -0.338 C  
BRANCH  21  22
HETATM   22  C   UNL     1     -12.030  12.774  65.605  1.00  0.00    -0.503 C  
BRANCH  22  23
HETATM   23  C   UNL     1     -12.376  13.580  66.863  1.00  0.00    -0.289 C  
BRANCH  23  24
HETATM   24  C   UNL     1     -11.178  13.693  67.806  1.00  0.00    -0.285 C  
BRANCH  24  25
HETATM   25  N   UNL     1     -11.616  14.111  69.162  1.00  0.00    -0.285 NA 
HETATM   26  C   UNL     1     -11.661  15.439  69.492  1.00  0.00    -0.332 A  
HETATM   27  C   UNL     1     -12.144  15.827  70.745  1.00  0.00    -0.448 A  
HETATM   28  C   UNL     1     -11.279  16.576  68.572  1.00  0.00    -0.296 C  
HETATM   29  C   UNL     1     -12.559  14.897  71.685  1.00  0.00    -0.329 A  
HETATM   30  N   UNL     1     -13.160  15.382  72.850  1.00  0.00    -0.443 NA 
HETATM   31  C   UNL     1     -12.569  13.542  71.315  1.00  0.00    -0.427 A  
HETATM   32  H1  UNL     1     -13.466  14.698  73.542  1.00  0.00     0.000 HD 
HETATM   33  C   UNL     1     -12.053  13.149  70.049  1.00  0.00    -0.305 A  
HETATM   34  H2  UNL     1     -13.947  15.981  72.599  1.00  0.00     0.000 HD 
HETATM   35  C   UNL     1     -12.032  11.766  69.735  1.00  0.00    -0.392 A  
HETATM   36  C   UNL     1     -12.541  10.802  70.603  1.00  0.00    -0.446 A  
HETATM   37  C   UNL     1     -13.080  11.192  71.814  1.00  0.00    -0.536 A  
HETATM   38  C   UNL     1     -13.087  12.540  72.167  1.00  0.00    -0.428 A  
ENDBRANCH  24  25
ENDBRANCH  23  24
ENDBRANCH  22  23
ENDBRANCH  21  22
ENDBRANCH  20  21
ENDBRANCH  19  20
ENDBRANCH  18  19
ENDBRANCH  17  18
ENDBRANCH  16  17
ENDBRANCH  15  16
ENDBRANCH  14  15
TORSDOF 11
ENDMDL
MODEL      131
REMARK 921   NORMALIZED FREE ENERGY PREDICTED BY IDOCK:   -6.35 KCAL/MOL
REMARK 922        TOTAL FREE ENERGY PREDICTED BY IDOCK:  -11.78 KCAL/MOL
REMARK 923 INTER-LIGAND FREE ENERGY PREDICTED BY IDOCK:   -8.81 KCAL/MOL
REMARK 924 INTRA-LIGAND FREE ENERGY PREDICTED BY IDOCK:   -2.98 KCAL/MOL
REMARK 927      BINDING AFFINITY PREDICTED BY RF-SCORE:    0.00 PKD
ROOT
HETATM    1  C   UNL     1     -10.661  17.298  69.562  1.00  0.00     0.006 C  
HETATM    2  C   UNL     1      -9.692  17.719  68.480  1.00  0.00    -0.343 A  
HETATM    3  C   UNL     1     -10.066  18.767  67.648  1.00  0.00    -0.415 A  
HETATM    4  C   UNL     1      -9.230  19.224  66.640  1.00  0.00    -0.338 A  
HETATM    5  N   UNL     1      -9.623  20.372  65.944  1.00  0.00    -0.640 NA 
HETATM    6  C   UNL     1      -7.943  18.663  66.533  1.00  0.00    -0.296 A  
HETATM    7  H2  UNL     1      -9.793  21.127  66.609  1.00  0.00     0.000 HD 
HETATM    8  C   UNL     1      -6.984  19.158  65.619  1.00  0.00    -0.293 A  
HETATM    9  H1  UNL     1      -9.008  20.708  65.203  1.00  0.00     0.000 HD 
HETATM   10  C   UNL     1      -5.715  18.594  65.500  1.00  0.00    -0.237 A  
HETATM   11  C   UNL     1      -5.370  17.511  66.285  1.00  0.00    -0.227 A  
HETATM   12  C   UNL     1      -6.292  17.002  67.204  1.00  0.00    -0.215 A  
HETATM   13  C   UNL     1      -7.578  17.577  67.372  1.00  0.00    -0.196 A  
HETATM   14  N   UNL     1      -8.465  17.134  68.328  1.00  0.00    -0.228 NA 
ENDROOT
BRANCH  14  15
HETATM   15  C   UNL     1      -8.065  16.046  69.263  1.00  0.00    -0.212 C  
BRANCH  15  16
HETATM   16  C   UNL     1      -8.860  14.773  68.980  1.00  0.00    -0.136 C  
BRANCH  16  17
HETATM   17  C   UNL     1      -8.123  13.855  68.008  1.00  0.00    -0.154 C  
BRANCH  17  18
HETATM   18  C   UNL     1      -8.704  13.899  66.592  1.00  0.00    -0.038 C  
BRANCH  18  19
HETATM   19  C   UNL     1     -10.013  14.680  66.527  1.00  0.00    -0.292 C  
BRANCH  19  20
HETATM   20  C   UNL     1     -10.116  15.586  65.299  1.00  0.00    -0.337 C  
BRANCH  20  21
HETATM   21  C   UNL     1     -11.479  15.528  64.597  1.00  0.00    -0.326 C  
BRANCH  21  22
HETATM   22  C   UNL     1     -12.082  14.120  64.579  1.00  0.00    -0.489 C  
BRANCH  22  23
HETATM   23  C   UNL     1     -11.148  13.071  63.963  1.00  0.00    -0.433 C  
BRANCH  23  24
HETATM   24  C   UNL     1     -11.590  11.650  64.314  1.00  0.00    -0.223 C  
BRANCH  24  25
HETATM   25  N   UNL     1     -10.491  10.911  64.987  1.00  0.00    -0.286 NA 
HETATM   26  C   UNL     1      -9.493  10.337  64.246  1.00  0.00    -0.307 A  
HETATM   27  C   UNL     1      -8.425   9.707  64.890  1.00  0.00    -0.161 A  
HETATM   28  C   UNL     1      -9.401  10.374  62.738  1.00  0.00    -0.341 C  
HETATM   29  C   UNL     1      -8.357   9.620  66.272  1.00  0.00    -0.116 A  
HETATM   30  N   UNL     1      -7.185   9.102  66.829  1.00  0.00    -0.085 NA 
HETATM   31  C   UNL     1      -9.352  10.265  67.025  1.00  0.00    -0.177 A  
HETATM   32  H1  UNL     1      -7.135   9.037  67.846  1.00  0.00     0.000 HD 
HETATM   33  C   UNL     1     -10.450  10.884  66.366  1.00  0.00    -0.250 A  
HETATM   34  H2  UNL     1      -6.384   9.633  66.486  1.00  0.00     0.000 HD 
HETATM   35  C   UNL     1     -11.461  11.478  67.164  1.00  0.00    -0.313 A  
HETATM   36  C   UNL     1     -11.381  11.514  68.554  1.00  0.00    -0.337 A  
HETATM   37  C   UNL     1     -10.291  10.949  69.189  1.00  0.00    -0.228 A  
HETATM   38  C   UNL     1      -9.296  10.329  68.436  1.00  0.00    -0.143 A  
ENDBRANCH  24  25
ENDBRANCH  23  24
ENDBRANCH  22  23
ENDBRANCH  21  22
ENDBRANCH  20  21
ENDBRANCH  19  20
ENDBRANCH  18  19
ENDBRANCH  17  18
ENDBRANCH  16  17
ENDBRANCH  15  16
ENDBRANCH  14  15
TORSDOF 11
ENDMDL
MODEL      132
REMARK 921   NORMALIZED FREE ENERGY PREDICTED BY IDOCK:   -6.30 KCAL/MOL
REMARK 922        TOTAL FREE ENERGY PREDICTED BY IDOCK:  -11.71 KCAL/MOL
REMARK 923 INTER-LIGAND FREE ENERGY PREDICTED BY IDOCK:   -9.41 KCAL/MOL
REMARK 924 INTRA-LIGAND FREE ENERGY PREDICTED BY IDOCK:   -2.29 KCAL/MOL
REMARK 927      BINDING AFFINITY PREDICTED BY RF-SCORE:    0.00 PKD
ROOT
HETATM    1  C   UNL     1      -7.673   6.415  70.529  1.00  0.00    -0.105 C  
HETATM    2  C   UNL     1      -7.865   6.108  69.061  1.00  0.00    -0.100 A  
HETATM    3  C   UNL     1      -6.775   6.277  68.216  1.00  0.00    -0.068 A  
HETATM    4  C   UNL     1      -6.863   6.004  66.859  1.00  0.00    -0.063 A  
HETATM    5  N   UNL     1      -5.683   6.064  66.109  1.00  0.00    -0.016 NA 
HETATM    6  C   UNL     1      -8.061   5.456  66.363  1.00  0.00    -0.105 A  
HETATM    7  H2  UNL     1      -4.984   5.452  66.531  1.00  0.00     0.000 HD 
HETATM    8  C   UNL     1      -8.191   5.031  65.021  1.00  0.00    -0.133 A  
HETATM    9  H1  UNL     1      -5.748   5.863  65.112  1.00  0.00     0.000 HD 
HETATM   10  C   UNL     1      -9.382   4.504  64.524  1.00  0.00    -0.114 A  
HETATM   11  C   UNL     1     -10.483   4.397  65.352  1.00  0.00    -0.219 A  
HETATM   12  C   UNL     1     -10.386   4.802  66.686  1.00  0.00    -0.258 A  
HETATM   13  C   UNL     1      -9.177   5.309  67.228  1.00  0.00    -0.113 A  
HETATM   14  N   UNL     1      -9.048   5.638  68.561  1.00  0.00    -0.114 NA 
ENDROOT
BRANCH  14  15
HETATM   15  C   UNL     1     -10.187   5.416  69.493  1.00  0.00    -0.266 C  
BRANCH  15  16
HETATM   16  C   UNL     1     -11.164   6.589  69.439  1.00  0.00    -0.418 C  
BRANCH  16  17
HETATM   17  C   UNL     1     -11.970   6.711  70.729  1.00  0.00    -0.412 C  
BRANCH  17  18
HETATM   18  C   UNL     1     -11.098   7.025  71.948  1.00  0.00    -0.274 C  
BRANCH  18  19
HETATM   19  C   UNL     1     -11.273   8.463  72.429  1.00  0.00    -0.438 C  
BRANCH  19  20
HETATM   20  C   UNL     1     -12.628   9.065  72.050  1.00  0.00    -0.464 C  
BRANCH  20  21
HETATM   21  C   UNL     1     -12.528  10.276  71.112  1.00  0.00    -0.495 C  
BRANCH  21  22
HETATM   22  C   UNL     1     -11.201  10.332  70.349  1.00  0.00    -0.407 C  
BRANCH  22  23
HETATM   23  C   UNL     1     -11.378  10.589  68.848  1.00  0.00    -0.313 C  
BRANCH  23  24
HETATM   24  C   UNL     1     -10.275  11.493  68.298  1.00  0.00    -0.196 C  
BRANCH  24  25
HETATM   25  N   UNL     1     -10.165  11.348  66.824  1.00  0.00    -0.216 NA 
HETATM   26  C   UNL     1      -9.443  10.317  66.285  1.00  0.00    -0.177 A  
HETATM   27  C   UNL     1      -9.405  10.146  64.899  1.00  0.00    -0.310 A  
HETATM   28  C   UNL     1      -8.702   9.268  67.082  1.00  0.00    -0.134 C  
HETATM   29  C   UNL     1     -10.061  11.013  64.040  1.00  0.00    -0.350 A  
HETATM   30  N   UNL     1     -10.088  10.680  62.683  1.00  0.00    -0.763 NA 
HETATM   31  C   UNL     1     -10.851  12.030  64.603  1.00  0.00    -0.357 A  
HETATM   32  H1  UNL     1     -10.571  11.318  62.051  1.00  0.00     0.000 HD 
HETATM   33  C   UNL     1     -10.867  12.216  66.013  1.00  0.00    -0.282 A  
HETATM   34  H2  UNL     1     -10.473   9.742  62.573  1.00  0.00     0.000 HD 
HETATM   35  C   UNL     1     -11.634  13.288  66.538  1.00  0.00    -0.392 A  
HETATM   36  C   UNL     1     -12.400  14.118  65.723  1.00  0.00    -0.481 A  
HETATM   37  C   UNL     1     -12.416  13.907  64.357  1.00  0.00    -0.321 A  
HETATM   38  C   UNL     1     -11.648  12.883  63.806  1.00  0.00    -0.538 A  
ENDBRANCH  24  25
ENDBRANCH  23  24
ENDBRANCH  22  23
ENDBRANCH  21  22
ENDBRANCH  20  21
ENDBRANCH  19  20
ENDBRANCH  18  19
ENDBRANCH  17  18
ENDBRANCH  16  17
ENDBRANCH  15  16
ENDBRANCH  14  15
TORSDOF 11
ENDMDL
MODEL      133
REMARK 921   NORMALIZED FREE ENERGY PREDICTED BY IDOCK:   -6.30 KCAL/MOL
REMARK 922        TOTAL FREE ENERGY PREDICTED BY IDOCK:  -11.70 KCAL/MOL
REMARK 923 INTER-LIGAND FREE ENERGY PREDICTED BY IDOCK:   -9.29 KCAL/MOL
REMARK 924 INTRA-LIGAND FREE ENERGY PREDICTED BY IDOCK:   -2.41 KCAL/MOL
REMARK 927      BINDING AFFINITY PREDICTED BY RF-SCORE:    0.00 PKD
ROOT
HETATM    1  C   UNL     1     -13.659  15.443  72.538  1.00  0.00    -0.634 C  
HETATM    2  C   UNL     1     -13.223  14.212  71.776  1.00  0.00    -0.373 A  
HETATM    3  C   UNL     1     -13.447  12.973  72.363  1.00  0.00    -0.615 A  
HETATM    4  C   UNL     1     -13.090  11.794  71.725  1.00  0.00    -0.375 A  
HETATM    5  N   UNL     1     -13.481  10.591  72.321  1.00  0.00    -0.551 NA 
HETATM    6  C   UNL     1     -12.577  11.872  70.416  1.00  0.00    -0.153 A  
HETATM    7  H2  UNL     1     -14.490  10.601  72.471  1.00  0.00     0.000 HD 
HETATM    8  C   UNL     1     -12.309  10.716  69.647  1.00  0.00    -0.209 A  
HETATM    9  H1  UNL     1     -13.218   9.725  71.852  1.00  0.00     0.000 HD 
HETATM   10  C   UNL     1     -11.785  10.790  68.358  1.00  0.00    -0.232 A  
HETATM   11  C   UNL     1     -11.503  12.023  67.802  1.00  0.00    -0.394 A  
HETATM   12  C   UNL     1     -11.764  13.186  68.532  1.00  0.00    -0.387 A  
HETATM   13  C   UNL     1     -12.329  13.142  69.832  1.00  0.00    -0.135 A  
HETATM   14  N   UNL     1     -12.663  14.283  70.530  1.00  0.00    -0.347 NA 
ENDROOT
BRANCH  14  15
HETATM   15  C   UNL     1     -12.478  15.619  69.899  1.00  0.00    -0.161 C  
BRANCH  15  16
HETATM   16  C   UNL     1     -11.076  16.157  70.177  1.00  0.00    -0.373 C  
BRANCH  16  17
HETATM   17  C   UNL     1     -10.162  16.000  68.964  1.00  0.00    -0.236 C  
BRANCH  17  18
HETATM   18  C   UNL     1      -9.398  17.284  68.624  1.00  0.00    -0.267 C  
BRANCH  18  19
HETATM   19  C   UNL     1      -8.163  17.012  67.770  1.00  0.00    -0.196 C  
BRANCH  19  20
HETATM   20  C   UNL     1      -7.077  16.230  68.512  1.00  0.00    -0.146 C  
BRANCH  20  21
HETATM   21  C   UNL     1      -6.819  14.831  67.939  1.00  0.00    -0.174 C  
BRANCH  21  22
HETATM   22  C   UNL     1      -7.556  13.727  68.704  1.00  0.00    -0.125 C  
BRANCH  22  23
HETATM   23  C   UNL     1      -8.511  12.915  67.821  1.00  0.00    -0.185 C  
BRANCH  23  24
HETATM   24  C   UNL     1      -7.993  12.802  66.387  1.00  0.00     0.723 C  
BRANCH  24  25
HETATM   25  N   UNL     1      -9.100  12.467  65.455  1.00  0.00     0.279 NA 
HETATM   26  C   UNL     1      -9.290  11.173  65.049  1.00  0.00    -0.207 A  
HETATM   27  C   UNL     1     -10.377  10.854  64.231  1.00  0.00    -0.436 A  
HETATM   28  C   UNL     1      -8.436   9.998  65.468  1.00  0.00    -0.155 C  
HETATM   29  C   UNL     1     -11.264  11.823  63.790  1.00  0.00    -0.436 A  
HETATM   30  N   UNL     1     -12.399  11.391  63.098  1.00  0.00    -0.833 NA 
HETATM   31  C   UNL     1     -11.099  13.136  64.262  1.00  0.00    -0.426 A  
HETATM   32  H1  UNL     1     -13.052  12.104  62.773  1.00  0.00     0.000 HD 
HETATM   33  C   UNL     1      -9.977  13.461  65.073  1.00  0.00    -0.155 A  
HETATM   34  H2  UNL     1     -12.901  10.708  63.666  1.00  0.00     0.000 HD 
HETATM   35  C   UNL     1      -9.817  14.809  65.485  1.00  0.00    -0.336 A  
HETATM   36  C   UNL     1     -10.743  15.797  65.159  1.00  0.00    -0.455 A  
HETATM   37  C   UNL     1     -11.854  15.469  64.406  1.00  0.00    -0.222 A  
HETATM   38  C   UNL     1     -12.025  14.160  63.958  1.00  0.00    -0.359 A  
ENDBRANCH  24  25
ENDBRANCH  23  24
ENDBRANCH  22  23
ENDBRANCH  21  22
ENDBRANCH  20  21
ENDBRANCH  19  20
ENDBRANCH  18  19
ENDBRANCH  17  18
ENDBRANCH  16  17
ENDBRANCH  15  16
ENDBRANCH  14  15
TORSDOF 11
ENDMDL
MODEL      134
REMARK 921   NORMALIZED FREE ENERGY PREDICTED BY IDOCK:   -6.29 KCAL/MOL
REMARK 922        TOTAL FREE ENERGY PREDICTED BY IDOCK:  -11.69 KCAL/MOL
REMARK 923 INTER-LIGAND FREE ENERGY PREDICTED BY IDOCK:  -10.05 KCAL/MOL
REMARK 924 INTRA-LIGAND FREE ENERGY PREDICTED BY IDOCK:   -1.64 KCAL/MOL
REMARK 927      BINDING AFFINITY PREDICTED BY RF-SCORE:    0.00 PKD
ROOT
HETATM    1  C   UNL     1     -11.640   7.975  72.704  1.00  0.00    -0.448 C  
HETATM    2  C   UNL     1     -11.037   6.661  72.265  1.00  0.00    -0.258 A  
HETATM    3  C   UNL     1     -10.935   5.646  73.209  1.00  0.00    -0.316 A  
HETATM    4  C   UNL     1     -10.407   4.406  72.884  1.00  0.00    -0.178 A  
HETATM    5  N   UNL     1     -10.473   3.400  73.854  1.00  0.00    -0.164 NA 
HETATM    6  C   UNL     1     -10.059   4.157  71.543  1.00  0.00    -0.184 A  
HETATM    7  H2  UNL     1     -11.441   3.286  74.156  1.00  0.00     0.000 HD 
HETATM    8  C   UNL     1      -9.635   2.882  71.103  1.00  0.00    -0.226 A  
HETATM    9  H1  UNL     1     -10.085   2.488  73.616  1.00  0.00     0.000 HD 
HETATM   10  C   UNL     1      -9.275   2.638  69.779  1.00  0.00    -0.199 A  
HETATM   11  C   UNL     1      -9.317   3.666  68.856  1.00  0.00    -0.235 A  
HETATM   12  C   UNL     1      -9.738   4.937  69.257  1.00  0.00    -0.258 A  
HETATM   13  C   UNL     1     -10.145   5.206  70.589  1.00  0.00    -0.239 A  
HETATM   14  N   UNL     1     -10.636   6.434  70.977  1.00  0.00    -0.226 NA 
ENDROOT
BRANCH  14  15
HETATM   15  C   UNL     1     -10.801   7.518  69.969  1.00  0.00    -0.249 C  
BRANCH  15  16
HETATM   16  C   UNL     1      -9.532   8.363  69.875  1.00  0.00    -0.166 C  
BRANCH  16  17
HETATM   17  C   UNL     1      -9.819   9.839  70.135  1.00  0.00    -0.306 C  
BRANCH  17  18
HETATM   18  C   UNL     1     -11.316  10.159  70.164  1.00  0.00    -0.372 C  
BRANCH  18  19
HETATM   19  C   UNL     1     -11.618  11.561  69.644  1.00  0.00    -0.403 C  
BRANCH  19  20
HETATM   20  C   UNL     1     -12.307  12.454  70.678  1.00  0.00    -0.367 C  
BRANCH  20  21
HETATM   21  C   UNL     1     -12.465  13.913  70.231  1.00  0.00    -0.380 C  
BRANCH  21  22
HETATM   22  C   UNL     1     -11.358  14.369  69.276  1.00  0.00    -0.319 C  
BRANCH  22  23
HETATM   23  C   UNL     1     -11.818  14.455  67.816  1.00  0.00    -0.402 C  
BRANCH  23  24
HETATM   24  C   UNL     1     -10.638  14.664  66.866  1.00  0.00    -0.281 C  
BRANCH  24  25
HETATM   25  N   UNL     1     -10.611  13.606  65.824  1.00  0.00    -0.279 NA 
HETATM   26  C   UNL     1     -11.324  13.763  64.666  1.00  0.00    -0.372 A  
HETATM   27  C   UNL     1     -11.236  12.797  63.659  1.00  0.00    -0.482 A  
HETATM   28  C   UNL     1     -12.187  14.959  64.333  1.00  0.00    -0.399 C  
HETATM   29  C   UNL     1     -10.460  11.659  63.810  1.00  0.00    -0.402 A  
HETATM   30  N   UNL     1     -10.318  10.824  62.698  1.00  0.00    -0.759 NA 
HETATM   31  C   UNL     1      -9.683  11.537  64.973  1.00  0.00    -0.268 A  
HETATM   32  H1  UNL     1      -9.747   9.986  62.808  1.00  0.00     0.000 HD 
HETATM   33  C   UNL     1      -9.795  12.509  66.005  1.00  0.00    -0.257 A  
HETATM   34  H2  UNL     1      -9.968  11.368  61.909  1.00  0.00     0.000 HD 
HETATM   35  C   UNL     1      -9.034  12.321  67.187  1.00  0.00    -0.192 A  
HETATM   36  C   UNL     1      -8.155  11.251  67.340  1.00  0.00    -0.135 A  
HETATM   37  C   UNL     1      -8.017  10.332  66.317  1.00  0.00    -0.124 A  
HETATM   38  C   UNL     1      -8.774  10.469  65.155  1.00  0.00    -0.197 A  
ENDBRANCH  24  25
ENDBRANCH  23  24
ENDBRANCH  22  23
ENDBRANCH  21  22
ENDBRANCH  20  21
ENDBRANCH  19  20
ENDBRANCH  18  19
ENDBRANCH  17  18
ENDBRANCH  16  17
ENDBRANCH  15  16
ENDBRANCH  14  15
TORSDOF 11
ENDMDL
MODEL      135
REMARK 921   NORMALIZED FREE ENERGY PREDICTED BY IDOCK:   -6.29 KCAL/MOL
REMARK 922        TOTAL FREE ENERGY PREDICTED BY IDOCK:  -11.69 KCAL/MOL
REMARK 923 INTER-LIGAND FREE ENERGY PREDICTED BY IDOCK:   -9.77 KCAL/MOL
REMARK 924 INTRA-LIGAND FREE ENERGY PREDICTED BY IDOCK:   -1.91 KCAL/MOL
REMARK 927      BINDING AFFINITY PREDICTED BY RF-SCORE:    0.00 PKD
ROOT
HETATM    1  C   UNL     1      -9.717  18.511  67.799  1.00  0.00    -0.327 C  
HETATM    2  C   UNL     1     -10.322  17.286  67.153  1.00  0.00    -0.321 A  
HETATM    3  C   UNL     1     -10.638  17.355  65.802  1.00  0.00    -0.185 A  
HETATM    4  C   UNL     1     -11.183  16.271  65.130  1.00  0.00    -0.113 A  
HETATM    5  N   UNL     1     -11.338  16.380  63.744  1.00  0.00    -1.362 NA 
HETATM    6  C   UNL     1     -11.323  15.055  65.825  1.00  0.00    -0.279 A  
HETATM    7  H2  UNL     1     -10.441  16.622  63.323  1.00  0.00     0.000 HD 
HETATM    8  C   UNL     1     -11.749  13.870  65.182  1.00  0.00    -0.357 A  
HETATM    9  H1  UNL     1     -11.738  15.583  63.250  1.00  0.00     0.000 HD 
HETATM   10  C   UNL     1     -11.905  12.669  65.872  1.00  0.00    -0.499 A  
HETATM   11  C   UNL     1     -11.650  12.620  67.230  1.00  0.00    -0.428 A  
HETATM   12  C   UNL     1     -11.221  13.772  67.894  1.00  0.00    -0.299 A  
HETATM   13  C   UNL     1     -11.020  14.999  67.211  1.00  0.00    -0.326 A  
HETATM   14  N   UNL     1     -10.522  16.120  67.840  1.00  0.00    -0.281 NA 
ENDROOT
BRANCH  14  15
HETATM   15  C   UNL     1     -10.129  16.052  69.274  1.00  0.00    -0.249 C  
BRANCH  15  16
HETATM   16  C   UNL     1      -8.933  15.120  69.461  1.00  0.00    -0.129 C  
BRANCH  16  17
HETATM   17  C   UNL     1      -7.616  15.825  69.147  1.00  0.00    -0.212 C  
BRANCH  17  18
HETATM   18  C   UNL     1      -7.036  15.425  67.787  1.00  0.00    -0.185 C  
BRANCH  18  19
HETATM   19  C   UNL     1      -6.058  14.259  67.896  1.00  0.00    -0.157 C  
BRANCH  19  20
HETATM   20  C   UNL     1      -6.691  12.906  67.563  1.00  0.00    -0.156 C  
BRANCH  20  21
HETATM   21  C   UNL     1      -6.426  11.822  68.616  1.00  0.00    -0.060 C  
BRANCH  21  22
HETATM   22  C   UNL     1      -7.333  10.598  68.455  1.00  0.00    -0.090 C  
BRANCH  22  23
HETATM   23  C   UNL     1      -8.681  10.747  69.170  1.00  0.00    -0.101 C  
BRANCH  23  24
HETATM   24  C   UNL     1      -9.754   9.861  68.537  1.00  0.00    -0.154 C  
BRANCH  24  25
HETATM   25  N   UNL     1     -10.288   8.894  69.529  1.00  0.00    -0.208 NA 
HETATM   26  C   UNL     1      -9.766   7.630  69.608  1.00  0.00    -0.171 A  
HETATM   27  C   UNL     1     -10.223   6.750  70.593  1.00  0.00    -0.216 A  
HETATM   28  C   UNL     1      -8.654   7.094  68.735  1.00  0.00    -0.125 C  
HETATM   29  C   UNL     1     -11.219   7.111  71.485  1.00  0.00    -0.245 A  
HETATM   30  N   UNL     1     -11.509   6.221  72.524  1.00  0.00    -0.369 NA 
HETATM   31  C   UNL     1     -11.704   8.429  71.438  1.00  0.00    -0.332 A  
HETATM   32  H1  UNL     1     -12.242   6.487  73.181  1.00  0.00     0.000 HD 
HETATM   33  C   UNL     1     -11.255   9.313  70.419  1.00  0.00    -0.247 A  
HETATM   34  H2  UNL     1     -10.653   6.014  73.039  1.00  0.00     0.000 HD 
HETATM   35  C   UNL     1     -11.809  10.618  70.373  1.00  0.00    -0.441 A  
HETATM   36  C   UNL     1     -12.731  11.064  71.317  1.00  0.00    -0.537 A  
HETATM   37  C   UNL     1     -13.133  10.216  72.331  1.00  0.00    -0.190 A  
HETATM   38  C   UNL     1     -12.633   8.917  72.386  1.00  0.00    -0.423 A  
ENDBRANCH  24  25
ENDBRANCH  23  24
ENDBRANCH  22  23
ENDBRANCH  21  22
ENDBRANCH  20  21
ENDBRANCH  19  20
ENDBRANCH  18  19
ENDBRANCH  17  18
ENDBRANCH  16  17
ENDBRANCH  15  16
ENDBRANCH  14  15
TORSDOF 11
ENDMDL
MODEL      136
REMARK 921   NORMALIZED FREE ENERGY PREDICTED BY IDOCK:   -6.29 KCAL/MOL
REMARK 922        TOTAL FREE ENERGY PREDICTED BY IDOCK:  -11.68 KCAL/MOL
REMARK 923 INTER-LIGAND FREE ENERGY PREDICTED BY IDOCK:   -8.47 KCAL/MOL
REMARK 924 INTRA-LIGAND FREE ENERGY PREDICTED BY IDOCK:   -3.21 KCAL/MOL
REMARK 927      BINDING AFFINITY PREDICTED BY RF-SCORE:    0.00 PKD
ROOT
HETATM    1  C   UNL     1     -11.430  15.535  70.669  1.00  0.00    -0.383 C  
HETATM    2  C   UNL     1     -11.446  14.684  69.419  1.00  0.00    -0.296 A  
HETATM    3  C   UNL     1     -11.652  13.318  69.567  1.00  0.00    -0.349 A  
HETATM    4  C   UNL     1     -11.696  12.470  68.471  1.00  0.00    -0.324 A  
HETATM    5  N   UNL     1     -12.049  11.136  68.699  1.00  0.00    -0.679 NA 
HETATM    6  C   UNL     1     -11.619  13.036  67.185  1.00  0.00    -0.411 A  
HETATM    7  H2  UNL     1     -12.946  11.103  69.185  1.00  0.00     0.000 HD 
HETATM    8  C   UNL     1     -11.783  12.259  66.014  1.00  0.00    -0.451 A  
HETATM    9  H1  UNL     1     -12.081  10.512  67.893  1.00  0.00     0.000 HD 
HETATM   10  C   UNL     1     -11.692  12.815  64.739  1.00  0.00    -0.398 A  
HETATM   11  C   UNL     1     -11.422  14.162  64.596  1.00  0.00    -0.392 A  
HETATM   12  C   UNL     1     -11.262  14.960  65.732  1.00  0.00    -0.334 A  
HETATM   13  C   UNL     1     -11.385  14.429  67.042  1.00  0.00    -0.346 A  
HETATM   14  N   UNL     1     -11.306  15.219  68.168  1.00  0.00    -0.327 NA 
ENDROOT
BRANCH  14  15
HETATM   15  C   UNL     1     -11.136  16.692  68.030  1.00  0.00    -0.255 C  
BRANCH  15  16
HETATM   16  C   UNL     1      -9.722  17.030  67.562  1.00  0.00    -0.251 C  
BRANCH  16  17
HETATM   17  C   UNL     1      -8.758  17.166  68.737  1.00  0.00    -0.235 C  
BRANCH  17  18
HETATM   18  C   UNL     1      -7.749  16.016  68.816  1.00  0.00    -0.187 C  
BRANCH  18  19
HETATM   19  C   UNL     1      -7.484  15.385  67.453  1.00  0.00    -0.239 C  
BRANCH  19  20
HETATM   20  C   UNL     1      -7.594  13.859  67.463  1.00  0.00    -0.190 C  
BRANCH  20  21
HETATM   21  C   UNL     1      -7.528  13.241  68.866  1.00  0.00     0.002 C  
BRANCH  21  22
HETATM   22  C   UNL     1      -6.423  12.191  69.005  1.00  0.00    -0.092 C  
BRANCH  22  23
HETATM   23  C   UNL     1      -6.957  10.792  69.336  1.00  0.00    -0.116 C  
BRANCH  23  24
HETATM   24  C   UNL     1      -8.468  10.807  69.565  1.00  0.00     0.110 C  
BRANCH  24  25
HETATM   25  N   UNL     1      -9.114   9.661  68.875  1.00  0.00    -0.139 NA 
HETATM   26  C   UNL     1      -9.785   8.712  69.598  1.00  0.00    -0.179 A  
HETATM   27  C   UNL     1     -10.451   7.677  68.936  1.00  0.00    -0.211 A  
HETATM   28  C   UNL     1      -9.933   8.710  71.102  1.00  0.00    -0.289 C  
HETATM   29  C   UNL     1     -10.430   7.564  67.554  1.00  0.00    -0.271 A  
HETATM   30  N   UNL     1     -11.241   6.585  66.974  1.00  0.00    -0.738 NA 
HETATM   31  C   UNL     1      -9.792   8.576  66.818  1.00  0.00    -0.327 A  
HETATM   32  H1  UNL     1     -11.226   6.502  65.958  1.00  0.00     0.000 HD 
HETATM   33  C   UNL     1      -9.095   9.614  67.496  1.00  0.00    -0.130 A  
HETATM   34  H2  UNL     1     -12.204   6.716  67.287  1.00  0.00     0.000 HD 
HETATM   35  C   UNL     1      -8.418  10.586  66.716  1.00  0.00    -0.127 A  
HETATM   36  C   UNL     1      -8.461  10.579  65.324  1.00  0.00    -0.175 A  
HETATM   37  C   UNL     1      -9.176   9.594  64.669  1.00  0.00    -0.293 A  
HETATM   38  C   UNL     1      -9.824   8.604  65.405  1.00  0.00     0.552 A  
ENDBRANCH  24  25
ENDBRANCH  23  24
ENDBRANCH  22  23
ENDBRANCH  21  22
ENDBRANCH  20  21
ENDBRANCH  19  20
ENDBRANCH  18  19
ENDBRANCH  17  18
ENDBRANCH  16  17
ENDBRANCH  15  16
ENDBRANCH  14  15
TORSDOF 11
ENDMDL
MODEL      137
REMARK 921   NORMALIZED FREE ENERGY PREDICTED BY IDOCK:   -6.28 KCAL/MOL
REMARK 922        TOTAL FREE ENERGY PREDICTED BY IDOCK:  -11.67 KCAL/MOL
REMARK 923 INTER-LIGAND FREE ENERGY PREDICTED BY IDOCK:   -9.18 KCAL/MOL
REMARK 924 INTRA-LIGAND FREE ENERGY PREDICTED BY IDOCK:   -2.49 KCAL/MOL
REMARK 927      BINDING AFFINITY PREDICTED BY RF-SCORE:    0.00 PKD
ROOT
HETATM    1  C   UNL     1      -8.314   9.077  69.443  1.00  0.00    -0.119 C  
HETATM    2  C   UNL     1      -9.617   8.476  69.918  1.00  0.00    -0.171 A  
HETATM    3  C   UNL     1      -9.660   7.103  70.129  1.00  0.00    -0.168 A  
HETATM    4  C   UNL     1     -10.812   6.475  70.578  1.00  0.00    -0.271 A  
HETATM    5  N   UNL     1     -10.725   5.117  70.899  1.00  0.00    -0.128 NA 
HETATM    6  C   UNL     1     -11.922   7.274  70.912  1.00  0.00    -0.342 A  
HETATM    7  H2  UNL     1      -9.979   4.978  71.580  1.00  0.00     0.000 HD 
HETATM    8  C   UNL     1     -13.089   6.729  71.497  1.00  0.00    -0.248 A  
HETATM    9  H1  UNL     1     -11.573   4.655  71.229  1.00  0.00     0.000 HD 
HETATM   10  C   UNL     1     -14.195   7.516  71.812  1.00  0.00    -0.548 A  
HETATM   11  C   UNL     1     -14.173   8.871  71.542  1.00  0.00    -0.308 A  
HETATM   12  C   UNL     1     -13.032   9.443  70.971  1.00  0.00    -0.227 A  
HETATM   13  C   UNL     1     -11.879   8.673  70.672  1.00  0.00    -0.102 A  
HETATM   14  N   UNL     1     -10.722   9.239  70.182  1.00  0.00    -0.223 NA 
ENDROOT
BRANCH  14  15
HETATM   15  C   UNL     1     -10.638  10.715  69.998  1.00  0.00    -0.094 C  
BRANCH  15  16
HETATM   16  C   UNL     1     -11.233  11.124  68.652  1.00  0.00    -0.314 C  
BRANCH  16  17
HETATM   17  C   UNL     1     -12.030  12.421  68.760  1.00  0.00    -0.276 C  
BRANCH  17  18
HETATM   18  C   UNL     1     -12.236  12.874  70.208  1.00  0.00    -0.362 C  
BRANCH  18  19
HETATM   19  C   UNL     1     -12.625  14.347  70.303  1.00  0.00    -0.380 C  
BRANCH  19  20
HETATM   20  C   UNL     1     -11.620  15.186  71.096  1.00  0.00    -0.405 C  
BRANCH  20  21
HETATM   21  C   UNL     1     -10.817  16.169  70.234  1.00  0.00    -0.300 C  
BRANCH  21  22
HETATM   22  C   UNL     1     -10.634  15.687  68.792  1.00  0.00    -0.238 C  
BRANCH  22  23
HETATM   23  C   UNL     1      -9.469  14.704  68.626  1.00  0.00    -0.211 C  
BRANCH  23  24
HETATM   24  C   UNL     1      -8.897  14.742  67.209  1.00  0.00    -0.204 C  
BRANCH  24  25
HETATM   25  N   UNL     1      -9.104  13.440  66.526  1.00  0.00    -0.171 NA 
HETATM   26  C   UNL     1      -8.309  12.368  66.832  1.00  0.00    -0.117 A  
HETATM   27  C   UNL     1      -8.556  11.127  66.238  1.00  0.00    -0.180 A  
HETATM   28  C   UNL     1      -7.179  12.384  67.837  1.00  0.00    -0.110 C  
HETATM   29  C   UNL     1      -9.578  10.952  65.318  1.00  0.00    -0.229 A  
HETATM   30  N   UNL     1      -9.842   9.648  64.888  1.00  0.00    -0.422 NA 
HETATM   31  C   UNL     1     -10.427  12.039  65.058  1.00  0.00    -0.327 A  
HETATM   32  H1  UNL     1     -10.593   9.519  64.211  1.00  0.00     0.000 HD 
HETATM   33  C   UNL     1     -10.157  13.306  65.644  1.00  0.00    -0.272 A  
HETATM   34  H2  UNL     1     -10.014   9.054  65.699  1.00  0.00     0.000 HD 
HETATM   35  C   UNL     1     -11.007  14.392  65.313  1.00  0.00    -0.355 A  
HETATM   36  C   UNL     1     -12.113  14.240  64.480  1.00  0.00    -0.499 A  
HETATM   37  C   UNL     1     -12.398  12.997  63.946  1.00  0.00    -0.453 A  
HETATM   38  C   UNL     1     -11.564  11.916  64.225  1.00  0.00    -0.405 A  
ENDBRANCH  24  25
ENDBRANCH  23  24
ENDBRANCH  22  23
ENDBRANCH  21  22
ENDBRANCH  20  21
ENDBRANCH  19  20
ENDBRANCH  18  19
ENDBRANCH  17  18
ENDBRANCH  16  17
ENDBRANCH  15  16
ENDBRANCH  14  15
TORSDOF 11
ENDMDL
MODEL      138
REMARK 921   NORMALIZED FREE ENERGY PREDICTED BY IDOCK:   -6.28 KCAL/MOL
REMARK 922        TOTAL FREE ENERGY PREDICTED BY IDOCK:  -11.66 KCAL/MOL
REMARK 923 INTER-LIGAND FREE ENERGY PREDICTED BY IDOCK:   -8.99 KCAL/MOL
REMARK 924 INTRA-LIGAND FREE ENERGY PREDICTED BY IDOCK:   -2.68 KCAL/MOL
REMARK 927      BINDING AFFINITY PREDICTED BY RF-SCORE:    0.00 PKD
ROOT
HETATM    1  C   UNL     1     -13.267  13.401  72.032  1.00  0.00    -0.531 C  
HETATM    2  C   UNL     1     -12.503  13.715  70.765  1.00  0.00    -0.359 A  
HETATM    3  C   UNL     1     -11.994  14.999  70.616  1.00  0.00    -0.370 A  
HETATM    4  C   UNL     1     -11.270  15.366  69.492  1.00  0.00    -0.285 A  
HETATM    5  N   UNL     1     -10.675  16.631  69.489  1.00  0.00    -0.327 NA 
HETATM    6  C   UNL     1     -10.976  14.376  68.535  1.00  0.00    -0.264 A  
HETATM    7  H2  UNL     1     -10.084  16.728  70.315  1.00  0.00     0.000 HD 
HETATM    8  C   UNL     1     -10.137  14.633  67.425  1.00  0.00    -0.232 A  
HETATM    9  H1  UNL     1     -10.142  16.900  68.662  1.00  0.00     0.000 HD 
HETATM   10  C   UNL     1      -9.858  13.659  66.468  1.00  0.00    -0.295 A  
HETATM   11  C   UNL     1     -10.418  12.401  66.585  1.00  0.00    -0.251 A  
HETATM   12  C   UNL     1     -11.246  12.112  67.674  1.00  0.00    -0.345 A  
HETATM   13  C   UNL     1     -11.519  13.072  68.682  1.00  0.00    -0.307 A  
HETATM   14  N   UNL     1     -12.270  12.775  69.799  1.00  0.00    -0.204 NA 
ENDROOT
BRANCH  14  15
HETATM   15  C   UNL     1     -12.781  11.391  70.002  1.00  0.00     0.048 C  
BRANCH  15  16
HETATM   16  C   UNL     1     -11.729  10.523  70.689  1.00  0.00    -0.453 C  
BRANCH  16  17
HETATM   17  C   UNL     1     -12.366   9.379  71.472  1.00  0.00    -0.452 C  
BRANCH  17  18
HETATM   18  C   UNL     1     -11.349   8.574  72.286  1.00  0.00    -0.441 C  
BRANCH  18  19
HETATM   19  C   UNL     1     -11.669   7.083  72.299  1.00  0.00    -0.294 C  
BRANCH  19  20
HETATM   20  C   UNL     1     -10.842   6.297  73.320  1.00  0.00    -0.269 C  
BRANCH  20  21
HETATM   21  C   UNL     1     -11.015   4.776  73.218  1.00  0.00    -0.390 C  
BRANCH  21  22
HETATM   22  C   UNL     1      -9.831   4.085  72.534  1.00  0.00    -0.216 C  
BRANCH  22  23
HETATM   23  C   UNL     1      -9.904   4.137  71.003  1.00  0.00    -0.247 C  
BRANCH  23  24
HETATM   24  C   UNL     1      -8.599   4.654  70.396  1.00  0.00    -0.086 C  
BRANCH  24  25
HETATM   25  N   UNL     1      -8.619   6.136  70.295  1.00  0.00    -0.138 NA 
HETATM   26  C   UNL     1      -7.900   6.895  71.179  1.00  0.00    -0.100 A  
HETATM   27  C   UNL     1      -7.865   8.285  71.033  1.00  0.00    -0.097 A  
HETATM   28  C   UNL     1      -7.056   6.348  72.308  1.00  0.00    -0.082 C  
HETATM   29  C   UNL     1      -8.567   8.928  70.026  1.00  0.00    -0.142 A  
HETATM   30  N   UNL     1      -8.358  10.301  69.869  1.00  0.00    -0.361 NA 
HETATM   31  C   UNL     1      -9.250   8.138  69.087  1.00  0.00    -0.151 A  
HETATM   32  H1  UNL     1      -8.874  10.775  69.128  1.00  0.00     0.000 HD 
HETATM   33  C   UNL     1      -9.304   6.727  69.253  1.00  0.00    -0.144 A  
HETATM   34  H2  UNL     1      -7.360  10.479  69.752  1.00  0.00     0.000 HD 
HETATM   35  C   UNL     1     -10.049   5.969  68.314  1.00  0.00    -0.194 A  
HETATM   36  C   UNL     1     -10.679   6.560  67.221  1.00  0.00    -0.427 A  
HETATM   37  C   UNL     1     -10.589   7.926  67.038  1.00  0.00    -0.381 A  
HETATM   38  C   UNL     1      -9.892   8.704  67.961  1.00  0.00    -0.201 A  
ENDBRANCH  24  25
ENDBRANCH  23  24
ENDBRANCH  22  23
ENDBRANCH  21  22
ENDBRANCH  20  21
ENDBRANCH  19  20
ENDBRANCH  18  19
ENDBRANCH  17  18
ENDBRANCH  16  17
ENDBRANCH  15  16
ENDBRANCH  14  15
TORSDOF 11
ENDMDL
MODEL      139
REMARK 921   NORMALIZED FREE ENERGY PREDICTED BY IDOCK:   -6.26 KCAL/MOL
REMARK 922        TOTAL FREE ENERGY PREDICTED BY IDOCK:  -11.64 KCAL/MOL
REMARK 923 INTER-LIGAND FREE ENERGY PREDICTED BY IDOCK:   -9.21 KCAL/MOL
REMARK 924 INTRA-LIGAND FREE ENERGY PREDICTED BY IDOCK:   -2.43 KCAL/MOL
REMARK 927      BINDING AFFINITY PREDICTED BY RF-SCORE:    0.00 PKD
ROOT
HETATM    1  C   UNL     1      -7.858   7.744  70.892  1.00  0.00    -0.089 C  
HETATM    2  C   UNL     1      -9.302   8.172  71.021  1.00  0.00    -0.152 A  
HETATM    3  C   UNL     1      -9.638   9.453  70.602  1.00  0.00    -0.331 A  
HETATM    4  C   UNL     1     -10.943   9.919  70.672  1.00  0.00    -0.337 A  
HETATM    5  N   UNL     1     -11.218  11.164  70.098  1.00  0.00    -0.480 NA 
HETATM    6  C   UNL     1     -11.948   9.028  71.093  1.00  0.00    -0.356 A  
HETATM    7  H2  UNL     1     -10.914  11.161  69.124  1.00  0.00     0.000 HD 
HETATM    8  C   UNL     1     -13.318   9.381  71.073  1.00  0.00    -0.186 A  
HETATM    9  H1  UNL     1     -12.177  11.506  70.150  1.00  0.00     0.000 HD 
HETATM   10  C   UNL     1     -14.314   8.506  71.505  1.00  0.00    -0.451 A  
HETATM   11  C   UNL     1     -13.969   7.256  71.981  1.00  0.00    -0.274 A  
HETATM   12  C   UNL     1     -12.625   6.873  72.009  1.00  0.00    -0.258 A  
HETATM   13  C   UNL     1     -11.593   7.729  71.542  1.00  0.00    -0.270 A  
HETATM   14  N   UNL     1     -10.274   7.333  71.491  1.00  0.00    -0.194 NA 
ENDROOT
BRANCH  14  15
HETATM   15  C   UNL     1      -9.900   5.947  71.888  1.00  0.00    -0.162 C  
BRANCH  15  16
HETATM   16  C   UNL     1     -10.406   4.938  70.859  1.00  0.00    -0.225 C  
BRANCH  16  17
HETATM   17  C   UNL     1      -9.298   4.508  69.901  1.00  0.00    -0.218 C  
BRANCH  17  18
HETATM   18  C   UNL     1      -9.481   5.071  68.489  1.00  0.00    -0.185 C  
BRANCH  18  19
HETATM   19  C   UNL     1     -10.841   5.737  68.304  1.00  0.00    -0.249 C  
BRANCH  19  20
HETATM   20  C   UNL     1     -10.742   7.184  67.813  1.00  0.00    -0.282 C  
BRANCH  20  21
HETATM   21  C   UNL     1      -9.346   7.575  67.313  1.00  0.00    -0.168 C  
BRANCH  21  22
HETATM   22  C   UNL     1      -9.369   8.759  66.343  1.00  0.00    -0.264 C  
BRANCH  22  23
HETATM   23  C   UNL     1      -9.290  10.119  67.046  1.00  0.00    -0.178 C  
BRANCH  23  24
HETATM   24  C   UNL     1      -8.530  11.145  66.204  1.00  0.00    -0.156 C  
BRANCH  24  25
HETATM   25  N   UNL     1      -9.199  12.470  66.264  1.00  0.00    -0.182 NA 
HETATM   26  C   UNL     1      -8.739  13.435  67.119  1.00  0.00    -0.215 A  
HETATM   27  C   UNL     1      -9.328  14.702  67.117  1.00  0.00    -0.231 A  
HETATM   28  C   UNL     1      -7.569  13.273  68.062  1.00  0.00    -0.145 C  
HETATM   29  C   UNL     1     -10.393  15.008  66.285  1.00  0.00    -0.296 A  
HETATM   30  N   UNL     1     -10.821  16.339  66.247  1.00  0.00    -0.172 NA 
HETATM   31  C   UNL     1     -10.817  14.033  65.367  1.00  0.00    -0.331 A  
HETATM   32  H1  UNL     1     -11.605  16.564  65.635  1.00  0.00     0.000 HD 
HETATM   33  C   UNL     1     -10.232  12.737  65.390  1.00  0.00    -0.283 A  
HETATM   34  H2  UNL     1     -10.030  16.941  66.017  1.00  0.00     0.000 HD 
HETATM   35  C   UNL     1     -10.726  11.764  64.483  1.00  0.00    -0.369 A  
HETATM   36  C   UNL     1     -11.719  12.057  63.551  1.00  0.00    -0.566 A  
HETATM   37  C   UNL     1     -12.254  13.330  63.503  1.00  0.00    -0.513 A  
HETATM   38  C   UNL     1     -11.815  14.300  64.402  1.00  0.00    -0.444 A  
ENDBRANCH  24  25
ENDBRANCH  23  24
ENDBRANCH  22  23
ENDBRANCH  21  22
ENDBRANCH  20  21
ENDBRANCH  19  20
ENDBRANCH  18  19
ENDBRANCH  17  18
ENDBRANCH  16  17
ENDBRANCH  15  16
ENDBRANCH  14  15
TORSDOF 11
ENDMDL
MODEL      140
REMARK 921   NORMALIZED FREE ENERGY PREDICTED BY IDOCK:   -6.24 KCAL/MOL
REMARK 922        TOTAL FREE ENERGY PREDICTED BY IDOCK:  -11.61 KCAL/MOL
REMARK 923 INTER-LIGAND FREE ENERGY PREDICTED BY IDOCK:   -9.32 KCAL/MOL
REMARK 924 INTRA-LIGAND FREE ENERGY PREDICTED BY IDOCK:   -2.29 KCAL/MOL
REMARK 927      BINDING AFFINITY PREDICTED BY RF-SCORE:    0.00 PKD
ROOT
HETATM    1  C   UNL     1     -13.810  13.759  71.360  1.00  0.00    -0.129 C  
HETATM    2  C   UNL     1     -13.148  12.404  71.246  1.00  0.00    -0.126 A  
HETATM    3  C   UNL     1     -13.499  11.431  72.173  1.00  0.00    -0.203 A  
HETATM    4  C   UNL     1     -12.950  10.158  72.130  1.00  0.00    -0.340 A  
HETATM    5  N   UNL     1     -13.464   9.201  73.011  1.00  0.00    -0.887 NA 
HETATM    6  C   UNL     1     -12.092   9.837  71.061  1.00  0.00    -0.434 A  
HETATM    7  H2  UNL     1     -14.474   9.136  72.886  1.00  0.00     0.000 HD 
HETATM    8  C   UNL     1     -11.591   8.528  70.870  1.00  0.00    -0.295 A  
HETATM    9  H1  UNL     1     -13.060   8.265  72.978  1.00  0.00     0.000 HD 
HETATM   10  C   UNL     1     -10.728   8.211  69.822  1.00  0.00    -0.229 A  
HETATM   11  C   UNL     1     -10.331   9.197  68.939  1.00  0.00    -0.232 A  
HETATM   12  C   UNL     1     -10.813  10.500  69.095  1.00  0.00    -0.277 A  
HETATM   13  C   UNL     1     -11.720  10.843  70.131  1.00  0.00    -0.347 A  
HETATM   14  N   UNL     1     -12.263  12.105  70.247  1.00  0.00    -0.299 NA 
ENDROOT
BRANCH  14  15
HETATM   15  C   UNL     1     -11.939  13.147  69.234  1.00  0.00    -0.292 C  
BRANCH  15  16
HETATM   16  C   UNL     1     -11.370  14.394  69.908  1.00  0.00    -0.273 C  
BRANCH  16  17
HETATM   17  C   UNL     1     -11.676  15.656  69.106  1.00  0.00    -0.402 C  
BRANCH  17  18
HETATM   18  C   UNL     1     -10.802  16.846  69.512  1.00  0.00    -0.144 C  
BRANCH  18  19
HETATM   19  C   UNL     1     -10.109  17.489  68.314  1.00  0.00    -0.346 C  
BRANCH  19  20
HETATM   20  C   UNL     1      -8.719  18.038  68.643  1.00  0.00    -0.272 C  
BRANCH  20  21
HETATM   21  C   UNL     1      -7.581  17.045  68.371  1.00  0.00    -0.220 C  
BRANCH  21  22
HETATM   22  C   UNL     1      -7.547  15.886  69.370  1.00  0.00    -0.210 C  
BRANCH  22  23
HETATM   23  C   UNL     1      -8.075  14.570  68.787  1.00  0.00    -0.146 C  
BRANCH  23  24
HETATM   24  C   UNL     1      -7.887  14.511  67.271  1.00  0.00    -0.173 C  
BRANCH  24  25
HETATM   25  N   UNL     1      -8.428  13.240  66.725  1.00  0.00    -0.052 NA 
HETATM   26  C   UNL     1      -7.708  12.080  66.838  1.00  0.00    -0.078 A  
HETATM   27  C   UNL     1      -8.255  10.876  66.387  1.00  0.00    -0.163 A  
HETATM   28  C   UNL     1      -6.346  11.964  67.486  1.00  0.00    -0.105 C  
HETATM   29  C   UNL     1      -9.508  10.822  65.797  1.00  0.00    -0.204 A  
HETATM   30  N   UNL     1     -10.032   9.559  65.510  1.00  0.00    -0.399 NA 
HETATM   31  C   UNL     1     -10.264  12.004  65.742  1.00  0.00    -0.274 A  
HETATM   32  H1  UNL     1     -10.954   9.518  65.076  1.00  0.00     0.000 HD 
HETATM   33  C   UNL     1      -9.694  13.232  66.179  1.00  0.00    -0.250 A  
HETATM   34  H2  UNL     1     -10.035   8.994  66.360  1.00  0.00     0.000 HD 
HETATM   35  C   UNL     1     -10.472  14.412  66.057  1.00  0.00    -0.307 A  
HETATM   36  C   UNL     1     -11.778  14.391  65.573  1.00  0.00    -0.352 A  
HETATM   37  C   UNL     1     -12.344  13.190  65.190  1.00  0.00    -0.525 A  
HETATM   38  C   UNL     1     -11.596  12.016  65.266  1.00  0.00    -0.337 A  
ENDBRANCH  24  25
ENDBRANCH  23  24
ENDBRANCH  22  23
ENDBRANCH  21  22
ENDBRANCH  20  21
ENDBRANCH  19  20
ENDBRANCH  18  19
ENDBRANCH  17  18
ENDBRANCH  16  17
ENDBRANCH  15  16
ENDBRANCH  14  15
TORSDOF 11
ENDMDL
MODEL      141
REMARK 921   NORMALIZED FREE ENERGY PREDICTED BY IDOCK:   -6.23 KCAL/MOL
REMARK 922        TOTAL FREE ENERGY PREDICTED BY IDOCK:  -11.59 KCAL/MOL
REMARK 923 INTER-LIGAND FREE ENERGY PREDICTED BY IDOCK:  -10.64 KCAL/MOL
REMARK 924 INTRA-LIGAND FREE ENERGY PREDICTED BY IDOCK:   -0.95 KCAL/MOL
REMARK 927      BINDING AFFINITY PREDICTED BY RF-SCORE:    0.00 PKD
ROOT
HETATM    1  C   UNL     1     -11.906  13.353  67.896  1.00  0.00    -0.392 C  
HETATM    2  C   UNL     1     -11.419  14.710  67.440  1.00  0.00    -0.369 A  
HETATM    3  C   UNL     1     -11.364  14.953  66.074  1.00  0.00    -0.306 A  
HETATM    4  C   UNL     1     -10.943  16.176  65.572  1.00  0.00    -0.177 A  
HETATM    5  N   UNL     1     -11.054  16.382  64.193  1.00  0.00    -1.262 NA 
HETATM    6  C   UNL     1     -10.660  17.210  66.484  1.00  0.00    -0.172 A  
HETATM    7  H2  UNL     1     -12.017  16.213  63.903  1.00  0.00     0.000 HD 
HETATM    8  C   UNL     1     -10.349  18.522  66.055  1.00  0.00    -0.423 A  
HETATM    9  H1  UNL     1     -10.744  17.281  63.825  1.00  0.00     0.000 HD 
HETATM   10  C   UNL     1     -10.052  19.543  66.956  1.00  0.00    -0.509 A  
HETATM   11  C   UNL     1     -10.046  19.281  68.313  1.00  0.00    -0.516 A  
HETATM   12  C   UNL     1     -10.355  17.997  68.770  1.00  0.00    -0.294 A  
HETATM   13  C   UNL     1     -10.696  16.947  67.879  1.00  0.00    -0.344 A  
HETATM   14  N   UNL     1     -11.079  15.699  68.321  1.00  0.00    -0.320 NA 
ENDROOT
BRANCH  14  15
HETATM   15  C   UNL     1     -11.194  15.434  69.782  1.00  0.00    -0.288 C  
BRANCH  15  16
HETATM   16  C   UNL     1     -12.650  15.534  70.234  1.00  0.00    -0.362 C  
BRANCH  16  17
HETATM   17  C   UNL     1     -12.758  15.716  71.746  1.00  0.00    -0.519 C  
BRANCH  17  18
HETATM   18  C   UNL     1     -12.505  14.419  72.521  1.00  0.00    -0.296 C  
BRANCH  18  19
HETATM   19  C   UNL     1     -13.434  13.292  72.082  1.00  0.00    -0.655 C  
BRANCH  19  20
HETATM   20  C   UNL     1     -12.715  12.185  71.307  1.00  0.00    -0.363 C  
BRANCH  20  21
HETATM   21  C   UNL     1     -12.952  10.778  71.873  1.00  0.00    -0.524 C  
BRANCH  21  22
HETATM   22  C   UNL     1     -11.758   9.842  71.665  1.00  0.00    -0.390 C  
BRANCH  22  23
HETATM   23  C   UNL     1     -12.104   8.593  70.846  1.00  0.00    -0.173 C  
BRANCH  23  24
HETATM   24  C   UNL     1     -10.887   8.062  70.088  1.00  0.00    -0.242 C  
BRANCH  24  25
HETATM   25  N   UNL     1      -9.755   7.820  71.018  1.00  0.00    -0.163 NA 
HETATM   26  C   UNL     1      -9.820   6.802  71.932  1.00  0.00    -0.165 A  
HETATM   27  C   UNL     1      -8.722   6.535  72.753  1.00  0.00    -0.126 A  
HETATM   28  C   UNL     1     -10.991   5.861  72.101  1.00  0.00    -0.317 C  
HETATM   29  C   UNL     1      -7.565   7.296  72.692  1.00  0.00    -0.083 A  
HETATM   30  N   UNL     1      -6.469   6.867  73.446  1.00  0.00    -0.066 NA 
HETATM   31  C   UNL     1      -7.483   8.298  71.710  1.00  0.00    -0.112 A  
HETATM   32  H1  UNL     1      -5.618   7.427  73.401  1.00  0.00     0.000 HD 
HETATM   33  C   UNL     1      -8.612   8.582  70.893  1.00  0.00    -0.158 A  
HETATM   34  H2  UNL     1      -6.250   5.901  73.203  1.00  0.00     0.000 HD 
HETATM   35  C   UNL     1      -8.507   9.637  69.950  1.00  0.00    -0.211 A  
HETATM   36  C   UNL     1      -7.328  10.357  69.774  1.00  0.00    -0.157 A  
HETATM   37  C   UNL     1      -6.220  10.049  70.540  1.00  0.00    -0.109 A  
HETATM   38  C   UNL     1      -6.299   9.040  71.498  1.00  0.00    -0.079 A  
ENDBRANCH  24  25
ENDBRANCH  23  24
ENDBRANCH  22  23
ENDBRANCH  21  22
ENDBRANCH  20  21
ENDBRANCH  19  20
ENDBRANCH  18  19
ENDBRANCH  17  18
ENDBRANCH  16  17
ENDBRANCH  15  16
ENDBRANCH  14  15
TORSDOF 11
ENDMDL
MODEL      142
REMARK 921   NORMALIZED FREE ENERGY PREDICTED BY IDOCK:   -6.22 KCAL/MOL
REMARK 922        TOTAL FREE ENERGY PREDICTED BY IDOCK:  -11.58 KCAL/MOL
REMARK 923 INTER-LIGAND FREE ENERGY PREDICTED BY IDOCK:   -9.99 KCAL/MOL
REMARK 924 INTRA-LIGAND FREE ENERGY PREDICTED BY IDOCK:   -1.59 KCAL/MOL
REMARK 927      BINDING AFFINITY PREDICTED BY RF-SCORE:    0.00 PKD
ROOT
HETATM    1  C   UNL     1     -11.858  14.913  65.108  1.00  0.00    -0.258 C  
HETATM    2  C   UNL     1     -11.024  13.653  65.074  1.00  0.00    -0.346 A  
HETATM    3  C   UNL     1     -11.218  12.775  64.015  1.00  0.00    -0.463 A  
HETATM    4  C   UNL     1     -10.484  11.604  63.901  1.00  0.00    -0.382 A  
HETATM    5  N   UNL     1     -10.641  10.852  62.732  1.00  0.00    -0.757 NA 
HETATM    6  C   UNL     1      -9.461  11.363  64.838  1.00  0.00    -0.194 A  
HETATM    7  H2  UNL     1     -10.457  11.445  61.923  1.00  0.00     0.000 HD 
HETATM    8  C   UNL     1      -8.583  10.261  64.721  1.00  0.00    -0.193 A  
HETATM    9  H1  UNL     1     -10.101   9.991  62.649  1.00  0.00     0.000 HD 
HETATM   10  C   UNL     1      -7.580  10.011  65.656  1.00  0.00    -0.137 A  
HETATM   11  C   UNL     1      -7.432  10.851  66.744  1.00  0.00    -0.134 A  
HETATM   12  C   UNL     1      -8.279  11.954  66.885  1.00  0.00    -0.157 A  
HETATM   13  C   UNL     1      -9.285  12.253  65.931  1.00  0.00    -0.027 A  
HETATM   14  N   UNL     1     -10.073  13.380  66.018  1.00  0.00    -0.299 NA 
ENDROOT
BRANCH  14  15
HETATM   15  C   UNL     1      -9.847  14.359  67.118  1.00  0.00    -0.254 C  
BRANCH  15  16
HETATM   16  C   UNL     1     -10.423  13.835  68.432  1.00  0.00    -0.256 C  
BRANCH  16  17
HETATM   17  C   UNL     1     -11.753  14.503  68.769  1.00  0.00    -0.362 C  
BRANCH  17  18
HETATM   18  C   UNL     1     -11.720  15.259  70.100  1.00  0.00    -0.342 C  
BRANCH  18  19
HETATM   19  C   UNL     1     -12.429  14.498  71.215  1.00  0.00    -0.416 C  
BRANCH  19  20
HETATM   20  C   UNL     1     -12.645  13.017  70.893  1.00  0.00    -0.364 C  
BRANCH  20  21
HETATM   21  C   UNL     1     -13.272  12.217  72.042  1.00  0.00    -0.508 C  
BRANCH  21  22
HETATM   22  C   UNL     1     -12.940  10.723  71.981  1.00  0.00    -0.444 C  
BRANCH  22  23
HETATM   23  C   UNL     1     -12.562  10.246  70.574  1.00  0.00    -0.338 C  
BRANCH  23  24
HETATM   24  C   UNL     1     -11.068   9.939  70.466  1.00  0.00    -0.332 C  
BRANCH  24  25
HETATM   25  N   UNL     1     -10.851   8.513  70.112  1.00  0.00    -0.236 NA 
HETATM   26  C   UNL     1     -10.639   8.152  68.808  1.00  0.00    -0.121 A  
HETATM   27  C   UNL     1     -10.363   6.819  68.492  1.00  0.00    -0.210 A  
HETATM   28  C   UNL     1     -10.614   9.107  67.636  1.00  0.00    -0.307 C  
HETATM   29  C   UNL     1     -10.323   5.834  69.466  1.00  0.00    -0.263 A  
HETATM   30  N   UNL     1      -9.897   4.560  69.079  1.00  0.00    -0.162 NA 
HETATM   31  C   UNL     1     -10.479   6.223  70.807  1.00  0.00    -0.273 A  
HETATM   32  H1  UNL     1      -9.868   3.835  69.795  1.00  0.00     0.000 HD 
HETATM   33  C   UNL     1     -10.784   7.575  71.122  1.00  0.00    -0.227 A  
HETATM   34  H2  UNL     1      -8.982   4.631  68.634  1.00  0.00     0.000 HD 
HETATM   35  C   UNL     1     -10.987   7.917  72.484  1.00  0.00    -0.412 A  
HETATM   36  C   UNL     1     -10.848   6.984  73.509  1.00  0.00    -0.289 A  
HETATM   37  C   UNL     1     -10.509   5.680  73.203  1.00  0.00    -0.248 A  
HETATM   38  C   UNL     1     -10.334   5.304  71.872  1.00  0.00    -0.275 A  
ENDBRANCH  24  25
ENDBRANCH  23  24
ENDBRANCH  22  23
ENDBRANCH  21  22
ENDBRANCH  20  21
ENDBRANCH  19  20
ENDBRANCH  18  19
ENDBRANCH  17  18
ENDBRANCH  16  17
ENDBRANCH  15  16
ENDBRANCH  14  15
TORSDOF 11
ENDMDL
MODEL      143
REMARK 921   NORMALIZED FREE ENERGY PREDICTED BY IDOCK:   -6.22 KCAL/MOL
REMARK 922        TOTAL FREE ENERGY PREDICTED BY IDOCK:  -11.57 KCAL/MOL
REMARK 923 INTER-LIGAND FREE ENERGY PREDICTED BY IDOCK:  -10.52 KCAL/MOL
REMARK 924 INTRA-LIGAND FREE ENERGY PREDICTED BY IDOCK:   -1.05 KCAL/MOL
REMARK 927      BINDING AFFINITY PREDICTED BY RF-SCORE:    0.00 PKD
ROOT
HETATM    1  C   UNL     1      -9.826   7.185  73.491  1.00  0.00    -0.322 C  
HETATM    2  C   UNL     1      -9.771   5.758  72.995  1.00  0.00    -0.155 A  
HETATM    3  C   UNL     1     -10.153   4.751  73.873  1.00  0.00    -0.218 A  
HETATM    4  C   UNL     1     -10.146   3.418  73.493  1.00  0.00    -0.120 A  
HETATM    5  N   UNL     1     -10.679   2.486  74.390  1.00  0.00    -0.138 NA 
HETATM    6  C   UNL     1      -9.832   3.106  72.156  1.00  0.00    -0.238 A  
HETATM    7  H2  UNL     1     -11.630   2.761  74.635  1.00  0.00     0.000 HD 
HETATM    8  C   UNL     1      -9.926   1.787  71.654  1.00  0.00    -0.207 A  
HETATM    9  H1  UNL     1     -10.674   1.505  74.110  1.00  0.00     0.000 HD 
HETATM   10  C   UNL     1      -9.600   1.473  70.335  1.00  0.00    -0.124 A  
HETATM   11  C   UNL     1      -9.159   2.467  69.482  1.00  0.00    -0.185 A  
HETATM   12  C   UNL     1      -9.062   3.782  69.946  1.00  0.00    -0.188 A  
HETATM   13  C   UNL     1      -9.421   4.137  71.272  1.00  0.00    -0.160 A  
HETATM   14  N   UNL     1      -9.404   5.442  71.716  1.00  0.00    -0.145 NA 
ENDROOT
BRANCH  14  15
HETATM   15  C   UNL     1      -9.048   6.540  70.776  1.00  0.00    -0.154 C  
BRANCH  15  16
HETATM   16  C   UNL     1     -10.251   6.926  69.918  1.00  0.00    -0.214 C  
BRANCH  16  17
HETATM   17  C   UNL     1     -10.703   8.357  70.194  1.00  0.00    -0.238 C  
BRANCH  17  18
HETATM   18  C   UNL     1     -12.035   8.426  70.948  1.00  0.00    -0.194 C  
BRANCH  18  19
HETATM   19  C   UNL     1     -12.142   9.674  71.820  1.00  0.00    -0.446 C  
BRANCH  19  20
HETATM   20  C   UNL     1     -12.986  10.782  71.187  1.00  0.00    -0.467 C  
BRANCH  20  21
HETATM   21  C   UNL     1     -12.171  11.791  70.367  1.00  0.00    -0.416 C  
BRANCH  21  22
HETATM   22  C   UNL     1     -12.354  13.235  70.845  1.00  0.00    -0.413 C  
BRANCH  22  23
HETATM   23  C   UNL     1     -12.211  14.266  69.719  1.00  0.00    -0.390 C  
BRANCH  23  24
HETATM   24  C   UNL     1     -10.818  14.221  69.090  1.00  0.00    -0.242 C  
BRANCH  24  25
HETATM   25  N   UNL     1     -10.841  14.809  67.726  1.00  0.00    -0.272 NA 
HETATM   26  C   UNL     1     -11.193  14.038  66.650  1.00  0.00    -0.323 A  
HETATM   27  C   UNL     1     -11.282  14.616  65.381  1.00  0.00    -0.347 A  
HETATM   28  C   UNL     1     -11.567  12.575  66.716  1.00  0.00    -0.446 C  
HETATM   29  C   UNL     1     -10.997  15.956  65.170  1.00  0.00    -0.377 A  
HETATM   30  N   UNL     1     -11.253  16.478  63.899  1.00  0.00    -1.400 NA 
HETATM   31  C   UNL     1     -10.699  16.753  66.288  1.00  0.00    -0.106 A  
HETATM   32  H1  UNL     1     -11.044  17.464  63.743  1.00  0.00     0.000 HD 
HETATM   33  C   UNL     1     -10.584  16.156  67.573  1.00  0.00    -0.314 A  
HETATM   34  H2  UNL     1     -12.226  16.297  63.650  1.00  0.00     0.000 HD 
HETATM   35  C   UNL     1     -10.229  16.986  68.667  1.00  0.00    -0.321 A  
HETATM   36  C   UNL     1     -10.041  18.359  68.525  1.00  0.00    -0.413 A  
HETATM   37  C   UNL     1     -10.196  18.942  67.282  1.00  0.00    -0.454 A  
HETATM   38  C   UNL     1     -10.512  18.150  66.180  1.00  0.00    -0.377 A  
ENDBRANCH  24  25
ENDBRANCH  23  24
ENDBRANCH  22  23
ENDBRANCH  21  22
ENDBRANCH  20  21
ENDBRANCH  19  20
ENDBRANCH  18  19
ENDBRANCH  17  18
ENDBRANCH  16  17
ENDBRANCH  15  16
ENDBRANCH  14  15
TORSDOF 11
ENDMDL
MODEL      144
REMARK 921   NORMALIZED FREE ENERGY PREDICTED BY IDOCK:   -6.19 KCAL/MOL
REMARK 922        TOTAL FREE ENERGY PREDICTED BY IDOCK:  -11.52 KCAL/MOL
REMARK 923 INTER-LIGAND FREE ENERGY PREDICTED BY IDOCK:   -9.67 KCAL/MOL
REMARK 924 INTRA-LIGAND FREE ENERGY PREDICTED BY IDOCK:   -1.85 KCAL/MOL
REMARK 927      BINDING AFFINITY PREDICTED BY RF-SCORE:    0.00 PKD
ROOT
HETATM    1  C   UNL     1     -10.744  11.082  68.099  1.00  0.00    -0.246 C  
HETATM    2  C   UNL     1     -11.524  11.710  69.232  1.00  0.00    -0.300 A  
HETATM    3  C   UNL     1     -12.130  10.861  70.151  1.00  0.00    -0.431 A  
HETATM    4  C   UNL     1     -12.851  11.356  71.227  1.00  0.00    -0.379 A  
HETATM    5  N   UNL     1     -13.305  10.437  72.179  1.00  0.00    -0.567 NA 
HETATM    6  C   UNL     1     -12.880  12.749  71.428  1.00  0.00    -0.371 A  
HETATM    7  H2  UNL     1     -12.515   9.892  72.525  1.00  0.00     0.000 HD 
HETATM    8  C   UNL     1     -13.484  13.328  72.569  1.00  0.00    -0.620 A  
HETATM    9  H1  UNL     1     -13.835  10.801  72.970  1.00  0.00     0.000 HD 
HETATM   10  C   UNL     1     -13.529  14.707  72.762  1.00  0.00    -0.570 A  
HETATM   11  C   UNL     1     -12.981  15.551  71.814  1.00  0.00    -0.528 A  
HETATM   12  C   UNL     1     -12.371  15.010  70.678  1.00  0.00    -0.404 A  
HETATM   13  C   UNL     1     -12.280  13.610  70.473  1.00  0.00    -0.368 A  
HETATM   14  N   UNL     1     -11.612  13.065  69.397  1.00  0.00    -0.296 NA 
ENDROOT
BRANCH  14  15
HETATM   15  C   UNL     1     -10.913  13.955  68.429  1.00  0.00    -0.253 C  
BRANCH  15  16
HETATM   16  C   UNL     1     -11.868  14.405  67.325  1.00  0.00    -0.434 C  
BRANCH  16  17
HETATM   17  C   UNL     1     -11.138  15.180  66.231  1.00  0.00    -0.309 C  
BRANCH  17  18
HETATM   18  C   UNL     1     -10.996  14.383  64.931  1.00  0.00    -0.416 C  
BRANCH  18  19
HETATM   19  C   UNL     1     -11.979  13.219  64.856  1.00  0.00    -0.417 C  
BRANCH  19  20
HETATM   20  C   UNL     1     -11.876  12.425  63.552  1.00  0.00    -0.605 C  
BRANCH  20  21
HETATM   21  C   UNL     1     -10.457  11.932  63.237  1.00  0.00    -0.427 C  
BRANCH  21  22
HETATM   22  C   UNL     1      -9.737  11.361  64.462  1.00  0.00    -0.268 C  
BRANCH  22  23
HETATM   23  C   UNL     1      -9.369   9.881  64.311  1.00  0.00    -0.313 C  
BRANCH  23  24
HETATM   24  C   UNL     1      -7.872   9.649  64.523  1.00  0.00    -0.134 C  
BRANCH  24  25
HETATM   25  N   UNL     1      -7.620   9.035  65.851  1.00  0.00    -0.093 NA 
HETATM   26  C   UNL     1      -7.730   7.680  66.015  1.00  0.00    -0.090 A  
HETATM   27  C   UNL     1      -7.420   7.102  67.249  1.00  0.00    -0.099 A  
HETATM   28  C   UNL     1      -8.111   6.702  64.927  1.00  0.00    -0.115 C  
HETATM   29  C   UNL     1      -7.027   7.870  68.334  1.00  0.00    -0.075 A  
HETATM   30  N   UNL     1      -6.599   7.195  69.481  1.00  0.00    -0.043 NA 
HETATM   31  C   UNL     1      -6.856   9.250  68.140  1.00  0.00    -0.064 A  
HETATM   32  H1  UNL     1      -6.309   7.759  70.279  1.00  0.00     0.000 HD 
HETATM   33  C   UNL     1      -7.196   9.838  66.890  1.00  0.00    -0.090 A  
HETATM   34  H2  UNL     1      -5.846   6.551  69.233  1.00  0.00     0.000 HD 
HETATM   35  C   UNL     1      -7.061  11.243  66.752  1.00  0.00    -0.143 A  
HETATM   36  C   UNL     1      -6.563  12.043  67.778  1.00  0.00    -0.093 A  
HETATM   37  C   UNL     1      -6.193  11.463  68.976  1.00  0.00    -0.058 A  
HETATM   38  C   UNL     1      -6.344  10.089  69.157  1.00  0.00    -0.044 A  
ENDBRANCH  24  25
ENDBRANCH  23  24
ENDBRANCH  22  23
ENDBRANCH  21  22
ENDBRANCH  20  21
ENDBRANCH  19  20
ENDBRANCH  18  19
ENDBRANCH  17  18
ENDBRANCH  16  17
ENDBRANCH  15  16
ENDBRANCH  14  15
TORSDOF 11
ENDMDL
MODEL      145
REMARK 921   NORMALIZED FREE ENERGY PREDICTED BY IDOCK:   -6.18 KCAL/MOL
REMARK 922        TOTAL FREE ENERGY PREDICTED BY IDOCK:  -11.51 KCAL/MOL
REMARK 923 INTER-LIGAND FREE ENERGY PREDICTED BY IDOCK:   -9.87 KCAL/MOL
REMARK 924 INTRA-LIGAND FREE ENERGY PREDICTED BY IDOCK:   -1.64 KCAL/MOL
REMARK 927      BINDING AFFINITY PREDICTED BY RF-SCORE:    0.00 PKD
ROOT
HETATM    1  C   UNL     1      -9.302   3.588  67.553  1.00  0.00    -0.249 C  
HETATM    2  C   UNL     1      -9.183   5.012  67.059  1.00  0.00    -0.120 A  
HETATM    3  C   UNL     1      -8.436   5.240  65.910  1.00  0.00    -0.124 A  
HETATM    4  C   UNL     1      -8.290   6.514  65.383  1.00  0.00    -0.140 A  
HETATM    5  N   UNL     1      -7.642   6.633  64.149  1.00  0.00    -0.098 NA 
HETATM    6  C   UNL     1      -8.997   7.572  65.985  1.00  0.00    -0.164 A  
HETATM    7  H2  UNL     1      -8.109   6.037  63.465  1.00  0.00     0.000 HD 
HETATM    8  C   UNL     1      -9.005   8.875  65.436  1.00  0.00    -0.232 A  
HETATM    9  H1  UNL     1      -7.535   7.570  63.761  1.00  0.00     0.000 HD 
HETATM   10  C   UNL     1      -9.691   9.928  66.039  1.00  0.00    -0.310 A  
HETATM   11  C   UNL     1     -10.381   9.711  67.217  1.00  0.00    -0.310 A  
HETATM   12  C   UNL     1     -10.398   8.433  67.783  1.00  0.00    -0.297 A  
HETATM   13  C   UNL     1      -9.739   7.335  67.172  1.00  0.00    -0.168 A  
HETATM   14  N   UNL     1      -9.815   6.055  67.678  1.00  0.00    -0.117 NA 
ENDROOT
BRANCH  14  15
HETATM   15  C   UNL     1     -10.652   5.781  68.879  1.00  0.00    -0.267 C  
BRANCH  15  16
HETATM   16  C   UNL     1      -9.796   5.787  70.144  1.00  0.00    -0.240 C  
BRANCH  16  17
HETATM   17  C   UNL     1     -10.290   4.762  71.162  1.00  0.00    -0.188 C  
BRANCH  17  18
HETATM   18  C   UNL     1     -10.830   5.406  72.442  1.00  0.00    -0.297 C  
BRANCH  18  19
HETATM   19  C   UNL     1     -11.895   6.460  72.154  1.00  0.00    -0.361 C  
BRANCH  19  20
HETATM   20  C   UNL     1     -11.505   7.859  72.638  1.00  0.00    -0.454 C  
BRANCH  20  21
HETATM   21  C   UNL     1     -11.164   8.835  71.503  1.00  0.00    -0.377 C  
BRANCH  21  22
HETATM   22  C   UNL     1     -12.238   9.907  71.294  1.00  0.00    -0.480 C  
BRANCH  22  23
HETATM   23  C   UNL     1     -11.823  10.989  70.290  1.00  0.00    -0.456 C  
BRANCH  23  24
HETATM   24  C   UNL     1     -12.898  12.067  70.150  1.00  0.00     0.382 C  
BRANCH  24  25
HETATM   25  N   UNL     1     -12.278  13.410  70.011  1.00  0.00    -0.321 NA 
HETATM   26  C   UNL     1     -11.792  13.822  68.799  1.00  0.00    -0.363 A  
HETATM   27  C   UNL     1     -11.276  15.113  68.660  1.00  0.00    -0.295 A  
HETATM   28  C   UNL     1     -11.815  13.000  67.530  1.00  0.00    -0.408 C  
HETATM   29  C   UNL     1     -11.216  15.992  69.730  1.00  0.00    -0.344 A  
HETATM   30  N   UNL     1     -10.821  17.306  69.464  1.00  0.00    -0.303 NA 
HETATM   31  C   UNL     1     -11.774  15.584  70.953  1.00  0.00    -0.413 A  
HETATM   32  H1  UNL     1     -10.777  17.953  70.251  1.00  0.00     0.000 HD 
HETATM   33  C   UNL     1     -12.275  14.261  71.097  1.00  0.00    -0.356 A  
HETATM   34  H2  UNL     1     -11.422  17.699  68.739  1.00  0.00     0.000 HD 
HETATM   35  C   UNL     1     -12.781  13.871  72.364  1.00  0.00    -0.294 A  
HETATM   36  C   UNL     1     -12.845  14.754  73.439  1.00  0.00    -0.597 A  
HETATM   37  C   UNL     1     -12.397  16.052  73.282  1.00  0.00    -0.644 A  
HETATM   38  C   UNL     1     -11.863  16.458  72.061  1.00  0.00    -0.464 A  
ENDBRANCH  24  25
ENDBRANCH  23  24
ENDBRANCH  22  23
ENDBRANCH  21  22
ENDBRANCH  20  21
ENDBRANCH  19  20
ENDBRANCH  18  19
ENDBRANCH  17  18
ENDBRANCH  16  17
ENDBRANCH  15  16
ENDBRANCH  14  15
TORSDOF 11
ENDMDL
MODEL      146
REMARK 921   NORMALIZED FREE ENERGY PREDICTED BY IDOCK:   -6.17 KCAL/MOL
REMARK 922        TOTAL FREE ENERGY PREDICTED BY IDOCK:  -11.49 KCAL/MOL
REMARK 923 INTER-LIGAND FREE ENERGY PREDICTED BY IDOCK:   -9.51 KCAL/MOL
REMARK 924 INTRA-LIGAND FREE ENERGY PREDICTED BY IDOCK:   -1.98 KCAL/MOL
REMARK 927      BINDING AFFINITY PREDICTED BY RF-SCORE:    0.00 PKD
ROOT
HETATM    1  C   UNL     1     -10.535  16.749  67.054  1.00  0.00    -0.285 C  
HETATM    2  C   UNL     1     -10.981  15.859  68.192  1.00  0.00    -0.335 A  
HETATM    3  C   UNL     1     -11.336  16.466  69.389  1.00  0.00    -0.213 A  
HETATM    4  C   UNL     1     -11.770  15.724  70.477  1.00  0.00    -0.377 A  
HETATM    5  N   UNL     1     -12.242  16.424  71.592  1.00  0.00    -0.558 NA 
HETATM    6  C   UNL     1     -11.936  14.335  70.314  1.00  0.00    -0.398 A  
HETATM    7  H2  UNL     1     -12.985  17.060  71.301  1.00  0.00     0.000 HD 
HETATM    8  C   UNL     1     -12.494  13.524  71.330  1.00  0.00    -0.388 A  
HETATM    9  H1  UNL     1     -12.561  15.877  72.392  1.00  0.00     0.000 HD 
HETATM   10  C   UNL     1     -12.643  12.146  71.177  1.00  0.00    -0.360 A  
HETATM   11  C   UNL     1     -12.229  11.537  70.008  1.00  0.00    -0.354 A  
HETATM   12  C   UNL     1     -11.680  12.311  68.982  1.00  0.00    -0.376 A  
HETATM   13  C   UNL     1     -11.548  13.719  69.096  1.00  0.00    -0.317 A  
HETATM   14  N   UNL     1     -11.081  14.501  68.061  1.00  0.00    -0.267 NA 
ENDROOT
BRANCH  14  15
HETATM   15  C   UNL     1     -10.744  13.876  66.753  1.00  0.00    -0.281 C  
BRANCH  15  16
HETATM   16  C   UNL     1     -11.975  13.816  65.851  1.00  0.00    -0.433 C  
BRANCH  16  17
HETATM   17  C   UNL     1     -11.589  13.773  64.375  1.00  0.00    -0.418 C  
BRANCH  17  18
HETATM   18  C   UNL     1     -11.589  12.353  63.800  1.00  0.00    -0.553 C  
BRANCH  18  19
HETATM   19  C   UNL     1     -10.194  11.736  63.785  1.00  0.00    -0.434 C  
BRANCH  19  20
HETATM   20  C   UNL     1     -10.111  10.413  64.550  1.00  0.00    -0.365 C  
BRANCH  20  21
HETATM   21  C   UNL     1     -10.212  10.571  66.073  1.00  0.00    -0.310 C  
BRANCH  21  22
HETATM   22  C   UNL     1      -8.847  10.576  66.766  1.00  0.00    -0.139 C  
BRANCH  22  23
HETATM   23  C   UNL     1      -8.906  10.102  68.223  1.00  0.00    -0.124 C  
BRANCH  23  24
HETATM   24  C   UNL     1     -10.121   9.208  68.474  1.00  0.00    -0.191 C  
BRANCH  24  25
HETATM   25  N   UNL     1      -9.715   7.951  69.153  1.00  0.00    -0.160 NA 
HETATM   26  C   UNL     1      -9.675   7.889  70.520  1.00  0.00    -0.174 A  
HETATM   27  C   UNL     1      -9.363   6.682  71.152  1.00  0.00    -0.164 A  
HETATM   28  C   UNL     1     -10.010   9.032  71.451  1.00  0.00    -0.388 C  
HETATM   29  C   UNL     1      -9.062   5.539  70.428  1.00  0.00    -0.139 A  
HETATM   30  N   UNL     1      -8.905   4.347  71.141  1.00  0.00    -0.112 NA 
HETATM   31  C   UNL     1      -9.166   5.595  69.029  1.00  0.00    -0.141 A  
HETATM   32  H1  UNL     1      -8.684   3.505  70.609  1.00  0.00     0.000 HD 
HETATM   33  C   UNL     1      -9.460   6.831  68.389  1.00  0.00    -0.126 A  
HETATM   34  H2  UNL     1      -9.738   4.179  71.705  1.00  0.00     0.000 HD 
HETATM   35  C   UNL     1      -9.503   6.857  66.972  1.00  0.00    -0.183 A  
HETATM   36  C   UNL     1      -9.318   5.709  66.204  1.00  0.00    -0.167 A  
HETATM   37  C   UNL     1      -9.075   4.502  66.831  1.00  0.00    -0.130 A  
HETATM   38  C   UNL     1      -8.994   4.447  68.221  1.00  0.00    -0.149 A  
ENDBRANCH  24  25
ENDBRANCH  23  24
ENDBRANCH  22  23
ENDBRANCH  21  22
ENDBRANCH  20  21
ENDBRANCH  19  20
ENDBRANCH  18  19
ENDBRANCH  17  18
ENDBRANCH  16  17
ENDBRANCH  15  16
ENDBRANCH  14  15
TORSDOF 11
ENDMDL
MODEL      147
REMARK 921   NORMALIZED FREE ENERGY PREDICTED BY IDOCK:   -6.16 KCAL/MOL
REMARK 922        TOTAL FREE ENERGY PREDICTED BY IDOCK:  -11.47 KCAL/MOL
REMARK 923 INTER-LIGAND FREE ENERGY PREDICTED BY IDOCK:   -8.64 KCAL/MOL
REMARK 924 INTRA-LIGAND FREE ENERGY PREDICTED BY IDOCK:   -2.83 KCAL/MOL
REMARK 927      BINDING AFFINITY PREDICTED BY RF-SCORE:    0.00 PKD
ROOT
HETATM    1  C   UNL     1      -8.728   7.342  73.550  1.00  0.00    -0.220 C  
HETATM    2  C   UNL     1      -9.364   7.000  72.222  1.00  0.00    -0.136 A  
HETATM    3  C   UNL     1     -10.741   7.146  72.105  1.00  0.00    -0.245 A  
HETATM    4  C   UNL     1     -11.401   6.867  70.918  1.00  0.00    -0.304 A  
HETATM    5  N   UNL     1     -12.763   7.177  70.846  1.00  0.00    -0.586 NA 
HETATM    6  C   UNL     1     -10.631   6.520  69.791  1.00  0.00    -0.284 A  
HETATM    7  H2  UNL     1     -12.898   8.160  71.083  1.00  0.00     0.000 HD 
HETATM    8  C   UNL     1     -11.211   6.345  68.513  1.00  0.00    -0.321 A  
HETATM    9  H1  UNL     1     -13.248   6.972  69.973  1.00  0.00     0.000 HD 
HETATM   10  C   UNL     1     -10.453   5.985  67.400  1.00  0.00    -0.309 A  
HETATM   11  C   UNL     1      -9.094   5.778  67.534  1.00  0.00    -0.106 A  
HETATM   12  C   UNL     1      -8.488   5.950  68.781  1.00  0.00    -0.111 A  
HETATM   13  C   UNL     1      -9.228   6.350  69.924  1.00  0.00    -0.152 A  
HETATM   14  N   UNL     1      -8.629   6.598  71.140  1.00  0.00    -0.129 NA 
ENDROOT
BRANCH  14  15
HETATM   15  C   UNL     1      -7.149   6.497  71.272  1.00  0.00    -0.077 C  
BRANCH  15  16
HETATM   16  C   UNL     1      -6.514   7.886  71.290  1.00  0.00    -0.038 C  
BRANCH  16  17
HETATM   17  C   UNL     1      -6.725   8.618  69.967  1.00  0.00    -0.039 C  
BRANCH  17  18
HETATM   18  C   UNL     1      -7.618   9.854  70.106  1.00  0.00    -0.185 C  
BRANCH  18  19
HETATM   19  C   UNL     1      -8.946   9.693  69.372  1.00  0.00    -0.186 C  
BRANCH  19  20
HETATM   20  C   UNL     1      -8.780   9.490  67.864  1.00  0.00    -0.119 C  
BRANCH  20  21
HETATM   21  C   UNL     1     -10.094   9.591  67.077  1.00  0.00    -0.297 C  
BRANCH  21  22
HETATM   22  C   UNL     1     -10.047  10.649  65.971  1.00  0.00    -0.308 C  
BRANCH  22  23
HETATM   23  C   UNL     1     -10.148  12.084  66.503  1.00  0.00    -0.224 C  
BRANCH  23  24
HETATM   24  C   UNL     1     -11.604  12.511  66.696  1.00  0.00    -0.380 C  
BRANCH  24  25
HETATM   25  N   UNL     1     -11.743  13.364  67.903  1.00  0.00    -0.341 NA 
HETATM   26  C   UNL     1     -11.565  14.719  67.813  1.00  0.00    -0.357 A  
HETATM   27  C   UNL     1     -11.769  15.523  68.937  1.00  0.00    -0.385 A  
HETATM   28  C   UNL     1     -11.211  15.465  66.547  1.00  0.00    -0.162 C  
HETATM   29  C   UNL     1     -12.125  14.982  70.163  1.00  0.00    -0.331 A  
HETATM   30  N   UNL     1     -12.449  15.873  71.191  1.00  0.00    -0.537 NA 
HETATM   31  C   UNL     1     -12.368  13.601  70.231  1.00  0.00    -0.392 A  
HETATM   32  H1  UNL     1     -12.712  15.476  72.093  1.00  0.00     0.000 HD 
HETATM   33  C   UNL     1     -12.135  12.783  69.091  1.00  0.00    -0.158 A  
HETATM   34  H2  UNL     1     -13.187  16.502  70.873  1.00  0.00     0.000 HD 
HETATM   35  C   UNL     1     -12.340  11.385  69.217  1.00  0.00    -0.148 A  
HETATM   36  C   UNL     1     -12.805  10.808  70.397  1.00  0.00    -0.285 A  
HETATM   37  C   UNL     1     -13.072  11.612  71.489  1.00  0.00    -0.405 A  
HETATM   38  C   UNL     1     -12.850  12.985  71.409  1.00  0.00    -0.385 A  
ENDBRANCH  24  25
ENDBRANCH  23  24
ENDBRANCH  22  23
ENDBRANCH  21  22
ENDBRANCH  20  21
ENDBRANCH  19  20
ENDBRANCH  18  19
ENDBRANCH  17  18
ENDBRANCH  16  17
ENDBRANCH  15  16
ENDBRANCH  14  15
TORSDOF 11
ENDMDL
MODEL      148
REMARK 921   NORMALIZED FREE ENERGY PREDICTED BY IDOCK:   -6.14 KCAL/MOL
REMARK 922        TOTAL FREE ENERGY PREDICTED BY IDOCK:  -11.45 KCAL/MOL
REMARK 923 INTER-LIGAND FREE ENERGY PREDICTED BY IDOCK:   -9.42 KCAL/MOL
REMARK 924 INTRA-LIGAND FREE ENERGY PREDICTED BY IDOCK:   -2.03 KCAL/MOL
REMARK 927      BINDING AFFINITY PREDICTED BY RF-SCORE:    0.00 PKD
ROOT
HETATM    1  C   UNL     1     -10.635   5.910  67.029  1.00  0.00    -0.376 C  
HETATM    2  C   UNL     1      -9.488   6.486  67.830  1.00  0.00    -0.119 A  
HETATM    3  C   UNL     1      -8.552   7.260  67.157  1.00  0.00    -0.121 A  
HETATM    4  C   UNL     1      -7.479   7.837  67.820  1.00  0.00    -0.104 A  
HETATM    5  N   UNL     1      -6.667   8.716  67.095  1.00  0.00    -0.062 NA 
HETATM    6  C   UNL     1      -7.406   7.700  69.219  1.00  0.00    -0.088 A  
HETATM    7  H2  UNL     1      -7.245   9.451  66.688  1.00  0.00     0.000 HD 
HETATM    8  C   UNL     1      -6.418   8.362  69.985  1.00  0.00    -0.038 A  
HETATM    9  H1  UNL     1      -5.878   9.139  67.583  1.00  0.00     0.000 HD 
HETATM   10  C   UNL     1      -6.334   8.214  71.369  1.00  0.00    -0.037 A  
HETATM   11  C   UNL     1      -7.228   7.392  72.027  1.00  0.00    -0.067 A  
HETATM   12  C   UNL     1      -8.221   6.729  71.300  1.00  0.00    -0.119 A  
HETATM   13  C   UNL     1      -8.353   6.888  69.896  1.00  0.00    -0.139 A  
HETATM   14  N   UNL     1      -9.375   6.302  69.181  1.00  0.00    -0.131 NA 
ENDROOT
BRANCH  14  15
HETATM   15  C   UNL     1     -10.418   5.510  69.890  1.00  0.00    -0.316 C  
BRANCH  15  16
HETATM   16  C   UNL     1     -11.680   6.345  70.096  1.00  0.00    -0.372 C  
BRANCH  16  17
HETATM   17  C   UNL     1     -11.664   7.067  71.441  1.00  0.00    -0.344 C  
BRANCH  17  18
HETATM   18  C   UNL     1     -12.383   8.419  71.400  1.00  0.00    -0.328 C  
BRANCH  18  19
HETATM   19  C   UNL     1     -11.430   9.587  71.638  1.00  0.00    -0.433 C  
BRANCH  19  20
HETATM   20  C   UNL     1     -10.280   9.643  70.630  1.00  0.00    -0.346 C  
BRANCH  20  21
HETATM   21  C   UNL     1     -10.577  10.509  69.398  1.00  0.00    -0.269 C  
BRANCH  21  22
HETATM   22  C   UNL     1      -9.322  10.840  68.585  1.00  0.00    -0.184 C  
BRANCH  22  23
HETATM   23  C   UNL     1      -9.191  12.332  68.257  1.00  0.00    -0.189 C  
BRANCH  23  24
HETATM   24  C   UNL     1     -10.548  13.036  68.286  1.00  0.00    -0.247 C  
BRANCH  24  25
HETATM   25  N   UNL     1     -10.693  13.943  67.119  1.00  0.00    -0.281 NA 
HETATM   26  C   UNL     1     -11.170  13.462  65.928  1.00  0.00    -0.300 A  
HETATM   27  C   UNL     1     -11.372  14.336  64.857  1.00  0.00    -0.372 A  
HETATM   28  C   UNL     1     -11.573  12.028  65.671  1.00  0.00    -0.356 C  
HETATM   29  C   UNL     1     -11.075  15.687  64.954  1.00  0.00    -0.402 A  
HETATM   30  N   UNL     1     -11.445  16.507  63.884  1.00  0.00    -1.599 NA 
HETATM   31  C   UNL     1     -10.647  16.182  66.197  1.00  0.00    -0.288 A  
HETATM   32  H1  UNL     1     -11.227  17.501  63.955  1.00  0.00     0.000 HD 
HETATM   33  C   UNL     1     -10.419  15.286  67.276  1.00  0.00    -0.275 A  
HETATM   34  H2  UNL     1     -12.442  16.393  63.701  1.00  0.00     0.000 HD 
HETATM   35  C   UNL     1      -9.934  15.819  68.498  1.00  0.00    -0.208 A  
HETATM   36  C   UNL     1      -9.727  17.184  68.680  1.00  0.00    -0.293 A  
HETATM   37  C   UNL     1      -9.991  18.057  67.641  1.00  0.00    -0.332 A  
HETATM   38  C   UNL     1     -10.436  17.563  66.417  1.00  0.00    -0.277 A  
ENDBRANCH  24  25
ENDBRANCH  23  24
ENDBRANCH  22  23
ENDBRANCH  21  22
ENDBRANCH  20  21
ENDBRANCH  19  20
ENDBRANCH  18  19
ENDBRANCH  17  18
ENDBRANCH  16  17
ENDBRANCH  15  16
ENDBRANCH  14  15
TORSDOF 11
ENDMDL
MODEL      149
REMARK 921   NORMALIZED FREE ENERGY PREDICTED BY IDOCK:   -6.14 KCAL/MOL
REMARK 922        TOTAL FREE ENERGY PREDICTED BY IDOCK:  -11.44 KCAL/MOL
REMARK 923 INTER-LIGAND FREE ENERGY PREDICTED BY IDOCK:   -8.94 KCAL/MOL
REMARK 924 INTRA-LIGAND FREE ENERGY PREDICTED BY IDOCK:   -2.50 KCAL/MOL
REMARK 927      BINDING AFFINITY PREDICTED BY RF-SCORE:    0.00 PKD
ROOT
HETATM    1  C   UNL     1     -12.040  14.815  70.740  1.00  0.00    -0.374 C  
HETATM    2  C   UNL     1     -11.752  14.048  69.469  1.00  0.00    -0.313 A  
HETATM    3  C   UNL     1     -11.916  12.668  69.493  1.00  0.00    -0.332 A  
HETATM    4  C   UNL     1     -11.688  11.892  68.367  1.00  0.00    -0.326 A  
HETATM    5  N   UNL     1     -12.014  10.534  68.440  1.00  0.00    -0.788 NA 
HETATM    6  C   UNL     1     -11.373  12.543  67.159  1.00  0.00    -0.381 A  
HETATM    7  H2  UNL     1     -12.989  10.436  68.724  1.00  0.00     0.000 HD 
HETATM    8  C   UNL     1     -11.251  11.839  65.939  1.00  0.00    -0.345 A  
HETATM    9  H1  UNL     1     -11.845   9.963  67.612  1.00  0.00     0.000 HD 
HETATM   10  C   UNL     1     -10.923  12.480  64.745  1.00  0.00    -0.339 A  
HETATM   11  C   UNL     1     -10.698  13.843  64.737  1.00  0.00    -0.437 A  
HETATM   12  C   UNL     1     -10.818  14.570  65.925  1.00  0.00    -0.308 A  
HETATM   13  C   UNL     1     -11.184  13.950  67.148  1.00  0.00    -0.313 A  
HETATM   14  N   UNL     1     -11.382  14.668  68.308  1.00  0.00    -0.283 NA 
ENDROOT
BRANCH  14  15
HETATM   15  C   UNL     1     -11.261  16.152  68.291  1.00  0.00    -0.343 C  
BRANCH  15  16
HETATM   16  C   UNL     1      -9.813  16.572  68.045  1.00  0.00    -0.240 C  
BRANCH  16  17
HETATM   17  C   UNL     1      -8.946  16.353  69.282  1.00  0.00    -0.130 C  
BRANCH  17  18
HETATM   18  C   UNL     1      -7.995  15.161  69.140  1.00  0.00    -0.205 C  
BRANCH  18  19
HETATM   19  C   UNL     1      -7.581  14.922  67.691  1.00  0.00    -0.201 C  
BRANCH  19  20
HETATM   20  C   UNL     1      -7.511  13.439  67.320  1.00  0.00    -0.062 C  
BRANCH  20  21
HETATM   21  C   UNL     1      -8.023  12.500  68.420  1.00  0.00    -0.139 C  
BRANCH  21  22
HETATM   22  C   UNL     1      -6.950  11.532  68.927  1.00  0.00    -0.100 C  
BRANCH  22  23
HETATM   23  C   UNL     1      -7.527  10.219  69.467  1.00  0.00    -0.142 C  
BRANCH  23  24
HETATM   24  C   UNL     1      -8.927   9.950  68.914  1.00  0.00    -0.153 C  
BRANCH  24  25
HETATM   25  N   UNL     1      -9.299   8.524  69.098  1.00  0.00    -0.153 NA 
HETATM   26  C   UNL     1      -8.835   7.574  68.228  1.00  0.00    -0.125 A  
HETATM   27  C   UNL     1      -9.129   6.226  68.450  1.00  0.00    -0.114 A  
HETATM   28  C   UNL     1      -7.949   7.849  67.034  1.00  0.00    -0.112 C  
HETATM   29  C   UNL     1      -9.908   5.818  69.522  1.00  0.00    -0.178 A  
HETATM   30  N   UNL     1     -10.028   4.444  69.746  1.00  0.00    -0.215 NA 
HETATM   31  C   UNL     1     -10.326   6.792  70.444  1.00  0.00    -0.223 A  
HETATM   32  H1  UNL     1     -10.600   4.143  70.534  1.00  0.00     0.000 HD 
HETATM   33  C   UNL     1     -10.046   8.165  70.201  1.00  0.00    -0.194 A  
HETATM   34  H2  UNL     1      -9.098   4.033  69.829  1.00  0.00     0.000 HD 
HETATM   35  C   UNL     1     -10.533   9.121  71.128  1.00  0.00    -0.385 A  
HETATM   36  C   UNL     1     -11.224   8.751  72.280  1.00  0.00    -0.343 A  
HETATM   37  C   UNL     1     -11.457   7.413  72.534  1.00  0.00    -0.346 A  
HETATM   38  C   UNL     1     -11.021   6.449  71.627  1.00  0.00    -0.302 A  
ENDBRANCH  24  25
ENDBRANCH  23  24
ENDBRANCH  22  23
ENDBRANCH  21  22
ENDBRANCH  20  21
ENDBRANCH  19  20
ENDBRANCH  18  19
ENDBRANCH  17  18
ENDBRANCH  16  17
ENDBRANCH  15  16
ENDBRANCH  14  15
TORSDOF 11
ENDMDL
MODEL      150
REMARK 921   NORMALIZED FREE ENERGY PREDICTED BY IDOCK:   -6.14 KCAL/MOL
REMARK 922        TOTAL FREE ENERGY PREDICTED BY IDOCK:  -11.44 KCAL/MOL
REMARK 923 INTER-LIGAND FREE ENERGY PREDICTED BY IDOCK:   -8.57 KCAL/MOL
REMARK 924 INTRA-LIGAND FREE ENERGY PREDICTED BY IDOCK:   -2.87 KCAL/MOL
REMARK 927      BINDING AFFINITY PREDICTED BY RF-SCORE:    0.00 PKD
ROOT
HETATM    1  C   UNL     1      -7.937   8.362  73.623  1.00  0.00    -0.173 C  
HETATM    2  C   UNL     1      -8.794   7.738  72.545  1.00  0.00    -0.150 A  
HETATM    3  C   UNL     1      -9.989   7.143  72.930  1.00  0.00    -0.233 A  
HETATM    4  C   UNL     1     -10.840   6.562  72.002  1.00  0.00    -0.234 A  
HETATM    5  N   UNL     1     -12.085   6.114  72.457  1.00  0.00    -0.537 NA 
HETATM    6  C   UNL     1     -10.514   6.669  70.637  1.00  0.00    -0.253 A  
HETATM    7  H2  UNL     1     -12.569   6.882  72.923  1.00  0.00     0.000 HD 
HETATM    8  C   UNL     1     -11.388   6.217  69.620  1.00  0.00    -0.492 A  
HETATM    9  H1  UNL     1     -12.710   5.687  71.774  1.00  0.00     0.000 HD 
HETATM   10  C   UNL     1     -11.059   6.307  68.269  1.00  0.00    -0.364 A  
HETATM   11  C   UNL     1      -9.841   6.841  67.893  1.00  0.00    -0.146 A  
HETATM   12  C   UNL     1      -8.958   7.303  68.872  1.00  0.00    -0.133 A  
HETATM   13  C   UNL     1      -9.280   7.257  70.253  1.00  0.00    -0.155 A  
HETATM   14  N   UNL     1      -8.451   7.781  71.221  1.00  0.00    -0.117 NA 
ENDROOT
BRANCH  14  15
HETATM   15  C   UNL     1      -7.190   8.468  70.826  1.00  0.00    -0.060 C  
BRANCH  15  16
HETATM   16  C   UNL     1      -7.471   9.911  70.411  1.00  0.00    -0.137 C  
BRANCH  16  17
HETATM   17  C   UNL     1      -7.208  10.129  68.923  1.00  0.00    -0.079 C  
BRANCH  17  18
HETATM   18  C   UNL     1      -6.676  11.532  68.613  1.00  0.00    -0.072 C  
BRANCH  18  19
HETATM   19  C   UNL     1      -7.700  12.388  67.875  1.00  0.00    -0.135 C  
BRANCH  19  20
HETATM   20  C   UNL     1      -7.995  13.715  68.577  1.00  0.00    -0.127 C  
BRANCH  20  21
HETATM   21  C   UNL     1      -7.821  14.946  67.677  1.00  0.00    -0.189 C  
BRANCH  21  22
HETATM   22  C   UNL     1      -8.930  15.985  67.864  1.00  0.00    -0.186 C  
BRANCH  22  23
HETATM   23  C   UNL     1     -10.126  15.455  68.664  1.00  0.00    -0.212 C  
BRANCH  23  24
HETATM   24  C   UNL     1     -11.359  15.273  67.777  1.00  0.00    -0.326 C  
BRANCH  24  25
HETATM   25  N   UNL     1     -11.200  14.088  66.896  1.00  0.00    -0.304 NA 
HETATM   26  C   UNL     1     -10.952  14.253  65.559  1.00  0.00    -0.319 A  
HETATM   27  C   UNL     1     -10.732  13.135  64.751  1.00  0.00    -0.381 A  
HETATM   28  C   UNL     1     -10.829  15.587  64.857  1.00  0.00    -0.447 C  
HETATM   29  C   UNL     1     -10.784  11.847  65.260  1.00  0.00    -0.283 A  
HETATM   30  N   UNL     1     -10.408  10.802  64.411  1.00  0.00    -0.362 NA 
HETATM   31  C   UNL     1     -10.976  11.690  66.643  1.00  0.00    -0.349 A  
HETATM   32  H1  UNL     1     -10.446   9.854  64.786  1.00  0.00     0.000 HD 
HETATM   33  C   UNL     1     -11.225  12.829  67.457  1.00  0.00    -0.289 A  
HETATM   34  H2  UNL     1      -9.473  10.983  64.047  1.00  0.00     0.000 HD 
HETATM   35  C   UNL     1     -11.467  12.623  68.840  1.00  0.00    -0.354 A  
HETATM   36  C   UNL     1     -11.419  11.357  69.419  1.00  0.00    -0.378 A  
HETATM   37  C   UNL     1     -11.134  10.257  68.632  1.00  0.00    -0.290 A  
HETATM   38  C   UNL     1     -10.924  10.421  67.264  1.00  0.00    -0.306 A  
ENDBRANCH  24  25
ENDBRANCH  23  24
ENDBRANCH  22  23
ENDBRANCH  21  22
ENDBRANCH  20  21
ENDBRANCH  19  20
ENDBRANCH  18  19
ENDBRANCH  17  18
ENDBRANCH  16  17
ENDBRANCH  15  16
ENDBRANCH  14  15
TORSDOF 11
ENDMDL
MODEL      151
REMARK 921   NORMALIZED FREE ENERGY PREDICTED BY IDOCK:   -6.14 KCAL/MOL
REMARK 922        TOTAL FREE ENERGY PREDICTED BY IDOCK:  -11.43 KCAL/MOL
REMARK 923 INTER-LIGAND FREE ENERGY PREDICTED BY IDOCK:   -8.39 KCAL/MOL
REMARK 924 INTRA-LIGAND FREE ENERGY PREDICTED BY IDOCK:   -3.05 KCAL/MOL
REMARK 927      BINDING AFFINITY PREDICTED BY RF-SCORE:    0.00 PKD
ROOT
HETATM    1  C   UNL     1     -11.919  11.390  68.833  1.00  0.00    -0.371 C  
HETATM    2  C   UNL     1     -11.649  10.487  70.016  1.00  0.00    -0.313 A  
HETATM    3  C   UNL     1     -12.713  10.185  70.856  1.00  0.00    -0.448 A  
HETATM    4  C   UNL     1     -12.554   9.354  71.955  1.00  0.00    -0.401 A  
HETATM    5  N   UNL     1     -13.704   8.989  72.663  1.00  0.00    -0.795 NA 
HETATM    6  C   UNL     1     -11.303   8.738  72.151  1.00  0.00    -0.411 A  
HETATM    7  H2  UNL     1     -14.378   8.573  72.019  1.00  0.00     0.000 HD 
HETATM    8  C   UNL     1     -11.092   7.779  73.170  1.00  0.00    -0.336 A  
HETATM    9  H1  UNL     1     -13.587   8.378  73.470  1.00  0.00     0.000 HD 
HETATM   10  C   UNL     1      -9.850   7.181  73.377  1.00  0.00    -0.301 A  
HETATM   11  C   UNL     1      -8.778   7.532  72.578  1.00  0.00    -0.163 A  
HETATM   12  C   UNL     1      -8.955   8.472  71.559  1.00  0.00    -0.276 A  
HETATM   13  C   UNL     1     -10.215   9.070  71.302  1.00  0.00    -0.314 A  
HETATM   14  N   UNL     1     -10.419   9.938  70.251  1.00  0.00    -0.279 NA 
ENDROOT
BRANCH  14  15
HETATM   15  C   UNL     1      -9.305  10.234  69.308  1.00  0.00    -0.207 C  
BRANCH  15  16
HETATM   16  C   UNL     1      -9.273   9.213  68.173  1.00  0.00    -0.137 C  
BRANCH  16  17
HETATM   17  C   UNL     1      -7.894   8.576  68.027  1.00  0.00    -0.103 C  
BRANCH  17  18
HETATM   18  C   UNL     1      -7.715   7.842  66.695  1.00  0.00    -0.098 C  
BRANCH  18  19
HETATM   19  C   UNL     1      -6.389   7.090  66.623  1.00  0.00    -0.050 C  
BRANCH  19  20
HETATM   20  C   UNL     1      -6.368   5.822  67.479  1.00  0.00    -0.042 C  
BRANCH  20  21
HETATM   21  C   UNL     1      -5.874   4.577  66.731  1.00  0.00    -0.026 C  
BRANCH  21  22
HETATM   22  C   UNL     1      -6.092   3.281  67.518  1.00  0.00    -0.028 C  
BRANCH  22  23
HETATM   23  C   UNL     1      -6.833   2.205  66.717  1.00  0.00    -0.040 C  
BRANCH  23  24
HETATM   24  C   UNL     1      -8.261   2.007  67.227  1.00  0.00    -0.073 C  
BRANCH  24  25
HETATM   25  N   UNL     1      -9.028   3.276  67.141  1.00  0.00    -0.143 NA 
HETATM   26  C   UNL     1      -9.413   3.766  65.922  1.00  0.00    -0.171 A  
HETATM   27  C   UNL     1     -10.197   4.922  65.854  1.00  0.00    -0.251 A  
HETATM   28  C   UNL     1      -9.111   3.117  64.590  1.00  0.00    -0.137 C  
HETATM   29  C   UNL     1     -10.577   5.611  66.994  1.00  0.00    -0.285 A  
HETATM   30  N   UNL     1     -11.478   6.668  66.839  1.00  0.00    -0.767 NA 
HETATM   31  C   UNL     1     -10.231   5.067  68.242  1.00  0.00    -0.143 A  
HETATM   32  H1  UNL     1     -11.759   7.175  67.678  1.00  0.00     0.000 HD 
HETATM   33  C   UNL     1      -9.413   3.906  68.307  1.00  0.00    -0.151 A  
HETATM   34  H2  UNL     1     -12.311   6.333  66.354  1.00  0.00     0.000 HD 
HETATM   35  C   UNL     1      -9.041   3.419  69.586  1.00  0.00    -0.202 A  
HETATM   36  C   UNL     1      -9.491   4.012  70.763  1.00  0.00    -0.240 A  
HETATM   37  C   UNL     1     -10.321   5.115  70.697  1.00  0.00    -0.305 A  
HETATM   38  C   UNL     1     -10.679   5.638  69.456  1.00  0.00    -0.380 A  
ENDBRANCH  24  25
ENDBRANCH  23  24
ENDBRANCH  22  23
ENDBRANCH  21  22
ENDBRANCH  20  21
ENDBRANCH  19  20
ENDBRANCH  18  19
ENDBRANCH  17  18
ENDBRANCH  16  17
ENDBRANCH  15  16
ENDBRANCH  14  15
TORSDOF 11
ENDMDL
MODEL      152
REMARK 921   NORMALIZED FREE ENERGY PREDICTED BY IDOCK:   -6.13 KCAL/MOL
REMARK 922        TOTAL FREE ENERGY PREDICTED BY IDOCK:  -11.43 KCAL/MOL
REMARK 923 INTER-LIGAND FREE ENERGY PREDICTED BY IDOCK:   -9.33 KCAL/MOL
REMARK 924 INTRA-LIGAND FREE ENERGY PREDICTED BY IDOCK:   -2.10 KCAL/MOL
REMARK 927      BINDING AFFINITY PREDICTED BY RF-SCORE:    0.00 PKD
ROOT
HETATM    1  C   UNL     1      -9.064   9.367  69.992  1.00  0.00    -0.244 C  
HETATM    2  C   UNL     1      -9.333   8.089  70.754  1.00  0.00    -0.157 A  
HETATM    3  C   UNL     1      -9.789   8.198  72.062  1.00  0.00    -0.298 A  
HETATM    4  C   UNL     1     -10.073   7.076  72.825  1.00  0.00    -0.185 A  
HETATM    5  N   UNL     1     -10.661   7.277  74.078  1.00  0.00    -0.572 NA 
HETATM    6  C   UNL     1      -9.982   5.811  72.214  1.00  0.00    -0.197 A  
HETATM    7  H2  UNL     1     -11.510   7.832  73.967  1.00  0.00     0.000 HD 
HETATM    8  C   UNL     1     -10.376   4.627  72.879  1.00  0.00    -0.242 A  
HETATM    9  H1  UNL     1     -10.870   6.451  74.639  1.00  0.00     0.000 HD 
HETATM   10  C   UNL     1     -10.270   3.372  72.282  1.00  0.00    -0.177 A  
HETATM   11  C   UNL     1      -9.756   3.262  71.003  1.00  0.00    -0.199 A  
HETATM   12  C   UNL     1      -9.364   4.414  70.315  1.00  0.00    -0.218 A  
HETATM   13  C   UNL     1      -9.493   5.707  70.885  1.00  0.00    -0.166 A  
HETATM   14  N   UNL     1      -9.183   6.854  70.187  1.00  0.00    -0.155 NA 
ENDROOT
BRANCH  14  15
HETATM   15  C   UNL     1      -8.742   6.762  68.767  1.00  0.00    -0.125 C  
BRANCH  15  16
HETATM   16  C   UNL     1      -7.224   6.898  68.665  1.00  0.00    -0.088 C  
BRANCH  16  17
HETATM   17  C   UNL     1      -6.814   7.722  67.447  1.00  0.00    -0.069 C  
BRANCH  17  18
HETATM   18  C   UNL     1      -8.004   8.123  66.571  1.00  0.00    -0.101 C  
BRANCH  18  19
HETATM   19  C   UNL     1      -8.088   9.632  66.363  1.00  0.00    -0.112 C  
BRANCH  19  20
HETATM   20  C   UNL     1      -9.380  10.076  65.675  1.00  0.00    -0.257 C  
BRANCH  20  21
HETATM   21  C   UNL     1     -10.000  11.344  66.278  1.00  0.00    -0.259 C  
BRANCH  21  22
HETATM   22  C   UNL     1      -9.147  11.954  67.393  1.00  0.00    -0.178 C  
BRANCH  22  23
HETATM   23  C   UNL     1      -9.636  13.336  67.842  1.00  0.00    -0.217 C  
BRANCH  23  24
HETATM   24  C   UNL     1     -11.163  13.424  67.825  1.00  0.00    -0.279 C  
BRANCH  24  25
HETATM   25  N   UNL     1     -11.676  13.863  69.148  1.00  0.00    -0.313 NA 
HETATM   26  C   UNL     1     -11.783  15.197  69.437  1.00  0.00    -0.332 A  
HETATM   27  C   UNL     1     -12.336  15.602  70.655  1.00  0.00    -0.457 A  
HETATM   28  C   UNL     1     -11.402  16.321  68.500  1.00  0.00    -0.330 C  
HETATM   29  C   UNL     1     -12.758  14.684  71.603  1.00  0.00    -0.331 A  
HETATM   30  N   UNL     1     -13.428  15.179  72.726  1.00  0.00    -0.477 NA 
HETATM   31  C   UNL     1     -12.703  13.320  71.274  1.00  0.00    -0.411 A  
HETATM   32  H1  UNL     1     -13.740  14.503  73.424  1.00  0.00     0.000 HD 
HETATM   33  C   UNL     1     -12.118  12.911  70.044  1.00  0.00    -0.286 A  
HETATM   34  H2  UNL     1     -14.224  15.741  72.423  1.00  0.00     0.000 HD 
HETATM   35  C   UNL     1     -12.032  11.521  69.772  1.00  0.00    -0.415 A  
HETATM   36  C   UNL     1     -12.544  10.564  70.645  1.00  0.00    -0.457 A  
HETATM   37  C   UNL     1     -13.151  10.967  71.819  1.00  0.00    -0.554 A  
HETATM   38  C   UNL     1     -13.222  12.323  72.132  1.00  0.00    -0.466 A  
ENDBRANCH  24  25
ENDBRANCH  23  24
ENDBRANCH  22  23
ENDBRANCH  21  22
ENDBRANCH  20  21
ENDBRANCH  19  20
ENDBRANCH  18  19
ENDBRANCH  17  18
ENDBRANCH  16  17
ENDBRANCH  15  16
ENDBRANCH  14  15
TORSDOF 11
ENDMDL
MODEL      153
REMARK 921   NORMALIZED FREE ENERGY PREDICTED BY IDOCK:   -6.11 KCAL/MOL
REMARK 922        TOTAL FREE ENERGY PREDICTED BY IDOCK:  -11.40 KCAL/MOL
REMARK 923 INTER-LIGAND FREE ENERGY PREDICTED BY IDOCK:   -6.96 KCAL/MOL
REMARK 924 INTRA-LIGAND FREE ENERGY PREDICTED BY IDOCK:   -4.44 KCAL/MOL
REMARK 927      BINDING AFFINITY PREDICTED BY RF-SCORE:    0.00 PKD
ROOT
HETATM    1  C   UNL     1      -9.495   9.882  64.717  1.00  0.00    -0.356 C  
HETATM    2  C   UNL     1      -9.516   9.845  66.229  1.00  0.00    -0.193 A  
HETATM    3  C   UNL     1     -10.648  10.327  66.874  1.00  0.00    -0.282 A  
HETATM    4  C   UNL     1     -10.754  10.315  68.256  1.00  0.00    -0.237 A  
HETATM    5  N   UNL     1     -11.981  10.686  68.815  1.00  0.00    -0.736 NA 
HETATM    6  C   UNL     1      -9.721   9.712  69.000  1.00  0.00    -0.169 A  
HETATM    7  H2  UNL     1     -12.721  10.108  68.415  1.00  0.00     0.000 HD 
HETATM    8  C   UNL     1      -9.809   9.543  70.402  1.00  0.00    -0.329 A  
HETATM    9  H1  UNL     1     -12.059  10.677  69.831  1.00  0.00     0.000 HD 
HETATM   10  C   UNL     1      -8.781   8.962  71.142  1.00  0.00    -0.280 A  
HETATM   11  C   UNL     1      -7.630   8.541  70.505  1.00  0.00    -0.074 A  
HETATM   12  C   UNL     1      -7.514   8.687  69.120  1.00  0.00    -0.083 A  
HETATM   13  C   UNL     1      -8.558   9.243  68.336  1.00  0.00    -0.124 A  
HETATM   14  N   UNL     1      -8.487   9.320  66.962  1.00  0.00    -0.123 NA 
ENDROOT
BRANCH  14  15
HETATM   15  C   UNL     1      -7.305   8.762  66.248  1.00  0.00    -0.087 C  
BRANCH  15  16
HETATM   16  C   UNL     1      -7.448   7.252  66.067  1.00  0.00    -0.080 C  
BRANCH  16  17
HETATM   17  C   UNL     1      -6.090   6.574  65.905  1.00  0.00    -0.030 C  
BRANCH  17  18
HETATM   18  C   UNL     1      -5.545   6.010  67.221  1.00  0.00    -0.012 C  
BRANCH  18  19
HETATM   19  C   UNL     1      -6.138   4.644  67.554  1.00  0.00    -0.027 C  
BRANCH  19  20
HETATM   20  C   UNL     1      -5.809   4.173  68.972  1.00  0.00    -0.022 C  
BRANCH  20  21
HETATM   21  C   UNL     1      -6.029   5.243  70.049  1.00  0.00    -0.018 C  
BRANCH  21  22
HETATM   22  C   UNL     1      -6.263   4.651  71.441  1.00  0.00    -0.018 C  
BRANCH  22  23
HETATM   23  C   UNL     1      -7.474   5.257  72.160  1.00  0.00    -0.094 C  
BRANCH  23  24
HETATM   24  C   UNL     1      -8.710   4.367  72.028  1.00  0.00    -0.113 C  
BRANCH  24  25
HETATM   25  N   UNL     1      -9.912   5.182  71.715  1.00  0.00    -0.180 NA 
HETATM   26  C   UNL     1     -10.670   5.708  72.727  1.00  0.00    -0.242 A  
HETATM   27  C   UNL     1     -11.756   6.534  72.424  1.00  0.00    -0.271 A  
HETATM   28  C   UNL     1     -10.397   5.522  74.202  1.00  0.00    -0.302 C  
HETATM   29  C   UNL     1     -12.111   6.818  71.115  1.00  0.00    -0.370 A  
HETATM   30  N   UNL     1     -13.117   7.766  70.911  1.00  0.00    -0.540 NA 
HETATM   31  C   UNL     1     -11.291   6.327  70.086  1.00  0.00    -0.476 A  
HETATM   32  H1  UNL     1     -13.379   7.976  69.948  1.00  0.00     0.000 HD 
HETATM   33  C   UNL     1     -10.202   5.467  70.397  1.00  0.00    -0.262 A  
HETATM   34  H2  UNL     1     -12.867   8.633  71.389  1.00  0.00     0.000 HD 
HETATM   35  C   UNL     1      -9.431   4.948  69.325  1.00  0.00    -0.206 A  
HETATM   36  C   UNL     1      -9.680   5.295  67.999  1.00  0.00    -0.179 A  
HETATM   37  C   UNL     1     -10.713   6.165  67.704  1.00  0.00    -0.388 A  
HETATM   38  C   UNL     1     -11.510   6.667  68.731  1.00  0.00    -0.060 A  
ENDBRANCH  24  25
ENDBRANCH  23  24
ENDBRANCH  22  23
ENDBRANCH  21  22
ENDBRANCH  20  21
ENDBRANCH  19  20
ENDBRANCH  18  19
ENDBRANCH  17  18
ENDBRANCH  16  17
ENDBRANCH  15  16
ENDBRANCH  14  15
TORSDOF 11
ENDMDL
MODEL      154
REMARK 921   NORMALIZED FREE ENERGY PREDICTED BY IDOCK:   -6.11 KCAL/MOL
REMARK 922        TOTAL FREE ENERGY PREDICTED BY IDOCK:  -11.39 KCAL/MOL
REMARK 923 INTER-LIGAND FREE ENERGY PREDICTED BY IDOCK:  -10.16 KCAL/MOL
REMARK 924 INTRA-LIGAND FREE ENERGY PREDICTED BY IDOCK:   -1.23 KCAL/MOL
REMARK 927      BINDING AFFINITY PREDICTED BY RF-SCORE:    0.00 PKD
ROOT
HETATM    1  C   UNL     1     -12.514  13.773  67.544  1.00  0.00     0.104 C  
HETATM    2  C   UNL     1     -11.745  12.696  66.813  1.00  0.00    -0.392 A  
HETATM    3  C   UNL     1     -11.842  12.657  65.428  1.00  0.00    -0.473 A  
HETATM    4  C   UNL     1     -11.158  11.710  64.680  1.00  0.00    -0.278 A  
HETATM    5  N   UNL     1     -11.198  11.832  63.287  1.00  0.00    -0.691 NA 
HETATM    6  C   UNL     1     -10.278  10.838  65.350  1.00  0.00    -0.341 A  
HETATM    7  H2  UNL     1     -10.881  12.764  63.021  1.00  0.00     0.000 HD 
HETATM    8  C   UNL     1      -9.448   9.930  64.652  1.00  0.00    -0.343 A  
HETATM    9  H1  UNL     1     -10.695  11.136  62.738  1.00  0.00     0.000 HD 
HETATM   10  C   UNL     1      -8.589   9.055  65.314  1.00  0.00    -0.199 A  
HETATM   11  C   UNL     1      -8.543   9.053  66.696  1.00  0.00    -0.134 A  
HETATM   12  C   UNL     1      -9.345   9.942  67.415  1.00  0.00    -0.158 A  
HETATM   13  C   UNL     1     -10.203  10.869  66.767  1.00  0.00    -0.231 A  
HETATM   14  N   UNL     1     -10.939  11.802  67.464  1.00  0.00    -0.240 NA 
ENDROOT
BRANCH  14  15
HETATM   15  C   UNL     1     -10.810  11.894  68.945  1.00  0.00    -0.221 C  
BRANCH  15  16
HETATM   16  C   UNL     1     -11.308  10.612  69.609  1.00  0.00    -0.360 C  
BRANCH  16  17
HETATM   17  C   UNL     1     -12.064  10.905  70.902  1.00  0.00    -0.455 C  
BRANCH  17  18
HETATM   18  C   UNL     1     -12.870  12.206  70.839  1.00  0.00    -0.190 C  
BRANCH  18  19
HETATM   19  C   UNL     1     -13.281  12.699  72.223  1.00  0.00    -0.465 C  
BRANCH  19  20
HETATM   20  C   UNL     1     -12.856  14.143  72.500  1.00  0.00    -0.433 C  
BRANCH  20  21
HETATM   21  C   UNL     1     -12.584  14.963  71.232  1.00  0.00    -0.402 C  
BRANCH  21  22
HETATM   22  C   UNL     1     -11.091  15.138  70.942  1.00  0.00    -0.289 C  
BRANCH  22  23
HETATM   23  C   UNL     1     -10.792  16.312  70.002  1.00  0.00    -0.329 C  
BRANCH  23  24
HETATM   24  C   UNL     1     -10.075  15.849  68.733  1.00  0.00    -0.221 C  
BRANCH  24  25
HETATM   25  N   UNL     1      -8.965  16.774  68.391  1.00  0.00    -0.225 NA 
HETATM   26  C   UNL     1      -7.666  16.403  68.615  1.00  0.00    -0.204 A  
HETATM   27  C   UNL     1      -6.625  17.249  68.224  1.00  0.00    -0.171 A  
HETATM   28  C   UNL     1      -7.231  15.086  69.216  1.00  0.00    -0.179 C  
HETATM   29  C   UNL     1      -6.870  18.479  67.633  1.00  0.00    -0.204 A  
HETATM   30  N   UNL     1      -5.770  19.190  67.144  1.00  0.00    -0.170 NA 
HETATM   31  C   UNL     1      -8.201  18.823  67.349  1.00  0.00    -0.278 A  
HETATM   32  H1  UNL     1      -5.949  20.094  66.709  1.00  0.00     0.000 HD 
HETATM   33  C   UNL     1      -9.259  17.971  67.772  1.00  0.00    -0.262 A  
HETATM   34  H2  UNL     1      -5.249  18.601  66.493  1.00  0.00     0.000 HD 
HETATM   35  C   UNL     1     -10.592  18.381  67.514  1.00  0.00    -0.447 A  
HETATM   36  C   UNL     1     -10.885  19.555  66.824  1.00  0.00    -0.500 A  
HETATM   37  C   UNL     1      -9.854  20.359  66.377  1.00  0.00    -0.410 A  
HETATM   38  C   UNL     1      -8.533  20.002  66.642  1.00  0.00    -0.370 A  
ENDBRANCH  24  25
ENDBRANCH  23  24
ENDBRANCH  22  23
ENDBRANCH  21  22
ENDBRANCH  20  21
ENDBRANCH  19  20
ENDBRANCH  18  19
ENDBRANCH  17  18
ENDBRANCH  16  17
ENDBRANCH  15  16
ENDBRANCH  14  15
TORSDOF 11
ENDMDL
MODEL      155
REMARK 921   NORMALIZED FREE ENERGY PREDICTED BY IDOCK:   -6.10 KCAL/MOL
REMARK 922        TOTAL FREE ENERGY PREDICTED BY IDOCK:  -11.38 KCAL/MOL
REMARK 923 INTER-LIGAND FREE ENERGY PREDICTED BY IDOCK:   -9.58 KCAL/MOL
REMARK 924 INTRA-LIGAND FREE ENERGY PREDICTED BY IDOCK:   -1.80 KCAL/MOL
REMARK 927      BINDING AFFINITY PREDICTED BY RF-SCORE:    0.00 PKD
ROOT
HETATM    1  C   UNL     1      -9.480   4.248  67.703  1.00  0.00    -0.217 C  
HETATM    2  C   UNL     1      -8.970   5.268  66.711  1.00  0.00    -0.111 A  
HETATM    3  C   UNL     1      -8.155   4.819  65.679  1.00  0.00    -0.111 A  
HETATM    4  C   UNL     1      -7.656   5.687  64.720  1.00  0.00    -0.084 A  
HETATM    5  N   UNL     1      -6.964   5.130  63.640  1.00  0.00    -0.046 NA 
HETATM    6  C   UNL     1      -8.073   7.032  64.754  1.00  0.00    -0.096 A  
HETATM    7  H2  UNL     1      -7.552   4.430  63.187  1.00  0.00     0.000 HD 
HETATM    8  C   UNL     1      -7.715   7.952  63.742  1.00  0.00    -0.135 A  
HETATM    9  H1  UNL     1      -6.598   5.769  62.934  1.00  0.00     0.000 HD 
HETATM   10  C   UNL     1      -8.112   9.288  63.783  1.00  0.00    -0.155 A  
HETATM   11  C   UNL     1      -8.870   9.746  64.844  1.00  0.00    -0.230 A  
HETATM   12  C   UNL     1      -9.246   8.860  65.858  1.00  0.00    -0.290 A  
HETATM   13  C   UNL     1      -8.886   7.488  65.824  1.00  0.00    -0.090 A  
HETATM   14  N   UNL     1      -9.317   6.590  66.777  1.00  0.00    -0.151 NA 
ENDROOT
BRANCH  14  15
HETATM   15  C   UNL     1     -10.233   7.041  67.861  1.00  0.00    -0.183 C  
BRANCH  15  16
HETATM   16  C   UNL     1      -9.442   7.661  69.011  1.00  0.00    -0.150 C  
BRANCH  16  17
HETATM   17  C   UNL     1      -9.934   7.161  70.366  1.00  0.00    -0.191 C  
BRANCH  17  18
HETATM   18  C   UNL     1     -10.443   8.290  71.268  1.00  0.00    -0.262 C  
BRANCH  18  19
HETATM   19  C   UNL     1     -11.903   8.637  70.992  1.00  0.00    -0.303 C  
BRANCH  19  20
HETATM   20  C   UNL     1     -12.290  10.040  71.466  1.00  0.00    -0.513 C  
BRANCH  20  21
HETATM   21  C   UNL     1     -12.765  10.966  70.339  1.00  0.00    -0.326 C  
BRANCH  21  22
HETATM   22  C   UNL     1     -11.683  11.233  69.289  1.00  0.00    -0.403 C  
BRANCH  22  23
HETATM   23  C   UNL     1     -11.419  12.725  69.058  1.00  0.00    -0.360 C  
BRANCH  23  24
HETATM   24  C   UNL     1     -10.264  12.948  68.081  1.00  0.00    -0.239 C  
BRANCH  24  25
HETATM   25  N   UNL     1     -10.666  13.883  67.000  1.00  0.00    -0.282 NA 
HETATM   26  C   UNL     1     -10.361  15.215  67.092  1.00  0.00    -0.263 A  
HETATM   27  C   UNL     1     -10.678  16.075  66.038  1.00  0.00    -0.271 A  
HETATM   28  C   UNL     1      -9.629  15.859  68.248  1.00  0.00    -0.205 C  
HETATM   29  C   UNL     1     -11.324  15.622  64.899  1.00  0.00    -0.315 A  
HETATM   30  N   UNL     1     -11.470  16.521  63.839  1.00  0.00    -1.599 NA 
HETATM   31  C   UNL     1     -11.577  14.245  64.785  1.00  0.00    -0.404 A  
HETATM   32  H1  UNL     1     -11.945  16.188  63.000  1.00  0.00     0.000 HD 
HETATM   33  C   UNL     1     -11.276  13.377  65.870  1.00  0.00    -0.300 A  
HETATM   34  H2  UNL     1     -10.554  16.891  63.582  1.00  0.00     0.000 HD 
HETATM   35  C   UNL     1     -11.596  12.002  65.737  1.00  0.00    -0.353 A  
HETATM   36  C   UNL     1     -12.144  11.480  64.567  1.00  0.00     0.129 A  
HETATM   37  C   UNL     1     -12.396  12.319  63.499  1.00  0.00    -0.670 A  
HETATM   38  C   UNL     1     -12.124  13.681  63.609  1.00  0.00    -0.397 A  
ENDBRANCH  24  25
ENDBRANCH  23  24
ENDBRANCH  22  23
ENDBRANCH  21  22
ENDBRANCH  20  21
ENDBRANCH  19  20
ENDBRANCH  18  19
ENDBRANCH  17  18
ENDBRANCH  16  17
ENDBRANCH  15  16
ENDBRANCH  14  15
TORSDOF 11
ENDMDL
MODEL      156
REMARK 921   NORMALIZED FREE ENERGY PREDICTED BY IDOCK:   -6.10 KCAL/MOL
REMARK 922        TOTAL FREE ENERGY PREDICTED BY IDOCK:  -11.38 KCAL/MOL
REMARK 923 INTER-LIGAND FREE ENERGY PREDICTED BY IDOCK:   -8.95 KCAL/MOL
REMARK 924 INTRA-LIGAND FREE ENERGY PREDICTED BY IDOCK:   -2.43 KCAL/MOL
REMARK 927      BINDING AFFINITY PREDICTED BY RF-SCORE:    0.00 PKD
ROOT
HETATM    1  C   UNL     1      -9.083   7.571  73.729  1.00  0.00    -0.311 C  
HETATM    2  C   UNL     1      -9.649   7.150  72.392  1.00  0.00    -0.146 A  
HETATM    3  C   UNL     1     -11.004   7.358  72.168  1.00  0.00    -0.284 A  
HETATM    4  C   UNL     1     -11.599   7.014  70.963  1.00  0.00    -0.320 A  
HETATM    5  N   UNL     1     -12.933   7.387  70.771  1.00  0.00    -0.587 NA 
HETATM    6  C   UNL     1     -10.779   6.532  69.926  1.00  0.00    -0.310 A  
HETATM    7  H2  UNL     1     -13.027   8.392  70.917  1.00  0.00     0.000 HD 
HETATM    8  C   UNL     1     -11.282   6.279  68.629  1.00  0.00    -0.328 A  
HETATM    9  H1  UNL     1     -13.371   7.134  69.885  1.00  0.00     0.000 HD 
HETATM   10  C   UNL     1     -10.475   5.786  67.605  1.00  0.00    -0.299 A  
HETATM   11  C   UNL     1      -9.141   5.521  67.850  1.00  0.00    -0.109 A  
HETATM   12  C   UNL     1      -8.610   5.767  69.119  1.00  0.00    -0.110 A  
HETATM   13  C   UNL     1      -9.399   6.301  70.170  1.00  0.00    -0.156 A  
HETATM   14  N   UNL     1      -8.869   6.620  71.402  1.00  0.00    -0.139 NA 
ENDROOT
BRANCH  14  15
HETATM   15  C   UNL     1      -7.409   6.454  71.645  1.00  0.00    -0.088 C  
BRANCH  15  16
HETATM   16  C   UNL     1      -6.717   7.813  71.723  1.00  0.00    -0.050 C  
BRANCH  16  17
HETATM   17  C   UNL     1      -6.592   8.460  70.346  1.00  0.00    -0.036 C  
BRANCH  17  18
HETATM   18  C   UNL     1      -7.366   9.777  70.234  1.00  0.00    -0.165 C  
BRANCH  18  19
HETATM   19  C   UNL     1      -8.719   9.595  69.552  1.00  0.00    -0.191 C  
BRANCH  19  20
HETATM   20  C   UNL     1      -8.604   9.226  68.071  1.00  0.00    -0.121 C  
BRANCH  20  21
HETATM   21  C   UNL     1      -9.913   9.391  67.288  1.00  0.00    -0.252 C  
BRANCH  21  22
HETATM   22  C   UNL     1      -9.774  10.326  66.083  1.00  0.00    -0.266 C  
BRANCH  22  23
HETATM   23  C   UNL     1      -9.858  11.810  66.457  1.00  0.00    -0.228 C  
BRANCH  23  24
HETATM   24  C   UNL     1     -11.306  12.297  66.509  1.00  0.00    -0.351 C  
BRANCH  24  25
HETATM   25  N   UNL     1     -11.480  13.312  67.580  1.00  0.00    -0.303 NA 
HETATM   26  C   UNL     1     -11.827  12.924  68.846  1.00  0.00    -0.309 A  
HETATM   27  C   UNL     1     -11.917  13.877  69.864  1.00  0.00    -0.405 A  
HETATM   28  C   UNL     1     -12.074  11.497  69.280  1.00  0.00    -0.344 C  
HETATM   29  C   UNL     1     -11.690  15.223  69.623  1.00  0.00    -0.334 A  
HETATM   30  N   UNL     1     -11.660  16.080  70.727  1.00  0.00    -0.416 NA 
HETATM   31  C   UNL     1     -11.273  15.603  68.337  1.00  0.00    -0.352 A  
HETATM   32  H1  UNL     1     -11.493  17.070  70.550  1.00  0.00     0.000 HD 
HETATM   33  C   UNL     1     -11.207  14.634  67.298  1.00  0.00    -0.337 A  
HETATM   34  H2  UNL     1     -10.975  15.738  71.401  1.00  0.00     0.000 HD 
HETATM   35  C   UNL     1     -10.834  15.069  66.000  1.00  0.00    -0.334 A  
HETATM   36  C   UNL     1     -10.488  16.392  65.734  1.00  0.00    -0.369 A  
HETATM   37  C   UNL     1     -10.512  17.322  66.756  1.00  0.00    -0.261 A  
HETATM   38  C   UNL     1     -10.906  16.935  68.035  1.00  0.00    -0.338 A  
ENDBRANCH  24  25
ENDBRANCH  23  24
ENDBRANCH  22  23
ENDBRANCH  21  22
ENDBRANCH  20  21
ENDBRANCH  19  20
ENDBRANCH  18  19
ENDBRANCH  17  18
ENDBRANCH  16  17
ENDBRANCH  15  16
ENDBRANCH  14  15
TORSDOF 11
ENDMDL
MODEL      157
REMARK 921   NORMALIZED FREE ENERGY PREDICTED BY IDOCK:   -6.10 KCAL/MOL
REMARK 922        TOTAL FREE ENERGY PREDICTED BY IDOCK:  -11.37 KCAL/MOL
REMARK 923 INTER-LIGAND FREE ENERGY PREDICTED BY IDOCK:   -9.16 KCAL/MOL
REMARK 924 INTRA-LIGAND FREE ENERGY PREDICTED BY IDOCK:   -2.21 KCAL/MOL
REMARK 927      BINDING AFFINITY PREDICTED BY RF-SCORE:    0.00 PKD
ROOT
HETATM    1  C   UNL     1      -7.295  17.726  66.445  1.00  0.00    -0.310 C  
HETATM    2  C   UNL     1      -8.056  16.979  67.518  1.00  0.00    -0.175 A  
HETATM    3  C   UNL     1      -7.320  16.290  68.473  1.00  0.00    -0.169 A  
HETATM    4  C   UNL     1      -7.939  15.591  69.499  1.00  0.00    -0.192 A  
HETATM    5  N   UNL     1      -7.124  15.046  70.496  1.00  0.00    -0.015 NA 
HETATM    6  C   UNL     1      -9.340  15.673  69.611  1.00  0.00    -0.217 A  
HETATM    7  H2  UNL     1      -6.540  15.782  70.894  1.00  0.00     0.000 HD 
HETATM    8  C   UNL     1     -10.039  15.098  70.699  1.00  0.00     0.418 A  
HETATM    9  H1  UNL     1      -7.579  14.533  71.250  1.00  0.00     0.000 HD 
HETATM   10  C   UNL     1     -11.427  15.163  70.804  1.00  0.00    -0.350 A  
HETATM   11  C   UNL     1     -12.160  15.795  69.818  1.00  0.00    -0.298 A  
HETATM   12  C   UNL     1     -11.500  16.380  68.733  1.00  0.00    -0.222 A  
HETATM   13  C   UNL     1     -10.087  16.360  68.618  1.00  0.00    -0.244 A  
HETATM   14  N   UNL     1      -9.421  17.000  67.595  1.00  0.00    -0.234 NA 
ENDROOT
BRANCH  14  15
HETATM   15  C   UNL     1     -10.188  17.787  66.590  1.00  0.00    -0.361 C  
BRANCH  15  16
HETATM   16  C   UNL     1     -10.310  17.014  65.279  1.00  0.00     0.025 C  
BRANCH  16  17
HETATM   17  C   UNL     1     -11.147  15.749  65.447  1.00  0.00    -0.232 C  
BRANCH  17  18
HETATM   18  C   UNL     1     -10.320  14.466  65.320  1.00  0.00    -0.427 C  
BRANCH  18  19
HETATM   19  C   UNL     1     -10.564  13.504  66.479  1.00  0.00    -0.281 C  
BRANCH  19  20
HETATM   20  C   UNL     1      -9.274  13.042  67.162  1.00  0.00    -0.226 C  
BRANCH  20  21
HETATM   21  C   UNL     1      -9.126  11.517  67.240  1.00  0.00    -0.164 C  
BRANCH  21  22
HETATM   22  C   UNL     1     -10.405  10.772  66.848  1.00  0.00    -0.290 C  
BRANCH  22  23
HETATM   23  C   UNL     1     -10.744   9.614  67.793  1.00  0.00    -0.316 C  
BRANCH  23  24
HETATM   24  C   UNL     1     -10.049   9.770  69.146  1.00  0.00    -0.192 C  
BRANCH  24  25
HETATM   25  N   UNL     1     -11.017   9.584  70.257  1.00  0.00    -0.252 NA 
HETATM   26  C   UNL     1     -11.854  10.606  70.619  1.00  0.00    -0.363 A  
HETATM   27  C   UNL     1     -12.811  10.400  71.616  1.00  0.00    -0.579 A  
HETATM   28  C   UNL     1     -11.883  11.973  69.975  1.00  0.00    -0.392 C  
HETATM   29  C   UNL     1     -12.923   9.187  72.277  1.00  0.00    -0.420 A  
HETATM   30  N   UNL     1     -14.000   9.027  73.154  1.00  0.00    -1.215 NA 
HETATM   31  C   UNL     1     -12.104   8.126  71.857  1.00  0.00    -0.368 A  
HETATM   32  H1  UNL     1     -14.083   8.134  73.640  1.00  0.00     0.000 HD 
HETATM   33  C   UNL     1     -11.114   8.347  70.860  1.00  0.00    -0.254 A  
HETATM   34  H2  UNL     1     -14.870   9.222  72.658  1.00  0.00     0.000 HD 
HETATM   35  C   UNL     1     -10.271   7.264  70.501  1.00  0.00    -0.203 A  
HETATM   36  C   UNL     1     -10.419   5.996  71.058  1.00  0.00    -0.285 A  
HETATM   37  C   UNL     1     -11.410   5.774  71.995  1.00  0.00    -0.289 A  
HETATM   38  C   UNL     1     -12.234   6.824  72.394  1.00  0.00    -0.068 A  
ENDBRANCH  24  25
ENDBRANCH  23  24
ENDBRANCH  22  23
ENDBRANCH  21  22
ENDBRANCH  20  21
ENDBRANCH  19  20
ENDBRANCH  18  19
ENDBRANCH  17  18
ENDBRANCH  16  17
ENDBRANCH  15  16
ENDBRANCH  14  15
TORSDOF 11
ENDMDL
MODEL      158
REMARK 921   NORMALIZED FREE ENERGY PREDICTED BY IDOCK:   -6.10 KCAL/MOL
REMARK 922        TOTAL FREE ENERGY PREDICTED BY IDOCK:  -11.37 KCAL/MOL
REMARK 923 INTER-LIGAND FREE ENERGY PREDICTED BY IDOCK:   -8.67 KCAL/MOL
REMARK 924 INTRA-LIGAND FREE ENERGY PREDICTED BY IDOCK:   -2.70 KCAL/MOL
REMARK 927      BINDING AFFINITY PREDICTED BY RF-SCORE:    0.00 PKD
ROOT
HETATM    1  C   UNL     1      -9.854  13.545  67.022  1.00  0.00    -0.251 C  
HETATM    2  C   UNL     1     -10.687  13.272  68.254  1.00  0.00    -0.252 A  
HETATM    3  C   UNL     1     -11.468  14.308  68.751  1.00  0.00    -0.327 A  
HETATM    4  C   UNL     1     -12.273  14.136  69.868  1.00  0.00    -0.359 A  
HETATM    5  N   UNL     1     -13.131  15.184  70.214  1.00  0.00    -0.658 NA 
HETATM    6  C   UNL     1     -12.357  12.852  70.439  1.00  0.00    -0.333 A  
HETATM    7  H2  UNL     1     -13.715  15.421  69.412  1.00  0.00     0.000 HD 
HETATM    8  C   UNL     1     -13.249  12.561  71.498  1.00  0.00    -0.298 A  
HETATM    9  H1  UNL     1     -13.723  15.058  71.035  1.00  0.00     0.000 HD 
HETATM   10  C   UNL     1     -13.322  11.295  72.076  1.00  0.00    -0.386 A  
HETATM   11  C   UNL     1     -12.498  10.284  71.621  1.00  0.00    -0.491 A  
HETATM   12  C   UNL     1     -11.610  10.537  70.571  1.00  0.00    -0.441 A  
HETATM   13  C   UNL     1     -11.538  11.805  69.940  1.00  0.00    -0.274 A  
HETATM   14  N   UNL     1     -10.724  12.044  68.854  1.00  0.00    -0.211 NA 
ENDROOT
BRANCH  14  15
HETATM   15  C   UNL     1      -9.918  10.934  68.274  1.00  0.00    -0.175 C  
BRANCH  15  16
HETATM   16  C   UNL     1     -10.768  10.089  67.327  1.00  0.00    -0.309 C  
BRANCH  16  17
HETATM   17  C   UNL     1     -10.155  10.021  65.931  1.00  0.00    -0.319 C  
BRANCH  17  18
HETATM   18  C   UNL     1      -8.728   9.464  65.933  1.00  0.00    -0.177 C  
BRANCH  18  19
HETATM   19  C   UNL     1      -7.680  10.558  65.755  1.00  0.00    -0.145 C  
BRANCH  19  20
HETATM   20  C   UNL     1      -6.309  10.178  66.317  1.00  0.00    -0.084 C  
BRANCH  20  21
HETATM   21  C   UNL     1      -6.166  10.425  67.825  1.00  0.00    -0.056 C  
BRANCH  21  22
HETATM   22  C   UNL     1      -6.211   9.135  68.649  1.00  0.00    -0.045 C  
BRANCH  22  23
HETATM   23  C   UNL     1      -7.107   9.241  69.889  1.00  0.00    -0.064 C  
BRANCH  23  24
HETATM   24  C   UNL     1      -7.016   7.986  70.758  1.00  0.00    -0.045 C  
BRANCH  24  25
HETATM   25  N   UNL     1      -8.368   7.549  71.191  1.00  0.00    -0.108 NA 
HETATM   26  C   UNL     1      -8.753   7.695  72.496  1.00  0.00    -0.132 A  
HETATM   27  C   UNL     1     -10.051   7.349  72.880  1.00  0.00    -0.293 A  
HETATM   28  C   UNL     1      -7.892   8.276  73.596  1.00  0.00    -0.213 C  
HETATM   29  C   UNL     1     -10.964   6.831  71.975  1.00  0.00    -0.238 A  
HETATM   30  N   UNL     1     -12.278   6.651  72.415  1.00  0.00    -0.520 NA 
HETATM   31  C   UNL     1     -10.581   6.744  70.626  1.00  0.00    -0.257 A  
HETATM   32  H1  UNL     1     -12.950   6.270  71.749  1.00  0.00     0.000 HD 
HETATM   33  C   UNL     1      -9.251   7.073  70.244  1.00  0.00    -0.156 A  
HETATM   34  H2  UNL     1     -12.634   7.533  72.785  1.00  0.00     0.000 HD 
HETATM   35  C   UNL     1      -8.889   6.920  68.882  1.00  0.00    -0.129 A  
HETATM   36  C   UNL     1      -9.803   6.509  67.914  1.00  0.00    -0.134 A  
HETATM   37  C   UNL     1     -11.106   6.231  68.282  1.00  0.00    -0.364 A  
HETATM   38  C   UNL     1     -11.486   6.339  69.618  1.00  0.00    -0.425 A  
ENDBRANCH  24  25
ENDBRANCH  23  24
ENDBRANCH  22  23
ENDBRANCH  21  22
ENDBRANCH  20  21
ENDBRANCH  19  20
ENDBRANCH  18  19
ENDBRANCH  17  18
ENDBRANCH  16  17
ENDBRANCH  15  16
ENDBRANCH  14  15
TORSDOF 11
ENDMDL
MODEL      159
REMARK 921   NORMALIZED FREE ENERGY PREDICTED BY IDOCK:   -6.07 KCAL/MOL
REMARK 922        TOTAL FREE ENERGY PREDICTED BY IDOCK:  -11.33 KCAL/MOL
REMARK 923 INTER-LIGAND FREE ENERGY PREDICTED BY IDOCK:   -9.64 KCAL/MOL
REMARK 924 INTRA-LIGAND FREE ENERGY PREDICTED BY IDOCK:   -1.69 KCAL/MOL
REMARK 927      BINDING AFFINITY PREDICTED BY RF-SCORE:    0.00 PKD
ROOT
HETATM    1  C   UNL     1      -8.289  10.019  69.729  1.00  0.00    -0.187 C  
HETATM    2  C   UNL     1      -8.621   8.720  69.031  1.00  0.00    -0.132 A  
HETATM    3  C   UNL     1      -8.968   8.777  67.687  1.00  0.00    -0.141 A  
HETATM    4  C   UNL     1      -9.273   7.630  66.969  1.00  0.00    -0.138 A  
HETATM    5  N   UNL     1      -9.472   7.763  65.590  1.00  0.00    -0.369 NA 
HETATM    6  C   UNL     1      -9.130   6.384  67.608  1.00  0.00    -0.114 A  
HETATM    7  H2  UNL     1      -8.657   8.214  65.174  1.00  0.00     0.000 HD 
HETATM    8  C   UNL     1      -9.296   5.163  66.913  1.00  0.00    -0.129 A  
HETATM    9  H1  UNL     1      -9.696   6.919  65.063  1.00  0.00     0.000 HD 
HETATM   10  C   UNL     1      -9.172   3.928  67.548  1.00  0.00    -0.203 A  
HETATM   11  C   UNL     1      -8.889   3.877  68.900  1.00  0.00    -0.153 A  
HETATM   12  C   UNL     1      -8.712   5.065  69.614  1.00  0.00    -0.110 A  
HETATM   13  C   UNL     1      -8.798   6.335  68.987  1.00  0.00    -0.124 A  
HETATM   14  N   UNL     1      -8.548   7.510  69.664  1.00  0.00    -0.136 NA 
ENDROOT
BRANCH  14  15
HETATM   15  C   UNL     1      -8.124   7.468  71.091  1.00  0.00    -0.100 C  
BRANCH  15  16
HETATM   16  C   UNL     1      -9.302   7.099  71.992  1.00  0.00    -0.151 C  
BRANCH  16  17
HETATM   17  C   UNL     1      -9.966   8.339  72.584  1.00  0.00    -0.357 C  
BRANCH  17  18
HETATM   18  C   UNL     1     -11.387   8.561  72.058  1.00  0.00    -0.425 C  
BRANCH  18  19
HETATM   19  C   UNL     1     -11.488   9.800  71.173  1.00  0.00    -0.472 C  
BRANCH  19  20
HETATM   20  C   UNL     1     -12.698  10.678  71.499  1.00  0.00    -0.549 C  
BRANCH  20  21
HETATM   21  C   UNL     1     -12.714  12.016  70.747  1.00  0.00    -0.231 C  
BRANCH  21  22
HETATM   22  C   UNL     1     -11.380  12.334  70.066  1.00  0.00    -0.002 C  
BRANCH  22  23
HETATM   23  C   UNL     1     -11.446  12.245  68.537  1.00  0.00    -0.349 C  
BRANCH  23  24
HETATM   24  C   UNL     1     -10.129  12.675  67.891  1.00  0.00    -0.222 C  
BRANCH  24  25
HETATM   25  N   UNL     1     -10.369  13.702  66.845  1.00  0.00    -0.260 NA 
HETATM   26  C   UNL     1     -10.739  13.324  65.582  1.00  0.00    -0.282 A  
HETATM   27  C   UNL     1     -11.034  14.297  64.624  1.00  0.00    -0.379 A  
HETATM   28  C   UNL     1     -10.925  11.895  65.123  1.00  0.00    -0.365 C  
HETATM   29  C   UNL     1     -10.936  15.651  64.908  1.00  0.00    -0.431 A  
HETATM   30  N   UNL     1     -11.389  16.548  63.937  1.00  0.00    -1.559 NA 
HETATM   31  C   UNL     1     -10.617  16.029  66.223  1.00  0.00    -0.288 A  
HETATM   32  H1  UNL     1     -11.317  17.544  64.146  1.00  0.00     0.000 HD 
HETATM   33  C   UNL     1     -10.294  15.036  67.188  1.00  0.00    -0.257 A  
HETATM   34  H2  UNL     1     -12.354  16.324  63.694  1.00  0.00     0.000 HD 
HETATM   35  C   UNL     1      -9.925  15.462  68.489  1.00  0.00    -0.213 A  
HETATM   36  C   UNL     1      -9.920  16.806  68.854  1.00  0.00    -0.271 A  
HETATM   37  C   UNL     1     -10.277  17.766  67.926  1.00  0.00    -0.362 A  
HETATM   38  C   UNL     1     -10.613  17.384  66.629  1.00  0.00    -0.182 A  
ENDBRANCH  24  25
ENDBRANCH  23  24
ENDBRANCH  22  23
ENDBRANCH  21  22
ENDBRANCH  20  21
ENDBRANCH  19  20
ENDBRANCH  18  19
ENDBRANCH  17  18
ENDBRANCH  16  17
ENDBRANCH  15  16
ENDBRANCH  14  15
TORSDOF 11
ENDMDL
MODEL      160
REMARK 921   NORMALIZED FREE ENERGY PREDICTED BY IDOCK:   -6.06 KCAL/MOL
REMARK 922        TOTAL FREE ENERGY PREDICTED BY IDOCK:  -11.31 KCAL/MOL
REMARK 923 INTER-LIGAND FREE ENERGY PREDICTED BY IDOCK:   -9.11 KCAL/MOL
REMARK 924 INTRA-LIGAND FREE ENERGY PREDICTED BY IDOCK:   -2.20 KCAL/MOL
REMARK 927      BINDING AFFINITY PREDICTED BY RF-SCORE:    0.00 PKD
ROOT
HETATM    1  C   UNL     1      -9.235   7.146  67.621  1.00  0.00    -0.127 C  
HETATM    2  C   UNL     1      -8.578   7.541  68.924  1.00  0.00    -0.129 A  
HETATM    3  C   UNL     1      -8.107   8.842  69.044  1.00  0.00    -0.115 A  
HETATM    4  C   UNL     1      -7.505   9.290  70.211  1.00  0.00    -0.113 A  
HETATM    5  N   UNL     1      -7.190  10.650  70.296  1.00  0.00    -0.466 NA 
HETATM    6  C   UNL     1      -7.465   8.421  71.318  1.00  0.00    -0.093 A  
HETATM    7  H2  UNL     1      -8.029  11.202  70.116  1.00  0.00     0.000 HD 
HETATM    8  C   UNL     1      -6.987   8.839  72.581  1.00  0.00     0.070 A  
HETATM    9  H1  UNL     1      -6.748  10.978  71.154  1.00  0.00     0.000 HD 
HETATM   10  C   UNL     1      -6.931   7.975  73.674  1.00  0.00    -0.147 A  
HETATM   11  C   UNL     1      -7.341   6.664  73.533  1.00  0.00    -0.080 A  
HETATM   12  C   UNL     1      -7.826   6.220  72.299  1.00  0.00    -0.104 A  
HETATM   13  C   UNL     1      -7.928   7.086  71.180  1.00  0.00    -0.104 A  
HETATM   14  N   UNL     1      -8.477   6.681  69.982  1.00  0.00    -0.138 NA 
ENDROOT
BRANCH  14  15
HETATM   15  C   UNL     1      -9.034   5.306  69.850  1.00  0.00    -0.119 C  
BRANCH  15  16
HETATM   16  C   UNL     1     -10.559   5.332  69.943  1.00  0.00    -0.292 C  
BRANCH  16  17
HETATM   17  C   UNL     1     -11.032   6.015  71.223  1.00  0.00    -0.340 C  
BRANCH  17  18
HETATM   18  C   UNL     1     -11.757   7.338  70.958  1.00  0.00    -0.340 C  
BRANCH  18  19
HETATM   19  C   UNL     1     -11.203   8.480  71.805  1.00  0.00    -0.379 C  
BRANCH  19  20
HETATM   20  C   UNL     1     -11.035   9.785  71.022  1.00  0.00    -0.402 C  
BRANCH  20  21
HETATM   21  C   UNL     1     -12.278  10.190  70.218  1.00  0.00    -0.248 C  
BRANCH  21  22
HETATM   22  C   UNL     1     -11.964  11.177  69.090  1.00  0.00    -0.413 C  
BRANCH  22  23
HETATM   23  C   UNL     1     -11.038  12.318  69.526  1.00  0.00    -0.101 C  
BRANCH  23  24
HETATM   24  C   UNL     1      -9.987  12.628  68.459  1.00  0.00    -0.162 C  
BRANCH  24  25
HETATM   25  N   UNL     1     -10.636  12.972  67.168  1.00  0.00    -0.245 NA 
HETATM   26  C   UNL     1     -11.386  14.112  67.057  1.00  0.00    -0.332 A  
HETATM   27  C   UNL     1     -11.933  14.465  65.820  1.00  0.00    -0.362 A  
HETATM   28  C   UNL     1     -11.640  15.097  68.175  1.00  0.00    -0.358 C  
HETATM   29  C   UNL     1     -11.761  13.674  64.696  1.00  0.00    -0.388 A  
HETATM   30  N   UNL     1     -12.219  14.178  63.475  1.00  0.00    -1.090 NA 
HETATM   31  C   UNL     1     -10.938  12.540  64.804  1.00  0.00    -0.339 A  
HETATM   32  H1  UNL     1     -12.092  13.596  62.647  1.00  0.00     0.000 HD 
HETATM   33  C   UNL     1     -10.404  12.171  66.069  1.00  0.00    -0.237 A  
HETATM   34  H2  UNL     1     -11.801  15.094  63.310  1.00  0.00     0.000 HD 
HETATM   35  C   UNL     1      -9.623  10.989  66.147  1.00  0.00    -0.240 A  
HETATM   36  C   UNL     1      -9.329  10.221  65.023  1.00  0.00    -0.290 A  
HETATM   37  C   UNL     1      -9.814  10.607  63.787  1.00  0.00    -0.394 A  
HETATM   38  C   UNL     1     -10.612  11.745  63.682  1.00  0.00    -0.496 A  
ENDBRANCH  24  25
ENDBRANCH  23  24
ENDBRANCH  22  23
ENDBRANCH  21  22
ENDBRANCH  20  21
ENDBRANCH  19  20
ENDBRANCH  18  19
ENDBRANCH  17  18
ENDBRANCH  16  17
ENDBRANCH  15  16
ENDBRANCH  14  15
TORSDOF 11
ENDMDL
MODEL      161
REMARK 921   NORMALIZED FREE ENERGY PREDICTED BY IDOCK:   -6.05 KCAL/MOL
REMARK 922        TOTAL FREE ENERGY PREDICTED BY IDOCK:  -11.30 KCAL/MOL
REMARK 923 INTER-LIGAND FREE ENERGY PREDICTED BY IDOCK:   -9.60 KCAL/MOL
REMARK 924 INTRA-LIGAND FREE ENERGY PREDICTED BY IDOCK:   -1.70 KCAL/MOL
REMARK 927      BINDING AFFINITY PREDICTED BY RF-SCORE:    0.00 PKD
ROOT
HETATM    1  C   UNL     1     -10.907   7.278  67.197  1.00  0.00    -0.378 C  
HETATM    2  C   UNL     1      -9.692   6.379  67.166  1.00  0.00    -0.141 A  
HETATM    3  C   UNL     1      -8.757   6.587  66.159  1.00  0.00    -0.153 A  
HETATM    4  C   UNL     1      -7.608   5.816  66.068  1.00  0.00    -0.087 A  
HETATM    5  N   UNL     1      -6.655   6.185  65.113  1.00  0.00    -0.042 NA 
HETATM    6  C   UNL     1      -7.356   4.870  67.080  1.00  0.00    -0.082 A  
HETATM    7  H2  UNL     1      -6.395   7.161  65.256  1.00  0.00     0.000 HD 
HETATM    8  C   UNL     1      -6.150   4.134  67.133  1.00  0.00    -0.028 A  
HETATM    9  H1  UNL     1      -5.811   5.617  65.046  1.00  0.00     0.000 HD 
HETATM   10  C   UNL     1      -5.905   3.185  68.124  1.00  0.00    -0.023 A  
HETATM   11  C   UNL     1      -6.864   2.936  69.087  1.00  0.00    -0.037 A  
HETATM   12  C   UNL     1      -8.065   3.651  69.067  1.00  0.00    -0.066 A  
HETATM   13  C   UNL     1      -8.327   4.647  68.092  1.00  0.00    -0.094 A  
HETATM   14  N   UNL     1      -9.472   5.413  68.109  1.00  0.00    -0.114 NA 
ENDROOT
BRANCH  14  15
HETATM   15  C   UNL     1     -10.462   5.242  69.209  1.00  0.00    -0.185 C  
BRANCH  15  16
HETATM   16  C   UNL     1     -10.026   6.015  70.451  1.00  0.00    -0.233 C  
BRANCH  16  17
HETATM   17  C   UNL     1     -11.047   5.891  71.579  1.00  0.00    -0.314 C  
BRANCH  17  18
HETATM   18  C   UNL     1     -11.355   7.230  72.254  1.00  0.00    -0.310 C  
BRANCH  18  19
HETATM   19  C   UNL     1     -12.675   7.829  71.777  1.00  0.00    -0.354 C  
BRANCH  19  20
HETATM   20  C   UNL     1     -12.675   9.359  71.767  1.00  0.00    -0.476 C  
BRANCH  20  21
HETATM   21  C   UNL     1     -11.411   9.976  71.152  1.00  0.00    -0.432 C  
BRANCH  21  22
HETATM   22  C   UNL     1     -11.719  11.015  70.070  1.00  0.00    -0.437 C  
BRANCH  22  23
HETATM   23  C   UNL     1     -11.173  10.630  68.691  1.00  0.00    -0.337 C  
BRANCH  23  24
HETATM   24  C   UNL     1     -10.291  11.734  68.107  1.00  0.00    -0.200 C  
BRANCH  24  25
HETATM   25  N   UNL     1     -10.887  12.276  66.860  1.00  0.00    -0.243 NA 
HETATM   26  C   UNL     1     -11.700  13.377  66.907  1.00  0.00    -0.389 A  
HETATM   27  C   UNL     1     -12.198  13.924  65.722  1.00  0.00    -0.488 A  
HETATM   28  C   UNL     1     -12.078  14.123  68.167  1.00  0.00    -0.297 C  
HETATM   29  C   UNL     1     -11.913  13.365  64.486  1.00  0.00    -0.407 A  
HETATM   30  N   UNL     1     -12.333  14.063  63.350  1.00  0.00    -1.154 NA 
HETATM   31  C   UNL     1     -11.028  12.276  64.442  1.00  0.00    -0.374 A  
HETATM   32  H1  UNL     1     -12.123  13.652  62.441  1.00  0.00     0.000 HD 
HETATM   33  C   UNL     1     -10.543  11.706  65.651  1.00  0.00    -0.275 A  
HETATM   34  H2  UNL     1     -11.965  15.014  63.383  1.00  0.00     0.000 HD 
HETATM   35  C   UNL     1      -9.694  10.573  65.565  1.00  0.00    -0.298 A  
HETATM   36  C   UNL     1      -9.289  10.043  64.342  1.00  0.00    -0.348 A  
HETATM   37  C   UNL     1      -9.728  10.626  63.168  1.00  0.00    -0.375 A  
HETATM   38  C   UNL     1     -10.589  11.720  63.217  1.00  0.00    -0.427 A  
ENDBRANCH  24  25
ENDBRANCH  23  24
ENDBRANCH  22  23
ENDBRANCH  21  22
ENDBRANCH  20  21
ENDBRANCH  19  20
ENDBRANCH  18  19
ENDBRANCH  17  18
ENDBRANCH  16  17
ENDBRANCH  15  16
ENDBRANCH  14  15
TORSDOF 11
ENDMDL
MODEL      162
REMARK 921   NORMALIZED FREE ENERGY PREDICTED BY IDOCK:   -6.05 KCAL/MOL
REMARK 922        TOTAL FREE ENERGY PREDICTED BY IDOCK:  -11.29 KCAL/MOL
REMARK 923 INTER-LIGAND FREE ENERGY PREDICTED BY IDOCK:   -9.32 KCAL/MOL
REMARK 924 INTRA-LIGAND FREE ENERGY PREDICTED BY IDOCK:   -1.97 KCAL/MOL
REMARK 927      BINDING AFFINITY PREDICTED BY RF-SCORE:    0.00 PKD
ROOT
HETATM    1  C   UNL     1     -13.082  13.371  72.256  1.00  0.00    -0.484 C  
HETATM    2  C   UNL     1     -12.529  13.754  70.901  1.00  0.00    -0.377 A  
HETATM    3  C   UNL     1     -12.138  15.073  70.710  1.00  0.00    -0.377 A  
HETATM    4  C   UNL     1     -11.608  15.503  69.502  1.00  0.00    -0.350 A  
HETATM    5  N   UNL     1     -11.109  16.808  69.443  1.00  0.00    -0.321 NA 
HETATM    6  C   UNL     1     -11.382  14.547  68.494  1.00  0.00    -0.309 A  
HETATM    7  H2  UNL     1     -10.416  16.938  70.180  1.00  0.00     0.000 HD 
HETATM    8  C   UNL     1     -10.729  14.876  67.283  1.00  0.00    -0.294 A  
HETATM    9  H1  UNL     1     -10.719  17.124  68.555  1.00  0.00     0.000 HD 
HETATM   10  C   UNL     1     -10.520  13.935  66.276  1.00  0.00    -0.287 A  
HETATM   11  C   UNL     1     -10.968  12.639  66.445  1.00  0.00    -0.304 A  
HETATM   12  C   UNL     1     -11.612  12.279  67.632  1.00  0.00    -0.421 A  
HETATM   13  C   UNL     1     -11.807  13.206  68.688  1.00  0.00    -0.328 A  
HETATM   14  N   UNL     1     -12.369  12.843  69.893  1.00  0.00    -0.155 NA 
ENDROOT
BRANCH  14  15
HETATM   15  C   UNL     1     -12.748  11.424  70.137  1.00  0.00    -0.004 C  
BRANCH  15  16
HETATM   16  C   UNL     1     -11.566  10.641  70.706  1.00  0.00    -0.388 C  
BRANCH  16  17
HETATM   17  C   UNL     1     -12.027   9.410  71.482  1.00  0.00    -0.456 C  
BRANCH  17  18
HETATM   18  C   UNL     1     -11.030   8.250  71.406  1.00  0.00    -0.301 C  
BRANCH  18  19
HETATM   19  C   UNL     1     -11.725   6.896  71.309  1.00  0.00    -0.371 C  
BRANCH  19  20
HETATM   20  C   UNL     1     -11.008   5.792  72.090  1.00  0.00    -0.311 C  
BRANCH  20  21
HETATM   21  C   UNL     1     -10.129   4.886  71.217  1.00  0.00    -0.269 C  
BRANCH  21  22
HETATM   22  C   UNL     1      -8.632   5.165  71.385  1.00  0.00    -0.132 C  
BRANCH  22  23
HETATM   23  C   UNL     1      -7.746   4.216  70.569  1.00  0.00    -0.048 C  
BRANCH  23  24
HETATM   24  C   UNL     1      -7.204   4.894  69.311  1.00  0.00    -0.056 C  
BRANCH  24  25
HETATM   25  N   UNL     1      -8.227   4.895  68.234  1.00  0.00    -0.085 NA 
HETATM   26  C   UNL     1      -8.523   3.738  67.565  1.00  0.00    -0.096 A  
HETATM   27  C   UNL     1      -9.537   3.731  66.604  1.00  0.00    -0.197 A  
HETATM   28  C   UNL     1      -7.871   2.398  67.819  1.00  0.00    -0.060 C  
HETATM   29  C   UNL     1     -10.244   4.880  66.284  1.00  0.00    -0.279 A  
HETATM   30  N   UNL     1     -11.335   4.747  65.420  1.00  0.00    -1.000 NA 
HETATM   31  C   UNL     1      -9.978   6.047  67.020  1.00  0.00    -0.197 A  
HETATM   32  H1  UNL     1     -11.855   5.592  65.185  1.00  0.00     0.000 HD 
HETATM   33  C   UNL     1      -8.928   6.056  67.979  1.00  0.00    -0.112 A  
HETATM   34  H2  UNL     1     -11.978   4.048  65.793  1.00  0.00     0.000 HD 
HETATM   35  C   UNL     1      -8.655   7.269  68.662  1.00  0.00    -0.128 A  
HETATM   36  C   UNL     1      -9.412   8.420  68.456  1.00  0.00    -0.149 A  
HETATM   37  C   UNL     1     -10.459   8.396  67.554  1.00  0.00    -0.328 A  
HETATM   38  C   UNL     1     -10.733   7.229  66.842  1.00  0.00    -0.346 A  
ENDBRANCH  24  25
ENDBRANCH  23  24
ENDBRANCH  22  23
ENDBRANCH  21  22
ENDBRANCH  20  21
ENDBRANCH  19  20
ENDBRANCH  18  19
ENDBRANCH  17  18
ENDBRANCH  16  17
ENDBRANCH  15  16
ENDBRANCH  14  15
TORSDOF 11
ENDMDL
MODEL      163
REMARK 921   NORMALIZED FREE ENERGY PREDICTED BY IDOCK:   -6.05 KCAL/MOL
REMARK 922        TOTAL FREE ENERGY PREDICTED BY IDOCK:  -11.29 KCAL/MOL
REMARK 923 INTER-LIGAND FREE ENERGY PREDICTED BY IDOCK:   -9.31 KCAL/MOL
REMARK 924 INTRA-LIGAND FREE ENERGY PREDICTED BY IDOCK:   -1.98 KCAL/MOL
REMARK 927      BINDING AFFINITY PREDICTED BY RF-SCORE:    0.00 PKD
ROOT
HETATM    1  C   UNL     1     -11.333  10.355  70.235  1.00  0.00    -0.406 C  
HETATM    2  C   UNL     1     -10.992   8.901  70.471  1.00  0.00    -0.241 A  
HETATM    3  C   UNL     1     -11.773   8.190  71.373  1.00  0.00    -0.321 A  
HETATM    4  C   UNL     1     -11.536   6.849  71.637  1.00  0.00    -0.287 A  
HETATM    5  N   UNL     1     -12.456   6.176  72.448  1.00  0.00    -0.524 NA 
HETATM    6  C   UNL     1     -10.538   6.189  70.895  1.00  0.00    -0.298 A  
HETATM    7  H2  UNL     1     -13.392   6.283  72.055  1.00  0.00     0.000 HD 
HETATM    8  C   UNL     1     -10.319   4.796  71.008  1.00  0.00    -0.188 A  
HETATM    9  H1  UNL     1     -12.282   5.191  72.641  1.00  0.00     0.000 HD 
HETATM   10  C   UNL     1      -9.321   4.143  70.287  1.00  0.00    -0.232 A  
HETATM   11  C   UNL     1      -8.504   4.866  69.438  1.00  0.00    -0.092 A  
HETATM   12  C   UNL     1      -8.699   6.242  69.298  1.00  0.00    -0.124 A  
HETATM   13  C   UNL     1      -9.729   6.927  69.992  1.00  0.00    -0.167 A  
HETATM   14  N   UNL     1      -9.980   8.269  69.802  1.00  0.00    -0.188 NA 
ENDROOT
BRANCH  14  15
HETATM   15  C   UNL     1      -9.188   9.037  68.801  1.00  0.00    -0.133 C  
BRANCH  15  16
HETATM   16  C   UNL     1      -9.851   8.975  67.427  1.00  0.00    -0.244 C  
BRANCH  16  17
HETATM   17  C   UNL     1      -8.818   8.874  66.308  1.00  0.00    -0.187 C  
BRANCH  17  18
HETATM   18  C   UNL     1      -8.800  10.108  65.400  1.00  0.00    -0.196 C  
BRANCH  18  19
HETATM   19  C   UNL     1     -10.121  10.302  64.663  1.00  0.00    -0.317 C  
BRANCH  19  20
HETATM   20  C   UNL     1     -10.229  11.660  63.965  1.00  0.00    -0.391 C  
BRANCH  20  21
HETATM   21  C   UNL     1     -11.646  12.001  63.487  1.00  0.00    -0.553 C  
BRANCH  21  22
HETATM   22  C   UNL     1     -12.237  13.224  64.196  1.00  0.00    -0.465 C  
BRANCH  22  23
HETATM   23  C   UNL     1     -11.196  14.309  64.497  1.00  0.00    -0.331 C  
BRANCH  23  24
HETATM   24  C   UNL     1     -11.393  14.905  65.891  1.00  0.00    -0.306 C  
BRANCH  24  25
HETATM   25  N   UNL     1     -10.306  14.471  66.805  1.00  0.00    -0.266 NA 
HETATM   26  C   UNL     1     -10.410  13.287  67.486  1.00  0.00    -0.229 A  
HETATM   27  C   UNL     1      -9.352  12.851  68.287  1.00  0.00    -0.194 A  
HETATM   28  C   UNL     1     -11.584  12.339  67.402  1.00  0.00    -0.425 C  
HETATM   29  C   UNL     1      -8.196  13.602  68.438  1.00  0.00    -0.146 A  
HETATM   30  N   UNL     1      -7.136  13.021  69.140  1.00  0.00    -0.276 NA 
HETATM   31  C   UNL     1      -8.072  14.783  67.688  1.00  0.00    -0.183 A  
HETATM   32  H1  UNL     1      -6.286  13.572  69.251  1.00  0.00     0.000 HD 
HETATM   33  C   UNL     1      -9.161  15.236  66.893  1.00  0.00    -0.240 A  
HETATM   34  H2  UNL     1      -6.902  12.123  68.715  1.00  0.00     0.000 HD 
HETATM   35  C   UNL     1      -9.015  16.461  66.193  1.00  0.00    -0.367 A  
HETATM   36  C   UNL     1      -7.832  17.195  66.225  1.00  0.00    -0.351 A  
HETATM   37  C   UNL     1      -6.760  16.730  66.964  1.00  0.00    -0.241 A  
HETATM   38  C   UNL     1      -6.882  15.546  67.689  1.00  0.00    -0.207 A  
ENDBRANCH  24  25
ENDBRANCH  23  24
ENDBRANCH  22  23
ENDBRANCH  21  22
ENDBRANCH  20  21
ENDBRANCH  19  20
ENDBRANCH  18  19
ENDBRANCH  17  18
ENDBRANCH  16  17
ENDBRANCH  15  16
ENDBRANCH  14  15
TORSDOF 11
ENDMDL
MODEL      164
REMARK 921   NORMALIZED FREE ENERGY PREDICTED BY IDOCK:   -6.04 KCAL/MOL
REMARK 922        TOTAL FREE ENERGY PREDICTED BY IDOCK:  -11.28 KCAL/MOL
REMARK 923 INTER-LIGAND FREE ENERGY PREDICTED BY IDOCK:   -9.38 KCAL/MOL
REMARK 924 INTRA-LIGAND FREE ENERGY PREDICTED BY IDOCK:   -1.89 KCAL/MOL
REMARK 927      BINDING AFFINITY PREDICTED BY RF-SCORE:    0.00 PKD
ROOT
HETATM    1  C   UNL     1      -6.414   6.956  69.907  1.00  0.00    -0.043 C  
HETATM    2  C   UNL     1      -7.840   7.024  70.404  1.00  0.00    -0.108 A  
HETATM    3  C   UNL     1      -8.428   5.847  70.850  1.00  0.00    -0.127 A  
HETATM    4  C   UNL     1      -9.727   5.824  71.336  1.00  0.00    -0.167 A  
HETATM    5  N   UNL     1     -10.188   4.628  71.895  1.00  0.00    -0.196 NA 
HETATM    6  C   UNL     1     -10.415   7.046  71.458  1.00  0.00    -0.222 A  
HETATM    7  H2  UNL     1      -9.548   4.332  72.632  1.00  0.00     0.000 HD 
HETATM    8  C   UNL     1     -11.692   7.129  72.061  1.00  0.00    -0.326 A  
HETATM    9  H1  UNL     1     -11.143   4.612  72.252  1.00  0.00     0.000 HD 
HETATM   10  C   UNL     1     -12.382   8.335  72.169  1.00  0.00    -0.410 A  
HETATM   11  C   UNL     1     -11.821   9.494  71.666  1.00  0.00    -0.468 A  
HETATM   12  C   UNL     1     -10.558   9.448  71.070  1.00  0.00    -0.400 A  
HETATM   13  C   UNL     1      -9.817   8.241  70.979  1.00  0.00    -0.187 A  
HETATM   14  N   UNL     1      -8.539   8.198  70.465  1.00  0.00    -0.127 NA 
ENDROOT
BRANCH  14  15
HETATM   15  C   UNL     1      -7.872   9.457  70.029  1.00  0.00    -0.132 C  
BRANCH  15  16
HETATM   16  C   UNL     1      -8.116   9.708  68.542  1.00  0.00    -0.104 C  
BRANCH  16  17
HETATM   17  C   UNL     1      -8.645  11.118  68.290  1.00  0.00    -0.146 C  
BRANCH  17  18
HETATM   18  C   UNL     1      -7.541  12.106  67.901  1.00  0.00    -0.123 C  
BRANCH  18  19
HETATM   19  C   UNL     1      -8.076  13.522  67.707  1.00  0.00    -0.177 C  
BRANCH  19  20
HETATM   20  C   UNL     1      -6.977  14.588  67.707  1.00  0.00    -0.194 C  
BRANCH  20  21
HETATM   21  C   UNL     1      -7.420  15.936  68.291  1.00  0.00    -0.128 C  
BRANCH  21  22
HETATM   22  C   UNL     1      -8.846  15.905  68.851  1.00  0.00    -0.225 C  
BRANCH  22  23
HETATM   23  C   UNL     1      -9.777  16.927  68.188  1.00  0.00    -0.254 C  
BRANCH  23  24
HETATM   24  C   UNL     1     -11.247  16.548  68.368  1.00  0.00    -0.280 C  
BRANCH  24  25
HETATM   25  N   UNL     1     -11.413  15.072  68.355  1.00  0.00    -0.310 NA 
HETATM   26  C   UNL     1     -11.639  14.394  69.523  1.00  0.00    -0.304 A  
HETATM   27  C   UNL     1     -11.867  13.016  69.494  1.00  0.00    -0.385 A  
HETATM   28  C   UNL     1     -11.732  15.031  70.891  1.00  0.00    -0.376 C  
HETATM   29  C   UNL     1     -11.842  12.299  68.308  1.00  0.00    -0.310 A  
HETATM   30  N   UNL     1     -12.222  10.955  68.358  1.00  0.00    -0.810 NA 
HETATM   31  C   UNL     1     -11.671  13.011  67.109  1.00  0.00    -0.439 A  
HETATM   32  H1  UNL     1     -12.205  10.428  67.485  1.00  0.00     0.000 HD 
HETATM   33  C   UNL     1     -11.416  14.409  67.145  1.00  0.00    -0.362 A  
HETATM   34  H2  UNL     1     -13.150  10.882  68.776  1.00  0.00     0.000 HD 
HETATM   35  C   UNL     1     -11.196  15.082  65.915  1.00  0.00    -0.313 A  
HETATM   36  C   UNL     1     -11.272  14.425  64.689  1.00  0.00    -0.366 A  
HETATM   37  C   UNL     1     -11.563  13.075  64.655  1.00  0.00    -0.389 A  
HETATM   38  C   UNL     1     -11.752  12.377  65.847  1.00  0.00    -0.476 A  
ENDBRANCH  24  25
ENDBRANCH  23  24
ENDBRANCH  22  23
ENDBRANCH  21  22
ENDBRANCH  20  21
ENDBRANCH  19  20
ENDBRANCH  18  19
ENDBRANCH  17  18
ENDBRANCH  16  17
ENDBRANCH  15  16
ENDBRANCH  14  15
TORSDOF 11
ENDMDL
MODEL      165
REMARK 921   NORMALIZED FREE ENERGY PREDICTED BY IDOCK:   -6.04 KCAL/MOL
REMARK 922        TOTAL FREE ENERGY PREDICTED BY IDOCK:  -11.27 KCAL/MOL
REMARK 923 INTER-LIGAND FREE ENERGY PREDICTED BY IDOCK:   -9.02 KCAL/MOL
REMARK 924 INTRA-LIGAND FREE ENERGY PREDICTED BY IDOCK:   -2.26 KCAL/MOL
REMARK 927      BINDING AFFINITY PREDICTED BY RF-SCORE:    0.00 PKD
ROOT
HETATM    1  C   UNL     1     -11.377  14.148  64.636  1.00  0.00    -0.374 C  
HETATM    2  C   UNL     1     -11.513  13.801  66.102  1.00  0.00    -0.338 A  
HETATM    3  C   UNL     1     -11.750  14.839  66.994  1.00  0.00    -0.330 A  
HETATM    4  C   UNL     1     -11.902  14.606  68.353  1.00  0.00    -0.295 A  
HETATM    5  N   UNL     1     -12.278  15.686  69.157  1.00  0.00    -0.589 NA 
HETATM    6  C   UNL     1     -11.905  13.272  68.805  1.00  0.00    -0.371 A  
HETATM    7  H2  UNL     1     -13.136  16.098  68.788  1.00  0.00     0.000 HD 
HETATM    8  C   UNL     1     -12.181  12.940  70.152  1.00  0.00    -0.336 A  
HETATM    9  H1  UNL     1     -12.390  15.514  70.156  1.00  0.00     0.000 HD 
HETATM   10  C   UNL     1     -12.168  11.622  70.605  1.00  0.00    -0.461 A  
HETATM   11  C   UNL     1     -11.869  10.597  69.727  1.00  0.00    -0.377 A  
HETATM   12  C   UNL     1     -11.599  10.891  68.388  1.00  0.00    -0.346 A  
HETATM   13  C   UNL     1     -11.639  12.219  67.891  1.00  0.00    -0.354 A  
HETATM   14  N   UNL     1     -11.452  12.513  66.557  1.00  0.00    -0.341 NA 
ENDROOT
BRANCH  14  15
HETATM   15  C   UNL     1     -11.247  11.411  65.577  1.00  0.00    -0.071 C  
BRANCH  15  16
HETATM   16  C   UNL     1      -9.759  11.111  65.407  1.00  0.00    -0.275 C  
BRANCH  16  17
HETATM   17  C   UNL     1      -9.514   9.636  65.101  1.00  0.00    -0.332 C  
BRANCH  17  18
HETATM   18  C   UNL     1      -9.745   8.729  66.314  1.00  0.00    -0.342 C  
BRANCH  18  19
HETATM   19  C   UNL     1      -8.920   7.448  66.244  1.00  0.00    -0.192 C  
BRANCH  19  20
HETATM   20  C   UNL     1      -7.621   7.523  67.050  1.00  0.00    -0.103 C  
BRANCH  20  21
HETATM   21  C   UNL     1      -7.601   8.650  68.091  1.00  0.00    -0.097 C  
BRANCH  21  22
HETATM   22  C   UNL     1      -7.488   8.134  69.528  1.00  0.00    -0.087 C  
BRANCH  22  23
HETATM   23  C   UNL     1      -8.728   8.437  70.378  1.00  0.00    -0.142 C  
BRANCH  23  24
HETATM   24  C   UNL     1      -9.919   7.572  69.964  1.00  0.00    -0.186 C  
BRANCH  24  25
HETATM   25  N   UNL     1     -10.137   6.479  70.946  1.00  0.00    -0.184 NA 
HETATM   26  C   UNL     1     -10.827   6.721  72.104  1.00  0.00    -0.227 A  
HETATM   27  C   UNL     1     -11.091   5.672  72.988  1.00  0.00    -0.327 A  
HETATM   28  C   UNL     1     -11.405   8.059  72.506  1.00  0.00    -0.469 C  
HETATM   29  C   UNL     1     -10.648   4.382  72.739  1.00  0.00    -0.182 A  
HETATM   30  N   UNL     1     -11.083   3.373  73.604  1.00  0.00    -0.234 NA 
HETATM   31  C   UNL     1      -9.998   4.130  71.521  1.00  0.00    -0.230 A  
HETATM   32  H1  UNL     1     -10.758   2.424  73.421  1.00  0.00     0.000 HD 
HETATM   33  C   UNL     1      -9.709   5.205  70.636  1.00  0.00    -0.192 A  
HETATM   34  H2  UNL     1     -12.103   3.378  73.642  1.00  0.00     0.000 HD 
HETATM   35  C   UNL     1      -9.002   4.916  69.440  1.00  0.00    -0.133 A  
HETATM   36  C   UNL     1      -8.634   3.618  69.093  1.00  0.00    -0.114 A  
HETATM   37  C   UNL     1      -8.954   2.571  69.935  1.00  0.00    -0.161 A  
HETATM   38  C   UNL     1      -9.619   2.824  71.133  1.00  0.00    -0.224 A  
ENDBRANCH  24  25
ENDBRANCH  23  24
ENDBRANCH  22  23
ENDBRANCH  21  22
ENDBRANCH  20  21
ENDBRANCH  19  20
ENDBRANCH  18  19
ENDBRANCH  17  18
ENDBRANCH  16  17
ENDBRANCH  15  16
ENDBRANCH  14  15
TORSDOF 11
ENDMDL
MODEL      166
REMARK 921   NORMALIZED FREE ENERGY PREDICTED BY IDOCK:   -6.03 KCAL/MOL
REMARK 922        TOTAL FREE ENERGY PREDICTED BY IDOCK:  -11.27 KCAL/MOL
REMARK 923 INTER-LIGAND FREE ENERGY PREDICTED BY IDOCK:   -9.86 KCAL/MOL
REMARK 924 INTRA-LIGAND FREE ENERGY PREDICTED BY IDOCK:   -1.41 KCAL/MOL
REMARK 927      BINDING AFFINITY PREDICTED BY RF-SCORE:    0.00 PKD
ROOT
HETATM    1  C   UNL     1     -11.855  11.185  70.237  1.00  0.00    -0.455 C  
HETATM    2  C   UNL     1     -11.069   9.970  70.676  1.00  0.00    -0.335 A  
HETATM    3  C   UNL     1     -11.494   9.302  71.817  1.00  0.00    -0.448 A  
HETATM    4  C   UNL     1     -10.838   8.170  72.280  1.00  0.00    -0.320 A  
HETATM    5  N   UNL     1     -11.416   7.479  73.350  1.00  0.00    -0.597 NA 
HETATM    6  C   UNL     1      -9.780   7.650  71.511  1.00  0.00    -0.191 A  
HETATM    7  H2  UNL     1     -12.379   7.238  73.115  1.00  0.00     0.000 HD 
HETATM    8  C   UNL     1      -9.143   6.432  71.841  1.00  0.00    -0.145 A  
HETATM    9  H1  UNL     1     -10.934   6.648  73.690  1.00  0.00     0.000 HD 
HETATM   10  C   UNL     1      -8.084   5.923  71.091  1.00  0.00    -0.121 A  
HETATM   11  C   UNL     1      -7.623   6.624  69.993  1.00  0.00    -0.100 A  
HETATM   12  C   UNL     1      -8.235   7.828  69.635  1.00  0.00    -0.127 A  
HETATM   13  C   UNL     1      -9.337   8.352  70.359  1.00  0.00    -0.161 A  
HETATM   14  N   UNL     1      -9.998   9.497  69.969  1.00  0.00    -0.221 NA 
ENDROOT
BRANCH  14  15
HETATM   15  C   UNL     1      -9.592  10.199  68.721  1.00  0.00    -0.170 C  
BRANCH  15  16
HETATM   16  C   UNL     1     -10.054   9.422  67.490  1.00  0.00    -0.268 C  
BRANCH  16  17
HETATM   17  C   UNL     1      -9.192   9.734  66.270  1.00  0.00    -0.207 C  
BRANCH  17  18
HETATM   18  C   UNL     1     -10.019  10.000  65.009  1.00  0.00    -0.320 C  
BRANCH  18  19
HETATM   19  C   UNL     1      -9.959  11.461  64.576  1.00  0.00    -0.318 C  
BRANCH  19  20
HETATM   20  C   UNL     1     -10.204  12.441  65.726  1.00  0.00    -0.283 C  
BRANCH  20  21
HETATM   21  C   UNL     1     -11.609  12.344  66.335  1.00  0.00    -0.442 C  
BRANCH  21  22
HETATM   22  C   UNL     1     -11.879  13.421  67.390  1.00  0.00    -0.418 C  
BRANCH  22  23
HETATM   23  C   UNL     1     -11.238  14.772  67.052  1.00  0.00    -0.347 C  
BRANCH  23  24
HETATM   24  C   UNL     1     -10.427  15.319  68.227  1.00  0.00    -0.244 C  
BRANCH  24  25
HETATM   25  N   UNL     1      -9.243  16.073  67.740  1.00  0.00    -0.204 NA 
HETATM   26  C   UNL     1      -8.049  15.430  67.548  1.00  0.00    -0.167 A  
HETATM   27  C   UNL     1      -6.961  16.130  67.020  1.00  0.00    -0.234 A  
HETATM   28  C   UNL     1      -7.803  13.961  67.805  1.00  0.00    -0.172 C  
HETATM   29  C   UNL     1      -7.044  17.478  66.708  1.00  0.00    -0.211 A  
HETATM   30  N   UNL     1      -5.954  18.057  66.052  1.00  0.00    -0.189 NA 
HETATM   31  C   UNL     1      -8.289  18.113  66.849  1.00  0.00    -0.258 A  
HETATM   32  H1  UNL     1      -6.015  19.049  65.822  1.00  0.00     0.000 HD 
HETATM   33  C   UNL     1      -9.387  17.404  67.409  1.00  0.00    -0.237 A  
HETATM   34  H2  UNL     1      -5.749  17.527  65.205  1.00  0.00     0.000 HD 
HETATM   35  C   UNL     1     -10.612  18.098  67.584  1.00  0.00    -0.424 A  
HETATM   36  C   UNL     1     -10.778  19.421  67.182  1.00  0.00    -0.593 A  
HETATM   37  C   UNL     1      -9.721  20.093  66.599  1.00  0.00    -0.568 A  
HETATM   38  C   UNL     1      -8.494  19.452  66.441  1.00  0.00    -0.361 A  
ENDBRANCH  24  25
ENDBRANCH  23  24
ENDBRANCH  22  23
ENDBRANCH  21  22
ENDBRANCH  20  21
ENDBRANCH  19  20
ENDBRANCH  18  19
ENDBRANCH  17  18
ENDBRANCH  16  17
ENDBRANCH  15  16
ENDBRANCH  14  15
TORSDOF 11
ENDMDL
MODEL      167
REMARK 921   NORMALIZED FREE ENERGY PREDICTED BY IDOCK:   -6.03 KCAL/MOL
REMARK 922        TOTAL FREE ENERGY PREDICTED BY IDOCK:  -11.26 KCAL/MOL
REMARK 923 INTER-LIGAND FREE ENERGY PREDICTED BY IDOCK:   -9.51 KCAL/MOL
REMARK 924 INTRA-LIGAND FREE ENERGY PREDICTED BY IDOCK:   -1.75 KCAL/MOL
REMARK 927      BINDING AFFINITY PREDICTED BY RF-SCORE:    0.00 PKD
ROOT
HETATM    1  C   UNL     1      -8.014  14.174  68.226  1.00  0.00    -0.140 C  
HETATM    2  C   UNL     1      -8.246  15.666  68.157  1.00  0.00    -0.144 A  
HETATM    3  C   UNL     1      -7.320  16.496  68.778  1.00  0.00    -0.208 A  
HETATM    4  C   UNL     1      -7.450  17.876  68.749  1.00  0.00    -0.268 A  
HETATM    5  N   UNL     1      -6.401  18.637  69.274  1.00  0.00    -0.260 NA 
HETATM    6  C   UNL     1      -8.498  18.432  67.990  1.00  0.00    -0.291 A  
HETATM    7  H2  UNL     1      -5.529  18.371  68.815  1.00  0.00     0.000 HD 
HETATM    8  C   UNL     1      -8.627  19.828  67.803  1.00  0.00    -0.373 A  
HETATM    9  H1  UNL     1      -6.497  19.652  69.253  1.00  0.00     0.000 HD 
HETATM   10  C   UNL     1      -9.673  20.382  67.066  1.00  0.00    -0.588 A  
HETATM   11  C   UNL     1     -10.628  19.557  66.504  1.00  0.00    -0.579 A  
HETATM   12  C   UNL     1     -10.526  18.172  66.664  1.00  0.00    -0.354 A  
HETATM   13  C   UNL     1      -9.453  17.578  67.379  1.00  0.00    -0.255 A  
HETATM   14  N   UNL     1      -9.299  16.212  67.477  1.00  0.00    -0.216 NA 
ENDROOT
BRANCH  14  15
HETATM   15  C   UNL     1     -10.251  15.307  66.776  1.00  0.00    -0.272 C  
BRANCH  15  16
HETATM   16  C   UNL     1     -11.410  14.928  67.696  1.00  0.00    -0.348 C  
BRANCH  16  17
HETATM   17  C   UNL     1     -12.144  13.687  67.194  1.00  0.00    -0.404 C  
BRANCH  17  18
HETATM   18  C   UNL     1     -11.415  12.989  66.043  1.00  0.00    -0.374 C  
BRANCH  18  19
HETATM   19  C   UNL     1     -11.095  11.531  66.361  1.00  0.00    -0.328 C  
BRANCH  19  20
HETATM   20  C   UNL     1      -9.605  11.281  66.608  1.00  0.00    -0.218 C  
BRANCH  20  21
HETATM   21  C   UNL     1      -9.314  10.481  67.885  1.00  0.00    -0.150 C  
BRANCH  21  22
HETATM   22  C   UNL     1     -10.147  10.944  69.083  1.00  0.00    -0.198 C  
BRANCH  22  23
HETATM   23  C   UNL     1     -10.121   9.956  70.255  1.00  0.00    -0.295 C  
BRANCH  23  24
HETATM   24  C   UNL     1     -11.273   8.955  70.173  1.00  0.00    -0.160 C  
BRANCH  24  25
HETATM   25  N   UNL     1     -10.772   7.565  70.329  1.00  0.00    -0.234 NA 
HETATM   26  C   UNL     1     -10.615   7.027  71.579  1.00  0.00    -0.212 A  
HETATM   27  C   UNL     1     -10.213   5.696  71.716  1.00  0.00    -0.253 A  
HETATM   28  C   UNL     1     -10.905   7.747  72.876  1.00  0.00    -0.453 C  
HETATM   29  C   UNL     1      -9.939   4.902  70.613  1.00  0.00    -0.235 A  
HETATM   30  N   UNL     1      -9.685   3.546  70.842  1.00  0.00    -0.172 NA 
HETATM   31  C   UNL     1     -10.164   5.442  69.337  1.00  0.00    -0.334 A  
HETATM   32  H1  UNL     1      -9.484   2.961  70.032  1.00  0.00     0.000 HD 
HETATM   33  C   UNL     1     -10.548   6.804  69.201  1.00  0.00    -0.232 A  
HETATM   34  H2  UNL     1     -10.462   3.141  71.365  1.00  0.00     0.000 HD 
HETATM   35  C   UNL     1     -10.713   7.326  67.892  1.00  0.00    -0.239 A  
HETATM   36  C   UNL     1     -10.557   6.536  66.755  1.00  0.00    -0.323 A  
HETATM   37  C   UNL     1     -10.225   5.202  66.893  1.00  0.00    -0.279 A  
HETATM   38  C   UNL     1     -10.025   4.665  68.163  1.00  0.00    -0.127 A  
ENDBRANCH  24  25
ENDBRANCH  23  24
ENDBRANCH  22  23
ENDBRANCH  21  22
ENDBRANCH  20  21
ENDBRANCH  19  20
ENDBRANCH  18  19
ENDBRANCH  17  18
ENDBRANCH  16  17
ENDBRANCH  15  16
ENDBRANCH  14  15
TORSDOF 11
ENDMDL
MODEL      168
REMARK 921   NORMALIZED FREE ENERGY PREDICTED BY IDOCK:   -6.03 KCAL/MOL
REMARK 922        TOTAL FREE ENERGY PREDICTED BY IDOCK:  -11.26 KCAL/MOL
REMARK 923 INTER-LIGAND FREE ENERGY PREDICTED BY IDOCK:   -9.65 KCAL/MOL
REMARK 924 INTRA-LIGAND FREE ENERGY PREDICTED BY IDOCK:   -1.62 KCAL/MOL
REMARK 927      BINDING AFFINITY PREDICTED BY RF-SCORE:    0.00 PKD
ROOT
HETATM    1  C   UNL     1     -10.987  10.824  68.006  1.00  0.00    -0.336 C  
HETATM    2  C   UNL     1     -11.733  11.529  69.116  1.00  0.00    -0.329 A  
HETATM    3  C   UNL     1     -12.291  10.747  70.120  1.00  0.00    -0.401 A  
HETATM    4  C   UNL     1     -12.978  11.315  71.183  1.00  0.00    -0.272 A  
HETATM    5  N   UNL     1     -13.382  10.467  72.219  1.00  0.00    -0.586 NA 
HETATM    6  C   UNL     1     -13.020  12.719  71.277  1.00  0.00    -0.310 A  
HETATM    7  H2  UNL     1     -12.572   9.960  72.575  1.00  0.00     0.000 HD 
HETATM    8  C   UNL     1     -13.588  13.377  72.393  1.00  0.00    -0.708 A  
HETATM    9  H1  UNL     1     -13.888  10.885  73.000  1.00  0.00     0.000 HD 
HETATM   10  C   UNL     1     -13.646  14.767  72.480  1.00  0.00    -0.571 A  
HETATM   11  C   UNL     1     -13.147  15.541  71.450  1.00  0.00    -0.580 A  
HETATM   12  C   UNL     1     -12.573  14.921  70.336  1.00  0.00    -0.394 A  
HETATM   13  C   UNL     1     -12.469  13.510  70.236  1.00  0.00    -0.239 A  
HETATM   14  N   UNL     1     -11.834  12.891  69.180  1.00  0.00    -0.308 NA 
ENDROOT
BRANCH  14  15
HETATM   15  C   UNL     1     -11.186  13.712  68.120  1.00  0.00    -0.275 C  
BRANCH  15  16
HETATM   16  C   UNL     1     -12.119  13.881  66.923  1.00  0.00    -0.467 C  
BRANCH  16  17
HETATM   17  C   UNL     1     -11.422  14.586  65.762  1.00  0.00    -0.342 C  
BRANCH  17  18
HETATM   18  C   UNL     1     -10.624  13.626  64.875  1.00  0.00    -0.421 C  
BRANCH  18  19
HETATM   19  C   UNL     1     -11.350  12.302  64.657  1.00  0.00    -0.375 C  
BRANCH  19  20
HETATM   20  C   UNL     1     -10.734  11.453  63.543  1.00  0.00    -0.453 C  
BRANCH  20  21
HETATM   21  C   UNL     1      -9.336  10.914  63.874  1.00  0.00    -0.267 C  
BRANCH  21  22
HETATM   22  C   UNL     1      -9.308  10.069  65.151  1.00  0.00    -0.302 C  
BRANCH  22  23
HETATM   23  C   UNL     1      -8.923   8.607  64.901  1.00  0.00    -0.007 C  
BRANCH  23  24
HETATM   24  C   UNL     1      -7.854   8.130  65.885  1.00  0.00    -0.094 C  
BRANCH  24  25
HETATM   25  N   UNL     1      -8.361   6.996  66.699  1.00  0.00    -0.114 NA 
HETATM   26  C   UNL     1      -8.461   5.745  66.152  1.00  0.00    -0.130 A  
HETATM   27  C   UNL     1      -8.869   4.670  66.945  1.00  0.00    -0.111 A  
HETATM   28  C   UNL     1      -8.097   5.390  64.728  1.00  0.00    -0.123 C  
HETATM   29  C   UNL     1      -9.208   4.837  68.279  1.00  0.00    -0.124 A  
HETATM   30  N   UNL     1      -9.464   3.686  69.029  1.00  0.00    -0.171 NA 
HETATM   31  C   UNL     1      -9.043   6.110  68.848  1.00  0.00    -0.123 A  
HETATM   32  H1  UNL     1      -9.712   3.808  70.010  1.00  0.00     0.000 HD 
HETATM   33  C   UNL     1      -8.651   7.207  68.032  1.00  0.00    -0.128 A  
HETATM   34  H2  UNL     1      -8.665   3.054  68.960  1.00  0.00     0.000 HD 
HETATM   35  C   UNL     1      -8.548   8.487  68.634  1.00  0.00    -0.135 A  
HETATM   36  C   UNL     1      -8.769   8.685  69.995  1.00  0.00    -0.141 A  
HETATM   37  C   UNL     1      -9.108   7.609  70.794  1.00  0.00    -0.153 A  
HETATM   38  C   UNL     1      -9.250   6.343  70.227  1.00  0.00    -0.158 A  
ENDBRANCH  24  25
ENDBRANCH  23  24
ENDBRANCH  22  23
ENDBRANCH  21  22
ENDBRANCH  20  21
ENDBRANCH  19  20
ENDBRANCH  18  19
ENDBRANCH  17  18
ENDBRANCH  16  17
ENDBRANCH  15  16
ENDBRANCH  14  15
TORSDOF 11
ENDMDL
MODEL      169
REMARK 921   NORMALIZED FREE ENERGY PREDICTED BY IDOCK:   -6.03 KCAL/MOL
REMARK 922        TOTAL FREE ENERGY PREDICTED BY IDOCK:  -11.25 KCAL/MOL
REMARK 923 INTER-LIGAND FREE ENERGY PREDICTED BY IDOCK:  -10.01 KCAL/MOL
REMARK 924 INTRA-LIGAND FREE ENERGY PREDICTED BY IDOCK:   -1.25 KCAL/MOL
REMARK 927      BINDING AFFINITY PREDICTED BY RF-SCORE:    0.00 PKD
ROOT
HETATM    1  C   UNL     1     -10.322   6.691  71.071  1.00  0.00    -0.234 C  
HETATM    2  C   UNL     1     -10.240   7.452  69.768  1.00  0.00    -0.209 A  
HETATM    3  C   UNL     1     -10.046   6.723  68.601  1.00  0.00    -0.163 A  
HETATM    4  C   UNL     1      -9.974   7.343  67.363  1.00  0.00    -0.183 A  
HETATM    5  N   UNL     1      -9.921   6.523  66.231  1.00  0.00    -0.404 NA 
HETATM    6  C   UNL     1     -10.198   8.731  67.297  1.00  0.00    -0.332 A  
HETATM    7  H2  UNL     1     -10.715   5.882  66.241  1.00  0.00     0.000 HD 
HETATM    8  C   UNL     1     -10.269   9.420  66.064  1.00  0.00    -0.204 A  
HETATM    9  H1  UNL     1      -9.868   6.979  65.320  1.00  0.00     0.000 HD 
HETATM   10  C   UNL     1     -10.474  10.797  65.997  1.00  0.00    -0.273 A  
HETATM   11  C   UNL     1     -10.603  11.529  67.162  1.00  0.00    -0.273 A  
HETATM   12  C   UNL     1     -10.544  10.877  68.397  1.00  0.00    -0.225 A  
HETATM   13  C   UNL     1     -10.372   9.473  68.495  1.00  0.00    -0.207 A  
HETATM   14  N   UNL     1     -10.391   8.810  69.703  1.00  0.00    -0.208 NA 
ENDROOT
BRANCH  14  15
HETATM   15  C   UNL     1     -10.649   9.567  70.960  1.00  0.00    -0.322 C  
BRANCH  15  16
HETATM   16  C   UNL     1     -12.102   9.401  71.400  1.00  0.00    -0.442 C  
BRANCH  16  17
HETATM   17  C   UNL     1     -12.968  10.569  70.936  1.00  0.00    -0.455 C  
BRANCH  17  18
HETATM   18  C   UNL     1     -13.404  11.481  72.086  1.00  0.00    -0.284 C  
BRANCH  18  19
HETATM   19  C   UNL     1     -13.236  12.959  71.747  1.00  0.00    -0.479 C  
BRANCH  19  20
HETATM   20  C   UNL     1     -12.332  13.202  70.537  1.00  0.00    -0.380 C  
BRANCH  20  21
HETATM   21  C   UNL     1     -12.331  14.655  70.044  1.00  0.00    -0.365 C  
BRANCH  21  22
HETATM   22  C   UNL     1     -10.922  15.239  69.907  1.00  0.00    -0.303 C  
BRANCH  22  23
HETATM   23  C   UNL     1     -10.910  16.657  69.325  1.00  0.00    -0.310 C  
BRANCH  23  24
HETATM   24  C   UNL     1     -10.141  16.716  68.004  1.00  0.00    -0.262 C  
BRANCH  24  25
HETATM   25  N   UNL     1      -9.116  17.790  68.043  1.00  0.00    -0.263 NA 
HETATM   26  C   UNL     1      -9.423  19.051  67.605  1.00  0.00    -0.306 A  
HETATM   27  C   UNL     1      -8.476  20.073  67.712  1.00  0.00    -0.338 A  
HETATM   28  C   UNL     1     -10.764  19.474  67.050  1.00  0.00    -0.592 C  
HETATM   29  C   UNL     1      -7.211  19.842  68.229  1.00  0.00    -0.306 A  
HETATM   30  N   UNL     1      -6.385  20.951  68.432  1.00  0.00    -0.295 NA 
HETATM   31  C   UNL     1      -6.927  18.562  68.734  1.00  0.00    -0.295 A  
HETATM   32  H1  UNL     1      -5.454  20.781  68.812  1.00  0.00     0.000 HD 
HETATM   33  C   UNL     1      -7.884  17.519  68.600  1.00  0.00    -0.272 A  
HETATM   34  H2  UNL     1      -6.869  21.630  69.019  1.00  0.00     0.000 HD 
HETATM   35  C   UNL     1      -7.537  16.228  69.074  1.00  0.00    -0.219 A  
HETATM   36  C   UNL     1      -6.320  15.972  69.702  1.00  0.00    -0.186 A  
HETATM   37  C   UNL     1      -5.410  16.998  69.868  1.00  0.00    -0.190 A  
HETATM   38  C   UNL     1      -5.706  18.272  69.385  1.00  0.00    -0.230 A  
ENDBRANCH  24  25
ENDBRANCH  23  24
ENDBRANCH  22  23
ENDBRANCH  21  22
ENDBRANCH  20  21
ENDBRANCH  19  20
ENDBRANCH  18  19
ENDBRANCH  17  18
ENDBRANCH  16  17
ENDBRANCH  15  16
ENDBRANCH  14  15
TORSDOF 11
ENDMDL
MODEL      170
REMARK 921   NORMALIZED FREE ENERGY PREDICTED BY IDOCK:   -6.01 KCAL/MOL
REMARK 922        TOTAL FREE ENERGY PREDICTED BY IDOCK:  -11.22 KCAL/MOL
REMARK 923 INTER-LIGAND FREE ENERGY PREDICTED BY IDOCK:   -9.33 KCAL/MOL
REMARK 924 INTRA-LIGAND FREE ENERGY PREDICTED BY IDOCK:   -1.89 KCAL/MOL
REMARK 927      BINDING AFFINITY PREDICTED BY RF-SCORE:    0.00 PKD
ROOT
HETATM    1  C   UNL     1     -12.510   7.689  71.121  1.00  0.00    -0.273 C  
HETATM    2  C   UNL     1     -11.585   6.501  71.261  1.00  0.00    -0.327 A  
HETATM    3  C   UNL     1     -11.378   5.988  72.535  1.00  0.00    -0.344 A  
HETATM    4  C   UNL     1     -10.556   4.891  72.749  1.00  0.00    -0.217 A  
HETATM    5  N   UNL     1     -10.517   4.354  74.040  1.00  0.00    -0.222 NA 
HETATM    6  C   UNL     1     -10.004   4.241  71.629  1.00  0.00    -0.250 A  
HETATM    7  H2  UNL     1     -11.465   4.128  74.340  1.00  0.00     0.000 HD 
HETATM    8  C   UNL     1      -9.262   3.043  71.750  1.00  0.00    -0.181 A  
HETATM    9  H1  UNL     1      -9.913   3.547  74.197  1.00  0.00     0.000 HD 
HETATM   10  C   UNL     1      -8.700   2.407  70.644  1.00  0.00    -0.117 A  
HETATM   11  C   UNL     1      -8.855   2.955  69.385  1.00  0.00    -0.152 A  
HETATM   12  C   UNL     1      -9.589   4.135  69.231  1.00  0.00    -0.256 A  
HETATM   13  C   UNL     1     -10.201   4.785  70.333  1.00  0.00    -0.191 A  
HETATM   14  N   UNL     1     -10.992   5.904  70.183  1.00  0.00    -0.344 NA 
ENDROOT
BRANCH  14  15
HETATM   15  C   UNL     1     -11.268   6.439  68.821  1.00  0.00    -0.274 C  
BRANCH  15  16
HETATM   16  C   UNL     1     -10.102   7.294  68.331  1.00  0.00    -0.188 C  
BRANCH  16  17
HETATM   17  C   UNL     1     -10.369   8.782  68.540  1.00  0.00    -0.231 C  
BRANCH  17  18
HETATM   18  C   UNL     1      -9.585   9.369  69.718  1.00  0.00    -0.216 C  
BRANCH  18  19
HETATM   19  C   UNL     1      -8.110   8.979  69.682  1.00  0.00    -0.103 C  
BRANCH  19  20
HETATM   20  C   UNL     1      -7.271   9.875  68.767  1.00  0.00    -0.076 C  
BRANCH  20  21
HETATM   21  C   UNL     1      -7.220  11.342  69.214  1.00  0.00    -0.075 C  
BRANCH  21  22
HETATM   22  C   UNL     1      -7.172  12.323  68.039  1.00  0.00    -0.102 C  
BRANCH  22  23
HETATM   23  C   UNL     1      -8.280  13.382  68.090  1.00  0.00    -0.160 C  
BRANCH  23  24
HETATM   24  C   UNL     1      -9.668  12.741  68.133  1.00  0.00    -0.223 C  
BRANCH  24  25
HETATM   25  N   UNL     1     -10.447  13.098  66.919  1.00  0.00    -0.255 NA 
HETATM   26  C   UNL     1     -11.186  14.250  66.890  1.00  0.00    -0.326 A  
HETATM   27  C   UNL     1     -11.857  14.615  65.720  1.00  0.00    -0.274 A  
HETATM   28  C   UNL     1     -11.301  15.237  68.030  1.00  0.00    -0.345 C  
HETATM   29  C   UNL     1     -11.819  13.823  64.583  1.00  0.00    -0.402 A  
HETATM   30  N   UNL     1     -12.398  14.338  63.419  1.00  0.00    -1.126 NA 
HETATM   31  C   UNL     1     -11.008  12.677  64.601  1.00  0.00    -0.346 A  
HETATM   32  H1  UNL     1     -12.371  13.756  62.582  1.00  0.00     0.000 HD 
HETATM   33  C   UNL     1     -10.348  12.296  65.801  1.00  0.00    -0.258 A  
HETATM   34  H2  UNL     1     -11.985  15.248  63.210  1.00  0.00     0.000 HD 
HETATM   35  C   UNL     1      -9.582  11.102  65.793  1.00  0.00    -0.255 A  
HETATM   36  C   UNL     1      -9.423  10.332  64.644  1.00  0.00    -0.351 A  
HETATM   37  C   UNL     1     -10.032  10.728  63.468  1.00  0.00    -0.403 A  
HETATM   38  C   UNL     1     -10.818  11.879  63.450  1.00  0.00    -0.469 A  
ENDBRANCH  24  25
ENDBRANCH  23  24
ENDBRANCH  22  23
ENDBRANCH  21  22
ENDBRANCH  20  21
ENDBRANCH  19  20
ENDBRANCH  18  19
ENDBRANCH  17  18
ENDBRANCH  16  17
ENDBRANCH  15  16
ENDBRANCH  14  15
TORSDOF 11
ENDMDL
MODEL      171
REMARK 921   NORMALIZED FREE ENERGY PREDICTED BY IDOCK:   -6.00 KCAL/MOL
REMARK 922        TOTAL FREE ENERGY PREDICTED BY IDOCK:  -11.21 KCAL/MOL
REMARK 923 INTER-LIGAND FREE ENERGY PREDICTED BY IDOCK:   -9.06 KCAL/MOL
REMARK 924 INTRA-LIGAND FREE ENERGY PREDICTED BY IDOCK:   -2.15 KCAL/MOL
REMARK 927      BINDING AFFINITY PREDICTED BY RF-SCORE:    0.00 PKD
ROOT
HETATM    1  C   UNL     1      -9.206   8.341  66.997  1.00  0.00    -0.187 C  
HETATM    2  C   UNL     1      -9.512   8.217  68.473  1.00  0.00    -0.143 A  
HETATM    3  C   UNL     1     -10.772   7.761  68.838  1.00  0.00    -0.108 A  
HETATM    4  C   UNL     1     -11.128   7.604  70.169  1.00  0.00    -0.218 A  
HETATM    5  N   UNL     1     -12.363   7.006  70.443  1.00  0.00    -0.618 NA 
HETATM    6  C   UNL     1     -10.147   7.828  71.154  1.00  0.00    -0.206 A  
HETATM    7  H2  UNL     1     -12.411   6.102  69.973  1.00  0.00     0.000 HD 
HETATM    8  C   UNL     1     -10.389   7.569  72.523  1.00  0.00    -0.291 A  
HETATM    9  H1  UNL     1     -12.624   6.892  71.422  1.00  0.00     0.000 HD 
HETATM   10  C   UNL     1      -9.424   7.805  73.501  1.00  0.00    -0.346 A  
HETATM   11  C   UNL     1      -8.193   8.319  73.141  1.00  0.00    -0.233 A  
HETATM   12  C   UNL     1      -7.920   8.580  71.796  1.00  0.00    -0.177 A  
HETATM   13  C   UNL     1      -8.869   8.316  70.775  1.00  0.00    -0.148 A  
HETATM   14  N   UNL     1      -8.584   8.496  69.438  1.00  0.00    -0.127 NA 
ENDROOT
BRANCH  14  15
HETATM   15  C   UNL     1      -7.222   8.935  69.024  1.00  0.00    -0.072 C  
BRANCH  15  16
HETATM   16  C   UNL     1      -7.152  10.458  68.934  1.00  0.00    -0.074 C  
BRANCH  16  17
HETATM   17  C   UNL     1      -5.764  10.979  69.295  1.00  0.00    -0.042 C  
BRANCH  17  18
HETATM   18  C   UNL     1      -5.484  12.373  68.726  1.00  0.00    -0.054 C  
BRANCH  18  19
HETATM   19  C   UNL     1      -6.761  13.184  68.530  1.00  0.00    -0.092 C  
BRANCH  19  20
HETATM   20  C   UNL     1      -7.009  14.199  69.649  1.00  0.00    -0.011 C  
BRANCH  20  21
HETATM   21  C   UNL     1      -7.846  15.409  69.215  1.00  0.00    -0.225 C  
BRANCH  21  22
HETATM   22  C   UNL     1      -9.354  15.168  69.337  1.00  0.00    -0.176 C  
BRANCH  22  23
HETATM   23  C   UNL     1      -9.976  14.579  68.066  1.00  0.00    -0.222 C  
BRANCH  23  24
HETATM   24  C   UNL     1     -11.502  14.528  68.159  1.00  0.00    -0.312 C  
BRANCH  24  25
HETATM   25  N   UNL     1     -11.934  13.472  69.109  1.00  0.00    -0.337 NA 
HETATM   26  C   UNL     1     -11.710  12.152  68.820  1.00  0.00    -0.321 A  
HETATM   27  C   UNL     1     -12.054  11.169  69.751  1.00  0.00    -0.414 A  
HETATM   28  C   UNL     1     -11.043  11.640  67.563  1.00  0.00    -0.333 C  
HETATM   29  C   UNL     1     -12.647  11.490  70.962  1.00  0.00    -0.357 A  
HETATM   30  N   UNL     1     -12.822  10.457  71.888  1.00  0.00    -0.441 NA 
HETATM   31  C   UNL     1     -12.816  12.848  71.277  1.00  0.00    -0.361 A  
HETATM   32  H1  UNL     1     -13.259  10.693  72.779  1.00  0.00     0.000 HD 
HETATM   33  C   UNL     1     -12.488  13.844  70.316  1.00  0.00    -0.314 A  
HETATM   34  H2  UNL     1     -11.925  10.005  72.062  1.00  0.00     0.000 HD 
HETATM   35  C   UNL     1     -12.723  15.202  70.653  1.00  0.00    -0.451 A  
HETATM   36  C   UNL     1     -13.214  15.581  71.900  1.00  0.00    -0.553 A  
HETATM   37  C   UNL     1     -13.491  14.613  72.846  1.00  0.00    -0.528 A  
HETATM   38  C   UNL     1     -13.302  13.268  72.537  1.00  0.00    -0.569 A  
ENDBRANCH  24  25
ENDBRANCH  23  24
ENDBRANCH  22  23
ENDBRANCH  21  22
ENDBRANCH  20  21
ENDBRANCH  19  20
ENDBRANCH  18  19
ENDBRANCH  17  18
ENDBRANCH  16  17
ENDBRANCH  15  16
ENDBRANCH  14  15
TORSDOF 11
ENDMDL
MODEL      172
REMARK 921   NORMALIZED FREE ENERGY PREDICTED BY IDOCK:   -6.00 KCAL/MOL
REMARK 922        TOTAL FREE ENERGY PREDICTED BY IDOCK:  -11.20 KCAL/MOL
REMARK 923 INTER-LIGAND FREE ENERGY PREDICTED BY IDOCK:   -9.60 KCAL/MOL
REMARK 924 INTRA-LIGAND FREE ENERGY PREDICTED BY IDOCK:   -1.60 KCAL/MOL
REMARK 927      BINDING AFFINITY PREDICTED BY RF-SCORE:    0.00 PKD
ROOT
HETATM    1  C   UNL     1      -9.724  18.511  67.793  1.00  0.00    -0.327 C  
HETATM    2  C   UNL     1     -10.350  17.285  67.168  1.00  0.00    -0.321 A  
HETATM    3  C   UNL     1     -10.711  17.353  65.828  1.00  0.00    -0.120 A  
HETATM    4  C   UNL     1     -11.277  16.268  65.175  1.00  0.00    -0.113 A  
HETATM    5  N   UNL     1     -11.477  16.376  63.795  1.00  0.00    -1.470 NA 
HETATM    6  C   UNL     1     -11.395  15.053  65.876  1.00  0.00    -0.273 A  
HETATM    7  H2  UNL     1     -10.594  16.616  63.344  1.00  0.00     0.000 HD 
HETATM    8  C   UNL     1     -11.842  13.867  65.249  1.00  0.00    -0.365 A  
HETATM    9  H1  UNL     1     -11.894  15.578  63.315  1.00  0.00     0.000 HD 
HETATM   10  C   UNL     1     -11.976  12.667  65.945  1.00  0.00    -0.497 A  
HETATM   11  C   UNL     1     -11.677  12.619  67.294  1.00  0.00    -0.435 A  
HETATM   12  C   UNL     1     -11.226  13.772  67.942  1.00  0.00    -0.299 A  
HETATM   13  C   UNL     1     -11.047  14.998  67.251  1.00  0.00    -0.334 A  
HETATM   14  N   UNL     1     -10.529  16.120  67.862  1.00  0.00    -0.281 NA 
ENDROOT
BRANCH  14  15
HETATM   15  C   UNL     1     -10.088  16.054  69.284  1.00  0.00    -0.249 C  
BRANCH  15  16
HETATM   16  C   UNL     1      -8.877  15.135  69.430  1.00  0.00    -0.172 C  
BRANCH  16  17
HETATM   17  C   UNL     1      -7.579  15.854  69.071  1.00  0.00    -0.202 C  
BRANCH  17  18
HETATM   18  C   UNL     1      -7.036  15.452  67.697  1.00  0.00    -0.209 C  
BRANCH  18  19
HETATM   19  C   UNL     1      -6.046  14.294  67.783  1.00  0.00    -0.132 C  
BRANCH  19  20
HETATM   20  C   UNL     1      -6.673  12.937  67.457  1.00  0.00    -0.156 C  
BRANCH  20  21
HETATM   21  C   UNL     1      -6.425  11.866  68.527  1.00  0.00    -0.057 C  
BRANCH  21  22
HETATM   22  C   UNL     1      -7.311  10.629  68.350  1.00  0.00    -0.091 C  
BRANCH  22  23
HETATM   23  C   UNL     1      -8.701  10.786  68.977  1.00  0.00    -0.136 C  
BRANCH  23  24
HETATM   24  C   UNL     1      -9.713   9.829  68.347  1.00  0.00    -0.149 C  
BRANCH  24  25
HETATM   25  N   UNL     1     -10.303   8.937  69.379  1.00  0.00    -0.210 NA 
HETATM   26  C   UNL     1     -11.124   9.453  70.346  1.00  0.00    -0.261 A  
HETATM   27  C   UNL     1     -11.732   8.597  71.268  1.00  0.00    -0.341 A  
HETATM   28  C   UNL     1     -11.498  10.911  70.480  1.00  0.00    -0.314 C  
HETATM   29  C   UNL     1     -11.507   7.230  71.251  1.00  0.00    -0.276 A  
HETATM   30  N   UNL     1     -12.269   6.440  72.117  1.00  0.00    -0.491 NA 
HETATM   31  C   UNL     1     -10.714   6.703  70.218  1.00  0.00    -0.294 A  
HETATM   32  H1  UNL     1     -12.103   5.433  72.104  1.00  0.00     0.000 HD 
HETATM   33  C   UNL     1     -10.077   7.579  69.297  1.00  0.00    -0.188 A  
HETATM   34  H2  UNL     1     -13.260   6.620  71.954  1.00  0.00     0.000 HD 
HETATM   35  C   UNL     1      -9.242   7.011  68.301  1.00  0.00    -0.128 A  
HETATM   36  C   UNL     1      -9.072   5.634  68.174  1.00  0.00    -0.111 A  
HETATM   37  C   UNL     1      -9.728   4.784  69.045  1.00  0.00    -0.248 A  
HETATM   38  C   UNL     1     -10.530   5.311  70.055  1.00  0.00    -0.351 A  
ENDBRANCH  24  25
ENDBRANCH  23  24
ENDBRANCH  22  23
ENDBRANCH  21  22
ENDBRANCH  20  21
ENDBRANCH  19  20
ENDBRANCH  18  19
ENDBRANCH  17  18
ENDBRANCH  16  17
ENDBRANCH  15  16
ENDBRANCH  14  15
TORSDOF 11
ENDMDL
MODEL      173
REMARK 921   NORMALIZED FREE ENERGY PREDICTED BY IDOCK:   -5.99 KCAL/MOL
REMARK 922        TOTAL FREE ENERGY PREDICTED BY IDOCK:  -11.19 KCAL/MOL
REMARK 923 INTER-LIGAND FREE ENERGY PREDICTED BY IDOCK:   -8.92 KCAL/MOL
REMARK 924 INTRA-LIGAND FREE ENERGY PREDICTED BY IDOCK:   -2.28 KCAL/MOL
REMARK 927      BINDING AFFINITY PREDICTED BY RF-SCORE:    0.00 PKD
ROOT
HETATM    1  C   UNL     1      -7.516  17.489  66.303  1.00  0.00    -0.355 C  
HETATM    2  C   UNL     1      -8.284  16.714  67.350  1.00  0.00    -0.169 A  
HETATM    3  C   UNL     1      -7.555  16.005  68.296  1.00  0.00    -0.137 A  
HETATM    4  C   UNL     1      -8.182  15.281  69.299  1.00  0.00    -0.244 A  
HETATM    5  N   UNL     1      -7.374  14.715  70.290  1.00  0.00    -0.295 NA 
HETATM    6  C   UNL     1      -9.584  15.355  69.400  1.00  0.00    -0.270 A  
HETATM    7  H2  UNL     1      -6.797  15.443  70.711  1.00  0.00     0.000 HD 
HETATM    8  C   UNL     1     -10.291  14.753  70.467  1.00  0.00     0.402 A  
HETATM    9  H1  UNL     1      -7.835  14.182  71.028  1.00  0.00     0.000 HD 
HETATM   10  C   UNL     1     -11.680  14.811  70.560  1.00  0.00    -0.350 A  
HETATM   11  C   UNL     1     -12.407  15.464  69.582  1.00  0.00    -0.250 A  
HETATM   12  C   UNL     1     -11.738  16.076  68.518  1.00  0.00    -0.244 A  
HETATM   13  C   UNL     1     -10.323  16.063  68.416  1.00  0.00    -0.251 A  
HETATM   14  N   UNL     1      -9.650  16.729  67.415  1.00  0.00    -0.234 NA 
ENDROOT
BRANCH  14  15
HETATM   15  C   UNL     1     -10.410  17.537  66.421  1.00  0.00    -0.334 C  
BRANCH  15  16
HETATM   16  C   UNL     1     -10.540  16.783  65.100  1.00  0.00    -0.134 C  
BRANCH  16  17
HETATM   17  C   UNL     1     -11.474  15.582  65.226  1.00  0.00    -0.099 C  
BRANCH  17  18
HETATM   18  C   UNL     1     -10.752  14.245  65.037  1.00  0.00    -0.435 C  
BRANCH  18  19
HETATM   19  C   UNL     1     -11.344  13.140  65.907  1.00  0.00    -0.338 C  
BRANCH  19  20
HETATM   20  C   UNL     1     -10.384  12.649  66.994  1.00  0.00    -0.241 C  
BRANCH  20  21
HETATM   21  C   UNL     1      -9.576  11.408  66.593  1.00  0.00    -0.211 C  
BRANCH  21  22
HETATM   22  C   UNL     1     -10.442  10.306  65.975  1.00  0.00    -0.181 C  
BRANCH  22  23
HETATM   23  C   UNL     1     -10.447   9.010  66.795  1.00  0.00    -0.270 C  
BRANCH  23  24
HETATM   24  C   UNL     1      -9.874   9.229  68.195  1.00  0.00    -0.162 C  
BRANCH  24  25
HETATM   25  N   UNL     1     -10.672   8.492  69.208  1.00  0.00    -0.182 NA 
HETATM   26  C   UNL     1     -10.557   7.132  69.320  1.00  0.00    -0.221 A  
HETATM   27  C   UNL     1     -11.257   6.456  70.323  1.00  0.00    -0.445 A  
HETATM   28  C   UNL     1      -9.663   6.264  68.465  1.00  0.00    -0.137 C  
HETATM   29  C   UNL     1     -12.095   7.124  71.203  1.00  0.00    -0.358 A  
HETATM   30  N   UNL     1     -12.637   6.389  72.261  1.00  0.00    -0.552 NA 
HETATM   31  C   UNL     1     -12.158   8.525  71.121  1.00  0.00    -0.283 A  
HETATM   32  H1  UNL     1     -13.254   6.880  72.908  1.00  0.00     0.000 HD 
HETATM   33  C   UNL     1     -11.465   9.206  70.084  1.00  0.00    -0.087 A  
HETATM   34  H2  UNL     1     -11.883   5.945  72.785  1.00  0.00     0.000 HD 
HETATM   35  C   UNL     1     -11.598  10.616  70.003  1.00  0.00    -0.406 A  
HETATM   36  C   UNL     1     -12.339  11.344  70.932  1.00  0.00    -0.483 A  
HETATM   37  C   UNL     1     -12.976  10.682  71.964  1.00  0.00    -0.466 A  
HETATM   38  C   UNL     1     -12.893   9.294  72.053  1.00  0.00    -0.495 A  
ENDBRANCH  24  25
ENDBRANCH  23  24
ENDBRANCH  22  23
ENDBRANCH  21  22
ENDBRANCH  20  21
ENDBRANCH  19  20
ENDBRANCH  18  19
ENDBRANCH  17  18
ENDBRANCH  16  17
ENDBRANCH  15  16
ENDBRANCH  14  15
TORSDOF 11
ENDMDL
MODEL      174
REMARK 921   NORMALIZED FREE ENERGY PREDICTED BY IDOCK:   -5.99 KCAL/MOL
REMARK 922        TOTAL FREE ENERGY PREDICTED BY IDOCK:  -11.19 KCAL/MOL
REMARK 923 INTER-LIGAND FREE ENERGY PREDICTED BY IDOCK:   -8.95 KCAL/MOL
REMARK 924 INTRA-LIGAND FREE ENERGY PREDICTED BY IDOCK:   -2.24 KCAL/MOL
REMARK 927      BINDING AFFINITY PREDICTED BY RF-SCORE:    0.00 PKD
ROOT
HETATM    1  C   UNL     1     -11.389  16.131  68.584  1.00  0.00    -0.365 C  
HETATM    2  C   UNL     1     -11.781  15.008  69.517  1.00  0.00    -0.322 A  
HETATM    3  C   UNL     1     -12.174  15.343  70.806  1.00  0.00    -0.430 A  
HETATM    4  C   UNL     1     -12.563  14.375  71.720  1.00  0.00    -0.351 A  
HETATM    5  N   UNL     1     -13.077  14.811  72.945  1.00  0.00    -0.467 NA 
HETATM    6  C   UNL     1     -12.644  13.039  71.284  1.00  0.00    -0.373 A  
HETATM    7  H2  UNL     1     -13.857  15.447  72.776  1.00  0.00     0.000 HD 
HETATM    8  C   UNL     1     -13.152  12.011  72.111  1.00  0.00    -0.352 A  
HETATM    9  H1  UNL     1     -13.363  14.099  73.617  1.00  0.00     0.000 HD 
HETATM   10  C   UNL     1     -13.218  10.685  71.687  1.00  0.00    -0.495 A  
HETATM   11  C   UNL     1     -12.767  10.345  70.426  1.00  0.00    -0.289 A  
HETATM   12  C   UNL     1     -12.265  11.338  69.580  1.00  0.00    -0.340 A  
HETATM   13  C   UNL     1     -12.219  12.701  69.972  1.00  0.00    -0.197 A  
HETATM   14  N   UNL     1     -11.799  13.699  69.119  1.00  0.00    -0.329 NA 
ENDROOT
BRANCH  14  15
HETATM   15  C   UNL     1     -11.423  13.367  67.717  1.00  0.00    -0.316 C  
BRANCH  15  16
HETATM   16  C   UNL     1      -9.935  13.036  67.623  1.00  0.00    -0.215 C  
BRANCH  16  17
HETATM   17  C   UNL     1      -9.579  12.422  66.271  1.00  0.00    -0.245 C  
BRANCH  17  18
HETATM   18  C   UNL     1     -10.579  11.352  65.822  1.00  0.00    -0.315 C  
BRANCH  18  19
HETATM   19  C   UNL     1     -10.263  10.815  64.429  1.00  0.00    -0.432 C  
BRANCH  19  20
HETATM   20  C   UNL     1      -8.764  10.640  64.175  1.00  0.00    -0.137 C  
BRANCH  20  21
HETATM   21  C   UNL     1      -8.199   9.309  64.687  1.00  0.00    -0.148 C  
BRANCH  21  22
HETATM   22  C   UNL     1      -6.984   9.488  65.602  1.00  0.00    -0.092 C  
BRANCH  22  23
HETATM   23  C   UNL     1      -7.362   9.747  67.065  1.00  0.00    -0.091 C  
BRANCH  23  24
HETATM   24  C   UNL     1      -7.056   8.538  67.949  1.00  0.00    -0.086 C  
BRANCH  24  25
HETATM   25  N   UNL     1      -8.309   7.957  68.495  1.00  0.00    -0.127 NA 
HETATM   26  C   UNL     1      -8.860   8.465  69.642  1.00  0.00    -0.141 A  
HETATM   27  C   UNL     1     -10.077   7.962  70.109  1.00  0.00    -0.194 A  
HETATM   28  C   UNL     1      -8.285   9.606  70.450  1.00  0.00    -0.194 C  
HETATM   29  C   UNL     1     -10.738   6.934  69.455  1.00  0.00    -0.246 A  
HETATM   30  N   UNL     1     -12.015   6.595  69.912  1.00  0.00    -0.639 NA 
HETATM   31  C   UNL     1     -10.198   6.463  68.247  1.00  0.00    -0.197 A  
HETATM   32  H1  UNL     1     -12.502   5.839  69.431  1.00  0.00     0.000 HD 
HETATM   33  C   UNL     1      -8.948   6.960  67.789  1.00  0.00    -0.117 A  
HETATM   34  H2  UNL     1     -12.605   7.428  69.913  1.00  0.00     0.000 HD 
HETATM   35  C   UNL     1      -8.411   6.419  66.592  1.00  0.00    -0.113 A  
HETATM   36  C   UNL     1      -9.091   5.464  65.840  1.00  0.00    -0.162 A  
HETATM   37  C   UNL     1     -10.327   5.015  66.267  1.00  0.00    -0.332 A  
HETATM   38  C   UNL     1     -10.868   5.501  67.456  1.00  0.00    -0.100 A  
ENDBRANCH  24  25
ENDBRANCH  23  24
ENDBRANCH  22  23
ENDBRANCH  21  22
ENDBRANCH  20  21
ENDBRANCH  19  20
ENDBRANCH  18  19
ENDBRANCH  17  18
ENDBRANCH  16  17
ENDBRANCH  15  16
ENDBRANCH  14  15
TORSDOF 11
ENDMDL
MODEL      175
REMARK 921   NORMALIZED FREE ENERGY PREDICTED BY IDOCK:   -5.99 KCAL/MOL
REMARK 922        TOTAL FREE ENERGY PREDICTED BY IDOCK:  -11.19 KCAL/MOL
REMARK 923 INTER-LIGAND FREE ENERGY PREDICTED BY IDOCK:   -8.86 KCAL/MOL
REMARK 924 INTRA-LIGAND FREE ENERGY PREDICTED BY IDOCK:   -2.33 KCAL/MOL
REMARK 927      BINDING AFFINITY PREDICTED BY RF-SCORE:    0.00 PKD
ROOT
HETATM    1  C   UNL     1     -11.853  13.676  68.240  1.00  0.00    -0.404 C  
HETATM    2  C   UNL     1     -11.516  12.976  66.944  1.00  0.00    -0.339 A  
HETATM    3  C   UNL     1     -12.289  13.270  65.828  1.00  0.00    -0.505 A  
HETATM    4  C   UNL     1     -12.037  12.683  64.597  1.00  0.00    -0.420 A  
HETATM    5  N   UNL     1     -12.770  13.142  63.498  1.00  0.00    -0.682 NA 
HETATM    6  C   UNL     1     -10.913  11.844  64.474  1.00  0.00    -0.376 A  
HETATM    7  H2  UNL     1     -12.659  14.153  63.417  1.00  0.00     0.000 HD 
HETATM    8  C   UNL     1     -10.512  11.307  63.229  1.00  0.00    -0.370 A  
HETATM    9  H1  UNL     1     -12.585  12.710  62.593  1.00  0.00     0.000 HD 
HETATM   10  C   UNL     1      -9.409  10.463  63.108  1.00  0.00    -0.340 A  
HETATM   11  C   UNL     1      -8.680  10.121  64.232  1.00  0.00    -0.218 A  
HETATM   12  C   UNL     1      -9.046  10.640  65.477  1.00  0.00    -0.214 A  
HETATM   13  C   UNL     1     -10.142  11.529  65.624  1.00  0.00    -0.237 A  
HETATM   14  N   UNL     1     -10.464  12.108  66.833  1.00  0.00    -0.222 NA 
ENDROOT
BRANCH  14  15
HETATM   15  C   UNL     1      -9.617  11.845  68.030  1.00  0.00    -0.193 C  
BRANCH  15  16
HETATM   16  C   UNL     1      -9.914  10.462  68.606  1.00  0.00    -0.186 C  
BRANCH  16  17
HETATM   17  C   UNL     1      -8.641   9.763  69.074  1.00  0.00    -0.146 C  
BRANCH  17  18
HETATM   18  C   UNL     1      -7.626  10.727  69.695  1.00  0.00    -0.052 C  
BRANCH  18  19
HETATM   19  C   UNL     1      -6.298  10.732  68.944  1.00  0.00    -0.045 C  
BRANCH  19  20
HETATM   20  C   UNL     1      -5.635  12.110  68.897  1.00  0.00    -0.051 C  
BRANCH  20  21
HETATM   21  C   UNL     1      -5.717  12.883  70.221  1.00  0.00    -0.162 C  
BRANCH  21  22
HETATM   22  C   UNL     1      -6.148  14.341  70.036  1.00  0.00    -0.150 C  
BRANCH  22  23
HETATM   23  C   UNL     1      -7.142  14.536  68.885  1.00  0.00    -0.118 C  
BRANCH  23  24
HETATM   24  C   UNL     1      -6.650  15.587  67.889  1.00  0.00    -0.158 C  
BRANCH  24  25
HETATM   25  N   UNL     1      -7.569  16.753  67.862  1.00  0.00    -0.166 NA 
HETATM   26  C   UNL     1      -7.307  17.854  68.633  1.00  0.00    -0.271 A  
HETATM   27  C   UNL     1      -8.136  18.975  68.548  1.00  0.00    -0.385 A  
HETATM   28  C   UNL     1      -6.123  18.001  69.562  1.00  0.00    -0.247 C  
HETATM   29  C   UNL     1      -9.244  18.999  67.716  1.00  0.00    -0.298 A  
HETATM   30  N   UNL     1      -9.929  20.211  67.587  1.00  0.00    -0.412 NA 
HETATM   31  C   UNL     1      -9.469  17.891  66.882  1.00  0.00    -0.279 A  
HETATM   32  H1  UNL     1     -10.744  20.228  66.975  1.00  0.00     0.000 HD 
HETATM   33  C   UNL     1      -8.638  16.742  66.991  1.00  0.00    -0.209 A  
HETATM   34  H2  UNL     1      -9.275  20.938  67.297  1.00  0.00     0.000 HD 
HETATM   35  C   UNL     1      -8.932  15.623  66.169  1.00  0.00    -0.362 A  
HETATM   36  C   UNL     1      -9.968  15.641  65.238  1.00  0.00    -0.229 A  
HETATM   37  C   UNL     1     -10.746  16.775  65.105  1.00  0.00    -0.159 A  
HETATM   38  C   UNL     1     -10.505  17.879  65.920  1.00  0.00    -0.253 A  
ENDBRANCH  24  25
ENDBRANCH  23  24
ENDBRANCH  22  23
ENDBRANCH  21  22
ENDBRANCH  20  21
ENDBRANCH  19  20
ENDBRANCH  18  19
ENDBRANCH  17  18
ENDBRANCH  16  17
ENDBRANCH  15  16
ENDBRANCH  14  15
TORSDOF 11
ENDMDL
MODEL      176
REMARK 921   NORMALIZED FREE ENERGY PREDICTED BY IDOCK:   -5.99 KCAL/MOL
REMARK 922        TOTAL FREE ENERGY PREDICTED BY IDOCK:  -11.19 KCAL/MOL
REMARK 923 INTER-LIGAND FREE ENERGY PREDICTED BY IDOCK:   -9.73 KCAL/MOL
REMARK 924 INTRA-LIGAND FREE ENERGY PREDICTED BY IDOCK:   -1.46 KCAL/MOL
REMARK 927      BINDING AFFINITY PREDICTED BY RF-SCORE:    0.00 PKD
ROOT
HETATM    1  C   UNL     1     -10.948  11.053  67.953  1.00  0.00    -0.317 C  
HETATM    2  C   UNL     1     -11.666  11.730  69.098  1.00  0.00    -0.325 A  
HETATM    3  C   UNL     1     -12.224  10.923  70.081  1.00  0.00    -0.423 A  
HETATM    4  C   UNL     1     -12.887  11.464  71.173  1.00  0.00    -0.341 A  
HETATM    5  N   UNL     1     -13.291  10.588  72.185  1.00  0.00    -0.569 NA 
HETATM    6  C   UNL     1     -12.904  12.865  71.317  1.00  0.00    -0.361 A  
HETATM    7  H2  UNL     1     -12.485  10.055  72.511  1.00  0.00     0.000 HD 
HETATM    8  C   UNL     1     -13.446  13.493  72.462  1.00  0.00    -0.660 A  
HETATM    9  H1  UNL     1     -13.779  10.986  72.987  1.00  0.00     0.000 HD 
HETATM   10  C   UNL     1     -13.479  14.880  72.599  1.00  0.00    -0.573 A  
HETATM   11  C   UNL     1     -12.981  15.681  71.589  1.00  0.00    -0.551 A  
HETATM   12  C   UNL     1     -12.432  15.092  70.447  1.00  0.00    -0.407 A  
HETATM   13  C   UNL     1     -12.353  13.683  70.296  1.00  0.00    -0.322 A  
HETATM   14  N   UNL     1     -11.744  13.091  69.210  1.00  0.00    -0.304 NA 
ENDROOT
BRANCH  14  15
HETATM   15  C   UNL     1     -11.096  13.939  68.171  1.00  0.00    -0.256 C  
BRANCH  15  16
HETATM   16  C   UNL     1     -12.025  14.127  66.973  1.00  0.00    -0.471 C  
BRANCH  16  17
HETATM   17  C   UNL     1     -11.278  14.681  65.763  1.00  0.00    -0.336 C  
BRANCH  17  18
HETATM   18  C   UNL     1     -10.494  13.607  65.004  1.00  0.00    -0.406 C  
BRANCH  18  19
HETATM   19  C   UNL     1     -11.383  12.801  64.061  1.00  0.00    -0.468 C  
BRANCH  19  20
HETATM   20  C   UNL     1     -10.707  11.536  63.528  1.00  0.00    -0.483 C  
BRANCH  20  21
HETATM   21  C   UNL     1     -10.200  10.593  64.628  1.00  0.00    -0.404 C  
BRANCH  21  22
HETATM   22  C   UNL     1      -8.865   9.931  64.278  1.00  0.00    -0.252 C  
BRANCH  22  23
HETATM   23  C   UNL     1      -8.207   9.229  65.473  1.00  0.00    -0.125 C  
BRANCH  23  24
HETATM   24  C   UNL     1      -9.198   8.331  66.213  1.00  0.00    -0.203 C  
BRANCH  24  25
HETATM   25  N   UNL     1      -8.480   7.289  66.991  1.00  0.00    -0.117 NA 
HETATM   26  C   UNL     1      -8.172   7.503  68.307  1.00  0.00    -0.125 A  
HETATM   27  C   UNL     1      -7.562   6.490  69.052  1.00  0.00    -0.100 A  
HETATM   28  C   UNL     1      -8.496   8.761  69.081  1.00  0.00    -0.123 C  
HETATM   29  C   UNL     1      -7.230   5.269  68.484  1.00  0.00    -0.063 A  
HETATM   30  N   UNL     1      -6.758   4.268  69.338  1.00  0.00    -0.043 NA 
HETATM   31  C   UNL     1      -7.607   5.035  67.151  1.00  0.00    -0.088 A  
HETATM   32  H1  UNL     1      -6.514   3.370  68.921  1.00  0.00     0.000 HD 
HETATM   33  C   UNL     1      -8.205   6.077  66.391  1.00  0.00    -0.112 A  
HETATM   34  H2  UNL     1      -7.432   4.119  70.089  1.00  0.00     0.000 HD 
HETATM   35  C   UNL     1      -8.521   5.818  65.032  1.00  0.00    -0.124 A  
HETATM   36  C   UNL     1      -8.309   4.571  64.448  1.00  0.00    -0.113 A  
HETATM   37  C   UNL     1      -7.768   3.548  65.203  1.00  0.00    -0.081 A  
HETATM   38  C   UNL     1      -7.415   3.779  66.532  1.00  0.00    -0.080 A  
ENDBRANCH  24  25
ENDBRANCH  23  24
ENDBRANCH  22  23
ENDBRANCH  21  22
ENDBRANCH  20  21
ENDBRANCH  19  20
ENDBRANCH  18  19
ENDBRANCH  17  18
ENDBRANCH  16  17
ENDBRANCH  15  16
ENDBRANCH  14  15
TORSDOF 11
ENDMDL
MODEL      177
REMARK 921   NORMALIZED FREE ENERGY PREDICTED BY IDOCK:   -5.96 KCAL/MOL
REMARK 922        TOTAL FREE ENERGY PREDICTED BY IDOCK:  -11.15 KCAL/MOL
REMARK 923 INTER-LIGAND FREE ENERGY PREDICTED BY IDOCK:  -10.16 KCAL/MOL
REMARK 924 INTRA-LIGAND FREE ENERGY PREDICTED BY IDOCK:   -0.99 KCAL/MOL
REMARK 927      BINDING AFFINITY PREDICTED BY RF-SCORE:    0.00 PKD
ROOT
HETATM    1  C   UNL     1     -12.622   9.795  71.603  1.00  0.00    -0.509 C  
HETATM    2  C   UNL     1     -11.845   8.516  71.384  1.00  0.00    -0.296 A  
HETATM    3  C   UNL     1     -11.888   7.553  72.384  1.00  0.00    -0.305 A  
HETATM    4  C   UNL     1     -11.215   6.346  72.256  1.00  0.00    -0.276 A  
HETATM    5  N   UNL     1     -11.428   5.379  73.244  1.00  0.00    -0.513 NA 
HETATM    6  C   UNL     1     -10.559   6.073  71.041  1.00  0.00    -0.305 A  
HETATM    7  H2  UNL     1     -12.428   5.199  73.330  1.00  0.00     0.000 HD 
HETATM    8  C   UNL     1      -9.959   4.819  70.780  1.00  0.00    -0.291 A  
HETATM    9  H1  UNL     1     -10.934   4.492  73.149  1.00  0.00     0.000 HD 
HETATM   10  C   UNL     1      -9.295   4.552  69.584  1.00  0.00    -0.221 A  
HETATM   11  C   UNL     1      -9.200   5.535  68.617  1.00  0.00    -0.140 A  
HETATM   12  C   UNL     1      -9.787   6.783  68.841  1.00  0.00    -0.146 A  
HETATM   13  C   UNL     1     -10.500   7.072  70.034  1.00  0.00    -0.215 A  
HETATM   14  N   UNL     1     -11.150   8.271  70.232  1.00  0.00    -0.247 NA 
ENDROOT
BRANCH  14  15
HETATM   15  C   UNL     1     -11.160   9.296  69.152  1.00  0.00     0.024 C  
BRANCH  15  16
HETATM   16  C   UNL     1      -9.862  10.102  69.163  1.00  0.00    -0.225 C  
BRANCH  16  17
HETATM   17  C   UNL     1      -9.502  10.608  67.769  1.00  0.00    -0.165 C  
BRANCH  17  18
HETATM   18  C   UNL     1      -9.987  12.037  67.510  1.00  0.00    -0.199 C  
BRANCH  18  19
HETATM   19  C   UNL     1     -11.492  12.101  67.268  1.00  0.00    -0.413 C  
BRANCH  19  20
HETATM   20  C   UNL     1     -11.856  12.529  65.844  1.00  0.00    -0.489 C  
BRANCH  20  21
HETATM   21  C   UNL     1     -12.141  14.030  65.701  1.00  0.00    -0.432 C  
BRANCH  21  22
HETATM   22  C   UNL     1     -11.029  14.781  64.964  1.00  0.00    -0.426 C  
BRANCH  22  23
HETATM   23  C   UNL     1      -9.817  15.089  65.852  1.00  0.00    -0.369 C  
BRANCH  23  24
HETATM   24  C   UNL     1     -10.244  15.549  67.247  1.00  0.00    -0.260 C  
BRANCH  24  25
HETATM   25  N   UNL     1      -9.268  16.524  67.798  1.00  0.00    -0.201 NA 
HETATM   26  C   UNL     1      -8.193  16.085  68.523  1.00  0.00    -0.181 A  
HETATM   27  C   UNL     1      -7.240  17.001  68.977  1.00  0.00    -0.229 A  
HETATM   28  C   UNL     1      -7.893  14.638  68.842  1.00  0.00    -0.148 C  
HETATM   29  C   UNL     1      -7.366  18.360  68.736  1.00  0.00    -0.287 A  
HETATM   30  N   UNL     1      -6.295  19.182  69.100  1.00  0.00    -0.266 NA 
HETATM   31  C   UNL     1      -8.438  18.794  67.938  1.00  0.00    -0.316 A  
HETATM   32  H1  UNL     1      -6.388  20.182  68.923  1.00  0.00     0.000 HD 
HETATM   33  C   UNL     1      -9.418  17.862  67.500  1.00  0.00    -0.258 A  
HETATM   34  H2  UNL     1      -5.442  18.839  68.659  1.00  0.00     0.000 HD 
HETATM   35  C   UNL     1     -10.514  18.349  66.742  1.00  0.00    -0.415 A  
HETATM   36  C   UNL     1     -10.625  19.690  66.380  1.00  0.00    -0.592 A  
HETATM   37  C   UNL     1      -9.648  20.585  66.771  1.00  0.00    -0.450 A  
HETATM   38  C   UNL     1      -8.576  20.145  67.544  1.00  0.00    -0.404 A  
ENDBRANCH  24  25
ENDBRANCH  23  24
ENDBRANCH  22  23
ENDBRANCH  21  22
ENDBRANCH  20  21
ENDBRANCH  19  20
ENDBRANCH  18  19
ENDBRANCH  17  18
ENDBRANCH  16  17
ENDBRANCH  15  16
ENDBRANCH  14  15
TORSDOF 11
ENDMDL
MODEL      178
REMARK 921   NORMALIZED FREE ENERGY PREDICTED BY IDOCK:   -5.96 KCAL/MOL
REMARK 922        TOTAL FREE ENERGY PREDICTED BY IDOCK:  -11.14 KCAL/MOL
REMARK 923 INTER-LIGAND FREE ENERGY PREDICTED BY IDOCK:   -9.79 KCAL/MOL
REMARK 924 INTRA-LIGAND FREE ENERGY PREDICTED BY IDOCK:   -1.36 KCAL/MOL
REMARK 927      BINDING AFFINITY PREDICTED BY RF-SCORE:    0.00 PKD
ROOT
HETATM    1  C   UNL     1     -10.768  19.260  67.407  1.00  0.00    -0.594 C  
HETATM    2  C   UNL     1      -9.426  18.573  67.290  1.00  0.00    -0.288 A  
HETATM    3  C   UNL     1      -8.581  18.973  66.263  1.00  0.00    -0.281 A  
HETATM    4  C   UNL     1      -7.327  18.405  66.094  1.00  0.00    -0.255 A  
HETATM    5  N   UNL     1      -6.487  18.965  65.125  1.00  0.00    -0.460 NA 
HETATM    6  C   UNL     1      -6.882  17.472  67.050  1.00  0.00    -0.208 A  
HETATM    7  H2  UNL     1      -6.383  19.963  65.306  1.00  0.00     0.000 HD 
HETATM    8  C   UNL     1      -5.571  16.942  67.026  1.00  0.00    -0.200 A  
HETATM    9  H1  UNL     1      -5.566  18.547  65.002  1.00  0.00     0.000 HD 
HETATM   10  C   UNL     1      -5.134  16.006  67.961  1.00  0.00    -0.125 A  
HETATM   11  C   UNL     1      -5.999  15.563  68.944  1.00  0.00    -0.102 A  
HETATM   12  C   UNL     1      -7.299  16.072  69.001  1.00  0.00    -0.191 A  
HETATM   13  C   UNL     1      -7.760  17.052  68.084  1.00  0.00    -0.197 A  
HETATM   14  N   UNL     1      -9.013  17.618  68.178  1.00  0.00    -0.261 NA 
ENDROOT
BRANCH  14  15
HETATM   15  C   UNL     1      -9.914  17.241  69.302  1.00  0.00    -0.136 C  
BRANCH  15  16
HETATM   16  C   UNL     1     -10.362  15.787  69.168  1.00  0.00    -0.240 C  
BRANCH  16  17
HETATM   17  C   UNL     1     -11.872  15.679  68.971  1.00  0.00    -0.379 C  
BRANCH  17  18
HETATM   18  C   UNL     1     -12.642  15.612  70.293  1.00  0.00    -0.319 C  
BRANCH  18  19
HETATM   19  C   UNL     1     -11.712  15.553  71.501  1.00  0.00    -0.479 C  
BRANCH  19  20
HETATM   20  C   UNL     1     -12.306  14.781  72.682  1.00  0.00    -0.378 C  
BRANCH  20  21
HETATM   21  C   UNL     1     -13.618  14.057  72.353  1.00  0.00    -0.658 C  
BRANCH  21  22
HETATM   22  C   UNL     1     -13.455  12.537  72.260  1.00  0.00    -0.490 C  
BRANCH  22  23
HETATM   23  C   UNL     1     -12.362  12.106  71.275  1.00  0.00    -0.176 C  
BRANCH  23  24
HETATM   24  C   UNL     1     -12.784  10.877  70.469  1.00  0.00    -0.280 C  
BRANCH  24  25
HETATM   25  N   UNL     1     -11.634  10.335  69.701  1.00  0.00    -0.228 NA 
HETATM   26  C   UNL     1     -11.004   9.193  70.120  1.00  0.00    -0.239 A  
HETATM   27  C   UNL     1      -9.971   8.649  69.352  1.00  0.00    -0.197 A  
HETATM   28  C   UNL     1     -11.375   8.399  71.352  1.00  0.00    -0.317 C  
HETATM   29  C   UNL     1      -9.540   9.251  68.181  1.00  0.00    -0.143 A  
HETATM   30  N   UNL     1      -8.603   8.560  67.407  1.00  0.00    -0.126 NA 
HETATM   31  C   UNL     1     -10.233  10.385  67.726  1.00  0.00    -0.229 A  
HETATM   32  H1  UNL     1      -8.286   9.002  66.544  1.00  0.00     0.000 HD 
HETATM   33  C   UNL     1     -11.267  10.950  68.522  1.00  0.00    -0.274 A  
HETATM   34  H2  UNL     1      -8.962   7.628  67.195  1.00  0.00     0.000 HD 
HETATM   35  C   UNL     1     -11.906  12.127  68.054  1.00  0.00    -0.351 A  
HETATM   36  C   UNL     1     -11.584  12.706  66.828  1.00  0.00    -0.438 A  
HETATM   37  C   UNL     1     -10.608  12.129  66.038  1.00  0.00    -0.292 A  
HETATM   38  C   UNL     1      -9.938  10.991  66.483  1.00  0.00    -0.253 A  
ENDBRANCH  24  25
ENDBRANCH  23  24
ENDBRANCH  22  23
ENDBRANCH  21  22
ENDBRANCH  20  21
ENDBRANCH  19  20
ENDBRANCH  18  19
ENDBRANCH  17  18
ENDBRANCH  16  17
ENDBRANCH  15  16
ENDBRANCH  14  15
TORSDOF 11
ENDMDL
MODEL      179
REMARK 921   NORMALIZED FREE ENERGY PREDICTED BY IDOCK:   -5.95 KCAL/MOL
REMARK 922        TOTAL FREE ENERGY PREDICTED BY IDOCK:  -11.14 KCAL/MOL
REMARK 923 INTER-LIGAND FREE ENERGY PREDICTED BY IDOCK:   -8.61 KCAL/MOL
REMARK 924 INTRA-LIGAND FREE ENERGY PREDICTED BY IDOCK:   -2.53 KCAL/MOL
REMARK 927      BINDING AFFINITY PREDICTED BY RF-SCORE:    0.00 PKD
ROOT
HETATM    1  C   UNL     1     -11.655   8.916  71.904  1.00  0.00    -0.442 C  
HETATM    2  C   UNL     1     -11.235   7.633  71.223  1.00  0.00    -0.254 A  
HETATM    3  C   UNL     1     -11.204   7.617  69.834  1.00  0.00    -0.097 A  
HETATM    4  C   UNL     1     -10.816   6.486  69.132  1.00  0.00    -0.302 A  
HETATM    5  N   UNL     1     -10.676   6.601  67.745  1.00  0.00    -0.252 NA 
HETATM    6  C   UNL     1     -10.360   5.371  69.860  1.00  0.00    -0.377 A  
HETATM    7  H2  UNL     1     -10.034   7.365  67.533  1.00  0.00     0.000 HD 
HETATM    8  C   UNL     1      -9.828   4.226  69.222  1.00  0.00    -0.180 A  
HETATM    9  H1  UNL     1     -10.392   5.769  67.229  1.00  0.00     0.000 HD 
HETATM   10  C   UNL     1      -9.391   3.115  69.940  1.00  0.00    -0.228 A  
HETATM   11  C   UNL     1      -9.483   3.109  71.319  1.00  0.00    -0.219 A  
HETATM   12  C   UNL     1      -9.998   4.227  71.981  1.00  0.00    -0.249 A  
HETATM   13  C   UNL     1     -10.418   5.386  71.278  1.00  0.00    -0.226 A  
HETATM   14  N   UNL     1     -10.853   6.523  71.925  1.00  0.00    -0.230 NA 
ENDROOT
BRANCH  14  15
HETATM   15  C   UNL     1     -10.846   6.579  73.413  1.00  0.00    -0.222 C  
BRANCH  15  16
HETATM   16  C   UNL     1      -9.417   6.502  73.948  1.00  0.00    -0.196 C  
BRANCH  16  17
HETATM   17  C   UNL     1      -8.810   7.891  74.129  1.00  0.00    -0.203 C  
BRANCH  17  18
HETATM   18  C   UNL     1      -7.826   8.260  73.015  1.00  0.00    -0.188 C  
BRANCH  18  19
HETATM   19  C   UNL     1      -7.328   7.035  72.254  1.00  0.00    -0.085 C  
BRANCH  19  20
HETATM   20  C   UNL     1      -7.302   7.237  70.737  1.00  0.00    -0.071 C  
BRANCH  20  21
HETATM   21  C   UNL     1      -7.791   8.620  70.287  1.00  0.00    -0.097 C  
BRANCH  21  22
HETATM   22  C   UNL     1      -7.489   8.910  68.814  1.00  0.00    -0.083 C  
BRANCH  22  23
HETATM   23  C   UNL     1      -8.093  10.231  68.322  1.00  0.00    -0.107 C  
BRANCH  23  24
HETATM   24  C   UNL     1      -9.591  10.097  68.047  1.00  0.00    -0.145 C  
BRANCH  24  25
HETATM   25  N   UNL     1      -9.954  10.781  66.780  1.00  0.00    -0.199 NA 
HETATM   26  C   UNL     1      -9.691  10.183  65.576  1.00  0.00    -0.281 A  
HETATM   27  C   UNL     1     -10.101  10.799  64.391  1.00  0.00    -0.419 A  
HETATM   28  C   UNL     1      -9.026   8.837  65.402  1.00  0.00    -0.211 C  
HETATM   29  C   UNL     1     -10.749  12.025  64.394  1.00  0.00    -0.323 A  
HETATM   30  N   UNL     1     -11.249  12.493  63.176  1.00  0.00    -0.738 NA 
HETATM   31  C   UNL     1     -11.070  12.600  65.635  1.00  0.00    -0.327 A  
HETATM   32  H1  UNL     1     -11.726  13.395  63.178  1.00  0.00     0.000 HD 
HETATM   33  C   UNL     1     -10.629  11.982  66.837  1.00  0.00    -0.229 A  
HETATM   34  H2  UNL     1     -11.864  11.788  62.770  1.00  0.00     0.000 HD 
HETATM   35  C   UNL     1     -10.927  12.623  68.067  1.00  0.00    -0.266 A  
HETATM   36  C   UNL     1     -11.673  13.798  68.128  1.00  0.00    -0.392 A  
HETATM   37  C   UNL     1     -12.137  14.372  66.959  1.00  0.00    -0.374 A  
HETATM   38  C   UNL     1     -11.833  13.786  65.732  1.00  0.00    -0.392 A  
ENDBRANCH  24  25
ENDBRANCH  23  24
ENDBRANCH  22  23
ENDBRANCH  21  22
ENDBRANCH  20  21
ENDBRANCH  19  20
ENDBRANCH  18  19
ENDBRANCH  17  18
ENDBRANCH  16  17
ENDBRANCH  15  16
ENDBRANCH  14  15
TORSDOF 11
ENDMDL
MODEL      180
REMARK 921   NORMALIZED FREE ENERGY PREDICTED BY IDOCK:   -5.94 KCAL/MOL
REMARK 922        TOTAL FREE ENERGY PREDICTED BY IDOCK:  -11.10 KCAL/MOL
REMARK 923 INTER-LIGAND FREE ENERGY PREDICTED BY IDOCK:   -7.71 KCAL/MOL
REMARK 924 INTRA-LIGAND FREE ENERGY PREDICTED BY IDOCK:   -3.39 KCAL/MOL
REMARK 927      BINDING AFFINITY PREDICTED BY RF-SCORE:    0.00 PKD
ROOT
HETATM    1  C   UNL     1     -13.114   7.406  71.342  1.00  0.00    -0.401 C  
HETATM    2  C   UNL     1     -11.652   7.021  71.357  1.00  0.00    -0.292 A  
HETATM    3  C   UNL     1     -11.335   5.675  71.220  1.00  0.00    -0.059 A  
HETATM    4  C   UNL     1     -10.018   5.239  71.210  1.00  0.00    -0.194 A  
HETATM    5  N   UNL     1      -9.785   3.890  70.925  1.00  0.00    -0.188 NA 
HETATM    6  C   UNL     1      -8.994   6.205  71.246  1.00  0.00    -0.140 A  
HETATM    7  H2  UNL     1     -10.226   3.652  70.036  1.00  0.00     0.000 HD 
HETATM    8  C   UNL     1      -7.630   5.855  71.111  1.00  0.00    -0.100 A  
HETATM    9  H1  UNL     1      -8.817   3.570  70.917  1.00  0.00     0.000 HD 
HETATM   10  C   UNL     1      -6.614   6.808  71.163  1.00  0.00    -0.053 A  
HETATM   11  C   UNL     1      -6.930   8.138  71.363  1.00  0.00    -0.059 A  
HETATM   12  C   UNL     1      -8.269   8.518  71.494  1.00  0.00    -0.199 A  
HETATM   13  C   UNL     1      -9.326   7.576  71.409  1.00  0.00    -0.141 A  
HETATM   14  N   UNL     1     -10.652   7.949  71.458  1.00  0.00    -0.219 NA 
ENDROOT
BRANCH  14  15
HETATM   15  C   UNL     1     -11.013   9.390  71.553  1.00  0.00    -0.359 C  
BRANCH  15  16
HETATM   16  C   UNL     1     -10.537  10.148  70.315  1.00  0.00    -0.324 C  
BRANCH  16  17
HETATM   17  C   UNL     1     -11.516  10.000  69.154  1.00  0.00    -0.090 C  
BRANCH  17  18
HETATM   18  C   UNL     1     -10.867   9.411  67.898  1.00  0.00    -0.215 C  
BRANCH  18  19
HETATM   19  C   UNL     1     -10.583   7.918  68.040  1.00  0.00    -0.194 C  
BRANCH  19  20
HETATM   20  C   UNL     1      -9.261   7.492  67.399  1.00  0.00    -0.149 C  
BRANCH  20  21
HETATM   21  C   UNL     1      -8.044   8.278  67.904  1.00  0.00    -0.127 C  
BRANCH  21  22
HETATM   22  C   UNL     1      -7.239   8.925  66.772  1.00  0.00    -0.082 C  
BRANCH  22  23
HETATM   23  C   UNL     1      -8.063   9.155  65.500  1.00  0.00    -0.115 C  
BRANCH  23  24
HETATM   24  C   UNL     1      -7.921  10.589  64.990  1.00  0.00    -0.079 C  
BRANCH  24  25
HETATM   25  N   UNL     1      -9.253  11.237  64.871  1.00  0.00    -0.163 NA 
HETATM   26  C   UNL     1     -10.034  11.008  63.770  1.00  0.00    -0.350 A  
HETATM   27  C   UNL     1     -11.315  11.563  63.700  1.00  0.00    -0.412 A  
HETATM   28  C   UNL     1      -9.652  10.128  62.603  1.00  0.00    -0.200 C  
HETATM   29  C   UNL     1     -11.814  12.370  64.710  1.00  0.00    -0.382 A  
HETATM   30  N   UNL     1     -13.154  12.760  64.621  1.00  0.00    -0.810 NA 
HETATM   31  C   UNL     1     -11.032  12.548  65.863  1.00  0.00    -0.314 A  
HETATM   32  H1  UNL     1     -13.522  13.353  65.365  1.00  0.00     0.000 HD 
HETATM   33  C   UNL     1      -9.720  12.002  65.920  1.00  0.00    -0.239 A  
HETATM   34  H2  UNL     1     -13.741  11.930  64.531  1.00  0.00     0.000 HD 
HETATM   35  C   UNL     1      -8.942  12.250  67.080  1.00  0.00    -0.204 A  
HETATM   36  C   UNL     1      -9.441  12.961  68.168  1.00  0.00    -0.218 A  
HETATM   37  C   UNL     1     -10.732  13.453  68.127  1.00  0.00    -0.267 A  
HETATM   38  C   UNL     1     -11.512  13.255  66.989  1.00  0.00    -0.378 A  
ENDBRANCH  24  25
ENDBRANCH  23  24
ENDBRANCH  22  23
ENDBRANCH  21  22
ENDBRANCH  20  21
ENDBRANCH  19  20
ENDBRANCH  18  19
ENDBRANCH  17  18
ENDBRANCH  16  17
ENDBRANCH  15  16
ENDBRANCH  14  15
TORSDOF 11
ENDMDL
MODEL      181
REMARK 921   NORMALIZED FREE ENERGY PREDICTED BY IDOCK:   -5.93 KCAL/MOL
REMARK 922        TOTAL FREE ENERGY PREDICTED BY IDOCK:  -11.09 KCAL/MOL
REMARK 923 INTER-LIGAND FREE ENERGY PREDICTED BY IDOCK:   -8.46 KCAL/MOL
REMARK 924 INTRA-LIGAND FREE ENERGY PREDICTED BY IDOCK:   -2.63 KCAL/MOL
REMARK 927      BINDING AFFINITY PREDICTED BY RF-SCORE:    0.00 PKD
ROOT
HETATM    1  C   UNL     1     -12.571   7.708  71.557  1.00  0.00    -0.369 C  
HETATM    2  C   UNL     1     -11.078   7.889  71.719  1.00  0.00    -0.253 A  
HETATM    3  C   UNL     1     -10.554   7.837  73.005  1.00  0.00    -0.441 A  
HETATM    4  C   UNL     1      -9.195   7.979  73.239  1.00  0.00    -0.278 A  
HETATM    5  N   UNL     1      -8.738   7.770  74.544  1.00  0.00    -0.445 NA 
HETATM    6  C   UNL     1      -8.333   8.084  72.130  1.00  0.00    -0.188 A  
HETATM    7  H2  UNL     1      -9.040   6.850  74.864  1.00  0.00     0.000 HD 
HETATM    8  C   UNL     1      -6.926   8.104  72.275  1.00  0.00    -0.097 A  
HETATM    9  H1  UNL     1      -7.738   7.875  74.716  1.00  0.00     0.000 HD 
HETATM   10  C   UNL     1      -6.072   8.225  71.180  1.00  0.00    -0.035 A  
HETATM   11  C   UNL     1      -6.600   8.341  69.908  1.00  0.00    -0.039 A  
HETATM   12  C   UNL     1      -7.986   8.318  69.730  1.00  0.00    -0.106 A  
HETATM   13  C   UNL     1      -8.878   8.161  70.822  1.00  0.00    -0.141 A  
HETATM   14  N   UNL     1     -10.242   8.058  70.650  1.00  0.00    -0.195 NA 
ENDROOT
BRANCH  14  15
HETATM   15  C   UNL     1     -10.819   8.061  69.277  1.00  0.00    -0.059 C  
BRANCH  15  16
HETATM   16  C   UNL     1     -10.779   6.658  68.674  1.00  0.00    -0.303 C  
BRANCH  16  17
HETATM   17  C   UNL     1     -11.160   6.671  67.196  1.00  0.00    -0.427 C  
BRANCH  17  18
HETATM   18  C   UNL     1     -10.443   5.585  66.387  1.00  0.00    -0.294 C  
BRANCH  18  19
HETATM   19  C   UNL     1      -9.186   5.078  67.087  1.00  0.00    -0.124 C  
BRANCH  19  20
HETATM   20  C   UNL     1      -7.904   5.345  66.295  1.00  0.00    -0.100 C  
BRANCH  20  21
HETATM   21  C   UNL     1      -7.220   6.671  66.653  1.00  0.00    -0.073 C  
BRANCH  21  22
HETATM   22  C   UNL     1      -7.103   7.624  65.459  1.00  0.00    -0.063 C  
BRANCH  22  23
HETATM   23  C   UNL     1      -8.367   8.459  65.227  1.00  0.00    -0.169 C  
BRANCH  23  24
HETATM   24  C   UNL     1      -8.035   9.937  65.020  1.00  0.00    -0.137 C  
BRANCH  24  25
HETATM   25  N   UNL     1      -9.275  10.753  64.983  1.00  0.00    -0.203 NA 
HETATM   26  C   UNL     1      -9.933  10.952  63.799  1.00  0.00    -0.351 A  
HETATM   27  C   UNL     1     -11.138  11.659  63.784  1.00  0.00    -0.499 A  
HETATM   28  C   UNL     1      -9.494  10.406  62.459  1.00  0.00    -0.292 C  
HETATM   29  C   UNL     1     -11.681  12.196  64.941  1.00  0.00    -0.313 A  
HETATM   30  N   UNL     1     -12.957  12.759  64.854  1.00  0.00    -0.853 NA 
HETATM   31  C   UNL     1     -11.033  11.933  66.159  1.00  0.00    -0.352 A  
HETATM   32  H1  UNL     1     -13.357  13.153  65.705  1.00  0.00     0.000 HD 
HETATM   33  C   UNL     1      -9.794  11.234  66.167  1.00  0.00    -0.225 A  
HETATM   34  H2  UNL     1     -13.604  12.072  64.465  1.00  0.00     0.000 HD 
HETATM   35  C   UNL     1      -9.145  11.037  67.412  1.00  0.00    -0.143 A  
HETATM   36  C   UNL     1      -9.706  11.459  68.615  1.00  0.00    -0.182 A  
HETATM   37  C   UNL     1     -10.931  12.099  68.608  1.00  0.00    -0.284 A  
HETATM   38  C   UNL     1     -11.580  12.339  67.398  1.00  0.00    -0.425 A  
ENDBRANCH  24  25
ENDBRANCH  23  24
ENDBRANCH  22  23
ENDBRANCH  21  22
ENDBRANCH  20  21
ENDBRANCH  19  20
ENDBRANCH  18  19
ENDBRANCH  17  18
ENDBRANCH  16  17
ENDBRANCH  15  16
ENDBRANCH  14  15
TORSDOF 11
ENDMDL
MODEL      182
REMARK 921   NORMALIZED FREE ENERGY PREDICTED BY IDOCK:   -5.93 KCAL/MOL
REMARK 922        TOTAL FREE ENERGY PREDICTED BY IDOCK:  -11.09 KCAL/MOL
REMARK 923 INTER-LIGAND FREE ENERGY PREDICTED BY IDOCK:   -9.01 KCAL/MOL
REMARK 924 INTRA-LIGAND FREE ENERGY PREDICTED BY IDOCK:   -2.08 KCAL/MOL
REMARK 927      BINDING AFFINITY PREDICTED BY RF-SCORE:    0.00 PKD
ROOT
HETATM    1  C   UNL     1     -10.823  11.733  65.227  1.00  0.00    -0.343 C  
HETATM    2  C   UNL     1     -11.191  11.955  66.677  1.00  0.00    -0.328 A  
HETATM    3  C   UNL     1     -11.541  13.242  67.067  1.00  0.00    -0.404 A  
HETATM    4  C   UNL     1     -11.905  13.528  68.374  1.00  0.00    -0.373 A  
HETATM    5  N   UNL     1     -12.379  14.816  68.646  1.00  0.00    -0.591 NA 
HETATM    6  C   UNL     1     -12.006  12.463  69.288  1.00  0.00    -0.308 A  
HETATM    7  H2  UNL     1     -13.161  15.026  68.026  1.00  0.00     0.000 HD 
HETATM    8  C   UNL     1     -12.492  12.648  70.603  1.00  0.00    -0.323 A  
HETATM    9  H1  UNL     1     -12.647  15.026  69.608  1.00  0.00     0.000 HD 
HETATM   10  C   UNL     1     -12.577  11.598  71.515  1.00  0.00    -0.341 A  
HETATM   11  C   UNL     1     -12.168  10.331  71.143  1.00  0.00    -0.500 A  
HETATM   12  C   UNL     1     -11.688  10.113  69.849  1.00  0.00    -0.248 A  
HETATM   13  C   UNL     1     -11.624  11.155  68.889  1.00  0.00    -0.317 A  
HETATM   14  N   UNL     1     -11.227  10.935  67.587  1.00  0.00    -0.356 NA 
ENDROOT
BRANCH  14  15
HETATM   15  C   UNL     1     -10.897   9.555  67.136  1.00  0.00    -0.086 C  
BRANCH  15  16
HETATM   16  C   UNL     1      -9.459   9.197  67.507  1.00  0.00    -0.169 C  
BRANCH  16  17
HETATM   17  C   UNL     1      -8.623   8.877  66.271  1.00  0.00    -0.145 C  
BRANCH  17  18
HETATM   18  C   UNL     1      -7.714  10.036  65.850  1.00  0.00    -0.116 C  
BRANCH  18  19
HETATM   19  C   UNL     1      -6.865  10.554  67.007  1.00  0.00    -0.087 C  
BRANCH  19  20
HETATM   20  C   UNL     1      -6.970  12.068  67.201  1.00  0.00    -0.134 C  
BRANCH  20  21
HETATM   21  C   UNL     1      -8.007  12.489  68.251  1.00  0.00    -0.153 C  
BRANCH  21  22
HETATM   22  C   UNL     1      -7.824  13.933  68.727  1.00  0.00    -0.079 C  
BRANCH  22  23
HETATM   23  C   UNL     1      -7.440  14.897  67.598  1.00  0.00    -0.205 C  
BRANCH  23  24
HETATM   24  C   UNL     1      -6.958  16.241  68.146  1.00  0.00    -0.128 C  
BRANCH  24  25
HETATM   25  N   UNL     1      -7.745  17.357  67.562  1.00  0.00    -0.190 NA 
HETATM   26  C   UNL     1      -8.989  17.652  68.052  1.00  0.00    -0.264 A  
HETATM   27  C   UNL     1      -9.693  18.749  67.547  1.00  0.00    -0.343 A  
HETATM   28  C   UNL     1      -9.678  16.911  69.175  1.00  0.00    -0.177 C  
HETATM   29  C   UNL     1      -9.175  19.541  66.534  1.00  0.00    -0.365 A  
HETATM   30  N   UNL     1      -9.883  20.697  66.194  1.00  0.00    -0.550 NA 
HETATM   31  C   UNL     1      -7.874  19.270  66.081  1.00  0.00    -0.313 A  
HETATM   32  H1  UNL     1      -9.503  21.281  65.449  1.00  0.00     0.000 HD 
HETATM   33  C   UNL     1      -7.172  18.138  66.580  1.00  0.00    -0.214 A  
HETATM   34  H2  UNL     1     -10.021  21.266  67.030  1.00  0.00     0.000 HD 
HETATM   35  C   UNL     1      -5.881  17.868  66.058  1.00  0.00    -0.250 A  
HETATM   36  C   UNL     1      -5.273  18.699  65.120  1.00  0.00    -0.216 A  
HETATM   37  C   UNL     1      -5.941  19.821  64.669  1.00  0.00    -0.305 A  
HETATM   38  C   UNL     1      -7.224  20.098  65.137  1.00  0.00    -0.087 A  
ENDBRANCH  24  25
ENDBRANCH  23  24
ENDBRANCH  22  23
ENDBRANCH  21  22
ENDBRANCH  20  21
ENDBRANCH  19  20
ENDBRANCH  18  19
ENDBRANCH  17  18
ENDBRANCH  16  17
ENDBRANCH  15  16
ENDBRANCH  14  15
TORSDOF 11
ENDMDL
MODEL      183
REMARK 921   NORMALIZED FREE ENERGY PREDICTED BY IDOCK:   -5.92 KCAL/MOL
REMARK 922        TOTAL FREE ENERGY PREDICTED BY IDOCK:  -11.08 KCAL/MOL
REMARK 923 INTER-LIGAND FREE ENERGY PREDICTED BY IDOCK:   -8.93 KCAL/MOL
REMARK 924 INTRA-LIGAND FREE ENERGY PREDICTED BY IDOCK:   -2.15 KCAL/MOL
REMARK 927      BINDING AFFINITY PREDICTED BY RF-SCORE:    0.00 PKD
ROOT
HETATM    1  C   UNL     1     -13.166  10.435  71.310  1.00  0.00    -0.431 C  
HETATM    2  C   UNL     1     -11.828   9.732  71.326  1.00  0.00    -0.399 A  
HETATM    3  C   UNL     1     -11.655   8.686  72.223  1.00  0.00    -0.424 A  
HETATM    4  C   UNL     1     -10.464   7.979  72.291  1.00  0.00    -0.279 A  
HETATM    5  N   UNL     1     -10.425   6.853  73.120  1.00  0.00    -0.259 NA 
HETATM    6  C   UNL     1      -9.453   8.282  71.359  1.00  0.00    -0.227 A  
HETATM    7  H2  UNL     1     -11.179   6.218  72.860  1.00  0.00     0.000 HD 
HETATM    8  C   UNL     1      -8.260   7.527  71.276  1.00  0.00    -0.100 A  
HETATM    9  H1  UNL     1      -9.549   6.334  73.170  1.00  0.00     0.000 HD 
HETATM   10  C   UNL     1      -7.251   7.836  70.366  1.00  0.00    -0.058 A  
HETATM   11  C   UNL     1      -7.400   8.917  69.518  1.00  0.00    -0.071 A  
HETATM   12  C   UNL     1      -8.570   9.680  69.569  1.00  0.00    -0.177 A  
HETATM   13  C   UNL     1      -9.628   9.368  70.461  1.00  0.00    -0.271 A  
HETATM   14  N   UNL     1     -10.817  10.065  70.467  1.00  0.00    -0.311 NA 
ENDROOT
BRANCH  14  15
HETATM   15  C   UNL     1     -11.041  11.156  69.478  1.00  0.00    -0.252 C  
BRANCH  15  16
HETATM   16  C   UNL     1     -11.609  10.595  68.176  1.00  0.00    -0.217 C  
BRANCH  16  17
HETATM   17  C   UNL     1     -11.270  11.486  66.984  1.00  0.00    -0.365 C  
BRANCH  17  18
HETATM   18  C   UNL     1     -10.458  10.758  65.909  1.00  0.00    -0.270 C  
BRANCH  18  19
HETATM   19  C   UNL     1     -10.543  11.451  64.552  1.00  0.00    -0.390 C  
BRANCH  19  20
HETATM   20  C   UNL     1     -11.944  11.979  64.231  1.00  0.00    -0.424 C  
BRANCH  20  21
HETATM   21  C   UNL     1     -11.978  13.472  63.879  1.00  0.00    -0.491 C  
BRANCH  21  22
HETATM   22  C   UNL     1     -12.300  14.363  65.082  1.00  0.00    -0.383 C  
BRANCH  22  23
HETATM   23  C   UNL     1     -11.146  15.296  65.469  1.00  0.00    -0.330 C  
BRANCH  23  24
HETATM   24  C   UNL     1     -10.964  15.366  66.985  1.00  0.00    -0.306 C  
BRANCH  24  25
HETATM   25  N   UNL     1      -9.617  15.889  67.327  1.00  0.00    -0.216 NA 
HETATM   26  C   UNL     1      -9.443  17.221  67.595  1.00  0.00    -0.246 A  
HETATM   27  C   UNL     1      -8.187  17.692  67.987  1.00  0.00    -0.242 A  
HETATM   28  C   UNL     1     -10.538  18.262  67.565  1.00  0.00    -0.432 C  
HETATM   29  C   UNL     1      -7.092  16.848  68.087  1.00  0.00    -0.165 A  
HETATM   30  N   UNL     1      -5.916  17.379  68.625  1.00  0.00    -0.164 NA 
HETATM   31  C   UNL     1      -7.293  15.475  67.872  1.00  0.00    -0.155 A  
HETATM   32  H1  UNL     1      -5.110  16.758  68.699  1.00  0.00     0.000 HD 
HETATM   33  C   UNL     1      -8.567  15.003  67.450  1.00  0.00    -0.192 A  
HETATM   34  H2  UNL     1      -6.115  17.783  69.540  1.00  0.00     0.000 HD 
HETATM   35  C   UNL     1      -8.715  13.616  67.191  1.00  0.00    -0.224 A  
HETATM   36  C   UNL     1      -7.673  12.712  67.385  1.00  0.00    -0.161 A  
HETATM   37  C   UNL     1      -6.450  13.168  67.837  1.00  0.00    -0.138 A  
HETATM   38  C   UNL     1      -6.261  14.529  68.070  1.00  0.00    -0.162 A  
ENDBRANCH  24  25
ENDBRANCH  23  24
ENDBRANCH  22  23
ENDBRANCH  21  22
ENDBRANCH  20  21
ENDBRANCH  19  20
ENDBRANCH  18  19
ENDBRANCH  17  18
ENDBRANCH  16  17
ENDBRANCH  15  16
ENDBRANCH  14  15
TORSDOF 11
ENDMDL
MODEL      184
REMARK 921   NORMALIZED FREE ENERGY PREDICTED BY IDOCK:   -5.92 KCAL/MOL
REMARK 922        TOTAL FREE ENERGY PREDICTED BY IDOCK:  -11.08 KCAL/MOL
REMARK 923 INTER-LIGAND FREE ENERGY PREDICTED BY IDOCK:   -8.92 KCAL/MOL
REMARK 924 INTRA-LIGAND FREE ENERGY PREDICTED BY IDOCK:   -2.16 KCAL/MOL
REMARK 927      BINDING AFFINITY PREDICTED BY RF-SCORE:    0.00 PKD
ROOT
HETATM    1  C   UNL     1     -11.312  16.167  68.248  1.00  0.00    -0.316 C  
HETATM    2  C   UNL     1     -10.208  17.186  68.076  1.00  0.00    -0.332 A  
HETATM    3  C   UNL     1     -10.516  18.371  67.419  1.00  0.00    -0.443 A  
HETATM    4  C   UNL     1      -9.566  19.364  67.232  1.00  0.00    -0.328 A  
HETATM    5  N   UNL     1      -9.997  20.578  66.689  1.00  0.00    -0.576 NA 
HETATM    6  C   UNL     1      -8.294  19.188  67.809  1.00  0.00    -0.325 A  
HETATM    7  H2  UNL     1     -10.762  20.947  67.253  1.00  0.00     0.000 HD 
HETATM    8  C   UNL     1      -7.310  20.203  67.775  1.00  0.00    -0.333 A  
HETATM    9  H1  UNL     1      -9.298  21.308  66.551  1.00  0.00     0.000 HD 
HETATM   10  C   UNL     1      -6.044  20.025  68.332  1.00  0.00    -0.293 A  
HETATM   11  C   UNL     1      -5.720  18.822  68.929  1.00  0.00    -0.212 A  
HETATM   12  C   UNL     1      -6.672  17.800  68.984  1.00  0.00    -0.246 A  
HETATM   13  C   UNL     1      -7.979  17.965  68.458  1.00  0.00    -0.298 A  
HETATM   14  N   UNL     1      -8.950  16.994  68.577  1.00  0.00    -0.256 NA 
ENDROOT
BRANCH  14  15
HETATM   15  C   UNL     1      -8.656  15.739  69.323  1.00  0.00    -0.259 C  
BRANCH  15  16
HETATM   16  C   UNL     1      -8.298  14.611  68.357  1.00  0.00    -0.157 C  
BRANCH  16  17
HETATM   17  C   UNL     1      -6.809  14.280  68.405  1.00  0.00    -0.104 C  
BRANCH  17  18
HETATM   18  C   UNL     1      -6.302  14.019  69.826  1.00  0.00    -0.134 C  
BRANCH  18  19
HETATM   19  C   UNL     1      -5.809  12.587  70.010  1.00  0.00    -0.150 C  
BRANCH  19  20
HETATM   20  C   UNL     1      -6.726  11.545  69.366  1.00  0.00    -0.116 C  
BRANCH  20  21
HETATM   21  C   UNL     1      -6.027  10.661  68.325  1.00  0.00    -0.046 C  
BRANCH  21  22
HETATM   22  C   UNL     1      -6.866  10.449  67.062  1.00  0.00    -0.085 C  
BRANCH  22  23
HETATM   23  C   UNL     1      -8.252  11.101  67.140  1.00  0.00    -0.137 C  
BRANCH  23  24
HETATM   24  C   UNL     1      -9.358  10.056  67.282  1.00  0.00    -0.148 C  
BRANCH  24  25
HETATM   25  N   UNL     1     -10.236  10.376  68.437  1.00  0.00    -0.159 NA 
HETATM   26  C   UNL     1     -11.230  11.309  68.308  1.00  0.00    -0.267 A  
HETATM   27  C   UNL     1     -12.098  11.552  69.376  1.00  0.00    -0.345 A  
HETATM   28  C   UNL     1     -11.530  12.089  67.048  1.00  0.00    -0.402 C  
HETATM   29  C   UNL     1     -11.964  10.890  70.586  1.00  0.00    -0.368 A  
HETATM   30  N   UNL     1     -12.962  11.090  71.544  1.00  0.00    -0.450 NA 
HETATM   31  C   UNL     1     -10.983   9.891  70.689  1.00  0.00    -0.405 A  
HETATM   32  H1  UNL     1     -12.865  10.603  72.435  1.00  0.00     0.000 HD 
HETATM   33  C   UNL     1     -10.086   9.664  69.609  1.00  0.00    -0.224 A  
HETATM   34  H2  UNL     1     -13.871  10.868  71.137  1.00  0.00     0.000 HD 
HETATM   35  C   UNL     1      -9.074   8.683  69.773  1.00  0.00    -0.150 A  
HETATM   36  C   UNL     1      -8.970   7.914  70.929  1.00  0.00    -0.147 A  
HETATM   37  C   UNL     1      -9.870   8.107  71.960  1.00  0.00    -0.298 A  
HETATM   38  C   UNL     1     -10.856   9.085  71.845  1.00  0.00    -0.413 A  
ENDBRANCH  24  25
ENDBRANCH  23  24
ENDBRANCH  22  23
ENDBRANCH  21  22
ENDBRANCH  20  21
ENDBRANCH  19  20
ENDBRANCH  18  19
ENDBRANCH  17  18
ENDBRANCH  16  17
ENDBRANCH  15  16
ENDBRANCH  14  15
TORSDOF 11
ENDMDL
MODEL      185
REMARK 921   NORMALIZED FREE ENERGY PREDICTED BY IDOCK:   -5.90 KCAL/MOL
REMARK 922        TOTAL FREE ENERGY PREDICTED BY IDOCK:  -11.05 KCAL/MOL
REMARK 923 INTER-LIGAND FREE ENERGY PREDICTED BY IDOCK:   -9.85 KCAL/MOL
REMARK 924 INTRA-LIGAND FREE ENERGY PREDICTED BY IDOCK:   -1.20 KCAL/MOL
REMARK 927      BINDING AFFINITY PREDICTED BY RF-SCORE:    0.00 PKD
ROOT
HETATM    1  C   UNL     1     -12.129  13.265  67.281  1.00  0.00    -0.341 C  
HETATM    2  C   UNL     1     -11.527  14.614  66.960  1.00  0.00    -0.368 A  
HETATM    3  C   UNL     1     -11.656  15.089  65.661  1.00  0.00    -0.188 A  
HETATM    4  C   UNL     1     -11.146  16.324  65.288  1.00  0.00    -0.151 A  
HETATM    5  N   UNL     1     -11.444  16.786  64.002  1.00  0.00    -1.396 NA 
HETATM    6  C   UNL     1     -10.570  17.137  66.283  1.00  0.00    -0.185 A  
HETATM    7  H2  UNL     1     -12.456  16.786  63.870  1.00  0.00     0.000 HD 
HETATM    8  C   UNL     1     -10.142  18.458  66.014  1.00  0.00    -0.293 A  
HETATM    9  H1  UNL     1     -11.068  17.693  63.728  1.00  0.00     0.000 HD 
HETATM   10  C   UNL     1      -9.557  19.260  66.993  1.00  0.00    -0.394 A  
HETATM   11  C   UNL     1      -9.372  18.760  68.268  1.00  0.00    -0.374 A  
HETATM   12  C   UNL     1      -9.791  17.461  68.569  1.00  0.00    -0.320 A  
HETATM   13  C   UNL     1     -10.421  16.635  67.602  1.00  0.00    -0.320 A  
HETATM   14  N   UNL     1     -10.908  15.382  67.907  1.00  0.00    -0.290 NA 
ENDROOT
BRANCH  14  15
HETATM   15  C   UNL     1     -10.825  14.875  69.305  1.00  0.00    -0.266 C  
BRANCH  15  16
HETATM   16  C   UNL     1     -12.206  14.461  69.810  1.00  0.00    -0.370 C  
BRANCH  16  17
HETATM   17  C   UNL     1     -12.282  14.497  71.334  1.00  0.00    -0.425 C  
BRANCH  17  18
HETATM   18  C   UNL     1     -12.982  13.270  71.925  1.00  0.00    -0.409 C  
BRANCH  18  19
HETATM   19  C   UNL     1     -13.077  12.122  70.924  1.00  0.00     0.088 C  
BRANCH  19  20
HETATM   20  C   UNL     1     -12.528  10.800  71.468  1.00  0.00    -0.447 C  
BRANCH  20  21
HETATM   21  C   UNL     1     -11.964   9.871  70.384  1.00  0.00    -0.271 C  
BRANCH  21  22
HETATM   22  C   UNL     1     -10.548  10.255  69.945  1.00  0.00    -0.324 C  
BRANCH  22  23
HETATM   23  C   UNL     1     -10.463  10.665  68.471  1.00  0.00    -0.212 C  
BRANCH  23  24
HETATM   24  C   UNL     1      -9.013  10.770  67.999  1.00  0.00    -0.139 C  
BRANCH  24  25
HETATM   25  N   UNL     1      -8.783   9.904  66.814  1.00  0.00    -0.128 NA 
HETATM   26  C   UNL     1      -8.310   8.629  66.976  1.00  0.00    -0.106 A  
HETATM   27  C   UNL     1      -8.166   7.795  65.863  1.00  0.00    -0.128 A  
HETATM   28  C   UNL     1      -7.972   7.990  68.304  1.00  0.00    -0.128 C  
HETATM   29  C   UNL     1      -8.465   8.233  64.583  1.00  0.00    -0.051 A  
HETATM   30  N   UNL     1      -8.429   7.289  63.553  1.00  0.00    -0.344 NA 
HETATM   31  C   UNL     1      -9.009   9.520  64.434  1.00  0.00    -0.255 A  
HETATM   32  H1  UNL     1      -8.649   7.610  62.611  1.00  0.00     0.000 HD 
HETATM   33  C   UNL     1      -9.130  10.373  65.565  1.00  0.00    -0.177 A  
HETATM   34  H2  UNL     1      -9.038   6.506  63.792  1.00  0.00     0.000 HD 
HETATM   35  C   UNL     1      -9.634  11.684  65.363  1.00  0.00    -0.228 A  
HETATM   36  C   UNL     1     -10.052  12.132  64.112  1.00  0.00    -0.335 A  
HETATM   37  C   UNL     1      -9.973  11.285  63.023  1.00  0.00    -0.345 A  
HETATM   38  C   UNL     1      -9.452  10.002  63.181  1.00  0.00    -0.229 A  
ENDBRANCH  24  25
ENDBRANCH  23  24
ENDBRANCH  22  23
ENDBRANCH  21  22
ENDBRANCH  20  21
ENDBRANCH  19  20
ENDBRANCH  18  19
ENDBRANCH  17  18
ENDBRANCH  16  17
ENDBRANCH  15  16
ENDBRANCH  14  15
TORSDOF 11
ENDMDL
MODEL      186
REMARK 921   NORMALIZED FREE ENERGY PREDICTED BY IDOCK:   -5.89 KCAL/MOL
REMARK 922        TOTAL FREE ENERGY PREDICTED BY IDOCK:  -11.04 KCAL/MOL
REMARK 923 INTER-LIGAND FREE ENERGY PREDICTED BY IDOCK:   -8.72 KCAL/MOL
REMARK 924 INTRA-LIGAND FREE ENERGY PREDICTED BY IDOCK:   -2.32 KCAL/MOL
REMARK 927      BINDING AFFINITY PREDICTED BY RF-SCORE:    0.00 PKD
ROOT
HETATM    1  C   UNL     1     -10.194  17.973  65.753  1.00  0.00    -0.115 C  
HETATM    2  C   UNL     1     -10.673  16.564  66.019  1.00  0.00    -0.177 A  
HETATM    3  C   UNL     1     -11.011  15.777  64.926  1.00  0.00    -0.443 A  
HETATM    4  C   UNL     1     -11.445  14.469  65.082  1.00  0.00    -0.368 A  
HETATM    5  N   UNL     1     -11.627  13.704  63.925  1.00  0.00    -0.628 NA 
HETATM    6  C   UNL     1     -11.447  13.915  66.377  1.00  0.00    -0.354 A  
HETATM    7  H2  UNL     1     -10.765  13.710  63.378  1.00  0.00     0.000 HD 
HETATM    8  C   UNL     1     -11.751  12.554  66.608  1.00  0.00    -0.453 A  
HETATM    9  H1  UNL     1     -11.946  12.743  64.040  1.00  0.00     0.000 HD 
HETATM   10  C   UNL     1     -11.770  12.008  67.891  1.00  0.00    -0.393 A  
HETATM   11  C   UNL     1     -11.495  12.811  68.982  1.00  0.00    -0.360 A  
HETATM   12  C   UNL     1     -11.184  14.159  68.787  1.00  0.00    -0.294 A  
HETATM   13  C   UNL     1     -11.122  14.733  67.491  1.00  0.00    -0.319 A  
HETATM   14  N   UNL     1     -10.740  16.041  67.281  1.00  0.00    -0.313 NA 
ENDROOT
BRANCH  14  15
HETATM   15  C   UNL     1     -10.324  16.886  68.435  1.00  0.00    -0.338 C  
BRANCH  15  16
HETATM   16  C   UNL     1      -8.984  16.413  68.994  1.00  0.00    -0.239 C  
BRANCH  16  17
HETATM   17  C   UNL     1      -7.824  16.807  68.083  1.00  0.00    -0.182 C  
BRANCH  17  18
HETATM   18  C   UNL     1      -7.370  15.665  67.169  1.00  0.00    -0.247 C  
BRANCH  18  19
HETATM   19  C   UNL     1      -7.155  14.363  67.933  1.00  0.00    -0.169 C  
BRANCH  19  20
HETATM   20  C   UNL     1      -7.941  13.185  67.353  1.00  0.00    -0.174 C  
BRANCH  20  21
HETATM   21  C   UNL     1      -7.853  11.905  68.196  1.00  0.00    -0.134 C  
BRANCH  21  22
HETATM   22  C   UNL     1      -8.140  10.637  67.387  1.00  0.00    -0.112 C  
BRANCH  22  23
HETATM   23  C   UNL     1      -8.988   9.613  68.151  1.00  0.00    -0.123 C  
BRANCH  23  24
HETATM   24  C   UNL     1      -8.151   8.416  68.604  1.00  0.00    -0.122 C  
BRANCH  24  25
HETATM   25  N   UNL     1      -8.317   8.183  70.061  1.00  0.00    -0.120 NA 
HETATM   26  C   UNL     1      -7.354   8.604  70.939  1.00  0.00    -0.077 A  
HETATM   27  C   UNL     1      -7.551   8.446  72.314  1.00  0.00    -0.146 A  
HETATM   28  C   UNL     1      -6.073   9.307  70.551  1.00  0.00    -0.050 C  
HETATM   29  C   UNL     1      -8.692   7.844  72.821  1.00  0.00    -0.174 A  
HETATM   30  N   UNL     1      -8.868   7.861  74.208  1.00  0.00    -0.429 NA 
HETATM   31  C   UNL     1      -9.701   7.473  71.917  1.00  0.00    -0.191 A  
HETATM   32  H1  UNL     1      -9.707   7.418  74.581  1.00  0.00     0.000 HD 
HETATM   33  C   UNL     1      -9.486   7.612  70.519  1.00  0.00    -0.164 A  
HETATM   34  H2  UNL     1      -8.817   8.823  74.543  1.00  0.00     0.000 HD 
HETATM   35  C   UNL     1     -10.509   7.175  69.638  1.00  0.00    -0.241 A  
HETATM   36  C   UNL     1     -11.719   6.667  70.103  1.00  0.00    -0.412 A  
HETATM   37  C   UNL     1     -11.941   6.573  71.464  1.00  0.00    -0.383 A  
HETATM   38  C   UNL     1     -10.945   6.963  72.356  1.00  0.00    -0.280 A  
ENDBRANCH  24  25
ENDBRANCH  23  24
ENDBRANCH  22  23
ENDBRANCH  21  22
ENDBRANCH  20  21
ENDBRANCH  19  20
ENDBRANCH  18  19
ENDBRANCH  17  18
ENDBRANCH  16  17
ENDBRANCH  15  16
ENDBRANCH  14  15
TORSDOF 11
ENDMDL
MODEL      187
REMARK 921   NORMALIZED FREE ENERGY PREDICTED BY IDOCK:   -5.89 KCAL/MOL
REMARK 922        TOTAL FREE ENERGY PREDICTED BY IDOCK:  -11.03 KCAL/MOL
REMARK 923 INTER-LIGAND FREE ENERGY PREDICTED BY IDOCK:   -9.80 KCAL/MOL
REMARK 924 INTRA-LIGAND FREE ENERGY PREDICTED BY IDOCK:   -1.23 KCAL/MOL
REMARK 927      BINDING AFFINITY PREDICTED BY RF-SCORE:    0.00 PKD
ROOT
HETATM    1  C   UNL     1     -10.925  16.591  70.216  1.00  0.00    -0.178 C  
HETATM    2  C   UNL     1     -10.929  16.086  68.791  1.00  0.00    -0.320 A  
HETATM    3  C   UNL     1     -10.035  16.660  67.897  1.00  0.00    -0.254 A  
HETATM    4  C   UNL     1      -9.964  16.245  66.576  1.00  0.00    -0.277 A  
HETATM    5  N   UNL     1      -8.941  16.776  65.784  1.00  0.00    -0.487 NA 
HETATM    6  C   UNL     1     -10.758  15.153  66.176  1.00  0.00    -0.327 A  
HETATM    7  H2  UNL     1      -8.043  16.609  66.237  1.00  0.00     0.000 HD 
HETATM    8  C   UNL     1     -10.654  14.585  64.884  1.00  0.00    -0.450 A  
HETATM    9  H1  UNL     1      -8.889  16.470  64.812  1.00  0.00     0.000 HD 
HETATM   10  C   UNL     1     -11.450  13.515  64.481  1.00  0.00    -0.407 A  
HETATM   11  C   UNL     1     -12.384  12.987  65.353  1.00  0.00    -0.538 A  
HETATM   12  C   UNL     1     -12.507  13.521  66.639  1.00  0.00    -0.263 A  
HETATM   13  C   UNL     1     -11.686  14.587  67.089  1.00  0.00    -0.399 A  
HETATM   14  N   UNL     1     -11.745  15.069  68.378  1.00  0.00    -0.330 NA 
ENDROOT
BRANCH  14  15
HETATM   15  C   UNL     1     -12.660  14.433  69.366  1.00  0.00     0.066 C  
BRANCH  15  16
HETATM   16  C   UNL     1     -11.865  13.668  70.422  1.00  0.00    -0.308 C  
BRANCH  16  17
HETATM   17  C   UNL     1     -12.093  12.162  70.317  1.00  0.00    -0.385 C  
BRANCH  17  18
HETATM   18  C   UNL     1     -11.269  11.511  69.203  1.00  0.00    -0.337 C  
BRANCH  18  19
HETATM   19  C   UNL     1     -11.252   9.989  69.310  1.00  0.00    -0.213 C  
BRANCH  19  20
HETATM   20  C   UNL     1     -11.483   9.482  70.736  1.00  0.00    -0.378 C  
BRANCH  20  21
HETATM   21  C   UNL     1     -10.207   8.993  71.434  1.00  0.00    -0.399 C  
BRANCH  21  22
HETATM   22  C   UNL     1     -10.494   8.156  72.684  1.00  0.00    -0.401 C  
BRANCH  22  23
HETATM   23  C   UNL     1     -10.019   6.703  72.560  1.00  0.00    -0.184 C  
BRANCH  23  24
HETATM   24  C   UNL     1     -11.003   5.857  71.751  1.00  0.00    -0.269 C  
BRANCH  24  25
HETATM   25  N   UNL     1     -10.276   4.943  70.833  1.00  0.00    -0.223 NA 
HETATM   26  C   UNL     1      -9.669   3.816  71.322  1.00  0.00    -0.175 A  
HETATM   27  C   UNL     1      -9.050   2.924  70.443  1.00  0.00    -0.192 A  
HETATM   28  C   UNL     1      -9.656   3.398  72.775  1.00  0.00    -0.179 C  
HETATM   29  C   UNL     1      -9.007   3.160  69.077  1.00  0.00    -0.123 A  
HETATM   30  N   UNL     1      -8.496   2.145  68.263  1.00  0.00    -0.059 NA 
HETATM   31  C   UNL     1      -9.686   4.284  68.579  1.00  0.00    -0.164 A  
HETATM   32  H1  UNL     1      -8.464   2.318  67.259  1.00  0.00     0.000 HD 
HETATM   33  C   UNL     1     -10.293   5.202  69.479  1.00  0.00    -0.222 A  
HETATM   34  H2  UNL     1      -9.008   1.281  68.440  1.00  0.00     0.000 HD 
HETATM   35  C   UNL     1     -10.922   6.353  68.938  1.00  0.00    -0.412 A  
HETATM   36  C   UNL     1     -11.002   6.577  67.565  1.00  0.00    -0.444 A  
HETATM   37  C   UNL     1     -10.448   5.660  66.692  1.00  0.00    -0.340 A  
HETATM   38  C   UNL     1      -9.794   4.536  67.191  1.00  0.00    -0.225 A  
ENDBRANCH  24  25
ENDBRANCH  23  24
ENDBRANCH  22  23
ENDBRANCH  21  22
ENDBRANCH  20  21
ENDBRANCH  19  20
ENDBRANCH  18  19
ENDBRANCH  17  18
ENDBRANCH  16  17
ENDBRANCH  15  16
ENDBRANCH  14  15
TORSDOF 11
ENDMDL
MODEL      188
REMARK 921   NORMALIZED FREE ENERGY PREDICTED BY IDOCK:   -5.88 KCAL/MOL
REMARK 922        TOTAL FREE ENERGY PREDICTED BY IDOCK:  -11.02 KCAL/MOL
REMARK 923 INTER-LIGAND FREE ENERGY PREDICTED BY IDOCK:   -9.55 KCAL/MOL
REMARK 924 INTRA-LIGAND FREE ENERGY PREDICTED BY IDOCK:   -1.46 KCAL/MOL
REMARK 927      BINDING AFFINITY PREDICTED BY RF-SCORE:    0.00 PKD
ROOT
HETATM    1  C   UNL     1     -11.129  15.889  68.762  1.00  0.00    -0.328 C  
HETATM    2  C   UNL     1     -11.223  15.145  67.449  1.00  0.00    -0.323 A  
HETATM    3  C   UNL     1     -11.378  15.893  66.289  1.00  0.00     0.225 A  
HETATM    4  C   UNL     1     -11.457  15.289  65.043  1.00  0.00    -0.300 A  
HETATM    5  N   UNL     1     -11.469  16.122  63.919  1.00  0.00    -1.418 NA 
HETATM    6  C   UNL     1     -11.281  13.894  64.964  1.00  0.00    -0.342 A  
HETATM    7  H2  UNL     1     -10.654  16.734  63.945  1.00  0.00     0.000 HD 
HETATM    8  C   UNL     1     -11.220  13.216  63.724  1.00  0.00    -0.316 A  
HETATM    9  H1  UNL     1     -11.528  15.677  63.003  1.00  0.00     0.000 HD 
HETATM   10  C   UNL     1     -11.063  11.834  63.644  1.00  0.00    -0.518 A  
HETATM   11  C   UNL     1     -10.973  11.085  64.803  1.00  0.00    -0.142 A  
HETATM   12  C   UNL     1     -11.023  11.725  66.044  1.00  0.00    -0.355 A  
HETATM   13  C   UNL     1     -11.147  13.134  66.156  1.00  0.00    -0.282 A  
HETATM   14  N   UNL     1     -11.118  13.783  67.371  1.00  0.00    -0.290 NA 
ENDROOT
BRANCH  14  15
HETATM   15  C   UNL     1     -10.901  13.004  68.622  1.00  0.00    -0.259 C  
BRANCH  15  16
HETATM   16  C   UNL     1     -12.224  12.452  69.149  1.00  0.00    -0.058 C  
BRANCH  16  17
HETATM   17  C   UNL     1     -12.051  11.772  70.504  1.00  0.00    -0.439 C  
BRANCH  17  18
HETATM   18  C   UNL     1     -13.022  10.606  70.714  1.00  0.00    -0.396 C  
BRANCH  18  19
HETATM   19  C   UNL     1     -12.805   9.908  72.054  1.00  0.00    -0.488 C  
BRANCH  19  20
HETATM   20  C   UNL     1     -12.765   8.383  71.939  1.00  0.00    -0.390 C  
BRANCH  20  21
HETATM   21  C   UNL     1     -11.497   7.750  72.528  1.00  0.00    -0.428 C  
BRANCH  21  22
HETATM   22  C   UNL     1     -11.282   6.305  72.071  1.00  0.00    -0.327 C  
BRANCH  22  23
HETATM   23  C   UNL     1     -10.378   6.189  70.838  1.00  0.00    -0.267 C  
BRANCH  23  24
HETATM   24  C   UNL     1     -11.004   6.864  69.617  1.00  0.00    -0.259 C  
BRANCH  24  25
HETATM   25  N   UNL     1      -9.953   7.282  68.654  1.00  0.00    -0.161 NA 
HETATM   26  C   UNL     1      -9.237   8.429  68.871  1.00  0.00    -0.147 A  
HETATM   27  C   UNL     1      -8.201   8.777  68.000  1.00  0.00    -0.118 A  
HETATM   28  C   UNL     1      -9.428   9.362  70.045  1.00  0.00    -0.257 C  
HETATM   29  C   UNL     1      -7.890   8.002  66.894  1.00  0.00    -0.103 A  
HETATM   30  N   UNL     1      -6.749   8.348  66.164  1.00  0.00    -0.060 NA 
HETATM   31  C   UNL     1      -8.586   6.795  66.714  1.00  0.00    -0.119 A  
HETATM   32  H1  UNL     1      -6.519   7.778  65.350  1.00  0.00     0.000 HD 
HETATM   33  C   UNL     1      -9.656   6.458  67.588  1.00  0.00    -0.122 A  
HETATM   34  H2  UNL     1      -5.944   8.380  66.791  1.00  0.00     0.000 HD 
HETATM   35  C   UNL     1     -10.370   5.257  67.340  1.00  0.00    -0.237 A  
HETATM   36  C   UNL     1     -10.022   4.389  66.307  1.00  0.00    -0.255 A  
HETATM   37  C   UNL     1      -8.955   4.700  65.486  1.00  0.00    -0.142 A  
HETATM   38  C   UNL     1      -8.253   5.888  65.682  1.00  0.00    -0.134 A  
ENDBRANCH  24  25
ENDBRANCH  23  24
ENDBRANCH  22  23
ENDBRANCH  21  22
ENDBRANCH  20  21
ENDBRANCH  19  20
ENDBRANCH  18  19
ENDBRANCH  17  18
ENDBRANCH  16  17
ENDBRANCH  15  16
ENDBRANCH  14  15
TORSDOF 11
ENDMDL
MODEL      189
REMARK 921   NORMALIZED FREE ENERGY PREDICTED BY IDOCK:   -5.88 KCAL/MOL
REMARK 922        TOTAL FREE ENERGY PREDICTED BY IDOCK:  -11.01 KCAL/MOL
REMARK 923 INTER-LIGAND FREE ENERGY PREDICTED BY IDOCK:   -9.29 KCAL/MOL
REMARK 924 INTRA-LIGAND FREE ENERGY PREDICTED BY IDOCK:   -1.72 KCAL/MOL
REMARK 927      BINDING AFFINITY PREDICTED BY RF-SCORE:    0.00 PKD
ROOT
HETATM    1  C   UNL     1     -11.011   5.533  70.932  1.00  0.00    -0.194 C  
HETATM    2  C   UNL     1     -11.544   6.947  70.983  1.00  0.00    -0.328 A  
HETATM    3  C   UNL     1     -12.540   7.231  71.908  1.00  0.00    -0.326 A  
HETATM    4  C   UNL     1     -13.074   8.506  72.029  1.00  0.00    -0.371 A  
HETATM    5  N   UNL     1     -13.968   8.736  73.080  1.00  0.00    -1.162 NA 
HETATM    6  C   UNL     1     -12.515   9.540  71.255  1.00  0.00    -0.432 A  
HETATM    7  H2  UNL     1     -13.528   8.470  73.961  1.00  0.00     0.000 HD 
HETATM    8  C   UNL     1     -12.912  10.889  71.409  1.00  0.00    -0.527 A  
HETATM    9  H1  UNL     1     -14.360   9.673  73.169  1.00  0.00     0.000 HD 
HETATM   10  C   UNL     1     -12.372  11.912  70.632  1.00  0.00    -0.405 A  
HETATM   11  C   UNL     1     -11.427  11.616  69.668  1.00  0.00    -0.359 A  
HETATM   12  C   UNL     1     -11.009  10.294  69.494  1.00  0.00    -0.300 A  
HETATM   13  C   UNL     1     -11.514   9.237  70.295  1.00  0.00    -0.162 A  
HETATM   14  N   UNL     1     -11.051   7.943  70.186  1.00  0.00    -0.238 NA 
ENDROOT
BRANCH  14  15
HETATM   15  C   UNL     1      -9.948   7.628  69.236  1.00  0.00    -0.180 C  
BRANCH  15  16
HETATM   16  C   UNL     1      -8.778   6.975  69.968  1.00  0.00    -0.142 C  
BRANCH  16  17
HETATM   17  C   UNL     1      -7.962   8.000  70.752  1.00  0.00    -0.099 C  
BRANCH  17  18
HETATM   18  C   UNL     1      -7.621   9.245  69.928  1.00  0.00    -0.093 C  
BRANCH  18  19
HETATM   19  C   UNL     1      -6.351   9.061  69.102  1.00  0.00    -0.043 C  
BRANCH  19  20
HETATM   20  C   UNL     1      -5.454  10.301  69.090  1.00  0.00    -0.038 C  
BRANCH  20  21
HETATM   21  C   UNL     1      -5.994  11.465  69.931  1.00  0.00    -0.122 C  
BRANCH  21  22
HETATM   22  C   UNL     1      -6.507  12.630  69.080  1.00  0.00    -0.097 C  
BRANCH  22  23
HETATM   23  C   UNL     1      -7.868  12.351  68.430  1.00  0.00    -0.142 C  
BRANCH  23  24
HETATM   24  C   UNL     1      -7.797  12.462  66.907  1.00  0.00    -0.011 C  
BRANCH  24  25
HETATM   25  N   UNL     1      -9.144  12.727  66.339  1.00  0.00    -0.149 NA 
HETATM   26  C   UNL     1      -9.988  11.687  66.055  1.00  0.00    -0.228 A  
HETATM   27  C   UNL     1     -11.279  11.947  65.589  1.00  0.00    -0.360 A  
HETATM   28  C   UNL     1      -9.664  10.225  66.263  1.00  0.00    -0.263 C  
HETATM   29  C   UNL     1     -11.729  13.241  65.377  1.00  0.00    -0.343 A  
HETATM   30  N   UNL     1     -13.078  13.409  65.051  1.00  0.00    -0.705 NA 
HETATM   31  C   UNL     1     -10.880  14.302  65.730  1.00  0.00    -0.303 A  
HETATM   32  H1  UNL     1     -13.409  14.361  64.895  1.00  0.00     0.000 HD 
HETATM   33  C   UNL     1      -9.558  14.033  66.180  1.00  0.00    -0.241 A  
HETATM   34  H2  UNL     1     -13.656  12.964  65.764  1.00  0.00     0.000 HD 
HETATM   35  C   UNL     1      -8.714  15.134  66.475  1.00  0.00    -0.280 A  
HETATM   36  C   UNL     1      -9.157  16.452  66.384  1.00  0.00    -0.341 A  
HETATM   37  C   UNL     1     -10.456  16.708  65.988  1.00  0.00    -0.306 A  
HETATM   38  C   UNL     1     -11.301  15.650  65.659  1.00  0.00    -0.001 A  
ENDBRANCH  24  25
ENDBRANCH  23  24
ENDBRANCH  22  23
ENDBRANCH  21  22
ENDBRANCH  20  21
ENDBRANCH  19  20
ENDBRANCH  18  19
ENDBRANCH  17  18
ENDBRANCH  16  17
ENDBRANCH  15  16
ENDBRANCH  14  15
TORSDOF 11
ENDMDL
MODEL      190
REMARK 921   NORMALIZED FREE ENERGY PREDICTED BY IDOCK:   -5.86 KCAL/MOL
REMARK 922        TOTAL FREE ENERGY PREDICTED BY IDOCK:  -10.98 KCAL/MOL
REMARK 923 INTER-LIGAND FREE ENERGY PREDICTED BY IDOCK:   -9.27 KCAL/MOL
REMARK 924 INTRA-LIGAND FREE ENERGY PREDICTED BY IDOCK:   -1.71 KCAL/MOL
REMARK 927      BINDING AFFINITY PREDICTED BY RF-SCORE:    0.00 PKD
ROOT
HETATM    1  C   UNL     1     -11.772  11.053  68.707  1.00  0.00    -0.383 C  
HETATM    2  C   UNL     1     -10.943  10.200  69.640  1.00  0.00    -0.264 A  
HETATM    3  C   UNL     1      -9.563  10.212  69.476  1.00  0.00    -0.243 A  
HETATM    4  C   UNL     1      -8.730   9.469  70.299  1.00  0.00    -0.235 A  
HETATM    5  N   UNL     1      -7.350   9.650  70.156  1.00  0.00    -0.121 NA 
HETATM    6  C   UNL     1      -9.305   8.769  71.376  1.00  0.00    -0.328 A  
HETATM    7  H2  UNL     1      -7.128  10.641  70.257  1.00  0.00     0.000 HD 
HETATM    8  C   UNL     1      -8.517   8.093  72.336  1.00  0.00    -0.238 A  
HETATM    9  H1  UNL     1      -6.738   9.104  70.761  1.00  0.00     0.000 HD 
HETATM   10  C   UNL     1      -9.086   7.385  73.394  1.00  0.00    -0.234 A  
HETATM   11  C   UNL     1     -10.461   7.323  73.517  1.00  0.00    -0.421 A  
HETATM   12  C   UNL     1     -11.268   7.986  72.589  1.00  0.00    -0.462 A  
HETATM   13  C   UNL     1     -10.717   8.743  71.523  1.00  0.00    -0.301 A  
HETATM   14  N   UNL     1     -11.501   9.465  70.649  1.00  0.00    -0.274 NA 
ENDROOT
BRANCH  14  15
HETATM   15  C   UNL     1     -12.978   9.506  70.839  1.00  0.00    -0.122 C  
BRANCH  15  16
HETATM   16  C   UNL     1     -13.339  10.333  72.071  1.00  0.00    -0.466 C  
BRANCH  16  17
HETATM   17  C   UNL     1     -12.846  11.772  71.948  1.00  0.00    -0.338 C  
BRANCH  17  18
HETATM   18  C   UNL     1     -13.869  12.797  72.444  1.00  0.00    -0.360 C  
BRANCH  18  19
HETATM   19  C   UNL     1     -13.291  14.208  72.507  1.00  0.00    -0.616 C  
BRANCH  19  20
HETATM   20  C   UNL     1     -12.011  14.373  71.684  1.00  0.00    -0.257 C  
BRANCH  20  21
HETATM   21  C   UNL     1     -12.206  15.170  70.387  1.00  0.00    -0.391 C  
BRANCH  21  22
HETATM   22  C   UNL     1     -10.897  15.407  69.629  1.00  0.00    -0.288 C  
BRANCH  22  23
HETATM   23  C   UNL     1     -11.079  16.239  68.354  1.00  0.00    -0.362 C  
BRANCH  23  24
HETATM   24  C   UNL     1      -9.885  16.091  67.411  1.00  0.00    -0.236 C  
BRANCH  24  25
HETATM   25  N   UNL     1      -9.650  14.661  67.084  1.00  0.00    -0.227 NA 
HETATM   26  C   UNL     1     -10.441  14.026  66.165  1.00  0.00    -0.297 A  
HETATM   27  C   UNL     1     -10.168  12.702  65.809  1.00  0.00    -0.288 A  
HETATM   28  C   UNL     1     -11.593  14.664  65.422  1.00  0.00    -0.345 C  
HETATM   29  C   UNL     1      -9.125  11.995  66.386  1.00  0.00    -0.193 A  
HETATM   30  N   UNL     1      -8.838  10.730  65.865  1.00  0.00    -0.174 NA 
HETATM   31  C   UNL     1      -8.280  12.673  67.280  1.00  0.00    -0.184 A  
HETATM   32  H1  UNL     1      -8.070  10.209  66.289  1.00  0.00     0.000 HD 
HETATM   33  C   UNL     1      -8.577  14.011  67.658  1.00  0.00    -0.188 A  
HETATM   34  H2  UNL     1      -8.678  10.807  64.860  1.00  0.00     0.000 HD 
HETATM   35  C   UNL     1      -7.730  14.643  68.605  1.00  0.00    -0.135 A  
HETATM   36  C   UNL     1      -6.604  14.011  69.129  1.00  0.00    -0.113 A  
HETATM   37  C   UNL     1      -6.295  12.726  68.727  1.00  0.00    -0.080 A  
HETATM   38  C   UNL     1      -7.125  12.065  67.823  1.00  0.00    -0.108 A  
ENDBRANCH  24  25
ENDBRANCH  23  24
ENDBRANCH  22  23
ENDBRANCH  21  22
ENDBRANCH  20  21
ENDBRANCH  19  20
ENDBRANCH  18  19
ENDBRANCH  17  18
ENDBRANCH  16  17
ENDBRANCH  15  16
ENDBRANCH  14  15
TORSDOF 11
ENDMDL
MODEL      191
REMARK 921   NORMALIZED FREE ENERGY PREDICTED BY IDOCK:   -5.85 KCAL/MOL
REMARK 922        TOTAL FREE ENERGY PREDICTED BY IDOCK:  -10.96 KCAL/MOL
REMARK 923 INTER-LIGAND FREE ENERGY PREDICTED BY IDOCK:   -9.71 KCAL/MOL
REMARK 924 INTRA-LIGAND FREE ENERGY PREDICTED BY IDOCK:   -1.25 KCAL/MOL
REMARK 927      BINDING AFFINITY PREDICTED BY RF-SCORE:    0.00 PKD
ROOT
HETATM    1  C   UNL     1     -11.623  11.711  69.415  1.00  0.00    -0.392 C  
HETATM    2  C   UNL     1     -11.499  10.613  70.446  1.00  0.00    -0.334 A  
HETATM    3  C   UNL     1     -12.611  10.330  71.229  1.00  0.00    -0.522 A  
HETATM    4  C   UNL     1     -12.586   9.328  72.188  1.00  0.00    -0.371 A  
HETATM    5  N   UNL     1     -13.788   9.017  72.830  1.00  0.00    -1.006 NA 
HETATM    6  C   UNL     1     -11.431   8.530  72.289  1.00  0.00    -0.445 A  
HETATM    7  H2  UNL     1     -14.497   8.796  72.131  1.00  0.00     0.000 HD 
HETATM    8  C   UNL     1     -11.369   7.408  73.149  1.00  0.00    -0.209 A  
HETATM    9  H1  UNL     1     -13.769   8.280  73.535  1.00  0.00     0.000 HD 
HETATM   10  C   UNL     1     -10.221   6.626  73.264  1.00  0.00    -0.256 A  
HETATM   11  C   UNL     1      -9.096   6.949  72.529  1.00  0.00    -0.145 A  
HETATM   12  C   UNL     1      -9.125   8.047  71.665  1.00  0.00    -0.194 A  
HETATM   13  C   UNL     1     -10.291   8.839  71.502  1.00  0.00    -0.303 A  
HETATM   14  N   UNL     1     -10.357   9.875  70.595  1.00  0.00    -0.255 NA 
ENDROOT
BRANCH  14  15
HETATM   15  C   UNL     1      -9.194  10.161  69.710  1.00  0.00    -0.144 C  
BRANCH  15  16
HETATM   16  C   UNL     1      -9.099   9.122  68.594  1.00  0.00    -0.136 C  
BRANCH  16  17
HETATM   17  C   UNL     1     -10.477   8.739  68.063  1.00  0.00    -0.260 C  
BRANCH  17  18
HETATM   18  C   UNL     1     -10.696   9.169  66.609  1.00  0.00    -0.049 C  
BRANCH  18  19
HETATM   19  C   UNL     1      -9.389   9.530  65.910  1.00  0.00    -0.285 C  
BRANCH  19  20
HETATM   20  C   UNL     1      -9.448  10.871  65.176  1.00  0.00    -0.268 C  
BRANCH  20  21
HETATM   21  C   UNL     1     -10.836  11.524  65.188  1.00  0.00    -0.326 C  
BRANCH  21  22
HETATM   22  C   UNL     1     -10.900  12.776  66.068  1.00  0.00    -0.301 C  
BRANCH  22  23
HETATM   23  C   UNL     1      -9.556  13.504  66.181  1.00  0.00    -0.219 C  
BRANCH  23  24
HETATM   24  C   UNL     1      -9.223  13.849  67.633  1.00  0.00    -0.199 C  
BRANCH  24  25
HETATM   25  N   UNL     1      -9.383  15.305  67.875  1.00  0.00    -0.188 NA 
HETATM   26  C   UNL     1     -10.578  15.801  68.325  1.00  0.00    -0.271 A  
HETATM   27  C   UNL     1     -10.699  17.161  68.620  1.00  0.00    -0.306 A  
HETATM   28  C   UNL     1     -11.812  14.972  68.601  1.00  0.00    -0.325 C  
HETATM   29  C   UNL     1      -9.642  18.040  68.444  1.00  0.00    -0.334 A  
HETATM   30  N   UNL     1      -9.810  19.351  68.901  1.00  0.00    -0.444 NA 
HETATM   31  C   UNL     1      -8.403  17.514  68.043  1.00  0.00    -0.241 A  
HETATM   32  H1  UNL     1      -9.033  19.998  68.772  1.00  0.00     0.000 HD 
HETATM   33  C   UNL     1      -8.291  16.134  67.720  1.00  0.00    -0.154 A  
HETATM   34  H2  UNL     1     -10.073  19.333  69.887  1.00  0.00     0.000 HD 
HETATM   35  C   UNL     1      -7.036  15.652  67.267  1.00  0.00    -0.242 A  
HETATM   36  C   UNL     1      -5.915  16.474  67.180  1.00  0.00    -0.186 A  
HETATM   37  C   UNL     1      -6.017  17.805  67.536  1.00  0.00    -0.163 A  
HETATM   38  C   UNL     1      -7.244  18.318  67.954  1.00  0.00    -0.230 A  
ENDBRANCH  24  25
ENDBRANCH  23  24
ENDBRANCH  22  23
ENDBRANCH  21  22
ENDBRANCH  20  21
ENDBRANCH  19  20
ENDBRANCH  18  19
ENDBRANCH  17  18
ENDBRANCH  16  17
ENDBRANCH  15  16
ENDBRANCH  14  15
TORSDOF 11
ENDMDL
MODEL      192
REMARK 921   NORMALIZED FREE ENERGY PREDICTED BY IDOCK:   -5.84 KCAL/MOL
REMARK 922        TOTAL FREE ENERGY PREDICTED BY IDOCK:  -10.95 KCAL/MOL
REMARK 923 INTER-LIGAND FREE ENERGY PREDICTED BY IDOCK:   -8.94 KCAL/MOL
REMARK 924 INTRA-LIGAND FREE ENERGY PREDICTED BY IDOCK:   -2.01 KCAL/MOL
REMARK 927      BINDING AFFINITY PREDICTED BY RF-SCORE:    0.00 PKD
ROOT
HETATM    1  C   UNL     1     -12.095  13.302  65.755  1.00  0.00    -0.491 C  
HETATM    2  C   UNL     1     -11.031  14.105  66.468  1.00  0.00    -0.309 A  
HETATM    3  C   UNL     1     -11.249  15.467  66.633  1.00  0.00    -0.118 A  
HETATM    4  C   UNL     1     -10.330  16.273  67.289  1.00  0.00    -0.285 A  
HETATM    5  N   UNL     1     -10.694  17.601  67.535  1.00  0.00    -0.335 NA 
HETATM    6  C   UNL     1      -9.204  15.664  67.873  1.00  0.00    -0.190 A  
HETATM    7  H2  UNL     1     -11.580  17.620  68.041  1.00  0.00     0.000 HD 
HETATM    8  C   UNL     1      -8.286  16.391  68.667  1.00  0.00    -0.221 A  
HETATM    9  H1  UNL     1     -10.018  18.194  68.017  1.00  0.00     0.000 HD 
HETATM   10  C   UNL     1      -7.162  15.793  69.233  1.00  0.00    -0.211 A  
HETATM   11  C   UNL     1      -6.914  14.452  69.013  1.00  0.00    -0.114 A  
HETATM   12  C   UNL     1      -7.805  13.703  68.239  1.00  0.00    -0.141 A  
HETATM   13  C   UNL     1      -8.976  14.276  67.680  1.00  0.00    -0.194 A  
HETATM   14  N   UNL     1      -9.901  13.530  66.982  1.00  0.00    -0.244 NA 
ENDROOT
BRANCH  14  15
HETATM   15  C   UNL     1      -9.712  12.060  66.838  1.00  0.00    -0.203 C  
BRANCH  15  16
HETATM   16  C   UNL     1     -10.028  11.345  68.150  1.00  0.00    -0.196 C  
BRANCH  16  17
HETATM   17  C   UNL     1     -11.445  10.779  68.155  1.00  0.00    -0.346 C  
BRANCH  17  18
HETATM   18  C   UNL     1     -12.278  11.269  69.343  1.00  0.00    -0.315 C  
BRANCH  18  19
HETATM   19  C   UNL     1     -11.811  10.668  70.665  1.00  0.00    -0.463 C  
BRANCH  19  20
HETATM   20  C   UNL     1     -12.916  10.600  71.721  1.00  0.00    -0.577 C  
BRANCH  20  21
HETATM   21  C   UNL     1     -13.136   9.196  72.299  1.00  0.00    -0.509 C  
BRANCH  21  22
HETATM   22  C   UNL     1     -12.672   8.082  71.356  1.00  0.00    -0.297 C  
BRANCH  22  23
HETATM   23  C   UNL     1     -12.529   6.723  72.051  1.00  0.00    -0.285 C  
BRANCH  23  24
HETATM   24  C   UNL     1     -11.294   5.967  71.560  1.00  0.00    -0.246 C  
BRANCH  24  25
HETATM   25  N   UNL     1     -10.304   6.907  70.973  1.00  0.00    -0.204 NA 
HETATM   26  C   UNL     1      -9.448   7.601  71.786  1.00  0.00    -0.145 A  
HETATM   27  C   UNL     1      -8.472   8.427  71.222  1.00  0.00    -0.183 A  
HETATM   28  C   UNL     1      -9.418   7.509  73.294  1.00  0.00    -0.293 C  
HETATM   29  C   UNL     1      -8.359   8.589  69.850  1.00  0.00    -0.123 A  
HETATM   30  N   UNL     1      -7.265   9.317  69.375  1.00  0.00    -0.066 NA 
HETATM   31  C   UNL     1      -9.199   7.825  69.023  1.00  0.00    -0.143 A  
HETATM   32  H1  UNL     1      -7.182   9.436  68.365  1.00  0.00     0.000 HD 
HETATM   33  C   UNL     1     -10.207   7.005  69.600  1.00  0.00    -0.202 A  
HETATM   34  H2  UNL     1      -6.404   8.909  69.738  1.00  0.00     0.000 HD 
HETATM   35  C   UNL     1     -11.069   6.291  68.729  1.00  0.00    -0.424 A  
HETATM   36  C   UNL     1     -10.924   6.334  67.344  1.00  0.00    -0.447 A  
HETATM   37  C   UNL     1      -9.915   7.098  66.789  1.00  0.00    -0.278 A  
HETATM   38  C   UNL     1      -9.071   7.838  67.615  1.00  0.00    -0.138 A  
ENDBRANCH  24  25
ENDBRANCH  23  24
ENDBRANCH  22  23
ENDBRANCH  21  22
ENDBRANCH  20  21
ENDBRANCH  19  20
ENDBRANCH  18  19
ENDBRANCH  17  18
ENDBRANCH  16  17
ENDBRANCH  15  16
ENDBRANCH  14  15
TORSDOF 11
ENDMDL
MODEL      193
REMARK 921   NORMALIZED FREE ENERGY PREDICTED BY IDOCK:   -5.84 KCAL/MOL
REMARK 922        TOTAL FREE ENERGY PREDICTED BY IDOCK:  -10.95 KCAL/MOL
REMARK 923 INTER-LIGAND FREE ENERGY PREDICTED BY IDOCK:   -9.22 KCAL/MOL
REMARK 924 INTRA-LIGAND FREE ENERGY PREDICTED BY IDOCK:   -1.73 KCAL/MOL
REMARK 927      BINDING AFFINITY PREDICTED BY RF-SCORE:    0.00 PKD
ROOT
HETATM    1  C   UNL     1      -9.664  10.026  69.921  1.00  0.00    -0.245 C  
HETATM    2  C   UNL     1     -10.168   8.838  70.710  1.00  0.00    -0.211 A  
HETATM    3  C   UNL     1     -11.494   8.850  71.123  1.00  0.00    -0.364 A  
HETATM    4  C   UNL     1     -12.039   7.793  71.837  1.00  0.00    -0.304 A  
HETATM    5  N   UNL     1     -13.415   7.823  72.088  1.00  0.00    -0.516 NA 
HETATM    6  C   UNL     1     -11.242   6.654  72.058  1.00  0.00    -0.301 A  
HETATM    7  H2  UNL     1     -13.916   7.926  71.206  1.00  0.00     0.000 HD 
HETATM    8  C   UNL     1     -11.758   5.485  72.664  1.00  0.00    -0.240 A  
HETATM    9  H1  UNL     1     -13.815   7.046  72.614  1.00  0.00     0.000 HD 
HETATM   10  C   UNL     1     -10.966   4.362  72.898  1.00  0.00    -0.231 A  
HETATM   11  C   UNL     1      -9.630   4.378  72.543  1.00  0.00    -0.190 A  
HETATM   12  C   UNL     1      -9.091   5.516  71.936  1.00  0.00    -0.149 A  
HETATM   13  C   UNL     1      -9.881   6.660  71.653  1.00  0.00    -0.166 A  
HETATM   14  N   UNL     1      -9.379   7.755  70.985  1.00  0.00    -0.151 NA 
ENDROOT
BRANCH  14  15
HETATM   15  C   UNL     1      -7.975   7.742  70.489  1.00  0.00    -0.098 C  
BRANCH  15  16
HETATM   16  C   UNL     1      -7.907   7.152  69.081  1.00  0.00    -0.118 C  
BRANCH  16  17
HETATM   17  C   UNL     1      -6.956   7.942  68.186  1.00  0.00    -0.073 C  
BRANCH  17  18
HETATM   18  C   UNL     1      -7.302   7.823  66.698  1.00  0.00    -0.088 C  
BRANCH  18  19
HETATM   19  C   UNL     1      -7.294   9.175  65.993  1.00  0.00    -0.094 C  
BRANCH  19  20
HETATM   20  C   UNL     1      -8.120  10.240  66.718  1.00  0.00    -0.121 C  
BRANCH  20  21
HETATM   21  C   UNL     1      -7.469  11.629  66.730  1.00  0.00    -0.091 C  
BRANCH  21  22
HETATM   22  C   UNL     1      -7.512  12.297  68.107  1.00  0.00    -0.112 C  
BRANCH  22  23
HETATM   23  C   UNL     1      -7.543  13.828  68.035  1.00  0.00    -0.145 C  
BRANCH  23  24
HETATM   24  C   UNL     1      -8.898  14.385  68.474  1.00  0.00    -0.182 C  
BRANCH  24  25
HETATM   25  N   UNL     1      -9.624  14.969  67.317  1.00  0.00    -0.205 NA 
HETATM   26  C   UNL     1      -9.380  16.260  66.933  1.00  0.00    -0.224 A  
HETATM   27  C   UNL     1     -10.012  16.779  65.799  1.00  0.00    -0.242 A  
HETATM   28  C   UNL     1      -8.407  17.199  67.610  1.00  0.00    -0.197 C  
HETATM   29  C   UNL     1     -10.910  16.026  65.059  1.00  0.00    -0.404 A  
HETATM   30  N   UNL     1     -11.381  16.576  63.863  1.00  0.00    -1.559 NA 
HETATM   31  C   UNL     1     -11.106  14.683  65.422  1.00  0.00    -0.349 A  
HETATM   32  H1  UNL     1     -12.041  16.022  63.317  1.00  0.00     0.000 HD 
HETATM   33  C   UNL     1     -10.480  14.167  66.590  1.00  0.00    -0.278 A  
HETATM   34  H2  UNL     1     -10.588  16.831  63.273  1.00  0.00     0.000 HD 
HETATM   35  C   UNL     1     -10.746  12.822  66.953  1.00  0.00    -0.272 A  
HETATM   36  C   UNL     1     -11.553  11.992  66.179  1.00  0.00    -0.371 A  
HETATM   37  C   UNL     1     -12.124  12.485  65.021  1.00  0.00    -0.504 A  
HETATM   38  C   UNL     1     -11.910  13.811  64.653  1.00  0.00    -0.427 A  
ENDBRANCH  24  25
ENDBRANCH  23  24
ENDBRANCH  22  23
ENDBRANCH  21  22
ENDBRANCH  20  21
ENDBRANCH  19  20
ENDBRANCH  18  19
ENDBRANCH  17  18
ENDBRANCH  16  17
ENDBRANCH  15  16
ENDBRANCH  14  15
TORSDOF 11
ENDMDL
MODEL      194
REMARK 921   NORMALIZED FREE ENERGY PREDICTED BY IDOCK:   -5.83 KCAL/MOL
REMARK 922        TOTAL FREE ENERGY PREDICTED BY IDOCK:  -10.94 KCAL/MOL
REMARK 923 INTER-LIGAND FREE ENERGY PREDICTED BY IDOCK:   -9.50 KCAL/MOL
REMARK 924 INTRA-LIGAND FREE ENERGY PREDICTED BY IDOCK:   -1.44 KCAL/MOL
REMARK 927      BINDING AFFINITY PREDICTED BY RF-SCORE:    0.00 PKD
ROOT
HETATM    1  C   UNL     1     -10.425   6.934  69.558  1.00  0.00    -0.244 C  
HETATM    2  C   UNL     1     -11.150   8.160  70.065  1.00  0.00    -0.146 A  
HETATM    3  C   UNL     1     -11.932   8.025  71.206  1.00  0.00    -0.321 A  
HETATM    4  C   UNL     1     -12.618   9.104  71.744  1.00  0.00    -0.370 A  
HETATM    5  N   UNL     1     -13.263   8.913  72.971  1.00  0.00    -0.855 NA 
HETATM    6  C   UNL     1     -12.432  10.372  71.163  1.00  0.00    -0.509 A  
HETATM    7  H2  UNL     1     -12.591   8.566  73.655  1.00  0.00     0.000 HD 
HETATM    8  C   UNL     1     -12.991  11.543  71.726  1.00  0.00    -0.500 A  
HETATM    9  H1  UNL     1     -13.768   9.706  73.366  1.00  0.00     0.000 HD 
HETATM   10  C   UNL     1     -12.821  12.798  71.142  1.00  0.00    -0.315 A  
HETATM   11  C   UNL     1     -12.096  12.918  69.972  1.00  0.00    -0.357 A  
HETATM   12  C   UNL     1     -11.524  11.781  69.394  1.00  0.00    -0.371 A  
HETATM   13  C   UNL     1     -11.650  10.497  69.984  1.00  0.00    -0.313 A  
HETATM   14  N   UNL     1     -11.026   9.383  69.466  1.00  0.00    -0.212 NA 
ENDROOT
BRANCH  14  15
HETATM   15  C   UNL     1     -10.143   9.515  68.274  1.00  0.00    -0.183 C  
BRANCH  15  16
HETATM   16  C   UNL     1      -8.677   9.348  68.669  1.00  0.00    -0.131 C  
BRANCH  16  17
HETATM   17  C   UNL     1      -8.147  10.579  69.401  1.00  0.00    -0.136 C  
BRANCH  17  18
HETATM   18  C   UNL     1      -8.079  11.820  68.506  1.00  0.00    -0.140 C  
BRANCH  18  19
HETATM   19  C   UNL     1      -6.807  11.855  67.663  1.00  0.00    -0.112 C  
BRANCH  19  20
HETATM   20  C   UNL     1      -5.676  12.656  68.312  1.00  0.00    -0.062 C  
BRANCH  20  21
HETATM   21  C   UNL     1      -5.916  12.982  69.792  1.00  0.00    -0.130 C  
BRANCH  21  22
HETATM   22  C   UNL     1      -5.611  14.442  70.140  1.00  0.00    -0.119 C  
BRANCH  22  23
HETATM   23  C   UNL     1      -6.739  15.404  69.749  1.00  0.00    -0.170 C  
BRANCH  23  24
HETATM   24  C   UNL     1      -6.385  16.205  68.496  1.00  0.00    -0.116 C  
BRANCH  24  25
HETATM   25  N   UNL     1      -7.453  17.190  68.186  1.00  0.00    -0.198 NA 
HETATM   26  C   UNL     1      -7.341  18.485  68.618  1.00  0.00    -0.293 A  
HETATM   27  C   UNL     1      -8.313  19.423  68.260  1.00  0.00    -0.379 A  
HETATM   28  C   UNL     1      -6.188  19.033  69.428  1.00  0.00    -0.292 C  
HETATM   29  C   UNL     1      -9.415  19.073  67.495  1.00  0.00    -0.303 A  
HETATM   30  N   UNL     1     -10.256  20.104  67.066  1.00  0.00    -0.441 NA 
HETATM   31  C   UNL     1      -9.489  17.760  67.004  1.00  0.00    -0.271 A  
HETATM   32  H1  UNL     1     -11.066  19.847  66.503  1.00  0.00     0.000 HD 
HETATM   33  C   UNL     1      -8.511  16.802  67.390  1.00  0.00    -0.189 A  
HETATM   34  H2  UNL     1      -9.705  20.802  66.566  1.00  0.00     0.000 HD 
HETATM   35  C   UNL     1      -8.651  15.473  66.916  1.00  0.00    -0.289 A  
HETATM   36  C   UNL     1      -9.680  15.099  66.054  1.00  0.00    -0.361 A  
HETATM   37  C   UNL     1     -10.604  16.043  65.646  1.00  0.00    -0.392 A  
HETATM   38  C   UNL     1     -10.514  17.350  66.119  1.00  0.00    -0.284 A  
ENDBRANCH  24  25
ENDBRANCH  23  24
ENDBRANCH  22  23
ENDBRANCH  21  22
ENDBRANCH  20  21
ENDBRANCH  19  20
ENDBRANCH  18  19
ENDBRANCH  17  18
ENDBRANCH  16  17
ENDBRANCH  15  16
ENDBRANCH  14  15
TORSDOF 11
ENDMDL
MODEL      195
REMARK 921   NORMALIZED FREE ENERGY PREDICTED BY IDOCK:   -5.83 KCAL/MOL
REMARK 922        TOTAL FREE ENERGY PREDICTED BY IDOCK:  -10.93 KCAL/MOL
REMARK 923 INTER-LIGAND FREE ENERGY PREDICTED BY IDOCK:   -9.22 KCAL/MOL
REMARK 924 INTRA-LIGAND FREE ENERGY PREDICTED BY IDOCK:   -1.72 KCAL/MOL
REMARK 927      BINDING AFFINITY PREDICTED BY RF-SCORE:    0.00 PKD
ROOT
HETATM    1  C   UNL     1     -11.258  16.215  68.098  1.00  0.00    -0.311 C  
HETATM    2  C   UNL     1     -11.646  15.200  69.149  1.00  0.00    -0.323 A  
HETATM    3  C   UNL     1     -12.124  15.676  70.364  1.00  0.00    -0.425 A  
HETATM    4  C   UNL     1     -12.516  14.812  71.376  1.00  0.00    -0.336 A  
HETATM    5  N   UNL     1     -13.116  15.372  72.508  1.00  0.00    -0.382 NA 
HETATM    6  C   UNL     1     -12.509  13.429  71.114  1.00  0.00    -0.414 A  
HETATM    7  H2  UNL     1     -13.915  15.938  72.221  1.00  0.00     0.000 HD 
HETATM    8  C   UNL     1     -13.013  12.489  72.043  1.00  0.00    -0.379 A  
HETATM    9  H1  UNL     1     -13.404  14.737  73.252  1.00  0.00     0.000 HD 
HETATM   10  C   UNL     1     -12.992  11.118  71.792  1.00  0.00    -0.526 A  
HETATM   11  C   UNL     1     -12.457  10.645  70.609  1.00  0.00    -0.462 A  
HETATM   12  C   UNL     1     -11.958  11.548  69.666  1.00  0.00    -0.407 A  
HETATM   13  C   UNL     1     -11.998  12.950  69.879  1.00  0.00    -0.307 A  
HETATM   14  N   UNL     1     -11.581  13.853  68.925  1.00  0.00    -0.292 NA 
ENDROOT
BRANCH  14  15
HETATM   15  C   UNL     1     -11.114  13.365  67.597  1.00  0.00    -0.265 C  
BRANCH  15  16
HETATM   16  C   UNL     1      -9.635  12.988  67.652  1.00  0.00    -0.206 C  
BRANCH  16  17
HETATM   17  C   UNL     1      -9.252  12.043  66.516  1.00  0.00    -0.216 C  
BRANCH  17  18
HETATM   18  C   UNL     1     -10.410  11.141  66.077  1.00  0.00    -0.308 C  
BRANCH  18  19
HETATM   19  C   UNL     1     -10.529  11.053  64.559  1.00  0.00    -0.411 C  
BRANCH  19  20
HETATM   20  C   UNL     1      -9.175  10.950  63.852  1.00  0.00    -0.222 C  
BRANCH  20  21
HETATM   21  C   UNL     1      -8.746   9.510  63.541  1.00  0.00    -0.235 C  
BRANCH  21  22
HETATM   22  C   UNL     1      -7.424   9.123  64.209  1.00  0.00    -0.106 C  
BRANCH  22  23
HETATM   23  C   UNL     1      -7.568   8.824  65.706  1.00  0.00    -0.086 C  
BRANCH  23  24
HETATM   24  C   UNL     1      -7.811   7.336  65.961  1.00  0.00    -0.106 C  
BRANCH  24  25
HETATM   25  N   UNL     1      -8.894   7.147  66.961  1.00  0.00    -0.121 NA 
HETATM   26  C   UNL     1      -9.793   6.124  66.815  1.00  0.00    -0.164 A  
HETATM   27  C   UNL     1     -10.763   5.908  67.797  1.00  0.00    -0.346 A  
HETATM   28  C   UNL     1      -9.799   5.129  65.677  1.00  0.00    -0.057 C  
HETATM   29  C   UNL     1     -10.862   6.723  68.914  1.00  0.00    -0.243 A  
HETATM   30  N   UNL     1     -11.766   6.344  69.911  1.00  0.00    -0.556 NA 
HETATM   31  C   UNL     1      -9.897   7.729  69.087  1.00  0.00    -0.173 A  
HETATM   32  H1  UNL     1     -11.839   6.943  70.733  1.00  0.00     0.000 HD 
HETATM   33  C   UNL     1      -8.928   7.961  68.073  1.00  0.00    -0.127 A  
HETATM   34  H2  UNL     1     -11.561   5.389  70.207  1.00  0.00     0.000 HD 
HETATM   35  C   UNL     1      -8.005   9.022  68.261  1.00  0.00    -0.104 A  
HETATM   36  C   UNL     1      -7.993   9.798  69.418  1.00  0.00    -0.125 A  
HETATM   37  C   UNL     1      -8.910   9.540  70.419  1.00  0.00    -0.279 A  
HETATM   38  C   UNL     1      -9.852   8.527  70.253  1.00  0.00    -0.194 A  
ENDBRANCH  24  25
ENDBRANCH  23  24
ENDBRANCH  22  23
ENDBRANCH  21  22
ENDBRANCH  20  21
ENDBRANCH  19  20
ENDBRANCH  18  19
ENDBRANCH  17  18
ENDBRANCH  16  17
ENDBRANCH  15  16
ENDBRANCH  14  15
TORSDOF 11
ENDMDL
MODEL      196
REMARK 921   NORMALIZED FREE ENERGY PREDICTED BY IDOCK:   -5.82 KCAL/MOL
REMARK 922        TOTAL FREE ENERGY PREDICTED BY IDOCK:  -10.91 KCAL/MOL
REMARK 923 INTER-LIGAND FREE ENERGY PREDICTED BY IDOCK:   -9.27 KCAL/MOL
REMARK 924 INTRA-LIGAND FREE ENERGY PREDICTED BY IDOCK:   -1.64 KCAL/MOL
REMARK 927      BINDING AFFINITY PREDICTED BY RF-SCORE:    0.00 PKD
ROOT
HETATM    1  C   UNL     1     -13.009   7.219  70.840  1.00  0.00    -0.125 C  
HETATM    2  C   UNL     1     -11.650   7.544  71.417  1.00  0.00    -0.275 A  
HETATM    3  C   UNL     1     -11.356   7.071  72.690  1.00  0.00    -0.290 A  
HETATM    4  C   UNL     1     -10.127   7.313  73.286  1.00  0.00    -0.295 A  
HETATM    5  N   UNL     1      -9.865   6.681  74.506  1.00  0.00    -0.404 NA 
HETATM    6  C   UNL     1      -9.137   7.971  72.533  1.00  0.00    -0.271 A  
HETATM    7  H2  UNL     1      -9.996   5.675  74.400  1.00  0.00     0.000 HD 
HETATM    8  C   UNL     1      -7.819   8.144  73.017  1.00  0.00    -0.207 A  
HETATM    9  H1  UNL     1      -8.961   6.858  74.944  1.00  0.00     0.000 HD 
HETATM   10  C   UNL     1      -6.842   8.810  72.280  1.00  0.00    -0.007 A  
HETATM   11  C   UNL     1      -7.156   9.335  71.041  1.00  0.00    -0.090 A  
HETATM   12  C   UNL     1      -8.447   9.176  70.530  1.00  0.00    -0.236 A  
HETATM   13  C   UNL     1      -9.452   8.472  71.243  1.00  0.00    -0.205 A  
HETATM   14  N   UNL     1     -10.705   8.241  70.716  1.00  0.00    -0.214 NA 
ENDROOT
BRANCH  14  15
HETATM   15  C   UNL     1     -11.022   8.695  69.333  1.00  0.00    -0.019 C  
BRANCH  15  16
HETATM   16  C   UNL     1     -10.501   7.693  68.305  1.00  0.00    -0.219 C  
BRANCH  16  17
HETATM   17  C   UNL     1     -10.200   8.365  66.967  1.00  0.00    -0.377 C  
BRANCH  17  18
HETATM   18  C   UNL     1      -8.841   7.960  66.390  1.00  0.00    -0.184 C  
BRANCH  18  19
HETATM   19  C   UNL     1      -7.678   8.502  67.216  1.00  0.00    -0.097 C  
BRANCH  19  20
HETATM   20  C   UNL     1      -7.112   9.816  66.672  1.00  0.00    -0.086 C  
BRANCH  20  21
HETATM   21  C   UNL     1      -7.072  10.949  67.705  1.00  0.00    -0.082 C  
BRANCH  21  22
HETATM   22  C   UNL     1      -8.053  12.082  67.389  1.00  0.00    -0.168 C  
BRANCH  22  23
HETATM   23  C   UNL     1      -9.482  11.793  67.862  1.00  0.00    -0.191 C  
BRANCH  23  24
HETATM   24  C   UNL     1     -10.209  13.075  68.270  1.00  0.00    -0.246 C  
BRANCH  24  25
HETATM   25  N   UNL     1     -10.468  13.930  67.084  1.00  0.00    -0.268 NA 
HETATM   26  C   UNL     1     -11.104  13.413  65.987  1.00  0.00    -0.283 A  
HETATM   27  C   UNL     1     -11.409  14.242  64.905  1.00  0.00    -0.372 A  
HETATM   28  C   UNL     1     -11.582  11.984  65.855  1.00  0.00    -0.364 C  
HETATM   29  C   UNL     1     -11.058  15.583  64.895  1.00  0.00    -0.416 A  
HETATM   30  N   UNL     1     -11.531  16.366  63.837  1.00  0.00    -1.618 NA 
HETATM   31  C   UNL     1     -10.463  16.120  66.049  1.00  0.00    -0.349 A  
HETATM   32  H1  UNL     1     -11.273  17.353  63.830  1.00  0.00     0.000 HD 
HETATM   33  C   UNL     1     -10.132  15.267  67.137  1.00  0.00    -0.240 A  
HETATM   34  H2  UNL     1     -12.546  16.282  63.783  1.00  0.00     0.000 HD 
HETATM   35  C   UNL     1      -9.483  15.839  68.262  1.00  0.00    -0.200 A  
HETATM   36  C   UNL     1      -9.211  17.202  68.346  1.00  0.00    -0.266 A  
HETATM   37  C   UNL     1      -9.572  18.035  67.304  1.00  0.00    -0.269 A  
HETATM   38  C   UNL     1     -10.182  17.500  66.170  1.00  0.00    -0.339 A  
ENDBRANCH  24  25
ENDBRANCH  23  24
ENDBRANCH  22  23
ENDBRANCH  21  22
ENDBRANCH  20  21
ENDBRANCH  19  20
ENDBRANCH  18  19
ENDBRANCH  17  18
ENDBRANCH  16  17
ENDBRANCH  15  16
ENDBRANCH  14  15
TORSDOF 11
ENDMDL
MODEL      197
REMARK 921   NORMALIZED FREE ENERGY PREDICTED BY IDOCK:   -5.81 KCAL/MOL
REMARK 922        TOTAL FREE ENERGY PREDICTED BY IDOCK:  -10.89 KCAL/MOL
REMARK 923 INTER-LIGAND FREE ENERGY PREDICTED BY IDOCK:   -9.17 KCAL/MOL
REMARK 924 INTRA-LIGAND FREE ENERGY PREDICTED BY IDOCK:   -1.72 KCAL/MOL
REMARK 927      BINDING AFFINITY PREDICTED BY RF-SCORE:    0.00 PKD
ROOT
HETATM    1  C   UNL     1     -10.770  15.857  67.117  1.00  0.00    -0.301 C  
HETATM    2  C   UNL     1     -11.294  15.047  68.281  1.00  0.00    -0.318 A  
HETATM    3  C   UNL     1     -11.965  15.723  69.291  1.00  0.00    -0.305 A  
HETATM    4  C   UNL     1     -12.490  15.053  70.387  1.00  0.00    -0.356 A  
HETATM    5  N   UNL     1     -13.272  15.790  71.282  1.00  0.00    -0.537 NA 
HETATM    6  C   UNL     1     -12.411  13.648  70.410  1.00  0.00    -0.415 A  
HETATM    7  H2  UNL     1     -14.029  16.246  70.773  1.00  0.00     0.000 HD 
HETATM    8  C   UNL     1     -13.031  12.880  71.424  1.00  0.00    -0.362 A  
HETATM    9  H1  UNL     1     -13.657  15.297  72.088  1.00  0.00     0.000 HD 
HETATM   10  C   UNL     1     -12.940  11.490  71.459  1.00  0.00    -0.485 A  
HETATM   11  C   UNL     1     -12.217  10.825  70.486  1.00  0.00    -0.457 A  
HETATM   12  C   UNL     1     -11.598  11.554  69.467  1.00  0.00    -0.400 A  
HETATM   13  C   UNL     1     -11.703  12.966  69.386  1.00  0.00    -0.321 A  
HETATM   14  N   UNL     1     -11.163  13.687  68.343  1.00  0.00    -0.261 NA 
ENDROOT
BRANCH  14  15
HETATM   15  C   UNL     1     -10.484  12.976  67.224  1.00  0.00    -0.238 C  
BRANCH  15  16
HETATM   16  C   UNL     1      -9.009  12.749  67.547  1.00  0.00    -0.192 C  
BRANCH  16  17
HETATM   17  C   UNL     1      -8.428  11.592  66.739  1.00  0.00    -0.168 C  
BRANCH  17  18
HETATM   18  C   UNL     1      -9.361  10.379  66.680  1.00  0.00    -0.185 C  
BRANCH  18  19
HETATM   19  C   UNL     1      -9.175   9.569  65.401  1.00  0.00    -0.306 C  
BRANCH  19  20
HETATM   20  C   UNL     1      -8.868   8.092  65.661  1.00  0.00    -0.160 C  
BRANCH  20  21
HETATM   21  C   UNL     1      -9.349   7.591  67.029  1.00  0.00    -0.186 C  
BRANCH  21  22
HETATM   22  C   UNL     1     -10.652   6.790  66.948  1.00  0.00    -0.374 C  
BRANCH  22  23
HETATM   23  C   UNL     1     -11.202   6.390  68.323  1.00  0.00    -0.276 C  
BRANCH  23  24
HETATM   24  C   UNL     1     -10.554   7.201  69.445  1.00  0.00    -0.233 C  
BRANCH  24  25
HETATM   25  N   UNL     1     -10.546   6.427  70.713  1.00  0.00    -0.228 NA 
HETATM   26  C   UNL     1     -11.629   6.465  71.550  1.00  0.00    -0.310 A  
HETATM   27  C   UNL     1     -11.643   5.677  72.704  1.00  0.00    -0.307 A  
HETATM   28  C   UNL     1     -12.888   7.264  71.303  1.00  0.00    -0.391 C  
HETATM   29  C   UNL     1     -10.570   4.869  73.046  1.00  0.00    -0.223 A  
HETATM   30  N   UNL     1     -10.733   4.010  74.137  1.00  0.00    -0.226 NA 
HETATM   31  C   UNL     1      -9.491   4.788  72.151  1.00  0.00    -0.180 A  
HETATM   32  H1  UNL     1      -9.944   3.415  74.389  1.00  0.00     0.000 HD 
HETATM   33  C   UNL     1      -9.469   5.610  70.991  1.00  0.00    -0.166 A  
HETATM   34  H2  UNL     1     -11.558   3.429  73.989  1.00  0.00     0.000 HD 
HETATM   35  C   UNL     1      -8.336   5.537  70.141  1.00  0.00    -0.116 A  
HETATM   36  C   UNL     1      -7.283   4.659  70.384  1.00  0.00    -0.049 A  
HETATM   37  C   UNL     1      -7.328   3.831  71.489  1.00  0.00    -0.040 A  
HETATM   38  C   UNL     1      -8.411   3.900  72.363  1.00  0.00    -0.101 A  
ENDBRANCH  24  25
ENDBRANCH  23  24
ENDBRANCH  22  23
ENDBRANCH  21  22
ENDBRANCH  20  21
ENDBRANCH  19  20
ENDBRANCH  18  19
ENDBRANCH  17  18
ENDBRANCH  16  17
ENDBRANCH  15  16
ENDBRANCH  14  15
TORSDOF 11
ENDMDL
MODEL      198
REMARK 921   NORMALIZED FREE ENERGY PREDICTED BY IDOCK:   -5.80 KCAL/MOL
REMARK 922        TOTAL FREE ENERGY PREDICTED BY IDOCK:  -10.89 KCAL/MOL
REMARK 923 INTER-LIGAND FREE ENERGY PREDICTED BY IDOCK:   -9.68 KCAL/MOL
REMARK 924 INTRA-LIGAND FREE ENERGY PREDICTED BY IDOCK:   -1.21 KCAL/MOL
REMARK 927      BINDING AFFINITY PREDICTED BY RF-SCORE:    0.00 PKD
ROOT
HETATM    1  C   UNL     1     -10.721  15.456  70.080  1.00  0.00    -0.326 C  
HETATM    2  C   UNL     1     -10.959  15.303  68.595  1.00  0.00    -0.257 A  
HETATM    3  C   UNL     1     -10.522  16.324  67.760  1.00  0.00    -0.295 A  
HETATM    4  C   UNL     1     -10.688  16.255  66.385  1.00  0.00    -0.182 A  
HETATM    5  N   UNL     1     -10.093  17.256  65.610  1.00  0.00    -0.591 NA 
HETATM    6  C   UNL     1     -11.229  15.077  65.835  1.00  0.00    -0.313 A  
HETATM    7  H2  UNL     1      -9.097  17.303  65.827  1.00  0.00     0.000 HD 
HETATM    8  C   UNL     1     -11.314  14.874  64.438  1.00  0.00    -0.211 A  
HETATM    9  H1  UNL     1     -10.215  17.206  64.599  1.00  0.00     0.000 HD 
HETATM   10  C   UNL     1     -11.865  13.716  63.892  1.00  0.00    -0.419 A  
HETATM   11  C   UNL     1     -12.357  12.730  64.726  1.00  0.00    -0.540 A  
HETATM   12  C   UNL     1     -12.281  12.897  66.112  1.00  0.00    -0.385 A  
HETATM   13  C   UNL     1     -11.695  14.049  66.696  1.00  0.00    -0.399 A  
HETATM   14  N   UNL     1     -11.544  14.189  68.059  1.00  0.00    -0.315 NA 
ENDROOT
BRANCH  14  15
HETATM   15  C   UNL     1     -11.959  13.085  68.968  1.00  0.00    -0.267 C  
BRANCH  15  16
HETATM   16  C   UNL     1     -10.862  12.028  69.067  1.00  0.00    -0.223 C  
BRANCH  16  17
HETATM   17  C   UNL     1     -11.368  10.649  68.652  1.00  0.00    -0.345 C  
BRANCH  17  18
HETATM   18  C   UNL     1     -10.664  10.107  67.404  1.00  0.00    -0.336 C  
BRANCH  18  19
HETATM   19  C   UNL     1     -10.044   8.734  67.642  1.00  0.00    -0.273 C  
BRANCH  19  20
HETATM   20  C   UNL     1     -10.513   7.678  66.638  1.00  0.00    -0.198 C  
BRANCH  20  21
HETATM   21  C   UNL     1     -10.969   6.365  67.287  1.00  0.00    -0.474 C  
BRANCH  21  22
HETATM   22  C   UNL     1     -10.048   5.185  66.962  1.00  0.00    -0.252 C  
BRANCH  22  23
HETATM   23  C   UNL     1      -9.760   4.292  68.174  1.00  0.00    -0.165 C  
BRANCH  23  24
HETATM   24  C   UNL     1      -8.876   5.003  69.199  1.00  0.00    -0.092 C  
BRANCH  24  25
HETATM   25  N   UNL     1      -9.448   4.870  70.564  1.00  0.00    -0.154 NA 
HETATM   26  C   UNL     1      -9.410   3.665  71.212  1.00  0.00    -0.144 A  
HETATM   27  C   UNL     1      -9.884   3.566  72.523  1.00  0.00    -0.220 A  
HETATM   28  C   UNL     1      -8.826   2.391  70.643  1.00  0.00    -0.130 C  
HETATM   29  C   UNL     1     -10.422   4.657  73.186  1.00  0.00    -0.193 A  
HETATM   30  N   UNL     1     -10.735   4.499  74.539  1.00  0.00    -0.332 NA 
HETATM   31  C   UNL     1     -10.399   5.903  72.538  1.00  0.00    -0.227 A  
HETATM   32  H1  UNL     1     -11.131   5.302  75.028  1.00  0.00     0.000 HD 
HETATM   33  C   UNL     1      -9.939   5.994  71.195  1.00  0.00    -0.186 A  
HETATM   34  H2  UNL     1      -9.908   4.174  75.041  1.00  0.00     0.000 HD 
HETATM   35  C   UNL     1      -9.982   7.261  70.557  1.00  0.00    -0.191 A  
HETATM   36  C   UNL     1     -10.410   8.409  71.220  1.00  0.00    -0.272 A  
HETATM   37  C   UNL     1     -10.816   8.324  72.538  1.00  0.00    -0.421 A  
HETATM   38  C   UNL     1     -10.817   7.089  73.184  1.00  0.00    -0.350 A  
ENDBRANCH  24  25
ENDBRANCH  23  24
ENDBRANCH  22  23
ENDBRANCH  21  22
ENDBRANCH  20  21
ENDBRANCH  19  20
ENDBRANCH  18  19
ENDBRANCH  17  18
ENDBRANCH  16  17
ENDBRANCH  15  16
ENDBRANCH  14  15
TORSDOF 11
ENDMDL
MODEL      199
REMARK 921   NORMALIZED FREE ENERGY PREDICTED BY IDOCK:   -5.79 KCAL/MOL
REMARK 922        TOTAL FREE ENERGY PREDICTED BY IDOCK:  -10.87 KCAL/MOL
REMARK 923 INTER-LIGAND FREE ENERGY PREDICTED BY IDOCK:   -8.29 KCAL/MOL
REMARK 924 INTRA-LIGAND FREE ENERGY PREDICTED BY IDOCK:   -2.58 KCAL/MOL
REMARK 927      BINDING AFFINITY PREDICTED BY RF-SCORE:    0.00 PKD
ROOT
HETATM    1  C   UNL     1     -10.365  17.643  65.876  1.00  0.00    -0.261 C  
HETATM    2  C   UNL     1     -10.709  16.180  66.043  1.00  0.00    -0.241 A  
HETATM    3  C   UNL     1     -11.011  15.450  64.900  1.00  0.00    -0.453 A  
HETATM    4  C   UNL     1     -11.323  14.100  64.964  1.00  0.00    -0.350 A  
HETATM    5  N   UNL     1     -11.473  13.413  63.755  1.00  0.00    -0.615 NA 
HETATM    6  C   UNL     1     -11.235  13.453  66.211  1.00  0.00    -0.322 A  
HETATM    7  H2  UNL     1     -10.634  13.538  63.189  1.00  0.00     0.000 HD 
HETATM    8  C   UNL     1     -11.411  12.055  66.343  1.00  0.00    -0.417 A  
HETATM    9  H1  UNL     1     -11.703  12.420  63.802  1.00  0.00     0.000 HD 
HETATM   10  C   UNL     1     -11.341  11.415  67.578  1.00  0.00    -0.362 A  
HETATM   11  C   UNL     1     -11.104  12.154  68.722  1.00  0.00    -0.297 A  
HETATM   12  C   UNL     1     -10.918  13.536  68.625  1.00  0.00    -0.289 A  
HETATM   13  C   UNL     1     -10.949  14.210  67.377  1.00  0.00    -0.299 A  
HETATM   14  N   UNL     1     -10.690  15.558  67.261  1.00  0.00    -0.304 NA 
ENDROOT
BRANCH  14  15
HETATM   15  C   UNL     1     -10.314  16.347  68.467  1.00  0.00    -0.270 C  
BRANCH  15  16
HETATM   16  C   UNL     1      -8.884  16.026  68.896  1.00  0.00    -0.233 C  
BRANCH  16  17
HETATM   17  C   UNL     1      -7.919  16.064  67.714  1.00  0.00    -0.152 C  
BRANCH  17  18
HETATM   18  C   UNL     1      -7.227  14.720  67.467  1.00  0.00    -0.222 C  
BRANCH  18  19
HETATM   19  C   UNL     1      -6.922  13.980  68.765  1.00  0.00    -0.106 C  
BRANCH  19  20
HETATM   20  C   UNL     1      -7.380  12.520  68.750  1.00  0.00    -0.070 C  
BRANCH  20  21
HETATM   21  C   UNL     1      -7.626  11.962  67.342  1.00  0.00    -0.151 C  
BRANCH  21  22
HETATM   22  C   UNL     1      -7.280  10.475  67.221  1.00  0.00    -0.090 C  
BRANCH  22  23
HETATM   23  C   UNL     1      -6.867   9.840  68.554  1.00  0.00    -0.056 C  
BRANCH  23  24
HETATM   24  C   UNL     1      -7.295   8.374  68.635  1.00  0.00    -0.088 C  
BRANCH  24  25
HETATM   25  N   UNL     1      -8.653   8.257  69.224  1.00  0.00    -0.136 NA 
HETATM   26  C   UNL     1      -9.746   8.113  68.412  1.00  0.00    -0.161 A  
HETATM   27  C   UNL     1     -11.011   7.931  68.976  1.00  0.00     0.073 A  
HETATM   28  C   UNL     1      -9.705   8.070  66.902  1.00  0.00    -0.291 C  
HETATM   29  C   UNL     1     -11.201   7.918  70.349  1.00  0.00    -0.234 A  
HETATM   30  N   UNL     1     -12.473   7.585  70.822  1.00  0.00    -0.547 NA 
HETATM   31  C   UNL     1     -10.067   8.003  71.174  1.00  0.00    -0.221 A  
HETATM   32  H1  UNL     1     -12.613   7.575  71.832  1.00  0.00     0.000 HD 
HETATM   33  C   UNL     1      -8.785   8.213  70.597  1.00  0.00    -0.135 A  
HETATM   34  H2  UNL     1     -12.752   6.683  70.435  1.00  0.00     0.000 HD 
HETATM   35  C   UNL     1      -7.673   8.348  71.467  1.00  0.00    -0.125 A  
HETATM   36  C   UNL     1      -7.796   8.231  72.850  1.00  0.00    -0.186 A  
HETATM   37  C   UNL     1      -9.037   7.983  73.404  1.00  0.00    -0.340 A  
HETATM   38  C   UNL     1     -10.156   7.878  72.580  1.00  0.00    -0.343 A  
ENDBRANCH  24  25
ENDBRANCH  23  24
ENDBRANCH  22  23
ENDBRANCH  21  22
ENDBRANCH  20  21
ENDBRANCH  19  20
ENDBRANCH  18  19
ENDBRANCH  17  18
ENDBRANCH  16  17
ENDBRANCH  15  16
ENDBRANCH  14  15
TORSDOF 11
ENDMDL
MODEL      200
REMARK 921   NORMALIZED FREE ENERGY PREDICTED BY IDOCK:   -5.79 KCAL/MOL
REMARK 922        TOTAL FREE ENERGY PREDICTED BY IDOCK:  -10.87 KCAL/MOL
REMARK 923 INTER-LIGAND FREE ENERGY PREDICTED BY IDOCK:   -6.96 KCAL/MOL
REMARK 924 INTRA-LIGAND FREE ENERGY PREDICTED BY IDOCK:   -3.91 KCAL/MOL
REMARK 927      BINDING AFFINITY PREDICTED BY RF-SCORE:    0.00 PKD
ROOT
HETATM    1  C   UNL     1      -9.679  11.300  68.239  1.00  0.00    -0.199 C  
HETATM    2  C   UNL     1     -10.151  10.511  69.439  1.00  0.00    -0.209 A  
HETATM    3  C   UNL     1     -11.518  10.444  69.674  1.00  0.00    -0.326 A  
HETATM    4  C   UNL     1     -12.035   9.728  70.744  1.00  0.00    -0.299 A  
HETATM    5  N   UNL     1     -13.425   9.596  70.824  1.00  0.00    -0.596 NA 
HETATM    6  C   UNL     1     -11.145   8.985  71.543  1.00  0.00    -0.419 A  
HETATM    7  H2  UNL     1     -13.776   9.198  69.952  1.00  0.00     0.000 HD 
HETATM    8  C   UNL     1     -11.600   8.128  72.572  1.00  0.00    -0.468 A  
HETATM    9  H1  UNL     1     -13.805   9.070  71.611  1.00  0.00     0.000 HD 
HETATM   10  C   UNL     1     -10.720   7.404  73.375  1.00  0.00    -0.407 A  
HETATM   11  C   UNL     1      -9.357   7.523  73.179  1.00  0.00    -0.258 A  
HETATM   12  C   UNL     1      -8.875   8.356  72.165  1.00  0.00    -0.285 A  
HETATM   13  C   UNL     1      -9.748   9.077  71.311  1.00  0.00    -0.301 A  
HETATM   14  N   UNL     1      -9.286   9.839  70.259  1.00  0.00    -0.234 NA 
ENDROOT
BRANCH  14  15
HETATM   15  C   UNL     1      -7.828   9.883  69.959  1.00  0.00    -0.180 C  
BRANCH  15  16
HETATM   16  C   UNL     1      -7.432   8.727  69.042  1.00  0.00    -0.081 C  
BRANCH  16  17
HETATM   17  C   UNL     1      -6.150   8.047  69.515  1.00  0.00    -0.033 C  
BRANCH  17  18
HETATM   18  C   UNL     1      -6.282   6.524  69.604  1.00  0.00    -0.037 C  
BRANCH  18  19
HETATM   19  C   UNL     1      -6.138   6.014  71.035  1.00  0.00    -0.038 C  
BRANCH  19  20
HETATM   20  C   UNL     1      -6.629   4.576  71.215  1.00  0.00    -0.027 C  
BRANCH  20  21
HETATM   21  C   UNL     1      -5.681   3.518  70.635  1.00  0.00    -0.013 C  
BRANCH  21  22
HETATM   22  C   UNL     1      -6.348   2.632  69.579  1.00  0.00    -0.029 C  
BRANCH  22  23
HETATM   23  C   UNL     1      -6.307   3.236  68.170  1.00  0.00    -0.033 C  
BRANCH  23  24
HETATM   24  C   UNL     1      -7.657   3.110  67.465  1.00  0.00    -0.065 C  
BRANCH  24  25
HETATM   25  N   UNL     1      -8.219   4.452  67.166  1.00  0.00    -0.101 NA 
HETATM   26  C   UNL     1      -7.896   5.088  65.997  1.00  0.00    -0.099 A  
HETATM   27  C   UNL     1      -8.486   6.318  65.690  1.00  0.00    -0.148 A  
HETATM   28  C   UNL     1      -6.972   4.537  64.936  1.00  0.00    -0.061 C  
HETATM   29  C   UNL     1      -9.377   6.933  66.555  1.00  0.00    -0.158 A  
HETATM   30  N   UNL     1     -10.025   8.086  66.101  1.00  0.00    -0.466 NA 
HETATM   31  C   UNL     1      -9.750   6.245  67.721  1.00  0.00    -0.122 A  
HETATM   32  H1  UNL     1     -10.681   8.539  66.736  1.00  0.00     0.000 HD 
HETATM   33  C   UNL     1      -9.130   5.006  68.042  1.00  0.00    -0.114 A  
HETATM   34  H2  UNL     1     -10.496   7.882  65.219  1.00  0.00     0.000 HD 
HETATM   35  C   UNL     1      -9.495   4.369  69.255  1.00  0.00    -0.249 A  
HETATM   36  C   UNL     1     -10.468   4.893  70.103  1.00  0.00    -0.144 A  
HETATM   37  C   UNL     1     -11.100   6.075  69.766  1.00  0.00    -0.476 A  
HETATM   38  C   UNL     1     -10.741   6.744  68.597  1.00  0.00    -0.279 A  
ENDBRANCH  24  25
ENDBRANCH  23  24
ENDBRANCH  22  23
ENDBRANCH  21  22
ENDBRANCH  20  21
ENDBRANCH  19  20
ENDBRANCH  18  19
ENDBRANCH  17  18
ENDBRANCH  16  17
ENDBRANCH  15  16
ENDBRANCH  14  15
TORSDOF 11
ENDMDL
MODEL      201
REMARK 921   NORMALIZED FREE ENERGY PREDICTED BY IDOCK:   -5.79 KCAL/MOL
REMARK 922        TOTAL FREE ENERGY PREDICTED BY IDOCK:  -10.87 KCAL/MOL
REMARK 923 INTER-LIGAND FREE ENERGY PREDICTED BY IDOCK:   -8.49 KCAL/MOL
REMARK 924 INTRA-LIGAND FREE ENERGY PREDICTED BY IDOCK:   -2.38 KCAL/MOL
REMARK 927      BINDING AFFINITY PREDICTED BY RF-SCORE:    0.00 PKD
ROOT
HETATM    1  C   UNL     1     -10.889   6.180  67.245  1.00  0.00    -0.438 C  
HETATM    2  C   UNL     1     -10.540   6.611  68.652  1.00  0.00    -0.234 A  
HETATM    3  C   UNL     1     -11.405   6.245  69.676  1.00  0.00    -0.492 A  
HETATM    4  C   UNL     1     -11.151   6.587  70.995  1.00  0.00    -0.288 A  
HETATM    5  N   UNL     1     -11.997   6.058  71.976  1.00  0.00    -0.253 NA 
HETATM    6  C   UNL     1      -9.939   7.237  71.296  1.00  0.00    -0.191 A  
HETATM    7  H2  UNL     1     -12.018   5.041  71.889  1.00  0.00     0.000 HD 
HETATM    8  C   UNL     1      -9.544   7.507  72.627  1.00  0.00    -0.220 A  
HETATM    9  H1  UNL     1     -11.810   6.309  72.946  1.00  0.00     0.000 HD 
HETATM   10  C   UNL     1      -8.352   8.165  72.925  1.00  0.00    -0.248 A  
HETATM   11  C   UNL     1      -7.525   8.584  71.901  1.00  0.00    -0.127 A  
HETATM   12  C   UNL     1      -7.883   8.327  70.574  1.00  0.00    -0.087 A  
HETATM   13  C   UNL     1      -9.072   7.628  70.242  1.00  0.00    -0.149 A  
HETATM   14  N   UNL     1      -9.395   7.301  68.943  1.00  0.00    -0.145 NA 
ENDROOT
BRANCH  14  15
HETATM   15  C   UNL     1      -8.457   7.638  67.837  1.00  0.00    -0.123 C  
BRANCH  15  16
HETATM   16  C   UNL     1      -7.486   6.487  67.584  1.00  0.00    -0.097 C  
BRANCH  16  17
HETATM   17  C   UNL     1      -6.685   6.697  66.303  1.00  0.00    -0.049 C  
BRANCH  17  18
HETATM   18  C   UNL     1      -7.495   6.399  65.038  1.00  0.00    -0.084 C  
BRANCH  18  19
HETATM   19  C   UNL     1      -7.818   7.662  64.247  1.00  0.00    -0.135 C  
BRANCH  19  20
HETATM   20  C   UNL     1      -6.708   8.714  64.310  1.00  0.00    -0.074 C  
BRANCH  20  21
HETATM   21  C   UNL     1      -7.109   9.996  65.051  1.00  0.00    -0.136 C  
BRANCH  21  22
HETATM   22  C   UNL     1      -8.550  10.428  64.761  1.00  0.00    -0.190 C  
BRANCH  22  23
HETATM   23  C   UNL     1      -9.058  11.517  65.713  1.00  0.00    -0.164 C  
BRANCH  23  24
HETATM   24  C   UNL     1     -10.577  11.462  65.871  1.00  0.00    -0.263 C  
BRANCH  24  25
HETATM   25  N   UNL     1     -11.033  12.435  66.897  1.00  0.00    -0.255 NA 
HETATM   26  C   UNL     1     -11.246  13.744  66.556  1.00  0.00    -0.312 A  
HETATM   27  C   UNL     1     -11.744  14.637  67.508  1.00  0.00    -0.403 A  
HETATM   28  C   UNL     1     -11.044  14.326  65.175  1.00  0.00    -0.354 C  
HETATM   29  C   UNL     1     -12.006  14.241  68.810  1.00  0.00    -0.311 A  
HETATM   30  N   UNL     1     -12.637  15.163  69.651  1.00  0.00    -0.610 NA 
HETATM   31  C   UNL     1     -11.845  12.884  69.134  1.00  0.00    -0.353 A  
HETATM   32  H1  UNL     1     -12.830  14.872  70.609  1.00  0.00     0.000 HD 
HETATM   33  C   UNL     1     -11.314  11.984  68.170  1.00  0.00    -0.291 A  
HETATM   34  H2  UNL     1     -13.503  15.480  69.214  1.00  0.00     0.000 HD 
HETATM   35  C   UNL     1     -11.116  10.633  68.553  1.00  0.00    -0.318 A  
HETATM   36  C   UNL     1     -11.469  10.162  69.816  1.00  0.00    -0.288 A  
HETATM   37  C   UNL     1     -12.024  11.030  70.736  1.00  0.00    -0.436 A  
HETATM   38  C   UNL     1     -12.202  12.372  70.403  1.00  0.00    -0.370 A  
ENDBRANCH  24  25
ENDBRANCH  23  24
ENDBRANCH  22  23
ENDBRANCH  21  22
ENDBRANCH  20  21
ENDBRANCH  19  20
ENDBRANCH  18  19
ENDBRANCH  17  18
ENDBRANCH  16  17
ENDBRANCH  15  16
ENDBRANCH  14  15
TORSDOF 11
ENDMDL
MODEL      202
REMARK 921   NORMALIZED FREE ENERGY PREDICTED BY IDOCK:   -5.79 KCAL/MOL
REMARK 922        TOTAL FREE ENERGY PREDICTED BY IDOCK:  -10.87 KCAL/MOL
REMARK 923 INTER-LIGAND FREE ENERGY PREDICTED BY IDOCK:   -8.67 KCAL/MOL
REMARK 924 INTRA-LIGAND FREE ENERGY PREDICTED BY IDOCK:   -2.19 KCAL/MOL
REMARK 927      BINDING AFFINITY PREDICTED BY RF-SCORE:    0.00 PKD
ROOT
HETATM    1  C   UNL     1     -10.975   6.371  67.984  1.00  0.00    -0.400 C  
HETATM    2  C   UNL     1     -10.766   6.678  69.450  1.00  0.00    -0.259 A  
HETATM    3  C   UNL     1     -11.779   6.332  70.335  1.00  0.00    -0.290 A  
HETATM    4  C   UNL     1     -11.661   6.566  71.697  1.00  0.00    -0.324 A  
HETATM    5  N   UNL     1     -12.663   6.057  72.530  1.00  0.00    -0.441 NA 
HETATM    6  C   UNL     1     -10.444   7.081  72.184  1.00  0.00    -0.234 A  
HETATM    7  H2  UNL     1     -12.759   5.055  72.368  1.00  0.00     0.000 HD 
HETATM    8  C   UNL     1     -10.195   7.229  73.568  1.00  0.00    -0.404 A  
HETATM    9  H1  UNL     1     -12.576   6.230  73.532  1.00  0.00     0.000 HD 
HETATM   10  C   UNL     1      -8.997   7.754  74.051  1.00  0.00    -0.273 A  
HETATM   11  C   UNL     1      -8.018   8.157  73.164  1.00  0.00    -0.223 A  
HETATM   12  C   UNL     1      -8.230   8.018  71.790  1.00  0.00    -0.151 A  
HETATM   13  C   UNL     1      -9.424   7.454  71.271  1.00  0.00    -0.154 A  
HETATM   14  N   UNL     1      -9.612   7.240  69.922  1.00  0.00    -0.164 NA 
ENDROOT
BRANCH  14  15
HETATM   15  C   UNL     1      -8.519   7.557  68.961  1.00  0.00    -0.133 C  
BRANCH  15  16
HETATM   16  C   UNL     1      -7.796   6.283  68.528  1.00  0.00    -0.105 C  
BRANCH  16  17
HETATM   17  C   UNL     1      -7.002   6.496  67.242  1.00  0.00    -0.075 C  
BRANCH  17  18
HETATM   18  C   UNL     1      -7.793   6.122  65.985  1.00  0.00    -0.106 C  
BRANCH  18  19
HETATM   19  C   UNL     1      -8.473   7.330  65.349  1.00  0.00    -0.096 C  
BRANCH  19  20
HETATM   20  C   UNL     1      -7.666   8.622  65.495  1.00  0.00    -0.092 C  
BRANCH  20  21
HETATM   21  C   UNL     1      -8.446   9.770  66.150  1.00  0.00    -0.130 C  
BRANCH  21  22
HETATM   22  C   UNL     1      -9.947   9.486  66.260  1.00  0.00    -0.344 C  
BRANCH  22  23
HETATM   23  C   UNL     1     -10.738  10.650  66.868  1.00  0.00    -0.297 C  
BRANCH  23  24
HETATM   24  C   UNL     1      -9.978  11.305  68.022  1.00  0.00    -0.179 C  
BRANCH  24  25
HETATM   25  N   UNL     1     -10.873  12.205  68.794  1.00  0.00    -0.227 NA 
HETATM   26  C   UNL     1     -11.539  11.735  69.894  1.00  0.00    -0.274 A  
HETATM   27  C   UNL     1     -12.321  12.607  70.657  1.00  0.00    -0.375 A  
HETATM   28  C   UNL     1     -11.458  10.320  70.419  1.00  0.00    -0.415 C  
HETATM   29  C   UNL     1     -12.467  13.942  70.315  1.00  0.00    -0.314 A  
HETATM   30  N   UNL     1     -13.147  14.767  71.215  1.00  0.00    -0.346 NA 
HETATM   31  C   UNL     1     -11.731  14.429  69.223  1.00  0.00    -0.358 A  
HETATM   32  H1  UNL     1     -13.255  15.750  70.964  1.00  0.00     0.000 HD 
HETATM   33  C   UNL     1     -10.956  13.534  68.434  1.00  0.00    -0.266 A  
HETATM   34  H2  UNL     1     -12.708  14.701  72.133  1.00  0.00     0.000 HD 
HETATM   35  C   UNL     1     -10.271  14.057  67.308  1.00  0.00    -0.260 A  
HETATM   36  C   UNL     1     -10.297  15.412  66.988  1.00  0.00    -0.280 A  
HETATM   37  C   UNL     1     -11.016  16.286  67.782  1.00  0.00    -0.281 A  
HETATM   38  C   UNL     1     -11.728  15.800  68.878  1.00  0.00    -0.404 A  
ENDBRANCH  24  25
ENDBRANCH  23  24
ENDBRANCH  22  23
ENDBRANCH  21  22
ENDBRANCH  20  21
ENDBRANCH  19  20
ENDBRANCH  18  19
ENDBRANCH  17  18
ENDBRANCH  16  17
ENDBRANCH  15  16
ENDBRANCH  14  15
TORSDOF 11
ENDMDL
MODEL      203
REMARK 921   NORMALIZED FREE ENERGY PREDICTED BY IDOCK:   -5.78 KCAL/MOL
REMARK 922        TOTAL FREE ENERGY PREDICTED BY IDOCK:  -10.85 KCAL/MOL
REMARK 923 INTER-LIGAND FREE ENERGY PREDICTED BY IDOCK:   -7.66 KCAL/MOL
REMARK 924 INTRA-LIGAND FREE ENERGY PREDICTED BY IDOCK:   -3.19 KCAL/MOL
REMARK 927      BINDING AFFINITY PREDICTED BY RF-SCORE:    0.00 PKD
ROOT
HETATM    1  C   UNL     1      -9.507  10.069  64.921  1.00  0.00    -0.355 C  
HETATM    2  C   UNL     1      -9.631  10.011  66.427  1.00  0.00    -0.196 A  
HETATM    3  C   UNL     1     -10.776  10.546  67.004  1.00  0.00    -0.310 A  
HETATM    4  C   UNL     1     -10.974  10.521  68.376  1.00  0.00    -0.261 A  
HETATM    5  N   UNL     1     -12.215  10.951  68.859  1.00  0.00    -0.764 NA 
HETATM    6  C   UNL     1     -10.028   9.852  69.176  1.00  0.00    -0.205 A  
HETATM    7  H2  UNL     1     -12.956  10.421  68.402  1.00  0.00     0.000 HD 
HETATM    8  C   UNL     1     -10.218   9.668  70.565  1.00  0.00    -0.351 A  
HETATM    9  H1  UNL     1     -12.360  10.933  69.868  1.00  0.00     0.000 HD 
HETATM   10  C   UNL     1      -9.275   9.021  71.362  1.00  0.00    -0.293 A  
HETATM   11  C   UNL     1      -8.108   8.546  70.794  1.00  0.00    -0.128 A  
HETATM   12  C   UNL     1      -7.893   8.705  69.422  1.00  0.00    -0.096 A  
HETATM   13  C   UNL     1      -8.850   9.328  68.581  1.00  0.00    -0.132 A  
HETATM   14  N   UNL     1      -8.684   9.420  67.216  1.00  0.00    -0.128 NA 
ENDROOT
BRANCH  14  15
HETATM   15  C   UNL     1      -7.489   8.808  66.572  1.00  0.00    -0.085 C  
BRANCH  15  16
HETATM   16  C   UNL     1      -7.709   7.314  66.339  1.00  0.00    -0.093 C  
BRANCH  16  17
HETATM   17  C   UNL     1      -6.389   6.578  66.128  1.00  0.00    -0.042 C  
BRANCH  17  18
HETATM   18  C   UNL     1      -6.536   5.056  66.213  1.00  0.00    -0.049 C  
BRANCH  18  19
HETATM   19  C   UNL     1      -7.689   4.538  65.358  1.00  0.00    -0.086 C  
BRANCH  19  20
HETATM   20  C   UNL     1      -8.164   3.142  65.768  1.00  0.00    -0.094 C  
BRANCH  20  21
HETATM   21  C   UNL     1      -7.499   2.610  67.044  1.00  0.00    -0.069 C  
BRANCH  21  22
HETATM   22  C   UNL     1      -8.496   2.368  68.181  1.00  0.00    -0.097 C  
BRANCH  22  23
HETATM   23  C   UNL     1      -9.504   3.511  68.354  1.00  0.00    -0.209 C  
BRANCH  23  24
HETATM   24  C   UNL     1      -8.900   4.680  69.133  1.00  0.00    -0.093 C  
BRANCH  24  25
HETATM   25  N   UNL     1      -9.938   5.352  69.956  1.00  0.00    -0.212 NA 
HETATM   26  C   UNL     1     -10.867   6.165  69.364  1.00  0.00    -0.353 A  
HETATM   27  C   UNL     1     -11.884   6.735  70.134  1.00  0.00    -0.321 A  
HETATM   28  C   UNL     1     -10.937   6.469  67.884  1.00  0.00    -0.382 C  
HETATM   29  C   UNL     1     -11.966   6.523  71.502  1.00  0.00    -0.329 A  
HETATM   30  N   UNL     1     -13.095   7.013  72.164  1.00  0.00    -0.543 NA 
HETATM   31  C   UNL     1     -11.048   5.638  72.090  1.00  0.00    -0.300 A  
HETATM   32  H1  UNL     1     -13.157   6.857  73.170  1.00  0.00     0.000 HD 
HETATM   33  C   UNL     1     -10.000   5.080  71.307  1.00  0.00    -0.197 A  
HETATM   34  H2  UNL     1     -13.935   6.647  71.714  1.00  0.00     0.000 HD 
HETATM   35  C   UNL     1      -9.061   4.234  71.951  1.00  0.00    -0.162 A  
HETATM   36  C   UNL     1      -9.167   3.901  73.300  1.00  0.00    -0.118 A  
HETATM   37  C   UNL     1     -10.211   4.412  74.047  1.00  0.00    -0.247 A  
HETATM   38  C   UNL     1     -11.132   5.272  73.453  1.00  0.00    -0.362 A  
ENDBRANCH  24  25
ENDBRANCH  23  24
ENDBRANCH  22  23
ENDBRANCH  21  22
ENDBRANCH  20  21
ENDBRANCH  19  20
ENDBRANCH  18  19
ENDBRANCH  17  18
ENDBRANCH  16  17
ENDBRANCH  15  16
ENDBRANCH  14  15
TORSDOF 11
ENDMDL
MODEL      204
REMARK 921   NORMALIZED FREE ENERGY PREDICTED BY IDOCK:   -5.76 KCAL/MOL
REMARK 922        TOTAL FREE ENERGY PREDICTED BY IDOCK:  -10.81 KCAL/MOL
REMARK 923 INTER-LIGAND FREE ENERGY PREDICTED BY IDOCK:   -9.13 KCAL/MOL
REMARK 924 INTRA-LIGAND FREE ENERGY PREDICTED BY IDOCK:   -1.68 KCAL/MOL
REMARK 927      BINDING AFFINITY PREDICTED BY RF-SCORE:    0.00 PKD
ROOT
HETATM    1  C   UNL     1     -10.224  16.703  68.587  1.00  0.00    -0.284 C  
HETATM    2  C   UNL     1     -10.734  15.901  67.412  1.00  0.00    -0.313 A  
HETATM    3  C   UNL     1     -10.837  16.543  66.184  1.00  0.00    -0.050 A  
HETATM    4  C   UNL     1     -11.282  15.876  65.053  1.00  0.00    -0.290 A  
HETATM    5  N   UNL     1     -11.219  16.557  63.833  1.00  0.00    -1.400 NA 
HETATM    6  C   UNL     1     -11.541  14.495  65.150  1.00  0.00    -0.371 A  
HETATM    7  H2  UNL     1     -10.265  16.883  63.678  1.00  0.00     0.000 HD 
HETATM    8  C   UNL     1     -11.874  13.715  64.018  1.00  0.00    -0.444 A  
HETATM    9  H1  UNL     1     -11.546  16.066  63.001  1.00  0.00     0.000 HD 
HETATM   10  C   UNL     1     -12.147  12.351  64.115  1.00  0.00    -0.539 A  
HETATM   11  C   UNL     1     -12.106  11.729  65.348  1.00  0.00     0.247 A  
HETATM   12  C   UNL     1     -11.773  12.470  66.485  1.00  0.00    -0.454 A  
HETATM   13  C   UNL     1     -11.456  13.851  66.412  1.00  0.00    -0.344 A  
HETATM   14  N   UNL     1     -11.050  14.574  67.514  1.00  0.00    -0.297 NA 
ENDROOT
BRANCH  14  15
HETATM   15  C   UNL     1     -10.885  13.892  68.827  1.00  0.00    -0.263 C  
BRANCH  15  16
HETATM   16  C   UNL     1     -12.050  14.225  69.757  1.00  0.00    -0.401 C  
BRANCH  16  17
HETATM   17  C   UNL     1     -12.412  13.042  70.651  1.00  0.00    -0.347 C  
BRANCH  17  18
HETATM   18  C   UNL     1     -12.194  11.690  69.965  1.00  0.00    -0.338 C  
BRANCH  18  19
HETATM   19  C   UNL     1     -12.375  10.519  70.927  1.00  0.00    -0.490 C  
BRANCH  19  20
HETATM   20  C   UNL     1     -11.138   9.623  71.026  1.00  0.00    -0.438 C  
BRANCH  20  21
HETATM   21  C   UNL     1     -10.124   9.837  69.895  1.00  0.00    -0.288 C  
BRANCH  21  22
HETATM   22  C   UNL     1      -8.979   8.820  69.918  1.00  0.00    -0.152 C  
BRANCH  22  23
HETATM   23  C   UNL     1      -9.366   7.462  69.320  1.00  0.00    -0.154 C  
BRANCH  23  24
HETATM   24  C   UNL     1     -10.107   7.622  67.993  1.00  0.00    -0.187 C  
BRANCH  24  25
HETATM   25  N   UNL     1      -9.244   7.207  66.857  1.00  0.00    -0.141 NA 
HETATM   26  C   UNL     1      -9.286   5.918  66.397  1.00  0.00    -0.150 A  
HETATM   27  C   UNL     1      -8.525   5.554  65.283  1.00  0.00    -0.147 A  
HETATM   28  C   UNL     1     -10.158   4.821  66.965  1.00  0.00    -0.228 C  
HETATM   29  C   UNL     1      -7.699   6.461  64.638  1.00  0.00    -0.107 A  
HETATM   30  N   UNL     1      -7.090   6.047  63.449  1.00  0.00    -0.045 NA 
HETATM   31  C   UNL     1      -7.711   7.795  65.077  1.00  0.00    -0.107 A  
HETATM   32  H1  UNL     1      -6.482   6.714  62.974  1.00  0.00     0.000 HD 
HETATM   33  C   UNL     1      -8.466   8.156  66.226  1.00  0.00    -0.131 A  
HETATM   34  H2  UNL     1      -7.806   5.721  62.799  1.00  0.00     0.000 HD 
HETATM   35  C   UNL     1      -8.409   9.502  66.670  1.00  0.00    -0.116 A  
HETATM   36  C   UNL     1      -7.681  10.475  65.989  1.00  0.00    -0.147 A  
HETATM   37  C   UNL     1      -6.982  10.129  64.848  1.00  0.00    -0.131 A  
HETATM   38  C   UNL     1      -6.991   8.809  64.404  1.00  0.00    -0.085 A  
ENDBRANCH  24  25
ENDBRANCH  23  24
ENDBRANCH  22  23
ENDBRANCH  21  22
ENDBRANCH  20  21
ENDBRANCH  19  20
ENDBRANCH  18  19
ENDBRANCH  17  18
ENDBRANCH  16  17
ENDBRANCH  15  16
ENDBRANCH  14  15
TORSDOF 11
ENDMDL
MODEL      205
REMARK 921   NORMALIZED FREE ENERGY PREDICTED BY IDOCK:   -5.75 KCAL/MOL
REMARK 922        TOTAL FREE ENERGY PREDICTED BY IDOCK:  -10.81 KCAL/MOL
REMARK 923 INTER-LIGAND FREE ENERGY PREDICTED BY IDOCK:   -8.83 KCAL/MOL
REMARK 924 INTRA-LIGAND FREE ENERGY PREDICTED BY IDOCK:   -1.97 KCAL/MOL
REMARK 927      BINDING AFFINITY PREDICTED BY RF-SCORE:    0.00 PKD
ROOT
HETATM    1  C   UNL     1      -9.120   3.226  67.526  1.00  0.00    -0.205 C  
HETATM    2  C   UNL     1      -8.986   4.631  66.983  1.00  0.00    -0.113 A  
HETATM    3  C   UNL     1      -8.245   4.810  65.822  1.00  0.00    -0.112 A  
HETATM    4  C   UNL     1      -8.085   6.063  65.251  1.00  0.00    -0.134 A  
HETATM    5  N   UNL     1      -7.446   6.132  64.009  1.00  0.00    -0.075 NA 
HETATM    6  C   UNL     1      -8.773   7.150  65.823  1.00  0.00    -0.125 A  
HETATM    7  H2  UNL     1      -7.926   5.520  63.348  1.00  0.00     0.000 HD 
HETATM    8  C   UNL     1      -8.768   8.435  65.230  1.00  0.00    -0.148 A  
HETATM    9  H1  UNL     1      -7.329   7.054  63.589  1.00  0.00     0.000 HD 
HETATM   10  C   UNL     1      -9.435   9.516  65.803  1.00  0.00    -0.314 A  
HETATM   11  C   UNL     1     -10.118   9.349  66.993  1.00  0.00    -0.304 A  
HETATM   12  C   UNL     1     -10.148   8.091  67.601  1.00  0.00    -0.269 A  
HETATM   13  C   UNL     1      -9.509   6.964  67.022  1.00  0.00    -0.151 A  
HETATM   14  N   UNL     1      -9.598   5.703  67.572  1.00  0.00    -0.114 NA 
ENDROOT
BRANCH  14  15
HETATM   15  C   UNL     1     -10.429   5.481  68.787  1.00  0.00    -0.191 C  
BRANCH  15  16
HETATM   16  C   UNL     1      -9.581   5.612  70.051  1.00  0.00    -0.214 C  
BRANCH  16  17
HETATM   17  C   UNL     1     -10.171   4.812  71.209  1.00  0.00    -0.229 C  
BRANCH  17  18
HETATM   18  C   UNL     1     -10.554   5.690  72.404  1.00  0.00    -0.270 C  
BRANCH  18  19
HETATM   19  C   UNL     1     -11.596   6.743  72.037  1.00  0.00    -0.327 C  
BRANCH  19  20
HETATM   20  C   UNL     1     -11.169   8.167  72.402  1.00  0.00    -0.452 C  
BRANCH  20  21
HETATM   21  C   UNL     1     -10.830   9.043  71.189  1.00  0.00    -0.364 C  
BRANCH  21  22
HETATM   22  C   UNL     1     -11.894  10.108  70.905  1.00  0.00    -0.468 C  
BRANCH  22  23
HETATM   23  C   UNL     1     -11.355  11.303  70.111  1.00  0.00    -0.251 C  
BRANCH  23  24
HETATM   24  C   UNL     1     -12.488  12.135  69.508  1.00  0.00     0.202 C  
BRANCH  24  25
HETATM   25  N   UNL     1     -11.983  13.453  69.047  1.00  0.00    -0.327 NA 
HETATM   26  C   UNL     1     -11.849  14.488  69.935  1.00  0.00    -0.317 A  
HETATM   27  C   UNL     1     -11.304  15.702  69.509  1.00  0.00    -0.329 A  
HETATM   28  C   UNL     1     -12.192  14.419  71.405  1.00  0.00    -0.424 C  
HETATM   29  C   UNL     1     -10.915  15.903  68.194  1.00  0.00    -0.335 A  
HETATM   30  N   UNL     1     -10.249  17.095  67.894  1.00  0.00    -0.314 NA 
HETATM   31  C   UNL     1     -10.997  14.818  67.306  1.00  0.00    -0.318 A  
HETATM   32  H1  UNL     1      -9.963  17.244  66.926  1.00  0.00     0.000 HD 
HETATM   33  C   UNL     1     -11.575  13.592  67.737  1.00  0.00    -0.338 A  
HETATM   34  H2  UNL     1      -9.437  17.191  68.504  1.00  0.00     0.000 HD 
HETATM   35  C   UNL     1     -11.689  12.538  66.795  1.00  0.00    -0.453 A  
HETATM   36  C   UNL     1     -11.210  12.655  65.492  1.00  0.00    -0.337 A  
HETATM   37  C   UNL     1     -10.610  13.833  65.089  1.00  0.00    -0.385 A  
HETATM   38  C   UNL     1     -10.512  14.900  65.980  1.00  0.00    -0.326 A  
ENDBRANCH  24  25
ENDBRANCH  23  24
ENDBRANCH  22  23
ENDBRANCH  21  22
ENDBRANCH  20  21
ENDBRANCH  19  20
ENDBRANCH  18  19
ENDBRANCH  17  18
ENDBRANCH  16  17
ENDBRANCH  15  16
ENDBRANCH  14  15
TORSDOF 11
ENDMDL
MODEL      206
REMARK 921   NORMALIZED FREE ENERGY PREDICTED BY IDOCK:   -5.75 KCAL/MOL
REMARK 922        TOTAL FREE ENERGY PREDICTED BY IDOCK:  -10.79 KCAL/MOL
REMARK 923 INTER-LIGAND FREE ENERGY PREDICTED BY IDOCK:   -9.25 KCAL/MOL
REMARK 924 INTRA-LIGAND FREE ENERGY PREDICTED BY IDOCK:   -1.55 KCAL/MOL
REMARK 927      BINDING AFFINITY PREDICTED BY RF-SCORE:    0.00 PKD
ROOT
HETATM    1  C   UNL     1      -5.882   9.853  69.027  1.00  0.00    -0.034 C  
HETATM    2  C   UNL     1      -7.085   9.023  69.415  1.00  0.00    -0.056 A  
HETATM    3  C   UNL     1      -7.569   9.149  70.711  1.00  0.00    -0.149 A  
HETATM    4  C   UNL     1      -8.677   8.435  71.142  1.00  0.00    -0.159 A  
HETATM    5  N   UNL     1      -9.181   8.728  72.414  1.00  0.00    -0.375 NA 
HETATM    6  C   UNL     1      -9.368   7.643  70.205  1.00  0.00    -0.157 A  
HETATM    7  H2  UNL     1      -9.379   9.726  72.476  1.00  0.00     0.000 HD 
HETATM    8  C   UNL     1     -10.577   6.985  70.528  1.00  0.00    -0.245 A  
HETATM    9  H1  UNL     1      -9.995   8.202  72.730  1.00  0.00     0.000 HD 
HETATM   10  C   UNL     1     -11.254   6.186  69.608  1.00  0.00    -0.488 A  
HETATM   11  C   UNL     1     -10.735   6.013  68.339  1.00  0.00    -0.351 A  
HETATM   12  C   UNL     1      -9.545   6.655  67.985  1.00  0.00    -0.123 A  
HETATM   13  C   UNL     1      -8.853   7.501  68.890  1.00  0.00    -0.135 A  
HETATM   14  N   UNL     1      -7.722   8.200  68.527  1.00  0.00    -0.110 NA 
ENDROOT
BRANCH  14  15
HETATM   15  C   UNL     1      -7.217   8.119  67.129  1.00  0.00    -0.084 C  
BRANCH  15  16
HETATM   16  C   UNL     1      -7.865   9.195  66.259  1.00  0.00    -0.103 C  
BRANCH  16  17
HETATM   17  C   UNL     1      -7.177   9.312  64.902  1.00  0.00    -0.102 C  
BRANCH  17  18
HETATM   18  C   UNL     1      -8.164   9.517  63.749  1.00  0.00    -0.161 C  
BRANCH  18  19
HETATM   19  C   UNL     1      -9.423  10.257  64.191  1.00  0.00    -0.358 C  
BRANCH  19  20
HETATM   20  C   UNL     1     -10.023  11.137  63.092  1.00  0.00    -0.393 C  
BRANCH  20  21
HETATM   21  C   UNL     1     -10.667  12.428  63.613  1.00  0.00    -0.497 C  
BRANCH  21  22
HETATM   22  C   UNL     1     -12.083  12.213  64.154  1.00  0.00    -0.501 C  
BRANCH  22  23
HETATM   23  C   UNL     1     -12.328  12.907  65.499  1.00  0.00    -0.517 C  
BRANCH  23  24
HETATM   24  C   UNL     1     -11.068  12.915  66.365  1.00  0.00    -0.285 C  
BRANCH  24  25
HETATM   25  N   UNL     1     -11.316  13.628  67.644  1.00  0.00    -0.286 NA 
HETATM   26  C   UNL     1     -11.688  12.929  68.761  1.00  0.00    -0.323 A  
HETATM   27  C   UNL     1     -11.848  13.597  69.978  1.00  0.00    -0.378 A  
HETATM   28  C   UNL     1     -11.891  11.432  68.820  1.00  0.00    -0.388 C  
HETATM   29  C   UNL     1     -11.667  14.967  70.084  1.00  0.00    -0.299 A  
HETATM   30  N   UNL     1     -11.707  15.525  71.365  1.00  0.00    -0.366 NA 
HETATM   31  C   UNL     1     -11.225  15.666  68.949  1.00  0.00    -0.311 A  
HETATM   32  H1  UNL     1     -11.573  16.533  71.445  1.00  0.00     0.000 HD 
HETATM   33  C   UNL     1     -11.087  14.987  67.708  1.00  0.00    -0.310 A  
HETATM   34  H2  UNL     1     -11.030  15.048  71.962  1.00  0.00     0.000 HD 
HETATM   35  C   UNL     1     -10.690  15.740  66.573  1.00  0.00    -0.283 A  
HETATM   36  C   UNL     1     -10.388  17.097  66.654  1.00  0.00    -0.310 A  
HETATM   37  C   UNL     1     -10.482  17.745  67.872  1.00  0.00    -0.401 A  
HETATM   38  C   UNL     1     -10.901  17.042  69.000  1.00  0.00    -0.206 A  
ENDBRANCH  24  25
ENDBRANCH  23  24
ENDBRANCH  22  23
ENDBRANCH  21  22
ENDBRANCH  20  21
ENDBRANCH  19  20
ENDBRANCH  18  19
ENDBRANCH  17  18
ENDBRANCH  16  17
ENDBRANCH  15  16
ENDBRANCH  14  15
TORSDOF 11
ENDMDL
MODEL      207
REMARK 921   NORMALIZED FREE ENERGY PREDICTED BY IDOCK:   -5.74 KCAL/MOL
REMARK 922        TOTAL FREE ENERGY PREDICTED BY IDOCK:  -10.79 KCAL/MOL
REMARK 923 INTER-LIGAND FREE ENERGY PREDICTED BY IDOCK:   -8.73 KCAL/MOL
REMARK 924 INTRA-LIGAND FREE ENERGY PREDICTED BY IDOCK:   -2.05 KCAL/MOL
REMARK 927      BINDING AFFINITY PREDICTED BY RF-SCORE:    0.00 PKD
ROOT
HETATM    1  C   UNL     1      -6.712  10.820  69.703  1.00  0.00    -0.122 C  
HETATM    2  C   UNL     1      -7.753   9.740  69.515  1.00  0.00    -0.120 A  
HETATM    3  C   UNL     1      -8.621   9.486  70.570  1.00  0.00    -0.231 A  
HETATM    4  C   UNL     1      -9.613   8.522  70.474  1.00  0.00    -0.170 A  
HETATM    5  N   UNL     1     -10.530   8.431  71.527  1.00  0.00    -0.222 NA 
HETATM    6  C   UNL     1      -9.790   7.864  69.242  1.00  0.00    -0.177 A  
HETATM    7  H2  UNL     1     -10.960   9.343  71.679  1.00  0.00     0.000 HD 
HETATM    8  C   UNL     1     -10.857   6.963  69.021  1.00  0.00    -0.247 A  
HETATM    9  H1  UNL     1     -11.260   7.722  71.456  1.00  0.00     0.000 HD 
HETATM   10  C   UNL     1     -11.023   6.297  67.807  1.00  0.00    -0.427 A  
HETATM   11  C   UNL     1     -10.121   6.505  66.782  1.00  0.00    -0.239 A  
HETATM   12  C   UNL     1      -9.058   7.395  66.966  1.00  0.00    -0.155 A  
HETATM   13  C   UNL     1      -8.884   8.112  68.177  1.00  0.00    -0.132 A  
HETATM   14  N   UNL     1      -7.888   9.050  68.342  1.00  0.00    -0.102 NA 
ENDROOT
BRANCH  14  15
HETATM   15  C   UNL     1      -6.980   9.374  67.207  1.00  0.00    -0.085 C  
BRANCH  15  16
HETATM   16  C   UNL     1      -7.545  10.524  66.377  1.00  0.00    -0.132 C  
BRANCH  16  17
HETATM   17  C   UNL     1      -7.615  10.168  64.894  1.00  0.00    -0.138 C  
BRANCH  17  18
HETATM   18  C   UNL     1      -9.051   9.983  64.394  1.00  0.00    -0.289 C  
BRANCH  18  19
HETATM   19  C   UNL     1     -10.068  10.695  65.279  1.00  0.00    -0.363 C  
BRANCH  19  20
HETATM   20  C   UNL     1     -10.970  11.661  64.507  1.00  0.00    -0.376 C  
BRANCH  20  21
HETATM   21  C   UNL     1     -11.916  12.475  65.399  1.00  0.00    -0.492 C  
BRANCH  21  22
HETATM   22  C   UNL     1     -12.080  13.923  64.931  1.00  0.00    -0.434 C  
BRANCH  22  23
HETATM   23  C   UNL     1     -11.035  14.873  65.526  1.00  0.00    -0.355 C  
BRANCH  23  24
HETATM   24  C   UNL     1     -11.343  15.204  66.987  1.00  0.00    -0.277 C  
BRANCH  24  25
HETATM   25  N   UNL     1     -10.129  15.714  67.676  1.00  0.00    -0.245 NA 
HETATM   26  C   UNL     1      -9.212  14.838  68.191  1.00  0.00    -0.195 A  
HETATM   27  C   UNL     1      -8.038  15.324  68.773  1.00  0.00    -0.165 A  
HETATM   28  C   UNL     1      -9.324  13.331  68.135  1.00  0.00    -0.220 C  
HETATM   29  C   UNL     1      -7.783  16.683  68.870  1.00  0.00    -0.239 A  
HETATM   30  N   UNL     1      -6.522  17.071  69.333  1.00  0.00    -0.233 NA 
HETATM   31  C   UNL     1      -8.698  17.571  68.282  1.00  0.00    -0.270 A  
HETATM   32  H1  UNL     1      -6.334  18.070  69.405  1.00  0.00     0.000 HD 
HETATM   33  C   UNL     1      -9.903  17.074  67.714  1.00  0.00    -0.271 A  
HETATM   34  H2  UNL     1      -5.802  16.633  68.759  1.00  0.00     0.000 HD 
HETATM   35  C   UNL     1     -10.827  18.009  67.180  1.00  0.00    -0.183 A  
HETATM   36  C   UNL     1     -10.564  19.376  67.153  1.00  0.00    -0.596 A  
HETATM   37  C   UNL     1      -9.373  19.852  67.668  1.00  0.00    -0.464 A  
HETATM   38  C   UNL     1      -8.458  18.964  68.230  1.00  0.00    -0.365 A  
ENDBRANCH  24  25
ENDBRANCH  23  24
ENDBRANCH  22  23
ENDBRANCH  21  22
ENDBRANCH  20  21
ENDBRANCH  19  20
ENDBRANCH  18  19
ENDBRANCH  17  18
ENDBRANCH  16  17
ENDBRANCH  15  16
ENDBRANCH  14  15
TORSDOF 11
ENDMDL
MODEL      208
REMARK 921   NORMALIZED FREE ENERGY PREDICTED BY IDOCK:   -5.72 KCAL/MOL
REMARK 922        TOTAL FREE ENERGY PREDICTED BY IDOCK:  -10.76 KCAL/MOL
REMARK 923 INTER-LIGAND FREE ENERGY PREDICTED BY IDOCK:   -8.23 KCAL/MOL
REMARK 924 INTRA-LIGAND FREE ENERGY PREDICTED BY IDOCK:   -2.52 KCAL/MOL
REMARK 927      BINDING AFFINITY PREDICTED BY RF-SCORE:    0.00 PKD
ROOT
HETATM    1  C   UNL     1     -11.513  15.011  70.814  1.00  0.00    -0.335 C  
HETATM    2  C   UNL     1     -11.587  14.238  69.517  1.00  0.00    -0.301 A  
HETATM    3  C   UNL     1     -11.775  12.864  69.590  1.00  0.00    -0.367 A  
HETATM    4  C   UNL     1     -11.868  12.084  68.448  1.00  0.00    -0.300 A  
HETATM    5  N   UNL     1     -12.199  10.735  68.610  1.00  0.00    -0.827 NA 
HETATM    6  C   UNL     1     -11.862  12.728  67.196  1.00  0.00    -0.415 A  
HETATM    7  H2  UNL     1     -13.069  10.663  69.139  1.00  0.00     0.000 HD 
HETATM    8  C   UNL     1     -12.080  12.023  65.990  1.00  0.00     0.062 A  
HETATM    9  H1  UNL     1     -12.267  10.161  67.770  1.00  0.00     0.000 HD 
HETATM   10  C   UNL     1     -12.058  12.657  64.748  1.00  0.00    -0.495 A  
HETATM   11  C   UNL     1     -11.807  14.014  64.675  1.00  0.00    -0.433 A  
HETATM   12  C   UNL     1     -11.595  14.741  65.849  1.00  0.00    -0.286 A  
HETATM   13  C   UNL     1     -11.646  14.130  67.128  1.00  0.00    -0.377 A  
HETATM   14  N   UNL     1     -11.516  14.851  68.296  1.00  0.00    -0.311 NA 
ENDROOT
BRANCH  14  15
HETATM   15  C   UNL     1     -11.365  16.331  68.240  1.00  0.00    -0.280 C  
BRANCH  15  16
HETATM   16  C   UNL     1      -9.969  16.712  67.749  1.00  0.00    -0.262 C  
BRANCH  16  17
HETATM   17  C   UNL     1      -9.009  16.949  68.912  1.00  0.00    -0.215 C  
BRANCH  17  18
HETATM   18  C   UNL     1      -8.197  15.703  69.277  1.00  0.00    -0.253 C  
BRANCH  18  19
HETATM   19  C   UNL     1      -7.109  15.400  68.251  1.00  0.00    -0.117 C  
BRANCH  19  20
HETATM   20  C   UNL     1      -6.844  13.903  68.076  1.00  0.00    -0.146 C  
BRANCH  20  21
HETATM   21  C   UNL     1      -8.113  13.041  68.105  1.00  0.00    -0.155 C  
BRANCH  21  22
HETATM   22  C   UNL     1      -8.298  12.208  66.834  1.00  0.00    -0.151 C  
BRANCH  22  23
HETATM   23  C   UNL     1      -8.505  10.715  67.114  1.00  0.00    -0.128 C  
BRANCH  23  24
HETATM   24  C   UNL     1      -9.202  10.015  65.948  1.00  0.00    -0.167 C  
BRANCH  24  25
HETATM   25  N   UNL     1      -8.634   8.659  65.735  1.00  0.00    -0.153 NA 
HETATM   26  C   UNL     1      -7.442   8.507  65.078  1.00  0.00    -0.089 A  
HETATM   27  C   UNL     1      -6.878   7.235  64.947  1.00  0.00    -0.050 A  
HETATM   28  C   UNL     1      -6.613   9.638  64.511  1.00  0.00    -0.102 C  
HETATM   29  C   UNL     1      -7.509   6.105  65.443  1.00  0.00    -0.083 A  
HETATM   30  N   UNL     1      -6.804   4.899  65.393  1.00  0.00    -0.059 NA 
HETATM   31  C   UNL     1      -8.699   6.277  66.169  1.00  0.00    -0.148 A  
HETATM   32  H1  UNL     1      -7.268   4.067  65.758  1.00  0.00     0.000 HD 
HETATM   33  C   UNL     1      -9.282   7.569  66.279  1.00  0.00    -0.146 A  
HETATM   34  H2  UNL     1      -5.904   5.015  65.860  1.00  0.00     0.000 HD 
HETATM   35  C   UNL     1     -10.511   7.692  66.976  1.00  0.00    -0.419 A  
HETATM   36  C   UNL     1     -11.127   6.602  67.588  1.00  0.00    -0.357 A  
HETATM   37  C   UNL     1     -10.536   5.356  67.515  1.00  0.00    -0.235 A  
HETATM   38  C   UNL     1      -9.344   5.194  66.811  1.00  0.00    -0.134 A  
ENDBRANCH  24  25
ENDBRANCH  23  24
ENDBRANCH  22  23
ENDBRANCH  21  22
ENDBRANCH  20  21
ENDBRANCH  19  20
ENDBRANCH  18  19
ENDBRANCH  17  18
ENDBRANCH  16  17
ENDBRANCH  15  16
ENDBRANCH  14  15
TORSDOF 11
ENDMDL
MODEL      209
REMARK 921   NORMALIZED FREE ENERGY PREDICTED BY IDOCK:   -5.72 KCAL/MOL
REMARK 922        TOTAL FREE ENERGY PREDICTED BY IDOCK:  -10.75 KCAL/MOL
REMARK 923 INTER-LIGAND FREE ENERGY PREDICTED BY IDOCK:   -9.12 KCAL/MOL
REMARK 924 INTRA-LIGAND FREE ENERGY PREDICTED BY IDOCK:   -1.63 KCAL/MOL
REMARK 927      BINDING AFFINITY PREDICTED BY RF-SCORE:    0.00 PKD
ROOT
HETATM    1  C   UNL     1     -12.015  14.045  66.796  1.00  0.00    -0.473 C  
HETATM    2  C   UNL     1     -10.809  14.836  67.248  1.00  0.00    -0.309 A  
HETATM    3  C   UNL     1     -11.030  16.065  67.857  1.00  0.00    -0.327 A  
HETATM    4  C   UNL     1      -9.980  16.847  68.314  1.00  0.00    -0.282 A  
HETATM    5  N   UNL     1     -10.298  17.999  69.040  1.00  0.00    -0.433 NA 
HETATM    6  C   UNL     1      -8.675  16.324  68.235  1.00  0.00    -0.190 A  
HETATM    7  H2  UNL     1     -10.898  17.748  69.826  1.00  0.00     0.000 HD 
HETATM    8  C   UNL     1      -7.564  16.999  68.793  1.00  0.00    -0.243 A  
HETATM    9  H1  UNL     1      -9.526  18.574  69.376  1.00  0.00     0.000 HD 
HETATM   10  C   UNL     1      -6.269  16.491  68.702  1.00  0.00    -0.136 A  
HETATM   11  C   UNL     1      -6.044  15.299  68.040  1.00  0.00    -0.157 A  
HETATM   12  C   UNL     1      -7.121  14.604  67.483  1.00  0.00    -0.203 A  
HETATM   13  C   UNL     1      -8.454  15.078  67.591  1.00  0.00    -0.160 A  
HETATM   14  N   UNL     1      -9.532  14.363  67.116  1.00  0.00    -0.214 NA 
ENDROOT
BRANCH  14  15
HETATM   15  C   UNL     1      -9.320  13.021  66.507  1.00  0.00    -0.217 C  
BRANCH  15  16
HETATM   16  C   UNL     1      -9.272  11.941  67.586  1.00  0.00    -0.183 C  
BRANCH  16  17
HETATM   17  C   UNL     1      -9.947  10.653  67.125  1.00  0.00    -0.234 C  
BRANCH  17  18
HETATM   18  C   UNL     1     -11.238  10.350  67.892  1.00  0.00    -0.332 C  
BRANCH  18  19
HETATM   19  C   UNL     1     -11.404  11.242  69.119  1.00  0.00    -0.349 C  
BRANCH  19  20
HETATM   20  C   UNL     1     -12.570  10.821  70.017  1.00  0.00    -0.247 C  
BRANCH  20  21
HETATM   21  C   UNL     1     -12.144  10.410  71.433  1.00  0.00    -0.424 C  
BRANCH  21  22
HETATM   22  C   UNL     1     -12.796   9.105  71.898  1.00  0.00    -0.466 C  
BRANCH  22  23
HETATM   23  C   UNL     1     -11.791   7.964  72.095  1.00  0.00    -0.384 C  
BRANCH  23  24
HETATM   24  C   UNL     1     -12.328   6.641  71.549  1.00  0.00    -0.313 C  
BRANCH  24  25
HETATM   25  N   UNL     1     -11.210   5.732  71.188  1.00  0.00    -0.201 NA 
HETATM   26  C   UNL     1     -10.682   4.885  72.126  1.00  0.00    -0.123 A  
HETATM   27  C   UNL     1      -9.681   3.981  71.761  1.00  0.00    -0.241 A  
HETATM   28  C   UNL     1     -11.140   4.788  73.564  1.00  0.00    -0.412 C  
HETATM   29  C   UNL     1      -9.180   3.934  70.469  1.00  0.00    -0.133 A  
HETATM   30  N   UNL     1      -8.286   2.904  70.161  1.00  0.00    -0.044 NA 
HETATM   31  C   UNL     1      -9.770   4.761  69.500  1.00  0.00    -0.271 A  
HETATM   32  H1  UNL     1      -7.918   2.868  69.211  1.00  0.00     0.000 HD 
HETATM   33  C   UNL     1     -10.771   5.696  69.881  1.00  0.00    -0.329 A  
HETATM   34  H2  UNL     1      -8.714   2.006  70.390  1.00  0.00     0.000 HD 
HETATM   35  C   UNL     1     -11.304   6.551  68.882  1.00  0.00    -0.267 A  
HETATM   36  C   UNL     1     -10.912   6.464  67.548  1.00  0.00    -0.454 A  
HETATM   37  C   UNL     1      -9.970   5.525  67.174  1.00  0.00    -0.193 A  
HETATM   38  C   UNL     1      -9.403   4.692  68.136  1.00  0.00    -0.177 A  
ENDBRANCH  24  25
ENDBRANCH  23  24
ENDBRANCH  22  23
ENDBRANCH  21  22
ENDBRANCH  20  21
ENDBRANCH  19  20
ENDBRANCH  18  19
ENDBRANCH  17  18
ENDBRANCH  16  17
ENDBRANCH  15  16
ENDBRANCH  14  15
TORSDOF 11
ENDMDL
MODEL      210
REMARK 921   NORMALIZED FREE ENERGY PREDICTED BY IDOCK:   -5.71 KCAL/MOL
REMARK 922        TOTAL FREE ENERGY PREDICTED BY IDOCK:  -10.74 KCAL/MOL
REMARK 923 INTER-LIGAND FREE ENERGY PREDICTED BY IDOCK:   -8.42 KCAL/MOL
REMARK 924 INTRA-LIGAND FREE ENERGY PREDICTED BY IDOCK:   -2.32 KCAL/MOL
REMARK 927      BINDING AFFINITY PREDICTED BY RF-SCORE:    0.00 PKD
ROOT
HETATM    1  C   UNL     1     -10.539  17.347  69.418  1.00  0.00     0.005 C  
HETATM    2  C   UNL     1      -9.647  17.925  68.343  1.00  0.00    -0.320 A  
HETATM    3  C   UNL     1     -10.218  18.799  67.427  1.00  0.00    -0.444 A  
HETATM    4  C   UNL     1      -9.467  19.384  66.419  1.00  0.00    -0.373 A  
HETATM    5  N   UNL     1     -10.088  20.359  65.631  1.00  0.00    -0.493 NA 
HETATM    6  C   UNL     1      -8.079  19.147  66.396  1.00  0.00    -0.319 A  
HETATM    7  H2  UNL     1     -10.467  21.089  66.235  1.00  0.00     0.000 HD 
HETATM    8  C   UNL     1      -7.222  19.804  65.482  1.00  0.00    -0.276 A  
HETATM    9  H1  UNL     1      -9.535  20.789  64.890  1.00  0.00     0.000 HD 
HETATM   10  C   UNL     1      -5.851  19.558  65.447  1.00  0.00    -0.219 A  
HETATM   11  C   UNL     1      -5.296  18.639  66.318  1.00  0.00    -0.171 A  
HETATM   12  C   UNL     1      -6.114  17.978  67.238  1.00  0.00    -0.168 A  
HETATM   13  C   UNL     1      -7.507  18.234  67.321  1.00  0.00    -0.213 A  
HETATM   14  N   UNL     1      -8.310  17.647  68.275  1.00  0.00    -0.265 NA 
ENDROOT
BRANCH  14  15
HETATM   15  C   UNL     1      -7.708  16.747  69.298  1.00  0.00    -0.076 C  
BRANCH  15  16
HETATM   16  C   UNL     1      -8.310  15.346  69.203  1.00  0.00    -0.242 C  
BRANCH  16  17
HETATM   17  C   UNL     1      -7.424  14.406  68.391  1.00  0.00    -0.119 C  
BRANCH  17  18
HETATM   18  C   UNL     1      -8.079  13.951  67.083  1.00  0.00    -0.103 C  
BRANCH  18  19
HETATM   19  C   UNL     1      -9.456  14.576  66.879  1.00  0.00    -0.263 C  
BRANCH  19  20
HETATM   20  C   UNL     1      -9.522  15.505  65.665  1.00  0.00    -0.271 C  
BRANCH  20  21
HETATM   21  C   UNL     1     -10.952  15.851  65.227  1.00  0.00    -0.334 C  
BRANCH  21  22
HETATM   22  C   UNL     1     -11.943  14.709  65.466  1.00  0.00    -0.256 C  
BRANCH  22  23
HETATM   23  C   UNL     1     -11.889  13.625  64.383  1.00  0.00    -0.460 C  
BRANCH  23  24
HETATM   24  C   UNL     1     -12.189  12.240  64.958  1.00  0.00    -0.304 C  
BRANCH  24  25
HETATM   25  N   UNL     1     -10.971  11.651  65.569  1.00  0.00    -0.291 NA 
HETATM   26  C   UNL     1     -10.910  11.443  66.921  1.00  0.00    -0.285 A  
HETATM   27  C   UNL     1      -9.790  10.821  67.479  1.00  0.00    -0.197 A  
HETATM   28  C   UNL     1     -12.012  11.779  67.901  1.00  0.00    -0.168 C  
HETATM   29  C   UNL     1      -8.712  10.430  66.700  1.00  0.00    -0.135 A  
HETATM   30  N   UNL     1      -7.703   9.688  67.322  1.00  0.00    -0.092 NA 
HETATM   31  C   UNL     1      -8.809  10.590  65.308  1.00  0.00    -0.205 A  
HETATM   32  H1  UNL     1      -6.910   9.399  66.749  1.00  0.00     0.000 HD 
HETATM   33  C   UNL     1      -9.940  11.245  64.748  1.00  0.00    -0.277 A  
HETATM   34  H2  UNL     1      -8.114   8.867  67.767  1.00  0.00     0.000 HD 
HETATM   35  C   UNL     1      -9.974  11.436  63.342  1.00  0.00    -0.435 A  
HETATM   36  C   UNL     1      -8.967  10.960  62.506  1.00  0.00    -0.360 A  
HETATM   37  C   UNL     1      -7.891  10.286  63.051  1.00  0.00    -0.148 A  
HETATM   38  C   UNL     1      -7.810  10.110  64.431  1.00  0.00    -0.138 A  
ENDBRANCH  24  25
ENDBRANCH  23  24
ENDBRANCH  22  23
ENDBRANCH  21  22
ENDBRANCH  20  21
ENDBRANCH  19  20
ENDBRANCH  18  19
ENDBRANCH  17  18
ENDBRANCH  16  17
ENDBRANCH  15  16
ENDBRANCH  14  15
TORSDOF 11
ENDMDL
MODEL      211
REMARK 921   NORMALIZED FREE ENERGY PREDICTED BY IDOCK:   -5.71 KCAL/MOL
REMARK 922        TOTAL FREE ENERGY PREDICTED BY IDOCK:  -10.73 KCAL/MOL
REMARK 923 INTER-LIGAND FREE ENERGY PREDICTED BY IDOCK:   -8.38 KCAL/MOL
REMARK 924 INTRA-LIGAND FREE ENERGY PREDICTED BY IDOCK:   -2.35 KCAL/MOL
REMARK 927      BINDING AFFINITY PREDICTED BY RF-SCORE:    0.00 PKD
ROOT
HETATM    1  C   UNL     1     -13.316   7.317  71.238  1.00  0.00    -0.338 C  
HETATM    2  C   UNL     1     -12.124   6.904  72.071  1.00  0.00    -0.296 A  
HETATM    3  C   UNL     1     -12.070   5.590  72.519  1.00  0.00     0.007 A  
HETATM    4  C   UNL     1     -11.004   5.126  73.276  1.00  0.00    -0.314 A  
HETATM    5  N   UNL     1     -10.961   3.758  73.562  1.00  0.00    -0.232 NA 
HETATM    6  C   UNL     1      -9.920   5.994  73.505  1.00  0.00    -0.189 A  
HETATM    7  H2  UNL     1     -11.011   3.229  72.691  1.00  0.00     0.000 HD 
HETATM    8  C   UNL     1      -8.741   5.563  74.156  1.00  0.00    -0.119 A  
HETATM    9  H1  UNL     1     -10.177   3.417  74.118  1.00  0.00     0.000 HD 
HETATM   10  C   UNL     1      -7.673   6.425  74.399  1.00  0.00    -0.098 A  
HETATM   11  C   UNL     1      -7.756   7.748  74.009  1.00  0.00    -0.206 A  
HETATM   12  C   UNL     1      -8.905   8.204  73.357  1.00  0.00    -0.322 A  
HETATM   13  C   UNL     1      -9.993   7.342  73.065  1.00  0.00    -0.227 A  
HETATM   14  N   UNL     1     -11.097   7.762  72.354  1.00  0.00    -0.295 NA 
ENDROOT
BRANCH  14  15
HETATM   15  C   UNL     1     -11.151   9.151  71.822  1.00  0.00    -0.367 C  
BRANCH  15  16
HETATM   16  C   UNL     1     -10.302   9.277  70.558  1.00  0.00    -0.312 C  
BRANCH  16  17
HETATM   17  C   UNL     1     -11.149   9.656  69.347  1.00  0.00    -0.170 C  
BRANCH  17  18
HETATM   18  C   UNL     1     -10.752   8.892  68.080  1.00  0.00    -0.168 C  
BRANCH  18  19
HETATM   19  C   UNL     1     -10.223   7.495  68.390  1.00  0.00    -0.211 C  
BRANCH  19  20
HETATM   20  C   UNL     1      -8.944   7.150  67.623  1.00  0.00    -0.125 C  
BRANCH  20  21
HETATM   21  C   UNL     1      -7.688   7.842  68.169  1.00  0.00    -0.119 C  
BRANCH  21  22
HETATM   22  C   UNL     1      -7.019   8.761  67.143  1.00  0.00    -0.071 C  
BRANCH  22  23
HETATM   23  C   UNL     1      -7.981   9.256  66.057  1.00  0.00    -0.110 C  
BRANCH  23  24
HETATM   24  C   UNL     1      -7.831  10.758  65.815  1.00  0.00    -0.106 C  
BRANCH  24  25
HETATM   25  N   UNL     1      -9.003  11.496  66.351  1.00  0.00    -0.195 NA 
HETATM   26  C   UNL     1      -8.966  12.021  67.615  1.00  0.00    -0.172 A  
HETATM   27  C   UNL     1     -10.045  12.776  68.085  1.00  0.00    -0.239 A  
HETATM   28  C   UNL     1      -7.798  11.910  68.567  1.00  0.00    -0.136 C  
HETATM   29  C   UNL     1     -11.176  12.988  67.313  1.00  0.00    -0.289 A  
HETATM   30  N   UNL     1     -12.138  13.873  67.808  1.00  0.00    -0.467 NA 
HETATM   31  C   UNL     1     -11.179  12.499  65.996  1.00  0.00    -0.354 A  
HETATM   32  H1  UNL     1     -12.971  14.029  67.240  1.00  0.00     0.000 HD 
HETATM   33  C   UNL     1     -10.091  11.711  65.530  1.00  0.00    -0.246 A  
HETATM   34  H2  UNL     1     -11.698  14.770  68.015  1.00  0.00     0.000 HD 
HETATM   35  C   UNL     1     -10.157  11.191  64.212  1.00  0.00    -0.382 A  
HETATM   36  C   UNL     1     -11.222  11.470  63.359  1.00  0.00    -0.342 A  
HETATM   37  C   UNL     1     -12.258  12.272  63.801  1.00  0.00    -0.642 A  
HETATM   38  C   UNL     1     -12.239  12.772  65.102  1.00  0.00    -0.530 A  
ENDBRANCH  24  25
ENDBRANCH  23  24
ENDBRANCH  22  23
ENDBRANCH  21  22
ENDBRANCH  20  21
ENDBRANCH  19  20
ENDBRANCH  18  19
ENDBRANCH  17  18
ENDBRANCH  16  17
ENDBRANCH  15  16
ENDBRANCH  14  15
TORSDOF 11
ENDMDL
MODEL      212
REMARK 921   NORMALIZED FREE ENERGY PREDICTED BY IDOCK:   -5.70 KCAL/MOL
REMARK 922        TOTAL FREE ENERGY PREDICTED BY IDOCK:  -10.71 KCAL/MOL
REMARK 923 INTER-LIGAND FREE ENERGY PREDICTED BY IDOCK:   -9.55 KCAL/MOL
REMARK 924 INTRA-LIGAND FREE ENERGY PREDICTED BY IDOCK:   -1.16 KCAL/MOL
REMARK 927      BINDING AFFINITY PREDICTED BY RF-SCORE:    0.00 PKD
ROOT
HETATM    1  C   UNL     1     -12.707  11.945  64.188  1.00  0.00    -0.275 C  
HETATM    2  C   UNL     1     -12.016  13.136  64.811  1.00  0.00    -0.388 A  
HETATM    3  C   UNL     1     -12.108  14.356  64.152  1.00  0.00    -0.405 A  
HETATM    4  C   UNL     1     -11.516  15.501  64.664  1.00  0.00    -0.324 A  
HETATM    5  N   UNL     1     -11.777  16.711  64.013  1.00  0.00    -1.371 NA 
HETATM    6  C   UNL     1     -10.893  15.426  65.924  1.00  0.00    -0.328 A  
HETATM    7  H2  UNL     1     -12.786  16.852  63.954  1.00  0.00     0.000 HD 
HETATM    8  C   UNL     1     -10.378  16.571  66.575  1.00  0.00    -0.307 A  
HETATM    9  H1  UNL     1     -11.341  17.553  64.389  1.00  0.00     0.000 HD 
HETATM   10  C   UNL     1      -9.746  16.496  67.815  1.00  0.00    -0.235 A  
HETATM   11  C   UNL     1      -9.600  15.271  68.437  1.00  0.00    -0.206 A  
HETATM   12  C   UNL     1     -10.104  14.120  67.824  1.00  0.00    -0.239 A  
HETATM   13  C   UNL     1     -10.783  14.171  66.579  1.00  0.00    -0.289 A  
HETATM   14  N   UNL     1     -11.353  13.056  66.004  1.00  0.00    -0.300 NA 
ENDROOT
BRANCH  14  15
HETATM   15  C   UNL     1     -11.310  11.750  66.718  1.00  0.00    -0.320 C  
BRANCH  15  16
HETATM   16  C   UNL     1     -11.972  11.864  68.090  1.00  0.00    -0.222 C  
BRANCH  16  17
HETATM   17  C   UNL     1     -11.660  10.655  68.968  1.00  0.00    -0.332 C  
BRANCH  17  18
HETATM   18  C   UNL     1     -12.417  10.675  70.299  1.00  0.00    -0.381 C  
BRANCH  18  19
HETATM   19  C   UNL     1     -11.721   9.842  71.372  1.00  0.00    -0.449 C  
BRANCH  19  20
HETATM   20  C   UNL     1     -12.359   8.466  71.575  1.00  0.00    -0.343 C  
BRANCH  20  21
HETATM   21  C   UNL     1     -11.766   7.675  72.749  1.00  0.00    -0.276 C  
BRANCH  21  22
HETATM   22  C   UNL     1     -11.077   6.380  72.308  1.00  0.00    -0.302 C  
BRANCH  22  23
HETATM   23  C   UNL     1     -10.829   6.312  70.797  1.00  0.00    -0.339 C  
BRANCH  23  24
HETATM   24  C   UNL     1      -9.336   6.239  70.475  1.00  0.00    -0.162 C  
BRANCH  24  25
HETATM   25  N   UNL     1      -9.073   6.733  69.099  1.00  0.00    -0.139 NA 
HETATM   26  C   UNL     1      -8.685   8.031  68.896  1.00  0.00    -0.131 A  
HETATM   27  C   UNL     1      -8.368   8.467  67.607  1.00  0.00    -0.130 A  
HETATM   28  C   UNL     1      -8.500   9.062  69.985  1.00  0.00    -0.149 C  
HETATM   29  C   UNL     1      -8.463   7.625  66.510  1.00  0.00    -0.133 A  
HETATM   30  N   UNL     1      -7.988   8.105  65.285  1.00  0.00    -0.118 NA 
HETATM   31  C   UNL     1      -8.800   6.280  66.735  1.00  0.00    -0.126 A  
HETATM   32  H1  UNL     1      -8.057   7.485  64.478  1.00  0.00     0.000 HD 
HETATM   33  C   UNL     1      -9.145   5.846  68.045  1.00  0.00    -0.117 A  
HETATM   34  H2  UNL     1      -7.021   8.409  65.394  1.00  0.00     0.000 HD 
HETATM   35  C   UNL     1      -9.532   4.493  68.221  1.00  0.00    -0.205 A  
HETATM   36  C   UNL     1      -9.534   3.580  67.169  1.00  0.00    -0.219 A  
HETATM   37  C   UNL     1      -9.157   3.996  65.906  1.00  0.00    -0.143 A  
HETATM   38  C   UNL     1      -8.802   5.326  65.692  1.00  0.00    -0.152 A  
ENDBRANCH  24  25
ENDBRANCH  23  24
ENDBRANCH  22  23
ENDBRANCH  21  22
ENDBRANCH  20  21
ENDBRANCH  19  20
ENDBRANCH  18  19
ENDBRANCH  17  18
ENDBRANCH  16  17
ENDBRANCH  15  16
ENDBRANCH  14  15
TORSDOF 11
ENDMDL
MODEL      213
REMARK 921   NORMALIZED FREE ENERGY PREDICTED BY IDOCK:   -5.69 KCAL/MOL
REMARK 922        TOTAL FREE ENERGY PREDICTED BY IDOCK:  -10.71 KCAL/MOL
REMARK 923 INTER-LIGAND FREE ENERGY PREDICTED BY IDOCK:   -9.79 KCAL/MOL
REMARK 924 INTRA-LIGAND FREE ENERGY PREDICTED BY IDOCK:   -0.92 KCAL/MOL
REMARK 927      BINDING AFFINITY PREDICTED BY RF-SCORE:    0.00 PKD
ROOT
HETATM    1  C   UNL     1      -8.954   7.434  73.442  1.00  0.00    -0.223 C  
HETATM    2  C   UNL     1      -9.209   6.849  72.072  1.00  0.00    -0.140 A  
HETATM    3  C   UNL     1      -9.007   5.485  71.901  1.00  0.00    -0.142 A  
HETATM    4  C   UNL     1      -9.231   4.866  70.681  1.00  0.00    -0.136 A  
HETATM    5  N   UNL     1      -9.141   3.471  70.636  1.00  0.00    -0.103 NA 
HETATM    6  C   UNL     1      -9.764   5.636  69.629  1.00  0.00    -0.222 A  
HETATM    7  H2  UNL     1      -9.765   3.070  71.336  1.00  0.00     0.000 HD 
HETATM    8  C   UNL     1     -10.141   5.058  68.395  1.00  0.00    -0.176 A  
HETATM    9  H1  UNL     1      -9.306   3.017  69.738  1.00  0.00     0.000 HD 
HETATM   10  C   UNL     1     -10.653   5.822  67.347  1.00  0.00    -0.340 A  
HETATM   11  C   UNL     1     -10.793   7.188  67.498  1.00  0.00    -0.311 A  
HETATM   12  C   UNL     1     -10.436   7.790  68.708  1.00  0.00    -0.201 A  
HETATM   13  C   UNL     1      -9.945   7.033  69.804  1.00  0.00    -0.173 A  
HETATM   14  N   UNL     1      -9.664   7.604  71.026  1.00  0.00    -0.164 NA 
ENDROOT
BRANCH  14  15
HETATM   15  C   UNL     1      -9.922   9.055  71.244  1.00  0.00    -0.311 C  
BRANCH  15  16
HETATM   16  C   UNL     1     -11.359   9.281  71.712  1.00  0.00    -0.437 C  
BRANCH  16  17
HETATM   17  C   UNL     1     -11.997  10.477  71.009  1.00  0.00    -0.466 C  
BRANCH  17  18
HETATM   18  C   UNL     1     -13.240  10.999  71.735  1.00  0.00    -0.505 C  
BRANCH  18  19
HETATM   19  C   UNL     1     -13.238  12.520  71.864  1.00  0.00    -0.495 C  
BRANCH  19  20
HETATM   20  C   UNL     1     -12.503  13.222  70.720  1.00  0.00    -0.403 C  
BRANCH  20  21
HETATM   21  C   UNL     1     -12.619  14.751  70.754  1.00  0.00    -0.412 C  
BRANCH  21  22
HETATM   22  C   UNL     1     -11.654  15.446  69.789  1.00  0.00    -0.339 C  
BRANCH  22  23
HETATM   23  C   UNL     1     -11.162  14.529  68.663  1.00  0.00    -0.281 C  
BRANCH  23  24
HETATM   24  C   UNL     1     -11.004  15.291  67.346  1.00  0.00    -0.321 C  
BRANCH  24  25
HETATM   25  N   UNL     1      -9.672  15.945  67.277  1.00  0.00    -0.222 NA 
HETATM   26  C   UNL     1      -8.538  15.187  67.162  1.00  0.00    -0.223 A  
HETATM   27  C   UNL     1      -7.296  15.811  67.024  1.00  0.00    -0.226 A  
HETATM   28  C   UNL     1      -8.506  13.676  67.107  1.00  0.00    -0.186 C  
HETATM   29  C   UNL     1      -7.172  17.192  67.027  1.00  0.00    -0.184 A  
HETATM   30  N   UNL     1      -5.913  17.727  66.738  1.00  0.00    -0.146 NA 
HETATM   31  C   UNL     1      -8.345  17.962  67.082  1.00  0.00    -0.239 A  
HETATM   32  H1  UNL     1      -5.821  18.743  66.740  1.00  0.00     0.000 HD 
HETATM   33  C   UNL     1      -9.605  17.323  67.247  1.00  0.00    -0.254 A  
HETATM   34  H2  UNL     1      -5.588  17.361  65.843  1.00  0.00     0.000 HD 
HETATM   35  C   UNL     1     -10.760  18.138  67.352  1.00  0.00    -0.355 A  
HETATM   36  C   UNL     1     -10.699  19.526  67.249  1.00  0.00    -0.604 A  
HETATM   37  C   UNL     1      -9.478  20.141  67.045  1.00  0.00    -0.541 A  
HETATM   38  C   UNL     1      -8.319  19.371  66.970  1.00  0.00    -0.306 A  
ENDBRANCH  24  25
ENDBRANCH  23  24
ENDBRANCH  22  23
ENDBRANCH  21  22
ENDBRANCH  20  21
ENDBRANCH  19  20
ENDBRANCH  18  19
ENDBRANCH  17  18
ENDBRANCH  16  17
ENDBRANCH  15  16
ENDBRANCH  14  15
TORSDOF 11
ENDMDL
MODEL      214
REMARK 921   NORMALIZED FREE ENERGY PREDICTED BY IDOCK:   -5.68 KCAL/MOL
REMARK 922        TOTAL FREE ENERGY PREDICTED BY IDOCK:  -10.68 KCAL/MOL
REMARK 923 INTER-LIGAND FREE ENERGY PREDICTED BY IDOCK:   -8.24 KCAL/MOL
REMARK 924 INTRA-LIGAND FREE ENERGY PREDICTED BY IDOCK:   -2.44 KCAL/MOL
REMARK 927      BINDING AFFINITY PREDICTED BY RF-SCORE:    0.00 PKD
ROOT
HETATM    1  C   UNL     1     -12.769  13.906  71.600  1.00  0.00    -0.416 C  
HETATM    2  C   UNL     1     -12.297  14.220  70.199  1.00  0.00    -0.353 A  
HETATM    3  C   UNL     1     -11.895  15.521  69.926  1.00  0.00    -0.380 A  
HETATM    4  C   UNL     1     -11.435  15.889  68.671  1.00  0.00    -0.391 A  
HETATM    5  N   UNL     1     -10.919  17.181  68.523  1.00  0.00    -0.273 NA 
HETATM    6  C   UNL     1     -11.291  14.888  67.692  1.00  0.00    -0.348 A  
HETATM    7  H2  UNL     1     -10.179  17.328  69.209  1.00  0.00     0.000 HD 
HETATM    8  C   UNL     1     -10.711  15.152  66.430  1.00  0.00    -0.317 A  
HETATM    9  H1  UNL     1     -10.581  17.451  67.600  1.00  0.00     0.000 HD 
HETATM   10  C   UNL     1     -10.582  14.166  65.453  1.00  0.00    -0.358 A  
HETATM   11  C   UNL     1     -11.041  12.887  65.705  1.00  0.00    -0.312 A  
HETATM   12  C   UNL     1     -11.614  12.591  66.945  1.00  0.00    -0.436 A  
HETATM   13  C   UNL     1     -11.726  13.565  67.970  1.00  0.00    -0.359 A  
HETATM   14  N   UNL     1     -12.216  13.265  69.223  1.00  0.00    -0.223 NA 
ENDROOT
BRANCH  14  15
HETATM   15  C   UNL     1     -12.604  11.864  69.551  1.00  0.00     0.315 C  
BRANCH  15  16
HETATM   16  C   UNL     1     -11.664  11.278  70.603  1.00  0.00    -0.264 C  
BRANCH  16  17
HETATM   17  C   UNL     1     -11.295   9.832  70.285  1.00  0.00    -0.333 C  
BRANCH  17  18
HETATM   18  C   UNL     1     -10.307   9.234  71.290  1.00  0.00    -0.397 C  
BRANCH  18  19
HETATM   19  C   UNL     1     -10.988   8.293  72.280  1.00  0.00    -0.418 C  
BRANCH  19  20
HETATM   20  C   UNL     1     -10.775   6.814  71.951  1.00  0.00    -0.250 C  
BRANCH  20  21
HETATM   21  C   UNL     1     -11.597   6.321  70.753  1.00  0.00    -0.347 C  
BRANCH  21  22
HETATM   22  C   UNL     1     -10.735   5.688  69.656  1.00  0.00    -0.398 C  
BRANCH  22  23
HETATM   23  C   UNL     1     -10.704   6.511  68.363  1.00  0.00    -0.339 C  
BRANCH  23  24
HETATM   24  C   UNL     1      -9.282   6.648  67.817  1.00  0.00    -0.111 C  
BRANCH  24  25
HETATM   25  N   UNL     1      -8.727   7.988  68.134  1.00  0.00    -0.126 NA 
HETATM   26  C   UNL     1      -9.181   9.096  67.469  1.00  0.00    -0.128 A  
HETATM   27  C   UNL     1      -8.706  10.362  67.824  1.00  0.00    -0.122 A  
HETATM   28  C   UNL     1     -10.236   9.087  66.386  1.00  0.00    -0.297 C  
HETATM   29  C   UNL     1      -7.757  10.530  68.820  1.00  0.00    -0.109 A  
HETATM   30  N   UNL     1      -7.450  11.839  69.204  1.00  0.00    -0.314 NA 
HETATM   31  C   UNL     1      -7.344   9.396  69.538  1.00  0.00    -0.073 A  
HETATM   32  H1  UNL     1      -6.752  11.963  69.937  1.00  0.00     0.000 HD 
HETATM   33  C   UNL     1      -7.810   8.108  69.158  1.00  0.00    -0.107 A  
HETATM   34  H2  UNL     1      -8.308  12.322  69.470  1.00  0.00     0.000 HD 
HETATM   35  C   UNL     1      -7.327   6.983  69.874  1.00  0.00    -0.085 A  
HETATM   36  C   UNL     1      -6.459   7.111  70.956  1.00  0.00    -0.044 A  
HETATM   37  C   UNL     1      -6.041   8.368  71.349  1.00  0.00    -0.041 A  
HETATM   38  C   UNL     1      -6.471   9.492  70.646  1.00  0.00    -0.093 A  
ENDBRANCH  24  25
ENDBRANCH  23  24
ENDBRANCH  22  23
ENDBRANCH  21  22
ENDBRANCH  20  21
ENDBRANCH  19  20
ENDBRANCH  18  19
ENDBRANCH  17  18
ENDBRANCH  16  17
ENDBRANCH  15  16
ENDBRANCH  14  15
TORSDOF 11
ENDMDL
MODEL      215
REMARK 921   NORMALIZED FREE ENERGY PREDICTED BY IDOCK:   -5.68 KCAL/MOL
REMARK 922        TOTAL FREE ENERGY PREDICTED BY IDOCK:  -10.68 KCAL/MOL
REMARK 923 INTER-LIGAND FREE ENERGY PREDICTED BY IDOCK:   -7.39 KCAL/MOL
REMARK 924 INTRA-LIGAND FREE ENERGY PREDICTED BY IDOCK:   -3.29 KCAL/MOL
REMARK 927      BINDING AFFINITY PREDICTED BY RF-SCORE:    0.00 PKD
ROOT
HETATM    1  C   UNL     1      -8.310   8.407  72.252  1.00  0.00    -0.218 C  
HETATM    2  C   UNL     1      -8.287   7.588  70.982  1.00  0.00    -0.113 A  
HETATM    3  C   UNL     1      -9.177   6.527  70.879  1.00  0.00    -0.155 A  
HETATM    4  C   UNL     1      -9.231   5.734  69.742  1.00  0.00    -0.140 A  
HETATM    5  N   UNL     1     -10.251   4.780  69.665  1.00  0.00    -0.209 NA 
HETATM    6  C   UNL     1      -8.423   6.086  68.643  1.00  0.00    -0.113 A  
HETATM    7  H2  UNL     1     -11.152   5.239  69.798  1.00  0.00     0.000 HD 
HETATM    8  C   UNL     1      -8.510   5.411  67.404  1.00  0.00    -0.106 A  
HETATM    9  H1  UNL     1     -10.290   4.198  68.829  1.00  0.00     0.000 HD 
HETATM   10  C   UNL     1      -7.699   5.747  66.320  1.00  0.00    -0.099 A  
HETATM   11  C   UNL     1      -6.770   6.762  66.448  1.00  0.00    -0.049 A  
HETATM   12  C   UNL     1      -6.664   7.454  67.657  1.00  0.00    -0.066 A  
HETATM   13  C   UNL     1      -7.500   7.157  68.765  1.00  0.00    -0.102 A  
HETATM   14  N   UNL     1      -7.458   7.884  69.935  1.00  0.00    -0.078 NA 
ENDROOT
BRANCH  14  15
HETATM   15  C   UNL     1      -6.547   9.057  70.047  1.00  0.00    -0.043 C  
BRANCH  15  16
HETATM   16  C   UNL     1      -7.261  10.337  69.616  1.00  0.00    -0.140 C  
BRANCH  16  17
HETATM   17  C   UNL     1      -6.828  10.781  68.221  1.00  0.00    -0.067 C  
BRANCH  17  18
HETATM   18  C   UNL     1      -6.898  12.299  68.031  1.00  0.00    -0.082 C  
BRANCH  18  19
HETATM   19  C   UNL     1      -8.130  12.726  67.239  1.00  0.00    -0.172 C  
BRANCH  19  20
HETATM   20  C   UNL     1      -8.765  14.017  67.760  1.00  0.00    -0.185 C  
BRANCH  20  21
HETATM   21  C   UNL     1      -9.275  14.948  66.652  1.00  0.00    -0.302 C  
BRANCH  21  22
HETATM   22  C   UNL     1     -10.705  15.440  66.897  1.00  0.00    -0.314 C  
BRANCH  22  23
HETATM   23  C   UNL     1     -11.556  14.448  67.698  1.00  0.00    -0.396 C  
BRANCH  23  24
HETATM   24  C   UNL     1     -12.410  13.571  66.782  1.00  0.00    -0.274 C  
BRANCH  24  25
HETATM   25  N   UNL     1     -11.724  12.285  66.499  1.00  0.00    -0.528 NA 
HETATM   26  C   UNL     1     -11.254  12.017  65.241  1.00  0.00    -0.322 A  
HETATM   27  C   UNL     1     -10.546  10.837  65.000  1.00  0.00    -0.243 A  
HETATM   28  C   UNL     1     -11.382  12.943  64.052  1.00  0.00    -0.466 C  
HETATM   29  C   UNL     1     -10.324   9.905  66.002  1.00  0.00    -0.132 A  
HETATM   30  N   UNL     1      -9.484   8.827  65.705  1.00  0.00    -0.412 NA 
HETATM   31  C   UNL     1     -10.754  10.216  67.302  1.00  0.00    -0.316 A  
HETATM   32  H1  UNL     1      -9.321   8.141  66.442  1.00  0.00     0.000 HD 
HETATM   33  C   UNL     1     -11.496  11.405  67.538  1.00  0.00    -0.260 A  
HETATM   34  H2  UNL     1      -8.588   9.181  65.370  1.00  0.00     0.000 HD 
HETATM   35  C   UNL     1     -11.958  11.656  68.855  1.00  0.00    -0.355 A  
HETATM   36  C   UNL     1     -11.665  10.804  69.917  1.00  0.00    -0.412 A  
HETATM   37  C   UNL     1     -10.907   9.671  69.692  1.00  0.00    -0.266 A  
HETATM   38  C   UNL     1     -10.465   9.378  68.404  1.00  0.00    -0.256 A  
ENDBRANCH  24  25
ENDBRANCH  23  24
ENDBRANCH  22  23
ENDBRANCH  21  22
ENDBRANCH  20  21
ENDBRANCH  19  20
ENDBRANCH  18  19
ENDBRANCH  17  18
ENDBRANCH  16  17
ENDBRANCH  15  16
ENDBRANCH  14  15
TORSDOF 11
ENDMDL
MODEL      216
REMARK 921   NORMALIZED FREE ENERGY PREDICTED BY IDOCK:   -5.67 KCAL/MOL
REMARK 922        TOTAL FREE ENERGY PREDICTED BY IDOCK:  -10.67 KCAL/MOL
REMARK 923 INTER-LIGAND FREE ENERGY PREDICTED BY IDOCK:   -9.03 KCAL/MOL
REMARK 924 INTRA-LIGAND FREE ENERGY PREDICTED BY IDOCK:   -1.64 KCAL/MOL
REMARK 927      BINDING AFFINITY PREDICTED BY RF-SCORE:    0.00 PKD
ROOT
HETATM    1  C   UNL     1      -9.321   8.832  72.158  1.00  0.00    -0.277 C  
HETATM    2  C   UNL     1      -9.245   7.394  72.616  1.00  0.00    -0.145 A  
HETATM    3  C   UNL     1      -8.038   6.941  73.133  1.00  0.00    -0.116 A  
HETATM    4  C   UNL     1      -7.888   5.640  73.589  1.00  0.00    -0.105 A  
HETATM    5  N   UNL     1      -6.685   5.310  74.223  1.00  0.00    -0.075 NA 
HETATM    6  C   UNL     1      -9.021   4.804  73.608  1.00  0.00    -0.104 A  
HETATM    7  H2  UNL     1      -6.522   5.958  74.993  1.00  0.00     0.000 HD 
HETATM    8  C   UNL     1      -8.986   3.508  74.174  1.00  0.00    -0.092 A  
HETATM    9  H1  UNL     1      -6.575   4.354  74.558  1.00  0.00     0.000 HD 
HETATM   10  C   UNL     1     -10.101   2.673  74.179  1.00  0.00    -0.169 A  
HETATM   11  C   UNL     1     -11.283   3.103  73.607  1.00  0.00    -0.288 A  
HETATM   12  C   UNL     1     -11.353   4.381  73.045  1.00  0.00    -0.204 A  
HETATM   13  C   UNL     1     -10.245   5.266  73.057  1.00  0.00    -0.183 A  
HETATM   14  N   UNL     1     -10.325   6.555  72.577  1.00  0.00    -0.190 NA 
ENDROOT
BRANCH  14  15
HETATM   15  C   UNL     1     -11.624   7.077  72.066  1.00  0.00    -0.285 C  
BRANCH  15  16
HETATM   16  C   UNL     1     -11.892   6.563  70.653  1.00  0.00    -0.398 C  
BRANCH  16  17
HETATM   17  C   UNL     1     -10.628   6.579  69.799  1.00  0.00    -0.284 C  
BRANCH  17  18
HETATM   18  C   UNL     1     -10.525   7.823  68.911  1.00  0.00    -0.208 C  
BRANCH  18  19
HETATM   19  C   UNL     1     -10.766   7.503  67.438  1.00  0.00    -0.331 C  
BRANCH  19  20
HETATM   20  C   UNL     1      -9.581   7.868  66.540  1.00  0.00    -0.281 C  
BRANCH  20  21
HETATM   21  C   UNL     1      -8.678   8.964  67.120  1.00  0.00    -0.126 C  
BRANCH  21  22
HETATM   22  C   UNL     1      -9.022  10.361  66.596  1.00  0.00    -0.155 C  
BRANCH  22  23
HETATM   23  C   UNL     1      -9.553  11.301  67.685  1.00  0.00    -0.180 C  
BRANCH  23  24
HETATM   24  C   UNL     1     -11.001  11.712  67.416  1.00  0.00    -0.261 C  
BRANCH  24  25
HETATM   25  N   UNL     1     -11.417  12.798  68.339  1.00  0.00    -0.287 NA 
HETATM   26  C   UNL     1     -11.359  14.105  67.934  1.00  0.00    -0.294 A  
HETATM   27  C   UNL     1     -11.821  15.116  68.782  1.00  0.00    -0.329 A  
HETATM   28  C   UNL     1     -10.881  14.574  66.579  1.00  0.00    -0.314 C  
HETATM   29  C   UNL     1     -12.316  14.835  70.046  1.00  0.00    -0.316 A  
HETATM   30  N   UNL     1     -12.887  15.890  70.764  1.00  0.00    -0.577 NA 
HETATM   31  C   UNL     1     -12.430  13.489  70.428  1.00  0.00    -0.345 A  
HETATM   32  H1  UNL     1     -13.252  15.684  71.694  1.00  0.00     0.000 HD 
HETATM   33  C   UNL     1     -11.936  12.465  69.573  1.00  0.00    -0.261 A  
HETATM   34  H2  UNL     1     -13.622  16.321  70.202  1.00  0.00     0.000 HD 
HETATM   35  C   UNL     1     -12.021  11.121  70.019  1.00  0.00    -0.447 A  
HETATM   36  C   UNL     1     -12.612  10.780  71.233  1.00  0.00    -0.532 A  
HETATM   37  C   UNL     1     -13.129  11.774  72.042  1.00  0.00    -0.436 A  
HETATM   38  C   UNL     1     -13.033  13.108  71.649  1.00  0.00    -0.429 A  
ENDBRANCH  24  25
ENDBRANCH  23  24
ENDBRANCH  22  23
ENDBRANCH  21  22
ENDBRANCH  20  21
ENDBRANCH  19  20
ENDBRANCH  18  19
ENDBRANCH  17  18
ENDBRANCH  16  17
ENDBRANCH  15  16
ENDBRANCH  14  15
TORSDOF 11
ENDMDL
MODEL      217
REMARK 921   NORMALIZED FREE ENERGY PREDICTED BY IDOCK:   -5.67 KCAL/MOL
REMARK 922        TOTAL FREE ENERGY PREDICTED BY IDOCK:  -10.66 KCAL/MOL
REMARK 923 INTER-LIGAND FREE ENERGY PREDICTED BY IDOCK:   -8.64 KCAL/MOL
REMARK 924 INTRA-LIGAND FREE ENERGY PREDICTED BY IDOCK:   -2.02 KCAL/MOL
REMARK 927      BINDING AFFINITY PREDICTED BY RF-SCORE:    0.00 PKD
ROOT
HETATM    1  C   UNL     1      -9.630  10.296  63.377  1.00  0.00    -0.316 C  
HETATM    2  C   UNL     1     -10.134  10.587  64.772  1.00  0.00    -0.336 A  
HETATM    3  C   UNL     1     -10.919  11.719  64.956  1.00  0.00    -0.357 A  
HETATM    4  C   UNL     1     -11.433  12.049  66.201  1.00  0.00    -0.339 A  
HETATM    5  N   UNL     1     -12.327  13.123  66.268  1.00  0.00    -0.415 NA 
HETATM    6  C   UNL     1     -11.223  11.156  67.269  1.00  0.00    -0.347 A  
HETATM    7  H2  UNL     1     -13.096  12.961  65.618  1.00  0.00     0.000 HD 
HETATM    8  C   UNL     1     -11.818  11.352  68.537  1.00  0.00    -0.364 A  
HETATM    9  H1  UNL     1     -12.705  13.365  67.183  1.00  0.00     0.000 HD 
HETATM   10  C   UNL     1     -11.598  10.479  69.600  1.00  0.00    -0.342 A  
HETATM   11  C   UNL     1     -10.765   9.389  69.432  1.00  0.00    -0.234 A  
HETATM   12  C   UNL     1     -10.166   9.163  68.189  1.00  0.00    -0.249 A  
HETATM   13  C   UNL     1     -10.401  10.015  67.079  1.00  0.00    -0.243 A  
HETATM   14  N   UNL     1      -9.879   9.758  65.830  1.00  0.00    -0.280 NA 
ENDROOT
BRANCH  14  15
HETATM   15  C   UNL     1      -9.078   8.523  65.600  1.00  0.00    -0.132 C  
BRANCH  15  16
HETATM   16  C   UNL     1      -7.758   8.587  66.366  1.00  0.00    -0.098 C  
BRANCH  16  17
HETATM   17  C   UNL     1      -6.587   8.914  65.443  1.00  0.00    -0.068 C  
BRANCH  17  18
HETATM   18  C   UNL     1      -6.443  10.414  65.173  1.00  0.00    -0.096 C  
BRANCH  18  19
HETATM   19  C   UNL     1      -5.367  11.058  66.042  1.00  0.00    -0.142 C  
BRANCH  19  20
HETATM   20  C   UNL     1      -5.937  11.958  67.141  1.00  0.00    -0.152 C  
BRANCH  20  21
HETATM   21  C   UNL     1      -7.466  12.083  67.108  1.00  0.00    -0.138 C  
BRANCH  21  22
HETATM   22  C   UNL     1      -8.008  13.053  68.163  1.00  0.00    -0.154 C  
BRANCH  22  23
HETATM   23  C   UNL     1      -7.472  14.480  68.004  1.00  0.00    -0.142 C  
BRANCH  23  24
HETATM   24  C   UNL     1      -8.251  15.473  68.867  1.00  0.00    -0.201 C  
BRANCH  24  25
HETATM   25  N   UNL     1      -8.329  16.798  68.201  1.00  0.00    -0.195 NA 
HETATM   26  C   UNL     1      -9.314  17.050  67.284  1.00  0.00    -0.237 A  
HETATM   27  C   UNL     1      -9.425  18.322  66.715  1.00  0.00    -0.300 A  
HETATM   28  C   UNL     1     -10.374  16.061  66.855  1.00  0.00    -0.289 C  
HETATM   29  C   UNL     1      -8.541  19.341  67.034  1.00  0.00    -0.285 A  
HETATM   30  N   UNL     1      -8.816  20.615  66.530  1.00  0.00    -0.545 NA 
HETATM   31  C   UNL     1      -7.574  19.092  68.022  1.00  0.00    -0.311 A  
HETATM   32  H1  UNL     1      -8.167  21.365  66.764  1.00  0.00     0.000 HD 
HETATM   33  C   UNL     1      -7.448  17.790  68.579  1.00  0.00    -0.272 A  
HETATM   34  H2  UNL     1      -9.760  20.890  66.803  1.00  0.00     0.000 HD 
HETATM   35  C   UNL     1      -6.424  17.567  69.534  1.00  0.00    -0.202 A  
HETATM   36  C   UNL     1      -5.582  18.588  69.970  1.00  0.00    -0.239 A  
HETATM   37  C   UNL     1      -5.735  19.862  69.457  1.00  0.00    -0.297 A  
HETATM   38  C   UNL     1      -6.711  20.108  68.493  1.00  0.00    -0.331 A  
ENDBRANCH  24  25
ENDBRANCH  23  24
ENDBRANCH  22  23
ENDBRANCH  21  22
ENDBRANCH  20  21
ENDBRANCH  19  20
ENDBRANCH  18  19
ENDBRANCH  17  18
ENDBRANCH  16  17
ENDBRANCH  15  16
ENDBRANCH  14  15
TORSDOF 11
ENDMDL
MODEL      218
REMARK 921   NORMALIZED FREE ENERGY PREDICTED BY IDOCK:   -5.65 KCAL/MOL
REMARK 922        TOTAL FREE ENERGY PREDICTED BY IDOCK:  -10.63 KCAL/MOL
REMARK 923 INTER-LIGAND FREE ENERGY PREDICTED BY IDOCK:   -8.30 KCAL/MOL
REMARK 924 INTRA-LIGAND FREE ENERGY PREDICTED BY IDOCK:   -2.33 KCAL/MOL
REMARK 927      BINDING AFFINITY PREDICTED BY RF-SCORE:    0.00 PKD
ROOT
HETATM    1  C   UNL     1      -6.834   8.526  72.329  1.00  0.00    -0.093 C  
HETATM    2  C   UNL     1      -7.831   7.875  71.398  1.00  0.00    -0.089 A  
HETATM    3  C   UNL     1      -8.783   7.031  71.955  1.00  0.00    -0.128 A  
HETATM    4  C   UNL     1      -9.743   6.405  71.173  1.00  0.00    -0.175 A  
HETATM    5  N   UNL     1     -10.747   5.689  71.831  1.00  0.00    -0.235 NA 
HETATM    6  C   UNL     1      -9.794   6.717  69.801  1.00  0.00    -0.175 A  
HETATM    7  H2  UNL     1     -11.209   6.298  72.507  1.00  0.00     0.000 HD 
HETATM    8  C   UNL     1     -10.818   6.224  68.959  1.00  0.00    -0.400 A  
HETATM    9  H1  UNL     1     -11.453   5.229  71.256  1.00  0.00     0.000 HD 
HETATM   10  C   UNL     1     -10.861   6.518  67.597  1.00  0.00    -0.419 A  
HETATM   11  C   UNL     1      -9.875   7.306  67.034  1.00  0.00    -0.265 A  
HETATM   12  C   UNL     1      -8.853   7.816  67.840  1.00  0.00    -0.123 A  
HETATM   13  C   UNL     1      -8.803   7.562  69.235  1.00  0.00    -0.136 A  
HETATM   14  N   UNL     1      -7.846   8.123  70.053  1.00  0.00    -0.100 NA 
ENDROOT
BRANCH  14  15
HETATM   15  C   UNL     1      -6.847   9.070  69.483  1.00  0.00    -0.048 C  
BRANCH  15  16
HETATM   16  C   UNL     1      -7.180  10.506  69.881  1.00  0.00    -0.136 C  
BRANCH  16  17
HETATM   17  C   UNL     1      -8.264  11.101  68.986  1.00  0.00    -0.066 C  
BRANCH  17  18
HETATM   18  C   UNL     1      -7.779  11.363  67.557  1.00  0.00    -0.125 C  
BRANCH  18  19
HETATM   19  C   UNL     1      -7.819  12.844  67.195  1.00  0.00    -0.084 C  
BRANCH  19  20
HETATM   20  C   UNL     1      -7.466  13.762  68.368  1.00  0.00    -0.119 C  
BRANCH  20  21
HETATM   21  C   UNL     1      -7.001  15.161  67.942  1.00  0.00    -0.167 C  
BRANCH  21  22
HETATM   22  C   UNL     1      -8.121  16.000  67.321  1.00  0.00    -0.205 C  
BRANCH  22  23
HETATM   23  C   UNL     1      -9.187  16.431  68.335  1.00  0.00    -0.217 C  
BRANCH  23  24
HETATM   24  C   UNL     1     -10.599  16.162  67.816  1.00  0.00    -0.309 C  
BRANCH  24  25
HETATM   25  N   UNL     1     -10.972  14.740  68.027  1.00  0.00    -0.263 NA 
HETATM   26  C   UNL     1     -11.366  14.308  69.266  1.00  0.00    -0.283 A  
HETATM   27  C   UNL     1     -11.785  12.987  69.440  1.00  0.00    -0.386 A  
HETATM   28  C   UNL     1     -11.452  15.176  70.501  1.00  0.00    -0.342 C  
HETATM   29  C   UNL     1     -11.789  12.080  68.392  1.00  0.00    -0.300 A  
HETATM   30  N   UNL     1     -12.360  10.826  68.625  1.00  0.00    -0.786 NA 
HETATM   31  C   UNL     1     -11.444  12.547  67.113  1.00  0.00    -0.414 A  
HETATM   32  H1  UNL     1     -12.363  10.159  67.854  1.00  0.00     0.000 HD 
HETATM   33  C   UNL     1     -10.994  13.885  66.944  1.00  0.00    -0.295 A  
HETATM   34  H2  UNL     1     -13.313  10.947  68.969  1.00  0.00     0.000 HD 
HETATM   35  C   UNL     1     -10.604  14.302  65.646  1.00  0.00    -0.328 A  
HETATM   36  C   UNL     1     -10.696  13.461  64.540  1.00  0.00    -0.434 A  
HETATM   37  C   UNL     1     -11.174  12.174  64.700  1.00  0.00    -0.374 A  
HETATM   38  C   UNL     1     -11.535  11.722  65.968  1.00  0.00    -0.281 A  
ENDBRANCH  24  25
ENDBRANCH  23  24
ENDBRANCH  22  23
ENDBRANCH  21  22
ENDBRANCH  20  21
ENDBRANCH  19  20
ENDBRANCH  18  19
ENDBRANCH  17  18
ENDBRANCH  16  17
ENDBRANCH  15  16
ENDBRANCH  14  15
TORSDOF 11
ENDMDL
MODEL      219
REMARK 921   NORMALIZED FREE ENERGY PREDICTED BY IDOCK:   -5.65 KCAL/MOL
REMARK 922        TOTAL FREE ENERGY PREDICTED BY IDOCK:  -10.63 KCAL/MOL
REMARK 923 INTER-LIGAND FREE ENERGY PREDICTED BY IDOCK:   -9.87 KCAL/MOL
REMARK 924 INTRA-LIGAND FREE ENERGY PREDICTED BY IDOCK:   -0.76 KCAL/MOL
REMARK 927      BINDING AFFINITY PREDICTED BY RF-SCORE:    0.00 PKD
ROOT
HETATM    1  C   UNL     1     -10.673  19.650  67.126  1.00  0.00    -0.587 C  
HETATM    2  C   UNL     1      -9.392  18.847  67.121  1.00  0.00    -0.300 A  
HETATM    3  C   UNL     1      -8.489  19.073  66.089  1.00  0.00    -0.216 A  
HETATM    4  C   UNL     1      -7.285  18.390  66.019  1.00  0.00    -0.254 A  
HETATM    5  N   UNL     1      -6.376  18.780  65.030  1.00  0.00    -0.458 NA 
HETATM    6  C   UNL     1      -6.946  17.521  67.074  1.00  0.00    -0.207 A  
HETATM    7  H2  UNL     1      -6.191  19.780  65.118  1.00  0.00     0.000 HD 
HETATM    8  C   UNL     1      -5.685  16.884  67.144  1.00  0.00    -0.198 A  
HETATM    9  H1  UNL     1      -5.490  18.277  64.978  1.00  0.00     0.000 HD 
HETATM   10  C   UNL     1      -5.355  16.011  68.179  1.00  0.00    -0.115 A  
HETATM   11  C   UNL     1      -6.280  15.740  69.170  1.00  0.00    -0.126 A  
HETATM   12  C   UNL     1      -7.533  16.358  69.133  1.00  0.00    -0.228 A  
HETATM   13  C   UNL     1      -7.884  17.278  68.112  1.00  0.00    -0.220 A  
HETATM   14  N   UNL     1      -9.086  17.953  68.109  1.00  0.00    -0.271 NA 
ENDROOT
BRANCH  14  15
HETATM   15  C   UNL     1     -10.045  17.763  69.232  1.00  0.00    -0.135 C  
BRANCH  15  16
HETATM   16  C   UNL     1     -10.349  16.280  69.437  1.00  0.00    -0.278 C  
BRANCH  16  17
HETATM   17  C   UNL     1     -11.800  15.951  69.098  1.00  0.00    -0.340 C  
BRANCH  17  18
HETATM   18  C   UNL     1     -12.628  15.572  70.329  1.00  0.00    -0.362 C  
BRANCH  18  19
HETATM   19  C   UNL     1     -11.825  15.685  71.622  1.00  0.00    -0.504 C  
BRANCH  19  20
HETATM   20  C   UNL     1     -12.406  14.852  72.767  1.00  0.00    -0.420 C  
BRANCH  20  21
HETATM   21  C   UNL     1     -13.818  14.318  72.492  1.00  0.00    -0.575 C  
BRANCH  21  22
HETATM   22  C   UNL     1     -13.867  12.792  72.377  1.00  0.00    -0.360 C  
BRANCH  22  23
HETATM   23  C   UNL     1     -12.625  12.196  71.704  1.00  0.00    -0.204 C  
BRANCH  23  24
HETATM   24  C   UNL     1     -12.932  10.851  71.046  1.00  0.00    -0.303 C  
BRANCH  24  25
HETATM   25  N   UNL     1     -11.706  10.273  70.438  1.00  0.00    -0.296 NA 
HETATM   26  C   UNL     1     -11.184  10.815  69.294  1.00  0.00    -0.272 A  
HETATM   27  C   UNL     1      -9.990  10.312  68.769  1.00  0.00    -0.187 A  
HETATM   28  C   UNL     1     -11.766  11.993  68.547  1.00  0.00    -0.387 C  
HETATM   29  C   UNL     1      -9.325   9.251  69.363  1.00  0.00    -0.164 A  
HETATM   30  N   UNL     1      -8.068   8.911  68.853  1.00  0.00    -0.111 NA 
HETATM   31  C   UNL     1      -9.833   8.743  70.569  1.00  0.00    -0.224 A  
HETATM   32  H1  UNL     1      -7.578   8.131  69.290  1.00  0.00     0.000 HD 
HETATM   33  C   UNL     1     -11.061   9.240  71.086  1.00  0.00    -0.341 A  
HETATM   34  H2  UNL     1      -7.466   9.735  68.864  1.00  0.00     0.000 HD 
HETATM   35  C   UNL     1     -11.568   8.663  72.279  1.00  0.00    -0.424 A  
HETATM   36  C   UNL     1     -10.879   7.671  72.972  1.00  0.00    -0.457 A  
HETATM   37  C   UNL     1      -9.665   7.220  72.489  1.00  0.00    -0.189 A  
HETATM   38  C   UNL     1      -9.154   7.742  71.303  1.00  0.00    -0.153 A  
ENDBRANCH  24  25
ENDBRANCH  23  24
ENDBRANCH  22  23
ENDBRANCH  21  22
ENDBRANCH  20  21
ENDBRANCH  19  20
ENDBRANCH  18  19
ENDBRANCH  17  18
ENDBRANCH  16  17
ENDBRANCH  15  16
ENDBRANCH  14  15
TORSDOF 11
ENDMDL
MODEL      220
REMARK 921   NORMALIZED FREE ENERGY PREDICTED BY IDOCK:   -5.64 KCAL/MOL
REMARK 922        TOTAL FREE ENERGY PREDICTED BY IDOCK:  -10.63 KCAL/MOL
REMARK 923 INTER-LIGAND FREE ENERGY PREDICTED BY IDOCK:   -8.96 KCAL/MOL
REMARK 924 INTRA-LIGAND FREE ENERGY PREDICTED BY IDOCK:   -1.67 KCAL/MOL
REMARK 927      BINDING AFFINITY PREDICTED BY RF-SCORE:    0.00 PKD
ROOT
HETATM    1  C   UNL     1      -6.582   7.492  70.587  1.00  0.00    -0.043 C  
HETATM    2  C   UNL     1      -7.430   6.242  70.650  1.00  0.00    -0.087 A  
HETATM    3  C   UNL     1      -7.426   5.400  69.545  1.00  0.00    -0.069 A  
HETATM    4  C   UNL     1      -8.165   4.226  69.527  1.00  0.00    -0.059 A  
HETATM    5  N   UNL     1      -7.992   3.369  68.435  1.00  0.00    -0.065 NA 
HETATM    6  C   UNL     1      -8.851   3.850  70.698  1.00  0.00    -0.135 A  
HETATM    7  H2  UNL     1      -7.002   3.146  68.335  1.00  0.00     0.000 HD 
HETATM    8  C   UNL     1      -9.521   2.610  70.807  1.00  0.00    -0.214 A  
HETATM    9  H1  UNL     1      -8.535   2.506  68.422  1.00  0.00     0.000 HD 
HETATM   10  C   UNL     1     -10.215   2.243  71.959  1.00  0.00    -0.155 A  
HETATM   11  C   UNL     1     -10.269   3.111  73.033  1.00  0.00    -0.232 A  
HETATM   12  C   UNL     1      -9.612   4.342  72.960  1.00  0.00    -0.156 A  
HETATM   13  C   UNL     1      -8.869   4.727  71.814  1.00  0.00    -0.123 A  
HETATM   14  N   UNL     1      -8.152   5.903  71.761  1.00  0.00    -0.117 NA 
ENDROOT
BRANCH  14  15
HETATM   15  C   UNL     1      -8.101   6.795  72.953  1.00  0.00    -0.105 C  
BRANCH  15  16
HETATM   16  C   UNL     1      -8.924   8.059  72.715  1.00  0.00    -0.291 C  
BRANCH  16  17
HETATM   17  C   UNL     1     -10.389   7.858  73.096  1.00  0.00    -0.357 C  
BRANCH  17  18
HETATM   18  C   UNL     1     -11.358   8.450  72.070  1.00  0.00    -0.411 C  
BRANCH  18  19
HETATM   19  C   UNL     1     -10.653   9.354  71.063  1.00  0.00    -0.400 C  
BRANCH  19  20
HETATM   20  C   UNL     1     -10.738   8.837  69.625  1.00  0.00    -0.212 C  
BRANCH  20  21
HETATM   21  C   UNL     1      -9.374   8.690  68.937  1.00  0.00    -0.145 C  
BRANCH  21  22
HETATM   22  C   UNL     1      -9.474   8.067  67.541  1.00  0.00    -0.177 C  
BRANCH  22  23
HETATM   23  C   UNL     1     -10.158   8.982  66.519  1.00  0.00    -0.354 C  
BRANCH  23  24
HETATM   24  C   UNL     1      -9.257  10.150  66.117  1.00  0.00    -0.159 C  
BRANCH  24  25
HETATM   25  N   UNL     1     -10.038  11.192  65.402  1.00  0.00    -0.250 NA 
HETATM   26  C   UNL     1     -10.124  11.171  64.036  1.00  0.00    -0.336 A  
HETATM   27  C   UNL     1     -10.919  12.111  63.375  1.00  0.00    -0.480 A  
HETATM   28  C   UNL     1      -9.462  10.149  63.140  1.00  0.00    -0.296 C  
HETATM   29  C   UNL     1     -11.611  13.093  64.067  1.00  0.00    -0.428 A  
HETATM   30  N   UNL     1     -12.493  13.896  63.338  1.00  0.00    -1.110 NA 
HETATM   31  C   UNL     1     -11.567  13.069  65.471  1.00  0.00    -0.382 A  
HETATM   32  H1  UNL     1     -13.002  14.619  63.846  1.00  0.00     0.000 HD 
HETATM   33  C   UNL     1     -10.737  12.126  66.138  1.00  0.00    -0.272 A  
HETATM   34  H2  UNL     1     -13.157  13.302  62.841  1.00  0.00     0.000 HD 
HETATM   35  C   UNL     1     -10.680  12.169  67.554  1.00  0.00    -0.265 A  
HETATM   36  C   UNL     1     -11.443  13.066  68.299  1.00  0.00    -0.347 A  
HETATM   37  C   UNL     1     -12.281  13.951  67.649  1.00  0.00    -0.232 A  
HETATM   38  C   UNL     1     -12.337  13.957  66.257  1.00  0.00    -0.489 A  
ENDBRANCH  24  25
ENDBRANCH  23  24
ENDBRANCH  22  23
ENDBRANCH  21  22
ENDBRANCH  20  21
ENDBRANCH  19  20
ENDBRANCH  18  19
ENDBRANCH  17  18
ENDBRANCH  16  17
ENDBRANCH  15  16
ENDBRANCH  14  15
TORSDOF 11
ENDMDL
MODEL      221
REMARK 921   NORMALIZED FREE ENERGY PREDICTED BY IDOCK:   -5.64 KCAL/MOL
REMARK 922        TOTAL FREE ENERGY PREDICTED BY IDOCK:  -10.61 KCAL/MOL
REMARK 923 INTER-LIGAND FREE ENERGY PREDICTED BY IDOCK:   -9.23 KCAL/MOL
REMARK 924 INTRA-LIGAND FREE ENERGY PREDICTED BY IDOCK:   -1.38 KCAL/MOL
REMARK 927      BINDING AFFINITY PREDICTED BY RF-SCORE:    0.00 PKD
ROOT
HETATM    1  C   UNL     1     -10.757   9.552  69.732  1.00  0.00    -0.259 C  
HETATM    2  C   UNL     1     -10.949   8.373  70.659  1.00  0.00    -0.243 A  
HETATM    3  C   UNL     1     -12.239   8.090  71.090  1.00  0.00    -0.262 A  
HETATM    4  C   UNL     1     -12.503   7.017  71.929  1.00  0.00    -0.311 A  
HETATM    5  N   UNL     1     -13.843   6.721  72.198  1.00  0.00    -0.515 NA 
HETATM    6  C   UNL     1     -11.442   6.154  72.264  1.00  0.00    -0.360 A  
HETATM    7  H2  UNL     1     -14.343   6.591  71.318  1.00  0.00     0.000 HD 
HETATM    8  C   UNL     1     -11.648   4.969  73.007  1.00  0.00    -0.299 A  
HETATM    9  H1  UNL     1     -14.037   5.932  72.815  1.00  0.00     0.000 HD 
HETATM   10  C   UNL     1     -10.597   4.121  73.354  1.00  0.00    -0.277 A  
HETATM   11  C   UNL     1      -9.306   4.440  72.977  1.00  0.00    -0.139 A  
HETATM   12  C   UNL     1      -9.069   5.601  72.236  1.00  0.00    -0.144 A  
HETATM   13  C   UNL     1     -10.123   6.463  71.838  1.00  0.00    -0.183 A  
HETATM   14  N   UNL     1      -9.912   7.567  71.042  1.00  0.00    -0.186 NA 
ENDROOT
BRANCH  14  15
HETATM   15  C   UNL     1      -8.545   7.859  70.527  1.00  0.00    -0.131 C  
BRANCH  15  16
HETATM   16  C   UNL     1      -8.220   6.969  69.329  1.00  0.00    -0.125 C  
BRANCH  16  17
HETATM   17  C   UNL     1      -8.907   7.461  68.058  1.00  0.00    -0.126 C  
BRANCH  17  18
HETATM   18  C   UNL     1      -7.938   7.629  66.884  1.00  0.00    -0.115 C  
BRANCH  18  19
HETATM   19  C   UNL     1      -7.149   8.932  66.966  1.00  0.00    -0.078 C  
BRANCH  19  20
HETATM   20  C   UNL     1      -7.759  10.060  66.132  1.00  0.00    -0.108 C  
BRANCH  20  21
HETATM   21  C   UNL     1      -8.922   9.612  65.237  1.00  0.00    -0.246 C  
BRANCH  21  22
HETATM   22  C   UNL     1     -10.278  10.149  65.706  1.00  0.00    -0.283 C  
BRANCH  22  23
HETATM   23  C   UNL     1     -10.157  11.325  66.681  1.00  0.00    -0.251 C  
BRANCH  23  24
HETATM   24  C   UNL     1     -11.467  12.105  66.787  1.00  0.00    -0.356 C  
BRANCH  24  25
HETATM   25  N   UNL     1     -11.205  13.529  67.117  1.00  0.00    -0.296 NA 
HETATM   26  C   UNL     1     -10.763  14.390  66.148  1.00  0.00    -0.304 A  
HETATM   27  C   UNL     1     -10.588  15.744  66.449  1.00  0.00    -0.307 A  
HETATM   28  C   UNL     1     -10.495  14.013  64.709  1.00  0.00    -0.445 C  
HETATM   29  C   UNL     1     -10.824  16.243  67.720  1.00  0.00    -0.315 A  
HETATM   30  N   UNL     1     -10.762  17.629  67.890  1.00  0.00    -0.384 NA 
HETATM   31  C   UNL     1     -11.336  15.366  68.691  1.00  0.00    -0.337 A  
HETATM   32  H1  UNL     1     -10.936  17.997  68.826  1.00  0.00     0.000 HD 
HETATM   33  C   UNL     1     -11.489  13.985  68.388  1.00  0.00    -0.306 A  
HETATM   34  H2  UNL     1     -11.396  18.079  67.229  1.00  0.00     0.000 HD 
HETATM   35  C   UNL     1     -11.958  13.123  69.412  1.00  0.00    -0.347 A  
HETATM   36  C   UNL     1     -12.314  13.597  70.673  1.00  0.00    -0.440 A  
HETATM   37  C   UNL     1     -12.205  14.947  70.950  1.00  0.00    -0.389 A  
HETATM   38  C   UNL     1     -11.716  15.816  69.976  1.00  0.00    -0.362 A  
ENDBRANCH  24  25
ENDBRANCH  23  24
ENDBRANCH  22  23
ENDBRANCH  21  22
ENDBRANCH  20  21
ENDBRANCH  19  20
ENDBRANCH  18  19
ENDBRANCH  17  18
ENDBRANCH  16  17
ENDBRANCH  15  16
ENDBRANCH  14  15
TORSDOF 11
ENDMDL
MODEL      222
REMARK 921   NORMALIZED FREE ENERGY PREDICTED BY IDOCK:   -5.62 KCAL/MOL
REMARK 922        TOTAL FREE ENERGY PREDICTED BY IDOCK:  -10.59 KCAL/MOL
REMARK 923 INTER-LIGAND FREE ENERGY PREDICTED BY IDOCK:   -9.13 KCAL/MOL
REMARK 924 INTRA-LIGAND FREE ENERGY PREDICTED BY IDOCK:   -1.46 KCAL/MOL
REMARK 927      BINDING AFFINITY PREDICTED BY RF-SCORE:    0.00 PKD
ROOT
HETATM    1  C   UNL     1      -9.955   9.058  71.679  1.00  0.00    -0.383 C  
HETATM    2  C   UNL     1      -9.860   7.552  71.583  1.00  0.00    -0.161 A  
HETATM    3  C   UNL     1     -10.473   6.799  72.577  1.00  0.00    -0.235 A  
HETATM    4  C   UNL     1     -10.446   5.413  72.556  1.00  0.00    -0.214 A  
HETATM    5  N   UNL     1     -11.207   4.736  73.514  1.00  0.00    -0.331 NA 
HETATM    6  C   UNL     1      -9.861   4.773  71.447  1.00  0.00    -0.255 A  
HETATM    7  H2  UNL     1     -12.175   5.055  73.462  1.00  0.00     0.000 HD 
HETATM    8  C   UNL     1      -9.904   3.369  71.284  1.00  0.00    -0.194 A  
HETATM    9  H1  UNL     1     -11.187   3.717  73.499  1.00  0.00     0.000 HD 
HETATM   10  C   UNL     1      -9.311   2.732  70.196  1.00  0.00    -0.199 A  
HETATM   11  C   UNL     1      -8.647   3.479  69.242  1.00  0.00    -0.110 A  
HETATM   12  C   UNL     1      -8.592   4.870  69.369  1.00  0.00    -0.100 A  
HETATM   13  C   UNL     1      -9.216   5.548  70.447  1.00  0.00    -0.151 A  
HETATM   14  N   UNL     1      -9.236   6.923  70.541  1.00  0.00    -0.156 NA 
ENDROOT
BRANCH  14  15
HETATM   15  C   UNL     1      -8.629   7.749  69.460  1.00  0.00    -0.135 C  
BRANCH  15  16
HETATM   16  C   UNL     1      -7.130   7.924  69.693  1.00  0.00    -0.061 C  
BRANCH  16  17
HETATM   17  C   UNL     1      -6.684   9.360  69.430  1.00  0.00    -0.048 C  
BRANCH  17  18
HETATM   18  C   UNL     1      -7.837  10.273  69.004  1.00  0.00    -0.114 C  
BRANCH  18  19
HETATM   19  C   UNL     1      -7.361  11.679  68.650  1.00  0.00    -0.111 C  
BRANCH  19  20
HETATM   20  C   UNL     1      -7.724  12.097  67.223  1.00  0.00    -0.168 C  
BRANCH  20  21
HETATM   21  C   UNL     1      -8.795  13.194  67.152  1.00  0.00    -0.222 C  
BRANCH  21  22
HETATM   22  C   UNL     1      -8.884  14.026  68.435  1.00  0.00    -0.180 C  
BRANCH  22  23
HETATM   23  C   UNL     1     -10.254  14.684  68.635  1.00  0.00    -0.244 C  
BRANCH  23  24
HETATM   24  C   UNL     1     -11.382  13.815  68.078  1.00  0.00    -0.288 C  
BRANCH  24  25
HETATM   25  N   UNL     1     -11.975  12.976  69.150  1.00  0.00    -0.296 NA 
HETATM   26  C   UNL     1     -11.910  11.610  69.070  1.00  0.00    -0.328 A  
HETATM   27  C   UNL     1     -12.405  10.829  70.118  1.00  0.00    -0.401 A  
HETATM   28  C   UNL     1     -11.273  10.836  67.938  1.00  0.00    -0.386 C  
HETATM   29  C   UNL     1     -12.992  11.400  71.236  1.00  0.00    -0.316 A  
HETATM   30  N   UNL     1     -13.326  10.549  72.294  1.00  0.00    -0.577 NA 
HETATM   31  C   UNL     1     -12.997  12.800  71.339  1.00  0.00    -0.359 A  
HETATM   32  H1  UNL     1     -13.757  10.968  73.118  1.00  0.00     0.000 HD 
HETATM   33  C   UNL     1     -12.515  13.591  70.260  1.00  0.00    -0.239 A  
HETATM   34  H2  UNL     1     -12.498  10.023  72.578  1.00  0.00     0.000 HD 
HETATM   35  C   UNL     1     -12.588  15.003  70.380  1.00  0.00    -0.399 A  
HETATM   36  C   UNL     1     -13.066  15.624  71.532  1.00  0.00    -0.561 A  
HETATM   37  C   UNL     1     -13.494  14.852  72.595  1.00  0.00    -0.573 A  
HETATM   38  C   UNL     1     -13.467  13.462  72.497  1.00  0.00    -0.640 A  
ENDBRANCH  24  25
ENDBRANCH  23  24
ENDBRANCH  22  23
ENDBRANCH  21  22
ENDBRANCH  20  21
ENDBRANCH  19  20
ENDBRANCH  18  19
ENDBRANCH  17  18
ENDBRANCH  16  17
ENDBRANCH  15  16
ENDBRANCH  14  15
TORSDOF 11
ENDMDL
MODEL      223
REMARK 921   NORMALIZED FREE ENERGY PREDICTED BY IDOCK:   -5.61 KCAL/MOL
REMARK 922        TOTAL FREE ENERGY PREDICTED BY IDOCK:  -10.57 KCAL/MOL
REMARK 923 INTER-LIGAND FREE ENERGY PREDICTED BY IDOCK:   -8.23 KCAL/MOL
REMARK 924 INTRA-LIGAND FREE ENERGY PREDICTED BY IDOCK:   -2.34 KCAL/MOL
REMARK 927      BINDING AFFINITY PREDICTED BY RF-SCORE:    0.00 PKD
ROOT
HETATM    1  C   UNL     1      -9.705   2.773  70.581  1.00  0.00    -0.087 C  
HETATM    2  C   UNL     1      -9.331   3.241  69.193  1.00  0.00    -0.163 A  
HETATM    3  C   UNL     1      -9.084   2.274  68.227  1.00  0.00    -0.220 A  
HETATM    4  C   UNL     1      -8.749   2.618  66.926  1.00  0.00    -0.123 A  
HETATM    5  N   UNL     1      -8.658   1.587  65.986  1.00  0.00    -0.102 NA 
HETATM    6  C   UNL     1      -8.756   3.981  66.573  1.00  0.00    -0.116 A  
HETATM    7  H2  UNL     1      -9.530   1.058  65.980  1.00  0.00     0.000 HD 
HETATM    8  C   UNL     1      -8.552   4.411  65.241  1.00  0.00    -0.124 A  
HETATM    9  H1  UNL     1      -8.412   1.841  65.030  1.00  0.00     0.000 HD 
HETATM   10  C   UNL     1      -8.542   5.760  64.893  1.00  0.00    -0.065 A  
HETATM   11  C   UNL     1      -8.725   6.722  65.868  1.00  0.00    -0.147 A  
HETATM   12  C   UNL     1      -8.936   6.331  67.193  1.00  0.00    -0.111 A  
HETATM   13  C   UNL     1      -8.986   4.964  67.571  1.00  0.00    -0.108 A  
HETATM   14  N   UNL     1      -9.271   4.566  68.859  1.00  0.00    -0.124 NA 
ENDROOT
BRANCH  14  15
HETATM   15  C   UNL     1      -9.589   5.586  69.897  1.00  0.00    -0.164 C  
BRANCH  15  16
HETATM   16  C   UNL     1     -11.058   5.998  69.815  1.00  0.00    -0.476 C  
BRANCH  16  17
HETATM   17  C   UNL     1     -11.299   7.353  70.474  1.00  0.00    -0.295 C  
BRANCH  17  18
HETATM   18  C   UNL     1     -10.978   8.531  69.548  1.00  0.00    -0.057 C  
BRANCH  18  19
HETATM   19  C   UNL     1     -10.130   9.594  70.239  1.00  0.00    -0.331 C  
BRANCH  19  20
HETATM   20  C   UNL     1      -8.626   9.391  70.040  1.00  0.00    -0.218 C  
BRANCH  20  21
HETATM   21  C   UNL     1      -7.971  10.450  69.143  1.00  0.00    -0.141 C  
BRANCH  21  22
HETATM   22  C   UNL     1      -7.469   9.879  67.813  1.00  0.00    -0.090 C  
BRANCH  22  23
HETATM   23  C   UNL     1      -8.021  10.621  66.590  1.00  0.00    -0.134 C  
BRANCH  23  24
HETATM   24  C   UNL     1      -9.456  10.195  66.274  1.00  0.00    -0.180 C  
BRANCH  24  25
HETATM   25  N   UNL     1     -10.180  11.281  65.566  1.00  0.00    -0.249 NA 
HETATM   26  C   UNL     1     -10.228  11.299  64.198  1.00  0.00    -0.335 A  
HETATM   27  C   UNL     1     -10.973  12.282  63.541  1.00  0.00    -0.521 A  
HETATM   28  C   UNL     1      -9.576  10.278  63.294  1.00  0.00    -0.305 C  
HETATM   29  C   UNL     1     -11.650  13.269  64.240  1.00  0.00    -0.400 A  
HETATM   30  N   UNL     1     -12.483  14.121  63.509  1.00  0.00    -1.106 NA 
HETATM   31  C   UNL     1     -11.647  13.207  65.643  1.00  0.00    -0.371 A  
HETATM   32  H1  UNL     1     -12.982  14.847  64.022  1.00  0.00     0.000 HD 
HETATM   33  C   UNL     1     -10.868  12.220  66.307  1.00  0.00    -0.278 A  
HETATM   34  H2  UNL     1     -13.153  13.563  62.978  1.00  0.00     0.000 HD 
HETATM   35  C   UNL     1     -10.849  12.225  67.726  1.00  0.00    -0.256 A  
HETATM   36  C   UNL     1     -11.603  13.127  68.473  1.00  0.00    -0.361 A  
HETATM   37  C   UNL     1     -12.392  14.057  67.824  1.00  0.00    -0.040 A  
HETATM   38  C   UNL     1     -12.408  14.101  66.431  1.00  0.00    -0.431 A  
ENDBRANCH  24  25
ENDBRANCH  23  24
ENDBRANCH  22  23
ENDBRANCH  21  22
ENDBRANCH  20  21
ENDBRANCH  19  20
ENDBRANCH  18  19
ENDBRANCH  17  18
ENDBRANCH  16  17
ENDBRANCH  15  16
ENDBRANCH  14  15
TORSDOF 11
ENDMDL
MODEL      224
REMARK 921   NORMALIZED FREE ENERGY PREDICTED BY IDOCK:   -5.60 KCAL/MOL
REMARK 922        TOTAL FREE ENERGY PREDICTED BY IDOCK:  -10.56 KCAL/MOL
REMARK 923 INTER-LIGAND FREE ENERGY PREDICTED BY IDOCK:   -8.07 KCAL/MOL
REMARK 924 INTRA-LIGAND FREE ENERGY PREDICTED BY IDOCK:   -2.49 KCAL/MOL
REMARK 927      BINDING AFFINITY PREDICTED BY RF-SCORE:    0.00 PKD
ROOT
HETATM    1  C   UNL     1     -10.688   8.228  67.460  1.00  0.00    -0.217 C  
HETATM    2  C   UNL     1     -10.043   7.698  68.721  1.00  0.00    -0.194 A  
HETATM    3  C   UNL     1      -8.939   6.866  68.585  1.00  0.00    -0.129 A  
HETATM    4  C   UNL     1      -8.281   6.350  69.690  1.00  0.00    -0.126 A  
HETATM    5  N   UNL     1      -7.097   5.639  69.465  1.00  0.00    -0.063 NA 
HETATM    6  C   UNL     1      -8.697   6.763  70.970  1.00  0.00    -0.137 A  
HETATM    7  H2  UNL     1      -6.452   6.221  68.931  1.00  0.00     0.000 HD 
HETATM    8  C   UNL     1      -8.002   6.386  72.142  1.00  0.00    -0.107 A  
HETATM    9  H1  UNL     1      -6.613   5.260  70.279  1.00  0.00     0.000 HD 
HETATM   10  C   UNL     1      -8.422   6.781  73.411  1.00  0.00    -0.132 A  
HETATM   11  C   UNL     1      -9.558   7.556  73.547  1.00  0.00    -0.339 A  
HETATM   12  C   UNL     1     -10.265   7.952  72.408  1.00  0.00    -0.327 A  
HETATM   13  C   UNL     1      -9.840   7.595  71.102  1.00  0.00    -0.173 A  
HETATM   14  N   UNL     1     -10.484   8.044  69.969  1.00  0.00    -0.223 NA 
ENDROOT
BRANCH  14  15
HETATM   15  C   UNL     1     -11.638   8.978  70.093  1.00  0.00     0.011 C  
BRANCH  15  16
HETATM   16  C   UNL     1     -11.154  10.393  70.403  1.00  0.00    -0.371 C  
BRANCH  16  17
HETATM   17  C   UNL     1     -12.076  11.448  69.798  1.00  0.00    -0.388 C  
BRANCH  17  18
HETATM   18  C   UNL     1     -12.213  12.695  70.677  1.00  0.00    -0.373 C  
BRANCH  18  19
HETATM   19  C   UNL     1     -12.280  13.978  69.854  1.00  0.00    -0.399 C  
BRANCH  19  20
HETATM   20  C   UNL     1     -10.920  14.660  69.687  1.00  0.00    -0.255 C  
BRANCH  20  21
HETATM   21  C   UNL     1     -10.901  15.749  68.606  1.00  0.00    -0.278 C  
BRANCH  21  22
HETATM   22  C   UNL     1     -11.595  15.317  67.311  1.00  0.00    -0.164 C  
BRANCH  22  23
HETATM   23  C   UNL     1     -10.771  14.318  66.489  1.00  0.00    -0.297 C  
BRANCH  23  24
HETATM   24  C   UNL     1     -11.453  12.952  66.417  1.00  0.00    -0.341 C  
BRANCH  24  25
HETATM   25  N   UNL     1     -10.695  12.035  65.527  1.00  0.00    -0.267 NA 
HETATM   26  C   UNL     1     -11.040  11.915  64.208  1.00  0.00    -0.356 A  
HETATM   27  C   UNL     1     -10.277  11.106  63.361  1.00  0.00    -0.435 A  
HETATM   28  C   UNL     1     -12.178  12.651  63.538  1.00  0.00    -0.638 C  
HETATM   29  C   UNL     1      -9.186  10.391  63.827  1.00  0.00    -0.269 A  
HETATM   30  N   UNL     1      -8.399   9.726  62.882  1.00  0.00    -0.149 NA 
HETATM   31  C   UNL     1      -8.801  10.569  65.167  1.00  0.00    -0.206 A  
HETATM   32  H1  UNL     1      -7.595   9.200  63.225  1.00  0.00     0.000 HD 
HETATM   33  C   UNL     1      -9.595  11.373  66.030  1.00  0.00    -0.221 A  
HETATM   34  H2  UNL     1      -8.088  10.391  62.174  1.00  0.00     0.000 HD 
HETATM   35  C   UNL     1      -9.203  11.483  67.389  1.00  0.00    -0.166 A  
HETATM   36  C   UNL     1      -8.050  10.873  67.879  1.00  0.00    -0.113 A  
HETATM   37  C   UNL     1      -7.258  10.128  67.026  1.00  0.00    -0.091 A  
HETATM   38  C   UNL     1      -7.632   9.972  65.693  1.00  0.00    -0.137 A  
ENDBRANCH  24  25
ENDBRANCH  23  24
ENDBRANCH  22  23
ENDBRANCH  21  22
ENDBRANCH  20  21
ENDBRANCH  19  20
ENDBRANCH  18  19
ENDBRANCH  17  18
ENDBRANCH  16  17
ENDBRANCH  15  16
ENDBRANCH  14  15
TORSDOF 11
ENDMDL
MODEL      225
REMARK 921   NORMALIZED FREE ENERGY PREDICTED BY IDOCK:   -5.59 KCAL/MOL
REMARK 922        TOTAL FREE ENERGY PREDICTED BY IDOCK:  -10.54 KCAL/MOL
REMARK 923 INTER-LIGAND FREE ENERGY PREDICTED BY IDOCK:   -8.31 KCAL/MOL
REMARK 924 INTRA-LIGAND FREE ENERGY PREDICTED BY IDOCK:   -2.23 KCAL/MOL
REMARK 927      BINDING AFFINITY PREDICTED BY RF-SCORE:    0.00 PKD
ROOT
HETATM    1  C   UNL     1      -9.655  10.150  64.558  1.00  0.00    -0.376 C  
HETATM    2  C   UNL     1     -10.121  11.421  65.231  1.00  0.00    -0.268 A  
HETATM    3  C   UNL     1     -11.268  12.032  64.740  1.00  0.00    -0.373 A  
HETATM    4  C   UNL     1     -11.771  13.192  65.310  1.00  0.00    -0.344 A  
HETATM    5  N   UNL     1     -13.005  13.658  64.846  1.00  0.00    -0.719 NA 
HETATM    6  C   UNL     1     -11.145  13.694  66.466  1.00  0.00    -0.310 A  
HETATM    7  H2  UNL     1     -13.699  12.915  64.928  1.00  0.00     0.000 HD 
HETATM    8  C   UNL     1     -11.668  14.796  67.182  1.00  0.00    -0.351 A  
HETATM    9  H1  UNL     1     -13.375  14.512  65.265  1.00  0.00     0.000 HD 
HETATM   10  C   UNL     1     -11.041  15.306  68.318  1.00  0.00    -0.301 A  
HETATM   11  C   UNL     1      -9.865  14.735  68.766  1.00  0.00    -0.227 A  
HETATM   12  C   UNL     1      -9.325  13.641  68.085  1.00  0.00    -0.212 A  
HETATM   13  C   UNL     1      -9.960  13.079  66.948  1.00  0.00    -0.243 A  
HETATM   14  N   UNL     1      -9.479  11.952  66.316  1.00  0.00    -0.224 NA 
ENDROOT
BRANCH  14  15
HETATM   15  C   UNL     1      -8.280  11.254  66.857  1.00  0.00    -0.153 C  
BRANCH  15  16
HETATM   16  C   UNL     1      -8.676  10.292  67.976  1.00  0.00    -0.122 C  
BRANCH  16  17
HETATM   17  C   UNL     1      -7.682  10.335  69.133  1.00  0.00    -0.119 C  
BRANCH  17  18
HETATM   18  C   UNL     1      -8.171   9.570  70.366  1.00  0.00    -0.220 C  
BRANCH  18  19
HETATM   19  C   UNL     1      -7.662   8.132  70.393  1.00  0.00    -0.085 C  
BRANCH  19  20
HETATM   20  C   UNL     1      -7.176   7.689  71.775  1.00  0.00    -0.064 C  
BRANCH  20  21
HETATM   21  C   UNL     1      -8.025   8.229  72.934  1.00  0.00    -0.199 C  
BRANCH  21  22
HETATM   22  C   UNL     1      -8.457   7.138  73.917  1.00  0.00    -0.185 C  
BRANCH  22  23
HETATM   23  C   UNL     1      -8.615   5.761  73.261  1.00  0.00    -0.118 C  
BRANCH  23  24
HETATM   24  C   UNL     1     -10.082   5.440  72.974  1.00  0.00    -0.176 C  
BRANCH  24  25
HETATM   25  N   UNL     1     -10.455   5.876  71.604  1.00  0.00    -0.225 NA 
HETATM   26  C   UNL     1     -11.171   7.029  71.419  1.00  0.00    -0.252 A  
HETATM   27  C   UNL     1     -11.454   7.470  70.124  1.00  0.00    -0.116 A  
HETATM   28  C   UNL     1     -11.651   7.939  72.527  1.00  0.00    -0.443 C  
HETATM   29  C   UNL     1     -11.053   6.755  69.007  1.00  0.00    -0.197 A  
HETATM   30  N   UNL     1     -11.254   7.345  67.756  1.00  0.00    -0.453 NA 
HETATM   31  C   UNL     1     -10.266   5.608  69.204  1.00  0.00    -0.305 A  
HETATM   32  H1  UNL     1     -10.958   6.819  66.934  1.00  0.00     0.000 HD 
HETATM   33  C   UNL     1     -10.001   5.149  70.523  1.00  0.00    -0.234 A  
HETATM   34  H2  UNL     1     -10.814   8.266  67.743  1.00  0.00     0.000 HD 
HETATM   35  C   UNL     1      -9.247   3.957  70.678  1.00  0.00    -0.197 A  
HETATM   36  C   UNL     1      -8.727   3.263  69.588  1.00  0.00    -0.128 A  
HETATM   37  C   UNL     1      -8.951   3.736  68.309  1.00  0.00    -0.168 A  
HETATM   38  C   UNL     1      -9.714   4.887  68.120  1.00  0.00    -0.202 A  
ENDBRANCH  24  25
ENDBRANCH  23  24
ENDBRANCH  22  23
ENDBRANCH  21  22
ENDBRANCH  20  21
ENDBRANCH  19  20
ENDBRANCH  18  19
ENDBRANCH  17  18
ENDBRANCH  16  17
ENDBRANCH  15  16
ENDBRANCH  14  15
TORSDOF 11
ENDMDL
MODEL      226
REMARK 921   NORMALIZED FREE ENERGY PREDICTED BY IDOCK:   -5.58 KCAL/MOL
REMARK 922        TOTAL FREE ENERGY PREDICTED BY IDOCK:  -10.52 KCAL/MOL
REMARK 923 INTER-LIGAND FREE ENERGY PREDICTED BY IDOCK:   -9.53 KCAL/MOL
REMARK 924 INTRA-LIGAND FREE ENERGY PREDICTED BY IDOCK:   -0.99 KCAL/MOL
REMARK 927      BINDING AFFINITY PREDICTED BY RF-SCORE:    0.00 PKD
ROOT
HETATM    1  C   UNL     1     -12.856   7.019  71.449  1.00  0.00    -0.407 C  
HETATM    2  C   UNL     1     -11.572   6.277  71.744  1.00  0.00    -0.304 A  
HETATM    3  C   UNL     1     -11.503   5.544  72.922  1.00  0.00    -0.327 A  
HETATM    4  C   UNL     1     -10.368   4.823  73.261  1.00  0.00    -0.182 A  
HETATM    5  N   UNL     1     -10.436   4.002  74.392  1.00  0.00    -0.223 NA 
HETATM    6  C   UNL     1      -9.309   4.770  72.335  1.00  0.00    -0.157 A  
HETATM    7  H2  UNL     1     -11.225   3.363  74.296  1.00  0.00     0.000 HD 
HETATM    8  C   UNL     1      -8.171   3.956  72.545  1.00  0.00    -0.093 A  
HETATM    9  H1  UNL     1      -9.601   3.472  74.640  1.00  0.00     0.000 HD 
HETATM   10  C   UNL     1      -7.114   3.914  71.637  1.00  0.00    -0.038 A  
HETATM   11  C   UNL     1      -7.159   4.693  70.496  1.00  0.00    -0.048 A  
HETATM   12  C   UNL     1      -8.272   5.503  70.255  1.00  0.00    -0.103 A  
HETATM   13  C   UNL     1      -9.377   5.539  71.144  1.00  0.00    -0.150 A  
HETATM   14  N   UNL     1     -10.513   6.273  70.878  1.00  0.00    -0.215 NA 
ENDROOT
BRANCH  14  15
HETATM   15  C   UNL     1     -10.628   7.024  69.597  1.00  0.00    -0.234 C  
BRANCH  15  16
HETATM   16  C   UNL     1     -11.099   6.103  68.473  1.00  0.00    -0.352 C  
BRANCH  16  17
HETATM   17  C   UNL     1     -10.711   6.646  67.101  1.00  0.00    -0.440 C  
BRANCH  17  18
HETATM   18  C   UNL     1      -9.266   7.152  67.047  1.00  0.00    -0.167 C  
BRANCH  18  19
HETATM   19  C   UNL     1      -9.062   8.205  65.962  1.00  0.00    -0.218 C  
BRANCH  19  20
HETATM   20  C   UNL     1      -9.465   9.613  66.405  1.00  0.00    -0.244 C  
BRANCH  20  21
HETATM   21  C   UNL     1      -8.470  10.266  67.375  1.00  0.00    -0.125 C  
BRANCH  21  22
HETATM   22  C   UNL     1      -8.176  11.730  67.033  1.00  0.00    -0.172 C  
BRANCH  22  23
HETATM   23  C   UNL     1      -8.647  12.709  68.114  1.00  0.00    -0.188 C  
BRANCH  23  24
HETATM   24  C   UNL     1     -10.146  12.988  68.006  1.00  0.00    -0.235 C  
BRANCH  24  25
HETATM   25  N   UNL     1     -10.421  13.959  66.916  1.00  0.00    -0.274 NA 
HETATM   26  C   UNL     1     -11.012  13.540  65.754  1.00  0.00    -0.278 A  
HETATM   27  C   UNL     1     -11.334  14.472  64.763  1.00  0.00    -0.397 A  
HETATM   28  C   UNL     1     -11.422  12.116  65.453  1.00  0.00    -0.387 C  
HETATM   29  C   UNL     1     -11.045  15.819  64.911  1.00  0.00    -0.399 A  
HETATM   30  N   UNL     1     -11.532  16.694  63.935  1.00  0.00    -1.469 NA 
HETATM   31  C   UNL     1     -10.497  16.249  66.130  1.00  0.00    -0.330 A  
HETATM   32  H1  UNL     1     -11.320  17.686  64.043  1.00  0.00     0.000 HD 
HETATM   33  C   UNL     1     -10.148  15.295  67.125  1.00  0.00    -0.240 A  
HETATM   34  H2  UNL     1     -12.542  16.573  63.848  1.00  0.00     0.000 HD 
HETATM   35  C   UNL     1      -9.547  15.764  68.322  1.00  0.00    -0.201 A  
HETATM   36  C   UNL     1      -9.338  17.120  68.562  1.00  0.00    -0.274 A  
HETATM   37  C   UNL     1      -9.718  18.048  67.611  1.00  0.00    -0.291 A  
HETATM   38  C   UNL     1     -10.281  17.618  66.411  1.00  0.00    -0.364 A  
ENDBRANCH  24  25
ENDBRANCH  23  24
ENDBRANCH  22  23
ENDBRANCH  21  22
ENDBRANCH  20  21
ENDBRANCH  19  20
ENDBRANCH  18  19
ENDBRANCH  17  18
ENDBRANCH  16  17
ENDBRANCH  15  16
ENDBRANCH  14  15
TORSDOF 11
ENDMDL
MODEL      227
REMARK 921   NORMALIZED FREE ENERGY PREDICTED BY IDOCK:   -5.58 KCAL/MOL
REMARK 922        TOTAL FREE ENERGY PREDICTED BY IDOCK:  -10.51 KCAL/MOL
REMARK 923 INTER-LIGAND FREE ENERGY PREDICTED BY IDOCK:   -8.61 KCAL/MOL
REMARK 924 INTRA-LIGAND FREE ENERGY PREDICTED BY IDOCK:   -1.90 KCAL/MOL
REMARK 927      BINDING AFFINITY PREDICTED BY RF-SCORE:    0.00 PKD
ROOT
HETATM    1  C   UNL     1     -12.000  12.222  67.905  1.00  0.00    -0.240 C  
HETATM    2  C   UNL     1     -11.452  11.969  66.519  1.00  0.00    -0.349 A  
HETATM    3  C   UNL     1     -12.146  12.503  65.440  1.00  0.00    -0.494 A  
HETATM    4  C   UNL     1     -11.703  12.331  64.137  1.00  0.00    -0.402 A  
HETATM    5  N   UNL     1     -12.381  13.020  63.127  1.00  0.00    -0.806 NA 
HETATM    6  C   UNL     1     -10.473  11.678  63.931  1.00  0.00    -0.433 A  
HETATM    7  H2  UNL     1     -12.394  14.016  63.349  1.00  0.00     0.000 HD 
HETATM    8  C   UNL     1      -9.888  11.572  62.647  1.00  0.00     0.028 A  
HETATM    9  H1  UNL     1     -12.055  12.893  62.169  1.00  0.00     0.000 HD 
HETATM   10  C   UNL     1      -8.679  10.912  62.438  1.00  0.00    -0.355 A  
HETATM   11  C   UNL     1      -8.023  10.326  63.505  1.00  0.00    -0.143 A  
HETATM   12  C   UNL     1      -8.571  10.418  64.787  1.00  0.00    -0.190 A  
HETATM   13  C   UNL     1      -9.782  11.114  65.035  1.00  0.00    -0.253 A  
HETATM   14  N   UNL     1     -10.291  11.278  66.306  1.00  0.00    -0.239 NA 
ENDROOT
BRANCH  14  15
HETATM   15  C   UNL     1      -9.536  10.758  67.480  1.00  0.00    -0.158 C  
BRANCH  15  16
HETATM   16  C   UNL     1      -9.935   9.315  67.780  1.00  0.00    -0.235 C  
BRANCH  16  17
HETATM   17  C   UNL     1      -8.773   8.520  68.368  1.00  0.00    -0.143 C  
BRANCH  17  18
HETATM   18  C   UNL     1      -7.731   9.409  69.054  1.00  0.00    -0.075 C  
BRANCH  18  19
HETATM   19  C   UNL     1      -6.393   9.402  68.320  1.00  0.00    -0.053 C  
BRANCH  19  20
HETATM   20  C   UNL     1      -5.713  10.773  68.292  1.00  0.00    -0.043 C  
BRANCH  20  21
HETATM   21  C   UNL     1      -6.534  11.886  68.958  1.00  0.00    -0.086 C  
BRANCH  21  22
HETATM   22  C   UNL     1      -6.731  13.106  68.053  1.00  0.00    -0.119 C  
BRANCH  22  23
HETATM   23  C   UNL     1      -7.683  14.150  68.646  1.00  0.00    -0.135 C  
BRANCH  23  24
HETATM   24  C   UNL     1      -8.765  14.558  67.645  1.00  0.00    -0.183 C  
BRANCH  24  25
HETATM   25  N   UNL     1      -9.227  15.945  67.910  1.00  0.00    -0.198 NA 
HETATM   26  C   UNL     1     -10.273  16.170  68.764  1.00  0.00    -0.238 A  
HETATM   27  C   UNL     1     -10.655  17.481  69.064  1.00  0.00    -0.146 A  
HETATM   28  C   UNL     1     -11.049  15.094  69.490  1.00  0.00    -0.287 C  
HETATM   29  C   UNL     1     -10.017  18.572  68.496  1.00  0.00    -0.384 A  
HETATM   30  N   UNL     1     -10.369  19.841  68.964  1.00  0.00    -0.605 NA 
HETATM   31  C   UNL     1      -8.905  18.334  67.671  1.00  0.00    -0.261 A  
HETATM   32  H1  UNL     1      -9.900  20.645  68.547  1.00  0.00     0.000 HD 
HETATM   33  C   UNL     1      -8.536  16.999  67.349  1.00  0.00    -0.196 A  
HETATM   34  H2  UNL     1     -10.252  19.872  69.977  1.00  0.00     0.000 HD 
HETATM   35  C   UNL     1      -7.440  16.801  66.470  1.00  0.00    -0.322 A  
HETATM   36  C   UNL     1      -6.697  17.865  65.962  1.00  0.00    -0.330 A  
HETATM   37  C   UNL     1      -7.033  19.159  66.312  1.00  0.00    -0.247 A  
HETATM   38  C   UNL     1      -8.124  19.389  67.147  1.00  0.00    -0.293 A  
ENDBRANCH  24  25
ENDBRANCH  23  24
ENDBRANCH  22  23
ENDBRANCH  21  22
ENDBRANCH  20  21
ENDBRANCH  19  20
ENDBRANCH  18  19
ENDBRANCH  17  18
ENDBRANCH  16  17
ENDBRANCH  15  16
ENDBRANCH  14  15
TORSDOF 11
ENDMDL
MODEL      228
REMARK 921   NORMALIZED FREE ENERGY PREDICTED BY IDOCK:   -5.56 KCAL/MOL
REMARK 922        TOTAL FREE ENERGY PREDICTED BY IDOCK:  -10.49 KCAL/MOL
REMARK 923 INTER-LIGAND FREE ENERGY PREDICTED BY IDOCK:   -9.30 KCAL/MOL
REMARK 924 INTRA-LIGAND FREE ENERGY PREDICTED BY IDOCK:   -1.20 KCAL/MOL
REMARK 927      BINDING AFFINITY PREDICTED BY RF-SCORE:    0.00 PKD
ROOT
HETATM    1  C   UNL     1     -11.591  10.435  70.179  1.00  0.00    -0.392 C  
HETATM    2  C   UNL     1     -11.211   8.981  70.342  1.00  0.00    -0.241 A  
HETATM    3  C   UNL     1     -11.817   8.263  71.365  1.00  0.00    -0.330 A  
HETATM    4  C   UNL     1     -11.535   6.921  71.574  1.00  0.00    -0.277 A  
HETATM    5  N   UNL     1     -12.293   6.242  72.533  1.00  0.00    -0.538 NA 
HETATM    6  C   UNL     1     -10.686   6.267  70.661  1.00  0.00    -0.321 A  
HETATM    7  H2  UNL     1     -13.284   6.348  72.315  1.00  0.00     0.000 HD 
HETATM    8  C   UNL     1     -10.448   4.875  70.725  1.00  0.00    -0.166 A  
HETATM    9  H1  UNL     1     -12.086   5.255  72.686  1.00  0.00     0.000 HD 
HETATM   10  C   UNL     1      -9.595   4.228  69.833  1.00  0.00    -0.279 A  
HETATM   11  C   UNL     1      -8.944   4.957  68.855  1.00  0.00    -0.136 A  
HETATM   12  C   UNL     1      -9.163   6.334  68.760  1.00  0.00    -0.125 A  
HETATM   13  C   UNL     1     -10.053   7.013  69.632  1.00  0.00    -0.186 A  
HETATM   14  N   UNL     1     -10.335   8.355  69.498  1.00  0.00    -0.216 NA 
ENDROOT
BRANCH  14  15
HETATM   15  C   UNL     1      -9.736   9.130  68.376  1.00  0.00    -0.152 C  
BRANCH  15  16
HETATM   16  C   UNL     1     -10.567   8.967  67.105  1.00  0.00    -0.291 C  
BRANCH  16  17
HETATM   17  C   UNL     1      -9.788   9.398  65.865  1.00  0.00    -0.362 C  
BRANCH  17  18
HETATM   18  C   UNL     1     -10.320  10.695  65.248  1.00  0.00    -0.321 C  
BRANCH  18  19
HETATM   19  C   UNL     1      -9.672  11.934  65.859  1.00  0.00    -0.258 C  
BRANCH  19  20
HETATM   20  C   UNL     1     -10.352  12.397  67.149  1.00  0.00    -0.232 C  
BRANCH  20  21
HETATM   21  C   UNL     1     -11.565  13.309  66.918  1.00  0.00    -0.408 C  
BRANCH  21  22
HETATM   22  C   UNL     1     -11.685  14.421  67.964  1.00  0.00    -0.374 C  
BRANCH  22  23
HETATM   23  C   UNL     1     -11.138  15.768  67.479  1.00  0.00    -0.258 C  
BRANCH  23  24
HETATM   24  C   UNL     1     -10.809  16.696  68.649  1.00  0.00    -0.344 C  
BRANCH  24  25
HETATM   25  N   UNL     1      -9.574  17.472  68.371  1.00  0.00    -0.291 NA 
HETATM   26  C   UNL     1      -9.655  18.709  67.790  1.00  0.00    -0.304 A  
HETATM   27  C   UNL     1      -8.494  19.464  67.599  1.00  0.00    -0.339 A  
HETATM   28  C   UNL     1     -10.939  19.391  67.375  1.00  0.00    -0.449 C  
HETATM   29  C   UNL     1      -7.245  18.982  67.958  1.00  0.00    -0.244 A  
HETATM   30  N   UNL     1      -6.163  19.861  67.863  1.00  0.00    -0.219 NA 
HETATM   31  C   UNL     1      -7.179  17.739  68.610  1.00  0.00    -0.260 A  
HETATM   32  H1  UNL     1      -5.244  19.507  68.127  1.00  0.00     0.000 HD 
HETATM   33  C   UNL     1      -8.358  16.964  68.780  1.00  0.00    -0.240 A  
HETATM   34  H2  UNL     1      -6.365  20.705  68.400  1.00  0.00     0.000 HD 
HETATM   35  C   UNL     1      -8.240  15.691  69.395  1.00  0.00    -0.236 A  
HETATM   36  C   UNL     1      -7.023  15.211  69.874  1.00  0.00    -0.140 A  
HETATM   37  C   UNL     1      -5.886  15.986  69.745  1.00  0.00    -0.162 A  
HETATM   38  C   UNL     1      -5.962  17.227  69.116  1.00  0.00    -0.205 A  
ENDBRANCH  24  25
ENDBRANCH  23  24
ENDBRANCH  22  23
ENDBRANCH  21  22
ENDBRANCH  20  21
ENDBRANCH  19  20
ENDBRANCH  18  19
ENDBRANCH  17  18
ENDBRANCH  16  17
ENDBRANCH  15  16
ENDBRANCH  14  15
TORSDOF 11
ENDMDL
MODEL      229
REMARK 921   NORMALIZED FREE ENERGY PREDICTED BY IDOCK:   -5.56 KCAL/MOL
REMARK 922        TOTAL FREE ENERGY PREDICTED BY IDOCK:  -10.48 KCAL/MOL
REMARK 923 INTER-LIGAND FREE ENERGY PREDICTED BY IDOCK:   -7.97 KCAL/MOL
REMARK 924 INTRA-LIGAND FREE ENERGY PREDICTED BY IDOCK:   -2.52 KCAL/MOL
REMARK 927      BINDING AFFINITY PREDICTED BY RF-SCORE:    0.00 PKD
ROOT
HETATM    1  C   UNL     1     -11.335  15.147  70.680  1.00  0.00    -0.330 C  
HETATM    2  C   UNL     1     -11.400  14.321  69.415  1.00  0.00    -0.282 A  
HETATM    3  C   UNL     1     -11.683  12.967  69.539  1.00  0.00    -0.387 A  
HETATM    4  C   UNL     1     -11.775  12.142  68.428  1.00  0.00    -0.332 A  
HETATM    5  N   UNL     1     -12.202  10.826  68.633  1.00  0.00    -0.827 NA 
HETATM    6  C   UNL     1     -11.670  12.726  67.152  1.00  0.00    -0.443 A  
HETATM    7  H2  UNL     1     -13.098  10.834  69.121  1.00  0.00     0.000 HD 
HETATM    8  C   UNL     1     -11.879  11.981  65.968  1.00  0.00    -0.223 A  
HETATM    9  H1  UNL     1     -12.270  10.219  67.816  1.00  0.00     0.000 HD 
HETATM   10  C   UNL     1     -11.759  12.553  64.703  1.00  0.00    -0.416 A  
HETATM   11  C   UNL     1     -11.415  13.886  64.583  1.00  0.00    -0.386 A  
HETATM   12  C   UNL     1     -11.209  14.653  65.733  1.00  0.00    -0.336 A  
HETATM   13  C   UNL     1     -11.358  14.106  67.034  1.00  0.00    -0.332 A  
HETATM   14  N   UNL     1     -11.234  14.871  68.174  1.00  0.00    -0.286 NA 
ENDROOT
BRANCH  14  15
HETATM   15  C   UNL     1     -10.983  16.334  68.061  1.00  0.00    -0.328 C  
BRANCH  15  16
HETATM   16  C   UNL     1      -9.560  16.600  67.572  1.00  0.00    -0.242 C  
BRANCH  16  17
HETATM   17  C   UNL     1      -8.596  16.816  68.735  1.00  0.00    -0.255 C  
BRANCH  17  18
HETATM   18  C   UNL     1      -7.839  15.543  69.124  1.00  0.00    -0.215 C  
BRANCH  18  19
HETATM   19  C   UNL     1      -6.876  15.087  68.033  1.00  0.00    -0.152 C  
BRANCH  19  20
HETATM   20  C   UNL     1      -6.504  13.606  68.136  1.00  0.00    -0.125 C  
BRANCH  20  21
HETATM   21  C   UNL     1      -7.714  12.669  68.255  1.00  0.00    -0.135 C  
BRANCH  21  22
HETATM   22  C   UNL     1      -8.129  12.056  66.915  1.00  0.00    -0.127 C  
BRANCH  22  23
HETATM   23  C   UNL     1      -8.493  10.570  67.017  1.00  0.00    -0.128 C  
BRANCH  23  24
HETATM   24  C   UNL     1      -7.490   9.804  67.880  1.00  0.00    -0.086 C  
BRANCH  24  25
HETATM   25  N   UNL     1      -8.072   8.517  68.342  1.00  0.00    -0.121 NA 
HETATM   26  C   UNL     1      -8.937   8.495  69.403  1.00  0.00    -0.149 A  
HETATM   27  C   UNL     1      -9.536   7.292  69.785  1.00  0.00    -0.162 A  
HETATM   28  C   UNL     1      -9.370   9.707  70.196  1.00  0.00    -0.294 C  
HETATM   29  C   UNL     1      -9.258   6.101  69.132  1.00  0.00    -0.127 A  
HETATM   30  N   UNL     1     -10.012   4.979  69.488  1.00  0.00    -0.215 NA 
HETATM   31  C   UNL     1      -8.420   6.144  68.006  1.00  0.00    -0.116 A  
HETATM   32  H1  UNL     1      -9.808   4.103  69.008  1.00  0.00     0.000 HD 
HETATM   33  C   UNL     1      -7.792   7.365  67.636  1.00  0.00    -0.113 A  
HETATM   34  H2  UNL     1     -11.004   5.194  69.389  1.00  0.00     0.000 HD 
HETATM   35  C   UNL     1      -6.910   7.355  66.526  1.00  0.00    -0.062 A  
HETATM   36  C   UNL     1      -6.685   6.207  65.770  1.00  0.00    -0.048 A  
HETATM   37  C   UNL     1      -7.330   5.032  66.106  1.00  0.00    -0.078 A  
HETATM   38  C   UNL     1      -8.178   5.000  67.212  1.00  0.00    -0.107 A  
ENDBRANCH  24  25
ENDBRANCH  23  24
ENDBRANCH  22  23
ENDBRANCH  21  22
ENDBRANCH  20  21
ENDBRANCH  19  20
ENDBRANCH  18  19
ENDBRANCH  17  18
ENDBRANCH  16  17
ENDBRANCH  15  16
ENDBRANCH  14  15
TORSDOF 11
ENDMDL
MODEL      230
REMARK 921   NORMALIZED FREE ENERGY PREDICTED BY IDOCK:   -5.55 KCAL/MOL
REMARK 922        TOTAL FREE ENERGY PREDICTED BY IDOCK:  -10.48 KCAL/MOL
REMARK 923 INTER-LIGAND FREE ENERGY PREDICTED BY IDOCK:   -8.34 KCAL/MOL
REMARK 924 INTRA-LIGAND FREE ENERGY PREDICTED BY IDOCK:   -2.14 KCAL/MOL
REMARK 927      BINDING AFFINITY PREDICTED BY RF-SCORE:    0.00 PKD
ROOT
HETATM    1  C   UNL     1      -9.677  10.295  64.100  1.00  0.00    -0.357 C  
HETATM    2  C   UNL     1     -10.223  10.863  65.391  1.00  0.00    -0.277 A  
HETATM    3  C   UNL     1     -10.768  12.140  65.358  1.00  0.00    -0.323 A  
HETATM    4  C   UNL     1     -11.302  12.728  66.494  1.00  0.00    -0.322 A  
HETATM    5  N   UNL     1     -11.957  13.955  66.342  1.00  0.00    -0.414 NA 
HETATM    6  C   UNL     1     -11.370  11.963  67.674  1.00  0.00    -0.372 A  
HETATM    7  H2  UNL     1     -12.687  13.862  65.635  1.00  0.00     0.000 HD 
HETATM    8  C   UNL     1     -12.013  12.440  68.840  1.00  0.00    -0.289 A  
HETATM    9  H1  UNL     1     -12.350  14.387  67.177  1.00  0.00     0.000 HD 
HETATM   10  C   UNL     1     -12.066  11.691  70.014  1.00  0.00    -0.395 A  
HETATM   11  C   UNL     1     -11.467  10.446  70.062  1.00  0.00    -0.382 A  
HETATM   12  C   UNL     1     -10.828   9.943  68.925  1.00  0.00    -0.239 A  
HETATM   13  C   UNL     1     -10.789  10.668  67.706  1.00  0.00    -0.286 A  
HETATM   14  N   UNL     1     -10.231  10.149  66.557  1.00  0.00    -0.229 NA 
ENDROOT
BRANCH  14  15
HETATM   15  C   UNL     1      -9.688   8.763  66.558  1.00  0.00    -0.259 C  
BRANCH  15  16
HETATM   16  C   UNL     1      -8.281   8.736  67.150  1.00  0.00    -0.104 C  
BRANCH  16  17
HETATM   17  C   UNL     1      -7.214   8.645  66.063  1.00  0.00    -0.084 C  
BRANCH  17  18
HETATM   18  C   UNL     1      -6.493   9.974  65.822  1.00  0.00    -0.099 C  
BRANCH  18  19
HETATM   19  C   UNL     1      -5.457  10.274  66.902  1.00  0.00    -0.042 C  
BRANCH  19  20
HETATM   20  C   UNL     1      -5.626  11.658  67.533  1.00  0.00    -0.070 C  
BRANCH  20  21
HETATM   21  C   UNL     1      -6.801  12.461  66.960  1.00  0.00    -0.006 C  
BRANCH  21  22
HETATM   22  C   UNL     1      -7.128  13.711  67.783  1.00  0.00    -0.167 C  
BRANCH  22  23
HETATM   23  C   UNL     1      -5.938  14.667  67.929  1.00  0.00    -0.151 C  
BRANCH  23  24
HETATM   24  C   UNL     1      -6.299  15.889  68.775  1.00  0.00    -0.114 C  
BRANCH  24  25
HETATM   25  N   UNL     1      -7.346  16.700  68.103  1.00  0.00    -0.165 NA 
HETATM   26  C   UNL     1      -7.012  17.540  67.074  1.00  0.00    -0.175 A  
HETATM   27  C   UNL     1      -8.012  18.245  66.400  1.00  0.00    -0.290 A  
HETATM   28  C   UNL     1      -5.613  17.740  66.536  1.00  0.00    -0.214 C  
HETATM   29  C   UNL     1      -9.346  18.140  66.762  1.00  0.00    -0.286 A  
HETATM   30  N   UNL     1     -10.289  18.766  65.941  1.00  0.00    -0.582 NA 
HETATM   31  C   UNL     1      -9.687  17.229  67.776  1.00  0.00    -0.270 A  
HETATM   32  H1  UNL     1     -11.270  18.689  66.207  1.00  0.00     0.000 HD 
HETATM   33  C   UNL     1      -8.664  16.533  68.476  1.00  0.00    -0.228 A  
HETATM   34  H2  UNL     1     -10.173  18.437  64.982  1.00  0.00     0.000 HD 
HETATM   35  C   UNL     1      -9.046  15.663  69.529  1.00  0.00    -0.240 A  
HETATM   36  C   UNL     1     -10.381  15.440  69.857  1.00  0.00    -0.298 A  
HETATM   37  C   UNL     1     -11.375  16.085  69.145  1.00  0.00    -0.352 A  
HETATM   38  C   UNL     1     -11.032  16.972  68.126  1.00  0.00    -0.263 A  
ENDBRANCH  24  25
ENDBRANCH  23  24
ENDBRANCH  22  23
ENDBRANCH  21  22
ENDBRANCH  20  21
ENDBRANCH  19  20
ENDBRANCH  18  19
ENDBRANCH  17  18
ENDBRANCH  16  17
ENDBRANCH  15  16
ENDBRANCH  14  15
TORSDOF 11
ENDMDL
MODEL      231
REMARK 921   NORMALIZED FREE ENERGY PREDICTED BY IDOCK:   -5.55 KCAL/MOL
REMARK 922        TOTAL FREE ENERGY PREDICTED BY IDOCK:  -10.48 KCAL/MOL
REMARK 923 INTER-LIGAND FREE ENERGY PREDICTED BY IDOCK:   -9.38 KCAL/MOL
REMARK 924 INTRA-LIGAND FREE ENERGY PREDICTED BY IDOCK:   -1.09 KCAL/MOL
REMARK 927      BINDING AFFINITY PREDICTED BY RF-SCORE:    0.00 PKD
ROOT
HETATM    1  C   UNL     1     -13.929  14.276  71.901  1.00  0.00    -0.566 C  
HETATM    2  C   UNL     1     -13.203  13.033  71.438  1.00  0.00    -0.192 A  
HETATM    3  C   UNL     1     -13.524  11.828  72.050  1.00  0.00    -0.319 A  
HETATM    4  C   UNL     1     -12.915  10.640  71.675  1.00  0.00    -0.477 A  
HETATM    5  N   UNL     1     -13.400   9.457  72.242  1.00  0.00    -0.472 NA 
HETATM    6  C   UNL     1     -12.023  10.661  70.585  1.00  0.00    -0.466 A  
HETATM    7  H2  UNL     1     -14.403   9.389  72.073  1.00  0.00     0.000 HD 
HETATM    8  C   UNL     1     -11.458   9.477  70.057  1.00  0.00    -0.149 A  
HETATM    9  H1  UNL     1     -12.952   8.584  71.965  1.00  0.00     0.000 HD 
HETATM   10  C   UNL     1     -10.562   9.498  68.990  1.00  0.00    -0.238 A  
HETATM   11  C   UNL     1     -10.196  10.705  68.425  1.00  0.00    -0.191 A  
HETATM   12  C   UNL     1     -10.741  11.893  68.919  1.00  0.00    -0.236 A  
HETATM   13  C   UNL     1     -11.682  11.900  69.981  1.00  0.00    -0.286 A  
HETATM   14  N   UNL     1     -12.286  13.057  70.423  1.00  0.00    -0.347 NA 
ENDROOT
BRANCH  14  15
HETATM   15  C   UNL     1     -11.993  14.351  69.747  1.00  0.00    -0.332 C  
BRANCH  15  16
HETATM   16  C   UNL     1     -11.216  15.281  70.676  1.00  0.00    -0.353 C  
BRANCH  16  17
HETATM   17  C   UNL     1     -10.045  15.946  69.957  1.00  0.00    -0.113 C  
BRANCH  17  18
HETATM   18  C   UNL     1     -10.363  17.371  69.494  1.00  0.00    -0.011 C  
BRANCH  18  19
HETATM   19  C   UNL     1     -10.629  17.446  67.994  1.00  0.00    -0.389 C  
BRANCH  19  20
HETATM   20  C   UNL     1     -10.766  18.880  67.476  1.00  0.00    -0.509 C  
BRANCH  20  21
HETATM   21  C   UNL     1     -10.049  19.129  66.143  1.00  0.00    -0.492 C  
BRANCH  21  22
HETATM   22  C   UNL     1      -9.238  20.428  66.134  1.00  0.00    -0.168 C  
BRANCH  22  23
HETATM   23  C   UNL     1      -7.795  20.244  66.617  1.00  0.00    -0.305 C  
BRANCH  23  24
HETATM   24  C   UNL     1      -7.291  18.824  66.356  1.00  0.00    -0.244 C  
BRANCH  24  25
HETATM   25  N   UNL     1      -6.656  18.261  67.575  1.00  0.00    -0.193 NA 
HETATM   26  C   UNL     1      -5.976  19.079  68.437  1.00  0.00    -0.215 A  
HETATM   27  C   UNL     1      -5.444  18.555  69.618  1.00  0.00    -0.214 A  
HETATM   28  C   UNL     1      -5.790  20.569  68.255  1.00  0.00    -0.318 C  
HETATM   29  C   UNL     1      -5.561  17.210  69.934  1.00  0.00    -0.225 A  
HETATM   30  N   UNL     1      -5.127  16.806  71.200  1.00  0.00    -0.312 NA 
HETATM   31  C   UNL     1      -6.314  16.392  69.077  1.00  0.00    -0.164 A  
HETATM   32  H1  UNL     1      -5.213  15.817  71.433  1.00  0.00     0.000 HD 
HETATM   33  C   UNL     1      -6.832  16.924  67.864  1.00  0.00    -0.148 A  
HETATM   34  H2  UNL     1      -5.599  17.362  71.913  1.00  0.00     0.000 HD 
HETATM   35  C   UNL     1      -7.541  16.051  66.999  1.00  0.00    -0.265 A  
HETATM   36  C   UNL     1      -7.781  14.718  67.326  1.00  0.00    -0.214 A  
HETATM   37  C   UNL     1      -7.312  14.216  68.526  1.00  0.00    -0.120 A  
HETATM   38  C   UNL     1      -6.584  15.038  69.383  1.00  0.00    -0.143 A  
ENDBRANCH  24  25
ENDBRANCH  23  24
ENDBRANCH  22  23
ENDBRANCH  21  22
ENDBRANCH  20  21
ENDBRANCH  19  20
ENDBRANCH  18  19
ENDBRANCH  17  18
ENDBRANCH  16  17
ENDBRANCH  15  16
ENDBRANCH  14  15
TORSDOF 11
ENDMDL
MODEL      232
REMARK 921   NORMALIZED FREE ENERGY PREDICTED BY IDOCK:   -5.55 KCAL/MOL
REMARK 922        TOTAL FREE ENERGY PREDICTED BY IDOCK:  -10.47 KCAL/MOL
REMARK 923 INTER-LIGAND FREE ENERGY PREDICTED BY IDOCK:   -8.95 KCAL/MOL
REMARK 924 INTRA-LIGAND FREE ENERGY PREDICTED BY IDOCK:   -1.52 KCAL/MOL
REMARK 927      BINDING AFFINITY PREDICTED BY RF-SCORE:    0.00 PKD
ROOT
HETATM    1  C   UNL     1     -12.072  14.749  64.363  1.00  0.00    -0.457 C  
HETATM    2  C   UNL     1     -10.887  15.211  65.180  1.00  0.00    -0.422 A  
HETATM    3  C   UNL     1     -10.666  16.578  65.288  1.00  0.00    -0.269 A  
HETATM    4  C   UNL     1      -9.610  17.085  66.030  1.00  0.00    -0.187 A  
HETATM    5  N   UNL     1      -9.546  18.472  66.201  1.00  0.00    -0.492 NA 
HETATM    6  C   UNL     1      -8.812  16.183  66.759  1.00  0.00    -0.275 A  
HETATM    7  H2  UNL     1     -10.426  18.804  66.597  1.00  0.00     0.000 HD 
HETATM    8  C   UNL     1      -7.798  16.625  67.641  1.00  0.00    -0.189 A  
HETATM    9  H1  UNL     1      -8.770  18.845  66.747  1.00  0.00     0.000 HD 
HETATM   10  C   UNL     1      -6.996  15.733  68.351  1.00  0.00    -0.116 A  
HETATM   11  C   UNL     1      -7.176  14.372  68.192  1.00  0.00    -0.129 A  
HETATM   12  C   UNL     1      -8.175  13.903  67.334  1.00  0.00    -0.198 A  
HETATM   13  C   UNL     1      -9.029  14.787  66.626  1.00  0.00    -0.255 A  
HETATM   14  N   UNL     1     -10.067  14.336  65.839  1.00  0.00    -0.313 NA 
ENDROOT
BRANCH  14  15
HETATM   15  C   UNL     1     -10.352  12.877  65.752  1.00  0.00    -0.284 C  
BRANCH  15  16
HETATM   16  C   UNL     1     -11.357  12.460  66.823  1.00  0.00    -0.391 C  
BRANCH  16  17
HETATM   17  C   UNL     1     -10.962  11.141  67.483  1.00  0.00    -0.331 C  
BRANCH  17  18
HETATM   18  C   UNL     1      -9.679  10.544  66.898  1.00  0.00    -0.218 C  
BRANCH  18  19
HETATM   19  C   UNL     1      -9.916   9.181  66.255  1.00  0.00    -0.352 C  
BRANCH  19  20
HETATM   20  C   UNL     1      -9.879   8.026  67.257  1.00  0.00    -0.258 C  
BRANCH  20  21
HETATM   21  C   UNL     1     -11.064   7.059  67.133  1.00  0.00    -0.298 C  
BRANCH  21  22
HETATM   22  C   UNL     1     -10.631   5.593  67.042  1.00  0.00    -0.358 C  
BRANCH  22  23
HETATM   23  C   UNL     1      -9.437   5.257  67.943  1.00  0.00    -0.146 C  
BRANCH  23  24
HETATM   24  C   UNL     1      -9.889   4.808  69.332  1.00  0.00    -0.212 C  
BRANCH  24  25
HETATM   25  N   UNL     1      -9.447   5.779  70.366  1.00  0.00    -0.163 NA 
HETATM   26  C   UNL     1      -8.131   5.834  70.740  1.00  0.00    -0.118 A  
HETATM   27  C   UNL     1      -7.709   6.798  71.659  1.00  0.00    -0.096 A  
HETATM   28  C   UNL     1      -7.033   4.954  70.186  1.00  0.00    -0.049 C  
HETATM   29  C   UNL     1      -8.598   7.694  72.232  1.00  0.00    -0.123 A  
HETATM   30  N   UNL     1      -8.065   8.713  73.027  1.00  0.00    -0.409 NA 
HETATM   31  C   UNL     1      -9.933   7.672  71.796  1.00  0.00    -0.208 A  
HETATM   32  H1  UNL     1      -8.718   9.373  73.448  1.00  0.00     0.000 HD 
HETATM   33  C   UNL     1     -10.363   6.674  70.879  1.00  0.00    -0.208 A  
HETATM   34  H2  UNL     1      -7.365   9.228  72.492  1.00  0.00     0.000 HD 
HETATM   35  C   UNL     1     -11.731   6.652  70.505  1.00  0.00    -0.453 A  
HETATM   36  C   UNL     1     -12.639   7.601  70.968  1.00  0.00    -0.177 A  
HETATM   37  C   UNL     1     -12.209   8.596  71.825  1.00  0.00    -0.403 A  
HETATM   38  C   UNL     1     -10.878   8.627  72.238  1.00  0.00    -0.392 A  
ENDBRANCH  24  25
ENDBRANCH  23  24
ENDBRANCH  22  23
ENDBRANCH  21  22
ENDBRANCH  20  21
ENDBRANCH  19  20
ENDBRANCH  18  19
ENDBRANCH  17  18
ENDBRANCH  16  17
ENDBRANCH  15  16
ENDBRANCH  14  15
TORSDOF 11
ENDMDL
MODEL      233
REMARK 921   NORMALIZED FREE ENERGY PREDICTED BY IDOCK:   -5.53 KCAL/MOL
REMARK 922        TOTAL FREE ENERGY PREDICTED BY IDOCK:  -10.45 KCAL/MOL
REMARK 923 INTER-LIGAND FREE ENERGY PREDICTED BY IDOCK:   -8.68 KCAL/MOL
REMARK 924 INTRA-LIGAND FREE ENERGY PREDICTED BY IDOCK:   -1.77 KCAL/MOL
REMARK 927      BINDING AFFINITY PREDICTED BY RF-SCORE:    0.00 PKD
ROOT
HETATM    1  C   UNL     1     -11.388  16.395  68.123  1.00  0.00    -0.205 C  
HETATM    2  C   UNL     1     -11.756  15.362  69.164  1.00  0.00    -0.345 A  
HETATM    3  C   UNL     1     -12.032  15.808  70.450  1.00  0.00    -0.385 A  
HETATM    4  C   UNL     1     -12.391  14.928  71.460  1.00  0.00    -0.339 A  
HETATM    5  N   UNL     1     -12.789  15.475  72.684  1.00  0.00    -0.386 NA 
HETATM    6  C   UNL     1     -12.565  13.570  71.132  1.00  0.00    -0.438 A  
HETATM    7  H2  UNL     1     -13.550  16.135  72.527  1.00  0.00     0.000 HD 
HETATM    8  C   UNL     1     -13.052  12.630  72.070  1.00  0.00    -0.471 A  
HETATM    9  H1  UNL     1     -13.053  14.827  73.427  1.00  0.00     0.000 HD 
HETATM   10  C   UNL     1     -13.209  11.282  71.752  1.00  0.00    -0.480 A  
HETATM   11  C   UNL     1     -12.873  10.831  70.490  1.00  0.00    -0.335 A  
HETATM   12  C   UNL     1     -12.395  11.735  69.537  1.00  0.00    -0.120 A  
HETATM   13  C   UNL     1     -12.258  13.119  69.821  1.00  0.00    -0.202 A  
HETATM   14  N   UNL     1     -11.863  14.031  68.868  1.00  0.00    -0.336 NA 
ENDROOT
BRANCH  14  15
HETATM   15  C   UNL     1     -11.612  13.582  67.470  1.00  0.00    -0.350 C  
BRANCH  15  16
HETATM   16  C   UNL     1     -10.113  13.530  67.182  1.00  0.00    -0.245 C  
BRANCH  16  17
HETATM   17  C   UNL     1      -9.829  13.066  65.756  1.00  0.00    -0.217 C  
BRANCH  17  18
HETATM   18  C   UNL     1     -10.857  12.052  65.244  1.00  0.00    -0.340 C  
BRANCH  18  19
HETATM   19  C   UNL     1     -10.862  11.954  63.721  1.00  0.00    -0.481 C  
BRANCH  19  20
HETATM   20  C   UNL     1      -9.553  11.408  63.147  1.00  0.00    -0.398 C  
BRANCH  20  21
HETATM   21  C   UNL     1      -9.214   9.987  63.617  1.00  0.00    -0.314 C  
BRANCH  21  22
HETATM   22  C   UNL     1      -7.800   9.869  64.192  1.00  0.00    -0.142 C  
BRANCH  22  23
HETATM   23  C   UNL     1      -7.746  10.077  65.710  1.00  0.00    -0.122 C  
BRANCH  23  24
HETATM   24  C   UNL     1      -7.128   8.873  66.421  1.00  0.00    -0.083 C  
BRANCH  24  25
HETATM   25  N   UNL     1      -7.999   7.678  66.282  1.00  0.00    -0.101 NA 
HETATM   26  C   UNL     1      -7.667   6.683  65.402  1.00  0.00    -0.100 A  
HETATM   27  C   UNL     1      -8.452   5.530  65.330  1.00  0.00    -0.147 A  
HETATM   28  C   UNL     1      -6.448   6.687  64.507  1.00  0.00    -0.041 C  
HETATM   29  C   UNL     1      -9.586   5.371  66.111  1.00  0.00    -0.153 A  
HETATM   30  N   UNL     1     -10.225   4.128  66.077  1.00  0.00    -0.432 NA 
HETATM   31  C   UNL     1      -9.883   6.368  67.055  1.00  0.00    -0.194 A  
HETATM   32  H1  UNL     1     -11.059   4.011  66.652  1.00  0.00     0.000 HD 
HETATM   33  C   UNL     1      -9.096   7.551  67.108  1.00  0.00    -0.127 A  
HETATM   34  H2  UNL     1      -9.552   3.397  66.307  1.00  0.00     0.000 HD 
HETATM   35  C   UNL     1      -9.462   8.557  68.039  1.00  0.00    -0.154 A  
HETATM   36  C   UNL     1     -10.526   8.396  68.923  1.00  0.00    -0.208 A  
HETATM   37  C   UNL     1     -11.262   7.227  68.898  1.00  0.00     0.130 A  
HETATM   38  C   UNL     1     -10.950   6.232  67.973  1.00  0.00    -0.418 A  
ENDBRANCH  24  25
ENDBRANCH  23  24
ENDBRANCH  22  23
ENDBRANCH  21  22
ENDBRANCH  20  21
ENDBRANCH  19  20
ENDBRANCH  18  19
ENDBRANCH  17  18
ENDBRANCH  16  17
ENDBRANCH  15  16
ENDBRANCH  14  15
TORSDOF 11
ENDMDL
MODEL      234
REMARK 921   NORMALIZED FREE ENERGY PREDICTED BY IDOCK:   -5.53 KCAL/MOL
REMARK 922        TOTAL FREE ENERGY PREDICTED BY IDOCK:  -10.44 KCAL/MOL
REMARK 923 INTER-LIGAND FREE ENERGY PREDICTED BY IDOCK:   -8.97 KCAL/MOL
REMARK 924 INTRA-LIGAND FREE ENERGY PREDICTED BY IDOCK:   -1.47 KCAL/MOL
REMARK 927      BINDING AFFINITY PREDICTED BY RF-SCORE:    0.00 PKD
ROOT
HETATM    1  C   UNL     1     -11.982  13.987  66.993  1.00  0.00    -0.472 C  
HETATM    2  C   UNL     1     -10.792  14.867  67.303  1.00  0.00    -0.306 A  
HETATM    3  C   UNL     1     -11.035  16.196  67.627  1.00  0.00    -0.268 A  
HETATM    4  C   UNL     1     -10.001  17.066  67.939  1.00  0.00    -0.281 A  
HETATM    5  N   UNL     1     -10.345  18.344  68.390  1.00  0.00    -0.358 NA 
HETATM    6  C   UNL     1      -8.694  16.550  68.016  1.00  0.00    -0.189 A  
HETATM    7  H2  UNL     1     -10.970  18.262  69.193  1.00  0.00     0.000 HD 
HETATM    8  C   UNL     1      -7.602  17.337  68.451  1.00  0.00    -0.241 A  
HETATM    9  H1  UNL     1      -9.585  18.984  68.620  1.00  0.00     0.000 HD 
HETATM   10  C   UNL     1      -6.304  16.832  68.512  1.00  0.00    -0.149 A  
HETATM   11  C   UNL     1      -6.057  15.528  68.128  1.00  0.00    -0.140 A  
HETATM   12  C   UNL     1      -7.114  14.721  67.700  1.00  0.00    -0.206 A  
HETATM   13  C   UNL     1      -8.451  15.197  67.661  1.00  0.00    -0.160 A  
HETATM   14  N   UNL     1      -9.511  14.387  67.316  1.00  0.00    -0.209 NA 
ENDROOT
BRANCH  14  15
HETATM   15  C   UNL     1      -9.278  12.947  67.016  1.00  0.00    -0.226 C  
BRANCH  15  16
HETATM   16  C   UNL     1      -9.459  12.099  68.273  1.00  0.00    -0.204 C  
BRANCH  16  17
HETATM   17  C   UNL     1     -10.057  10.733  67.949  1.00  0.00    -0.197 C  
BRANCH  17  18
HETATM   18  C   UNL     1     -11.462  10.545  68.530  1.00  0.00    -0.284 C  
BRANCH  18  19
HETATM   19  C   UNL     1     -11.647  11.292  69.847  1.00  0.00    -0.413 C  
BRANCH  19  20
HETATM   20  C   UNL     1     -12.911  10.877  70.604  1.00  0.00    -0.340 C  
BRANCH  20  21
HETATM   21  C   UNL     1     -12.651   9.890  71.750  1.00  0.00    -0.506 C  
BRANCH  21  22
HETATM   22  C   UNL     1     -13.644   8.725  71.772  1.00  0.00    -0.453 C  
BRANCH  22  23
HETATM   23  C   UNL     1     -13.041   7.407  71.272  1.00  0.00    -0.349 C  
BRANCH  23  24
HETATM   24  C   UNL     1     -11.514   7.461  71.246  1.00  0.00    -0.272 C  
BRANCH  24  25
HETATM   25  N   UNL     1     -10.948   6.133  70.898  1.00  0.00    -0.283 NA 
HETATM   26  C   UNL     1     -10.652   5.830  69.596  1.00  0.00    -0.326 A  
HETATM   27  C   UNL     1     -10.053   4.607  69.286  1.00  0.00    -0.170 A  
HETATM   28  C   UNL     1     -10.864   6.756  68.420  1.00  0.00    -0.284 C  
HETATM   29  C   UNL     1      -9.770   3.667  70.264  1.00  0.00    -0.122 A  
HETATM   30  N   UNL     1      -9.041   2.537  69.882  1.00  0.00    -0.100 NA 
HETATM   31  C   UNL     1     -10.019   4.010  71.603  1.00  0.00    -0.232 A  
HETATM   32  H1  UNL     1      -8.832   1.845  70.602  1.00  0.00     0.000 HD 
HETATM   33  C   UNL     1     -10.651   5.246  71.912  1.00  0.00    -0.209 A  
HETATM   34  H2  UNL     1      -8.171   2.832  69.437  1.00  0.00     0.000 HD 
HETATM   35  C   UNL     1     -10.934   5.532  73.272  1.00  0.00    -0.339 A  
HETATM   36  C   UNL     1     -10.568   4.667  74.302  1.00  0.00    -0.328 A  
HETATM   37  C   UNL     1      -9.915   3.487  74.001  1.00  0.00    -0.173 A  
HETATM   38  C   UNL     1      -9.651   3.161  72.672  1.00  0.00    -0.182 A  
ENDBRANCH  24  25
ENDBRANCH  23  24
ENDBRANCH  22  23
ENDBRANCH  21  22
ENDBRANCH  20  21
ENDBRANCH  19  20
ENDBRANCH  18  19
ENDBRANCH  17  18
ENDBRANCH  16  17
ENDBRANCH  15  16
ENDBRANCH  14  15
TORSDOF 11
ENDMDL
MODEL      235
REMARK 921   NORMALIZED FREE ENERGY PREDICTED BY IDOCK:   -5.53 KCAL/MOL
REMARK 922        TOTAL FREE ENERGY PREDICTED BY IDOCK:  -10.43 KCAL/MOL
REMARK 923 INTER-LIGAND FREE ENERGY PREDICTED BY IDOCK:   -8.52 KCAL/MOL
REMARK 924 INTRA-LIGAND FREE ENERGY PREDICTED BY IDOCK:   -1.92 KCAL/MOL
REMARK 927      BINDING AFFINITY PREDICTED BY RF-SCORE:    0.00 PKD
ROOT
HETATM    1  C   UNL     1     -10.932   6.465  67.707  1.00  0.00    -0.425 C  
HETATM    2  C   UNL     1     -10.762   6.792  69.174  1.00  0.00    -0.253 A  
HETATM    3  C   UNL     1     -11.861   6.621  70.007  1.00  0.00    -0.301 A  
HETATM    4  C   UNL     1     -11.786   6.884  71.367  1.00  0.00    -0.316 A  
HETATM    5  N   UNL     1     -12.894   6.550  72.153  1.00  0.00    -0.534 NA 
HETATM    6  C   UNL     1     -10.537   7.241  71.911  1.00  0.00    -0.238 A  
HETATM    7  H2  UNL     1     -13.122   5.566  72.012  1.00  0.00     0.000 HD 
HETATM    8  C   UNL     1     -10.346   7.402  73.303  1.00  0.00    -0.405 A  
HETATM    9  H1  UNL     1     -12.838   6.744  73.152  1.00  0.00     0.000 HD 
HETATM   10  C   UNL     1      -9.114   7.771  73.842  1.00  0.00    -0.298 A  
HETATM   11  C   UNL     1      -8.040   8.002  73.004  1.00  0.00    -0.222 A  
HETATM   12  C   UNL     1      -8.194   7.846  71.623  1.00  0.00    -0.132 A  
HETATM   13  C   UNL     1      -9.426   7.436  71.049  1.00  0.00    -0.157 A  
HETATM   14  N   UNL     1      -9.568   7.203  69.699  1.00  0.00    -0.155 NA 
ENDROOT
BRANCH  14  15
HETATM   15  C   UNL     1      -8.390   7.331  68.796  1.00  0.00    -0.129 C  
BRANCH  15  16
HETATM   16  C   UNL     1      -8.512   8.580  67.926  1.00  0.00    -0.130 C  
BRANCH  16  17
HETATM   17  C   UNL     1      -8.375   9.856  68.751  1.00  0.00    -0.116 C  
BRANCH  17  18
HETATM   18  C   UNL     1      -7.232  10.756  68.273  1.00  0.00    -0.084 C  
BRANCH  18  19
HETATM   19  C   UNL     1      -7.085  12.009  69.130  1.00  0.00    -0.032 C  
BRANCH  19  20
HETATM   20  C   UNL     1      -7.935  13.182  68.636  1.00  0.00    -0.033 C  
BRANCH  20  21
HETATM   21  C   UNL     1      -7.871  13.398  67.118  1.00  0.00    -0.035 C  
BRANCH  21  22
HETATM   22  C   UNL     1      -8.848  14.470  66.625  1.00  0.00    -0.214 C  
BRANCH  22  23
HETATM   23  C   UNL     1     -10.141  13.887  66.042  1.00  0.00    -0.324 C  
BRANCH  23  24
HETATM   24  C   UNL     1     -11.372  14.651  66.531  1.00  0.00    -0.353 C  
BRANCH  24  25
HETATM   25  N   UNL     1     -11.420  14.671  68.016  1.00  0.00    -0.310 NA 
HETATM   26  C   UNL     1     -11.322  15.858  68.692  1.00  0.00    -0.376 A  
HETATM   27  C   UNL     1     -11.442  15.877  70.084  1.00  0.00    -0.366 A  
HETATM   28  C   UNL     1     -11.151  17.214  68.044  1.00  0.00    -0.113 C  
HETATM   29  C   UNL     1     -11.631  14.713  70.813  1.00  0.00    -0.236 A  
HETATM   30  N   UNL     1     -11.884  14.844  72.182  1.00  0.00    -0.346 NA 
HETATM   31  C   UNL     1     -11.793  13.510  70.108  1.00  0.00    -0.348 A  
HETATM   32  H1  UNL     1     -12.024  13.989  72.719  1.00  0.00     0.000 HD 
HETATM   33  C   UNL     1     -11.646  13.491  68.694  1.00  0.00    -0.330 A  
HETATM   34  H2  UNL     1     -12.684  15.463  72.319  1.00  0.00     0.000 HD 
HETATM   35  C   UNL     1     -11.764  12.246  68.025  1.00  0.00    -0.417 A  
HETATM   36  C   UNL     1     -12.065  11.067  68.702  1.00  0.00    -0.129 A  
HETATM   37  C   UNL     1     -12.250  11.096  70.072  1.00  0.00    -0.402 A  
HETATM   38  C   UNL     1     -12.109  12.297  70.764  1.00  0.00    -0.259 A  
ENDBRANCH  24  25
ENDBRANCH  23  24
ENDBRANCH  22  23
ENDBRANCH  21  22
ENDBRANCH  20  21
ENDBRANCH  19  20
ENDBRANCH  18  19
ENDBRANCH  17  18
ENDBRANCH  16  17
ENDBRANCH  15  16
ENDBRANCH  14  15
TORSDOF 11
ENDMDL
MODEL      236
REMARK 921   NORMALIZED FREE ENERGY PREDICTED BY IDOCK:   -5.51 KCAL/MOL
REMARK 922        TOTAL FREE ENERGY PREDICTED BY IDOCK:  -10.41 KCAL/MOL
REMARK 923 INTER-LIGAND FREE ENERGY PREDICTED BY IDOCK:   -8.42 KCAL/MOL
REMARK 924 INTRA-LIGAND FREE ENERGY PREDICTED BY IDOCK:   -1.99 KCAL/MOL
REMARK 927      BINDING AFFINITY PREDICTED BY RF-SCORE:    0.00 PKD
ROOT
HETATM    1  C   UNL     1     -10.588  16.875  69.484  1.00  0.00    -0.239 C  
HETATM    2  C   UNL     1      -9.752  17.581  68.439  1.00  0.00    -0.316 A  
HETATM    3  C   UNL     1     -10.409  18.394  67.524  1.00  0.00    -0.416 A  
HETATM    4  C   UNL     1      -9.716  19.087  66.544  1.00  0.00    -0.357 A  
HETATM    5  N   UNL     1     -10.437  19.992  65.757  1.00  0.00    -0.442 NA 
HETATM    6  C   UNL     1      -8.309  19.027  66.551  1.00  0.00    -0.313 A  
HETATM    7  H2  UNL     1     -10.918  20.656  66.364  1.00  0.00     0.000 HD 
HETATM    8  C   UNL     1      -7.522  19.803  65.668  1.00  0.00    -0.269 A  
HETATM    9  H1  UNL     1      -9.927  20.501  65.037  1.00  0.00     0.000 HD 
HETATM   10  C   UNL     1      -6.130  19.732  65.662  1.00  0.00    -0.217 A  
HETATM   11  C   UNL     1      -5.483  18.874  66.531  1.00  0.00    -0.169 A  
HETATM   12  C   UNL     1      -6.231  18.098  67.421  1.00  0.00    -0.175 A  
HETATM   13  C   UNL     1      -7.647  18.176  67.474  1.00  0.00    -0.214 A  
HETATM   14  N   UNL     1      -8.389  17.474  68.399  1.00  0.00    -0.270 NA 
ENDROOT
BRANCH  14  15
HETATM   15  C   UNL     1      -7.701  16.637  69.421  1.00  0.00     0.007 C  
BRANCH  15  16
HETATM   16  C   UNL     1      -8.088  15.168  69.263  1.00  0.00    -0.217 C  
BRANCH  16  17
HETATM   17  C   UNL     1      -7.004  14.376  68.536  1.00  0.00    -0.100 C  
BRANCH  17  18
HETATM   18  C   UNL     1      -7.509  13.723  67.246  1.00  0.00    -0.048 C  
BRANCH  18  19
HETATM   19  C   UNL     1      -8.962  14.079  66.947  1.00  0.00    -0.243 C  
BRANCH  19  20
HETATM   20  C   UNL     1      -9.114  15.065  65.786  1.00  0.00     0.127 C  
BRANCH  20  21
HETATM   21  C   UNL     1     -10.562  15.508  65.536  1.00  0.00    -0.413 C  
BRANCH  21  22
HETATM   22  C   UNL     1     -11.562  14.849  66.489  1.00  0.00    -0.254 C  
BRANCH  22  23
HETATM   23  C   UNL     1     -12.495  13.852  65.792  1.00  0.00    -0.530 C  
BRANCH  23  24
HETATM   24  C   UNL     1     -12.144  12.407  66.151  1.00  0.00    -0.220 C  
BRANCH  24  25
HETATM   25  N   UNL     1     -11.103  11.878  65.234  1.00  0.00    -0.306 NA 
HETATM   26  C   UNL     1     -11.083  12.261  63.920  1.00  0.00    -0.412 A  
HETATM   27  C   UNL     1     -10.058  11.815  63.082  1.00  0.00    -0.386 A  
HETATM   28  C   UNL     1     -12.072  13.206  63.277  1.00  0.00    -0.460 C  
HETATM   29  C   UNL     1      -9.062  10.966  63.538  1.00  0.00    -0.202 A  
HETATM   30  N   UNL     1      -8.001  10.690  62.671  1.00  0.00    -0.255 NA 
HETATM   31  C   UNL     1      -9.054  10.629  64.902  1.00  0.00    -0.231 A  
HETATM   32  H1  UNL     1      -7.269  10.065  63.006  1.00  0.00     0.000 HD 
HETATM   33  C   UNL     1     -10.113  11.064  65.745  1.00  0.00    -0.252 A  
HETATM   34  H2  UNL     1      -7.581  11.568  62.363  1.00  0.00     0.000 HD 
HETATM   35  C   UNL     1     -10.096  10.657  67.104  1.00  0.00    -0.248 A  
HETATM   36  C   UNL     1      -9.058   9.896  67.636  1.00  0.00    -0.140 A  
HETATM   37  C   UNL     1      -8.009   9.511  66.823  1.00  0.00    -0.109 A  
HETATM   38  C   UNL     1      -8.011   9.866  65.476  1.00  0.00    -0.128 A  
ENDBRANCH  24  25
ENDBRANCH  23  24
ENDBRANCH  22  23
ENDBRANCH  21  22
ENDBRANCH  20  21
ENDBRANCH  19  20
ENDBRANCH  18  19
ENDBRANCH  17  18
ENDBRANCH  16  17
ENDBRANCH  15  16
ENDBRANCH  14  15
TORSDOF 11
ENDMDL
MODEL      237
REMARK 921   NORMALIZED FREE ENERGY PREDICTED BY IDOCK:   -5.51 KCAL/MOL
REMARK 922        TOTAL FREE ENERGY PREDICTED BY IDOCK:  -10.41 KCAL/MOL
REMARK 923 INTER-LIGAND FREE ENERGY PREDICTED BY IDOCK:   -9.09 KCAL/MOL
REMARK 924 INTRA-LIGAND FREE ENERGY PREDICTED BY IDOCK:   -1.32 KCAL/MOL
REMARK 927      BINDING AFFINITY PREDICTED BY RF-SCORE:    0.00 PKD
ROOT
HETATM    1  C   UNL     1      -5.782   9.347  69.712  1.00  0.00    -0.032 C  
HETATM    2  C   UNL     1      -7.061   8.681  70.166  1.00  0.00    -0.044 A  
HETATM    3  C   UNL     1      -7.434   8.831  71.495  1.00  0.00    -0.116 A  
HETATM    4  C   UNL     1      -8.600   8.265  71.989  1.00  0.00    -0.178 A  
HETATM    5  N   UNL     1      -8.970   8.584  73.299  1.00  0.00    -0.281 NA 
HETATM    6  C   UNL     1      -9.457   7.607  71.086  1.00  0.00    -0.163 A  
HETATM    7  H2  UNL     1      -9.021   9.598  73.398  1.00  0.00     0.000 HD 
HETATM    8  C   UNL     1     -10.723   7.114  71.480  1.00  0.00    -0.245 A  
HETATM    9  H1  UNL     1      -9.827   8.167  73.662  1.00  0.00     0.000 HD 
HETATM   10  C   UNL     1     -11.566   6.448  70.592  1.00  0.00    -0.412 A  
HETATM   11  C   UNL     1     -11.164   6.245  69.286  1.00  0.00    -0.458 A  
HETATM   12  C   UNL     1      -9.922   6.726  68.863  1.00  0.00    -0.159 A  
HETATM   13  C   UNL     1      -9.058   7.438  69.734  1.00  0.00    -0.141 A  
HETATM   14  N   UNL     1      -7.867   7.984  69.308  1.00  0.00    -0.112 NA 
ENDROOT
BRANCH  14  15
HETATM   15  C   UNL     1      -7.474   7.879  67.875  1.00  0.00    -0.104 C  
BRANCH  15  16
HETATM   16  C   UNL     1      -7.952   9.102  67.094  1.00  0.00    -0.106 C  
BRANCH  16  17
HETATM   17  C   UNL     1      -7.271   9.201  65.732  1.00  0.00    -0.089 C  
BRANCH  17  18
HETATM   18  C   UNL     1      -8.256   9.482  64.593  1.00  0.00    -0.146 C  
BRANCH  18  19
HETATM   19  C   UNL     1      -9.625   9.915  65.107  1.00  0.00    -0.367 C  
BRANCH  19  20
HETATM   20  C   UNL     1     -10.402  10.772  64.105  1.00  0.00    -0.382 C  
BRANCH  20  21
HETATM   21  C   UNL     1     -10.482  12.256  64.488  1.00  0.00    -0.339 C  
BRANCH  21  22
HETATM   22  C   UNL     1     -11.920  12.772  64.581  1.00  0.00    -0.453 C  
BRANCH  22  23
HETATM   23  C   UNL     1     -12.253  13.390  65.944  1.00  0.00    -0.502 C  
BRANCH  23  24
HETATM   24  C   UNL     1     -11.102  13.219  66.935  1.00  0.00    -0.289 C  
BRANCH  24  25
HETATM   25  N   UNL     1     -10.874  14.475  67.695  1.00  0.00    -0.268 NA 
HETATM   26  C   UNL     1     -10.313  15.561  67.078  1.00  0.00    -0.279 A  
HETATM   27  C   UNL     1     -10.169  16.761  67.779  1.00  0.00    -0.303 A  
HETATM   28  C   UNL     1      -9.871  15.605  65.633  1.00  0.00    -0.369 C  
HETATM   29  C   UNL     1     -10.557  16.880  69.104  1.00  0.00    -0.330 A  
HETATM   30  N   UNL     1     -10.510  18.154  69.678  1.00  0.00    -0.098 NA 
HETATM   31  C   UNL     1     -11.189  15.782  69.710  1.00  0.00    -0.330 A  
HETATM   32  H1  UNL     1     -10.796  18.243  70.653  1.00  0.00     0.000 HD 
HETATM   33  C   UNL     1     -11.310  14.555  69.001  1.00  0.00    -0.272 A  
HETATM   34  H2  UNL     1     -11.055  18.802  69.107  1.00  0.00     0.000 HD 
HETATM   35  C   UNL     1     -11.906  13.454  69.667  1.00  0.00    -0.394 A  
HETATM   36  C   UNL     1     -12.413  13.557  70.961  1.00  0.00    -0.451 A  
HETATM   37  C   UNL     1     -12.331  14.763  71.631  1.00  0.00    -0.409 A  
HETATM   38  C   UNL     1     -11.722  15.856  71.017  1.00  0.00    -0.473 A  
ENDBRANCH  24  25
ENDBRANCH  23  24
ENDBRANCH  22  23
ENDBRANCH  21  22
ENDBRANCH  20  21
ENDBRANCH  19  20
ENDBRANCH  18  19
ENDBRANCH  17  18
ENDBRANCH  16  17
ENDBRANCH  15  16
ENDBRANCH  14  15
TORSDOF 11
ENDMDL
MODEL      238
REMARK 921   NORMALIZED FREE ENERGY PREDICTED BY IDOCK:   -5.50 KCAL/MOL
REMARK 922        TOTAL FREE ENERGY PREDICTED BY IDOCK:  -10.39 KCAL/MOL
REMARK 923 INTER-LIGAND FREE ENERGY PREDICTED BY IDOCK:   -8.37 KCAL/MOL
REMARK 924 INTRA-LIGAND FREE ENERGY PREDICTED BY IDOCK:   -2.02 KCAL/MOL
REMARK 927      BINDING AFFINITY PREDICTED BY RF-SCORE:    0.00 PKD
ROOT
HETATM    1  C   UNL     1     -13.822  13.763  71.359  1.00  0.00    -0.129 C  
HETATM    2  C   UNL     1     -13.145  12.415  71.260  1.00  0.00    -0.126 A  
HETATM    3  C   UNL     1     -13.536  11.426  72.153  1.00  0.00    -0.203 A  
HETATM    4  C   UNL     1     -12.975  10.157  72.121  1.00  0.00    -0.340 A  
HETATM    5  N   UNL     1     -13.527   9.184  72.960  1.00  0.00    -0.887 NA 
HETATM    6  C   UNL     1     -12.061   9.858  71.093  1.00  0.00    -0.466 A  
HETATM    7  H2  UNL     1     -14.529   9.114  72.782  1.00  0.00     0.000 HD 
HETATM    8  C   UNL     1     -11.541   8.555  70.910  1.00  0.00    -0.295 A  
HETATM    9  H1  UNL     1     -13.114   8.252  72.936  1.00  0.00     0.000 HD 
HETATM   10  C   UNL     1     -10.623   8.260  69.904  1.00  0.00    -0.232 A  
HETATM   11  C   UNL     1     -10.188   9.261  69.057  1.00  0.00    -0.217 A  
HETATM   12  C   UNL     1     -10.688  10.558  69.206  1.00  0.00    -0.269 A  
HETATM   13  C   UNL     1     -11.649  10.880  70.198  1.00  0.00    -0.338 A  
HETATM   14  N   UNL     1     -12.207  12.136  70.304  1.00  0.00    -0.299 NA 
ENDROOT
BRANCH  14  15
HETATM   15  C   UNL     1     -11.840  13.195  69.324  1.00  0.00    -0.323 C  
BRANCH  15  16
HETATM   16  C   UNL     1     -11.419  14.474  70.045  1.00  0.00    -0.311 C  
BRANCH  16  17
HETATM   17  C   UNL     1     -11.662  15.711  69.185  1.00  0.00    -0.402 C  
BRANCH  17  18
HETATM   18  C   UNL     1     -10.662  16.837  69.466  1.00  0.00    -0.273 C  
BRANCH  18  19
HETATM   19  C   UNL     1      -9.961  17.317  68.199  1.00  0.00    -0.303 C  
BRANCH  19  20
HETATM   20  C   UNL     1      -8.551  17.854  68.456  1.00  0.00    -0.298 C  
BRANCH  20  21
HETATM   21  C   UNL     1      -7.447  16.802  68.290  1.00  0.00    -0.186 C  
BRANCH  21  22
HETATM   22  C   UNL     1      -7.479  15.724  69.377  1.00  0.00    -0.216 C  
BRANCH  22  23
HETATM   23  C   UNL     1      -7.939  14.356  68.859  1.00  0.00    -0.109 C  
BRANCH  23  24
HETATM   24  C   UNL     1      -7.567  14.157  67.389  1.00  0.00    -0.158 C  
BRANCH  24  25
HETATM   25  N   UNL     1      -8.198  12.925  66.851  1.00  0.00    -0.071 NA 
HETATM   26  C   UNL     1      -9.450  12.978  66.301  1.00  0.00    -0.192 A  
HETATM   27  C   UNL     1     -10.007  11.830  65.731  1.00  0.00    -0.269 A  
HETATM   28  C   UNL     1     -10.299  14.224  66.191  1.00  0.00    -0.305 C  
HETATM   29  C   UNL     1      -9.334  10.618  65.730  1.00  0.00    -0.186 A  
HETATM   30  N   UNL     1      -9.905   9.563  65.012  1.00  0.00    -0.420 NA 
HETATM   31  C   UNL     1      -8.025  10.588  66.240  1.00  0.00    -0.144 A  
HETATM   32  H1  UNL     1      -9.410   8.672  65.011  1.00  0.00     0.000 HD 
HETATM   33  C   UNL     1      -7.472  11.752  66.841  1.00  0.00    -0.106 A  
HETATM   34  H2  UNL     1     -10.067   9.859  64.049  1.00  0.00     0.000 HD 
HETATM   35  C   UNL     1      -6.168  11.665  67.392  1.00  0.00    -0.101 A  
HETATM   36  C   UNL     1      -5.408  10.500  67.316  1.00  0.00    -0.040 A  
HETATM   37  C   UNL     1      -5.933   9.384  66.693  1.00  0.00    -0.060 A  
HETATM   38  C   UNL     1      -7.224   9.425  66.170  1.00  0.00    -0.092 A  
ENDBRANCH  24  25
ENDBRANCH  23  24
ENDBRANCH  22  23
ENDBRANCH  21  22
ENDBRANCH  20  21
ENDBRANCH  19  20
ENDBRANCH  18  19
ENDBRANCH  17  18
ENDBRANCH  16  17
ENDBRANCH  15  16
ENDBRANCH  14  15
TORSDOF 11
ENDMDL
MODEL      239
REMARK 921   NORMALIZED FREE ENERGY PREDICTED BY IDOCK:   -5.49 KCAL/MOL
REMARK 922        TOTAL FREE ENERGY PREDICTED BY IDOCK:  -10.38 KCAL/MOL
REMARK 923 INTER-LIGAND FREE ENERGY PREDICTED BY IDOCK:   -8.87 KCAL/MOL
REMARK 924 INTRA-LIGAND FREE ENERGY PREDICTED BY IDOCK:   -1.51 KCAL/MOL
REMARK 927      BINDING AFFINITY PREDICTED BY RF-SCORE:    0.00 PKD
ROOT
HETATM    1  C   UNL     1      -7.821  14.313  68.024  1.00  0.00    -0.143 C  
HETATM    2  C   UNL     1      -7.944  15.820  68.038  1.00  0.00    -0.136 A  
HETATM    3  C   UNL     1      -6.957  16.545  68.693  1.00  0.00    -0.167 A  
HETATM    4  C   UNL     1      -6.987  17.931  68.740  1.00  0.00    -0.262 A  
HETATM    5  N   UNL     1      -5.881  18.584  69.295  1.00  0.00    -0.224 NA 
HETATM    6  C   UNL     1      -7.997  18.602  68.024  1.00  0.00    -0.294 A  
HETATM    7  H2  UNL     1      -5.035  18.282  68.813  1.00  0.00     0.000 HD 
HETATM    8  C   UNL     1      -8.026  20.011  67.914  1.00  0.00    -0.306 A  
HETATM    9  H1  UNL     1      -5.904  19.603  69.329  1.00  0.00     0.000 HD 
HETATM   10  C   UNL     1      -9.034  20.678  67.220  1.00  0.00    -0.373 A  
HETATM   11  C   UNL     1     -10.050  19.956  66.624  1.00  0.00    -0.598 A  
HETATM   12  C   UNL     1     -10.047  18.561  66.708  1.00  0.00    -0.406 A  
HETATM   13  C   UNL     1      -9.015  17.854  67.378  1.00  0.00    -0.245 A  
HETATM   14  N   UNL     1      -8.960  16.477  67.400  1.00  0.00    -0.198 NA 
ENDROOT
BRANCH  14  15
HETATM   15  C   UNL     1      -9.980  15.682  66.661  1.00  0.00    -0.258 C  
BRANCH  15  16
HETATM   16  C   UNL     1     -11.128  15.285  67.587  1.00  0.00    -0.323 C  
BRANCH  16  17
HETATM   17  C   UNL     1     -12.070  14.286  66.921  1.00  0.00    -0.440 C  
BRANCH  17  18
HETATM   18  C   UNL     1     -11.424  13.555  65.740  1.00  0.00    -0.331 C  
BRANCH  18  19
HETATM   19  C   UNL     1     -11.709  12.057  65.762  1.00  0.00    -0.313 C  
BRANCH  19  20
HETATM   20  C   UNL     1     -10.473  11.212  66.080  1.00  0.00    -0.307 C  
BRANCH  20  21
HETATM   21  C   UNL     1     -10.576  10.435  67.400  1.00  0.00    -0.321 C  
BRANCH  21  22
HETATM   22  C   UNL     1     -11.224  11.249  68.523  1.00  0.00    -0.311 C  
BRANCH  22  23
HETATM   23  C   UNL     1     -11.591  10.404  69.748  1.00  0.00    -0.339 C  
BRANCH  23  24
HETATM   24  C   UNL     1     -10.970   9.008  69.675  1.00  0.00    -0.136 C  
BRANCH  24  25
HETATM   25  N   UNL     1     -10.249   8.689  70.933  1.00  0.00    -0.198 NA 
HETATM   26  C   UNL     1     -10.929   8.172  72.004  1.00  0.00    -0.286 A  
HETATM   27  C   UNL     1     -10.232   7.806  73.158  1.00  0.00    -0.398 A  
HETATM   28  C   UNL     1     -12.414   7.891  72.035  1.00  0.00    -0.338 C  
HETATM   29  C   UNL     1      -8.861   7.978  73.265  1.00  0.00    -0.265 A  
HETATM   30  N   UNL     1      -8.231   7.451  74.396  1.00  0.00    -0.175 NA 
HETATM   31  C   UNL     1      -8.163   8.450  72.141  1.00  0.00    -0.207 A  
HETATM   32  H1  UNL     1      -7.222   7.577  74.475  1.00  0.00     0.000 HD 
HETATM   33  C   UNL     1      -8.879   8.844  70.977  1.00  0.00    -0.230 A  
HETATM   34  H2  UNL     1      -8.453   6.458  74.475  1.00  0.00     0.000 HD 
HETATM   35  C   UNL     1      -8.143   9.366  69.883  1.00  0.00    -0.142 A  
HETATM   36  C   UNL     1      -6.753   9.454  69.901  1.00  0.00    -0.058 A  
HETATM   37  C   UNL     1      -6.057   9.029  71.017  1.00  0.00    -0.054 A  
HETATM   38  C   UNL     1      -6.753   8.542  72.122  1.00  0.00    -0.089 A  
ENDBRANCH  24  25
ENDBRANCH  23  24
ENDBRANCH  22  23
ENDBRANCH  21  22
ENDBRANCH  20  21
ENDBRANCH  19  20
ENDBRANCH  18  19
ENDBRANCH  17  18
ENDBRANCH  16  17
ENDBRANCH  15  16
ENDBRANCH  14  15
TORSDOF 11
ENDMDL
MODEL      240
REMARK 921   NORMALIZED FREE ENERGY PREDICTED BY IDOCK:   -5.49 KCAL/MOL
REMARK 922        TOTAL FREE ENERGY PREDICTED BY IDOCK:  -10.37 KCAL/MOL
REMARK 923 INTER-LIGAND FREE ENERGY PREDICTED BY IDOCK:   -8.72 KCAL/MOL
REMARK 924 INTRA-LIGAND FREE ENERGY PREDICTED BY IDOCK:   -1.65 KCAL/MOL
REMARK 927      BINDING AFFINITY PREDICTED BY RF-SCORE:    0.00 PKD
ROOT
HETATM    1  C   UNL     1      -7.956   8.733  70.185  1.00  0.00    -0.107 C  
HETATM    2  C   UNL     1      -8.699   7.690  70.989  1.00  0.00    -0.137 A  
HETATM    3  C   UNL     1      -9.723   8.122  71.822  1.00  0.00    -0.253 A  
HETATM    4  C   UNL     1     -10.464   7.229  72.582  1.00  0.00    -0.246 A  
HETATM    5  N   UNL     1     -11.566   7.733  73.281  1.00  0.00    -0.606 NA 
HETATM    6  C   UNL     1     -10.219   5.852  72.422  1.00  0.00    -0.217 A  
HETATM    7  H2  UNL     1     -12.185   8.216  72.631  1.00  0.00     0.000 HD 
HETATM    8  C   UNL     1     -11.013   4.872  73.061  1.00  0.00    -0.358 A  
HETATM    9  H1  UNL     1     -12.110   7.076  73.840  1.00  0.00     0.000 HD 
HETATM   10  C   UNL     1     -10.762   3.508  72.918  1.00  0.00    -0.185 A  
HETATM   11  C   UNL     1      -9.702   3.084  72.139  1.00  0.00    -0.231 A  
HETATM   12  C   UNL     1      -8.902   4.027  71.488  1.00  0.00    -0.147 A  
HETATM   13  C   UNL     1      -9.155   5.420  71.587  1.00  0.00    -0.139 A  
HETATM   14  N   UNL     1      -8.422   6.354  70.888  1.00  0.00    -0.130 NA 
ENDROOT
BRANCH  14  15
HETATM   15  C   UNL     1      -7.354   5.908  69.951  1.00  0.00    -0.075 C  
BRANCH  15  16
HETATM   16  C   UNL     1      -7.959   5.442  68.628  1.00  0.00    -0.087 C  
BRANCH  16  17
HETATM   17  C   UNL     1      -7.410   6.238  67.447  1.00  0.00    -0.084 C  
BRANCH  17  18
HETATM   18  C   UNL     1      -8.464   6.510  66.370  1.00  0.00    -0.124 C  
BRANCH  18  19
HETATM   19  C   UNL     1      -8.984   7.943  66.418  1.00  0.00    -0.200 C  
BRANCH  19  20
HETATM   20  C   UNL     1     -10.317   8.078  67.158  1.00  0.00    -0.395 C  
BRANCH  20  21
HETATM   21  C   UNL     1     -10.728   9.529  67.436  1.00  0.00    -0.297 C  
BRANCH  21  22
HETATM   22  C   UNL     1     -11.175   9.757  68.883  1.00  0.00    -0.076 C  
BRANCH  22  23
HETATM   23  C   UNL     1     -10.915  11.184  69.379  1.00  0.00    -0.298 C  
BRANCH  23  24
HETATM   24  C   UNL     1     -12.024  12.142  68.943  1.00  0.00    -0.242 C  
BRANCH  24  25
HETATM   25  N   UNL     1     -11.979  13.393  69.741  1.00  0.00    -0.326 NA 
HETATM   26  C   UNL     1     -12.442  13.405  71.030  1.00  0.00    -0.353 A  
HETATM   27  C   UNL     1     -12.329  14.567  71.798  1.00  0.00    -0.408 A  
HETATM   28  C   UNL     1     -13.033  12.215  71.750  1.00  0.00    -0.437 C  
HETATM   29  C   UNL     1     -11.781  15.730  71.281  1.00  0.00    -0.440 A  
HETATM   30  N   UNL     1     -11.576  16.795  72.164  1.00  0.00    -0.394 NA 
HETATM   31  C   UNL     1     -11.251  15.691  69.981  1.00  0.00    -0.332 A  
HETATM   32  H1  UNL     1     -11.173  17.651  71.784  1.00  0.00     0.000 HD 
HETATM   33  C   UNL     1     -11.391  14.515  69.194  1.00  0.00    -0.277 A  
HETATM   34  H2  UNL     1     -11.010  16.476  72.951  1.00  0.00     0.000 HD 
HETATM   35  C   UNL     1     -10.891  14.534  67.867  1.00  0.00    -0.260 A  
HETATM   36  C   UNL     1     -10.232  15.643  67.340  1.00  0.00    -0.264 A  
HETATM   37  C   UNL     1     -10.061  16.769  68.122  1.00  0.00    -0.282 A  
HETATM   38  C   UNL     1     -10.569  16.795  69.420  1.00  0.00    -0.318 A  
ENDBRANCH  24  25
ENDBRANCH  23  24
ENDBRANCH  22  23
ENDBRANCH  21  22
ENDBRANCH  20  21
ENDBRANCH  19  20
ENDBRANCH  18  19
ENDBRANCH  17  18
ENDBRANCH  16  17
ENDBRANCH  15  16
ENDBRANCH  14  15
TORSDOF 11
ENDMDL
MODEL      241
REMARK 921   NORMALIZED FREE ENERGY PREDICTED BY IDOCK:   -5.49 KCAL/MOL
REMARK 922        TOTAL FREE ENERGY PREDICTED BY IDOCK:  -10.37 KCAL/MOL
REMARK 923 INTER-LIGAND FREE ENERGY PREDICTED BY IDOCK:   -7.95 KCAL/MOL
REMARK 924 INTRA-LIGAND FREE ENERGY PREDICTED BY IDOCK:   -2.42 KCAL/MOL
REMARK 927      BINDING AFFINITY PREDICTED BY RF-SCORE:    0.00 PKD
ROOT
HETATM    1  C   UNL     1      -7.662   8.224  73.124  1.00  0.00    -0.180 C  
HETATM    2  C   UNL     1      -7.723   7.039  72.187  1.00  0.00    -0.092 A  
HETATM    3  C   UNL     1      -6.657   6.843  71.319  1.00  0.00    -0.049 A  
HETATM    4  C   UNL     1      -6.628   5.773  70.437  1.00  0.00    -0.044 A  
HETATM    5  N   UNL     1      -5.455   5.571  69.702  1.00  0.00    -0.004 NA 
HETATM    6  C   UNL     1      -7.666   4.824  70.505  1.00  0.00    -0.058 A  
HETATM    7  H2  UNL     1      -4.664   5.502  70.342  1.00  0.00     0.000 HD 
HETATM    8  C   UNL     1      -7.647   3.639  69.733  1.00  0.00    -0.051 A  
HETATM    9  H1  UNL     1      -5.434   4.784  69.054  1.00  0.00     0.000 HD 
HETATM   10  C   UNL     1      -8.682   2.706  69.786  1.00  0.00    -0.127 A  
HETATM   11  C   UNL     1      -9.772   2.936  70.604  1.00  0.00    -0.104 A  
HETATM   12  C   UNL     1      -9.818   4.094  71.385  1.00  0.00    -0.254 A  
HETATM   13  C   UNL     1      -8.763   5.043  71.378  1.00  0.00    -0.131 A  
HETATM   14  N   UNL     1      -8.761   6.148  72.201  1.00  0.00    -0.131 NA 
ENDROOT
BRANCH  14  15
HETATM   15  C   UNL     1      -9.870   6.349  73.176  1.00  0.00    -0.168 C  
BRANCH  15  16
HETATM   16  C   UNL     1     -10.875   7.370  72.645  1.00  0.00    -0.349 C  
BRANCH  16  17
HETATM   17  C   UNL     1     -12.114   6.691  72.068  1.00  0.00    -0.353 C  
BRANCH  17  18
HETATM   18  C   UNL     1     -12.184   6.779  70.540  1.00  0.00    -0.253 C  
BRANCH  18  19
HETATM   19  C   UNL     1     -10.985   7.514  69.948  1.00  0.00    -0.223 C  
BRANCH  19  20
HETATM   20  C   UNL     1     -10.765   7.212  68.464  1.00  0.00    -0.191 C  
BRANCH  20  21
HETATM   21  C   UNL     1      -9.289   7.049  68.077  1.00  0.00    -0.127 C  
BRANCH  21  22
HETATM   22  C   UNL     1      -8.968   7.617  66.691  1.00  0.00    -0.181 C  
BRANCH  22  23
HETATM   23  C   UNL     1      -9.925   8.735  66.261  1.00  0.00    -0.315 C  
BRANCH  23  24
HETATM   24  C   UNL     1      -9.229  10.097  66.247  1.00  0.00    -0.157 C  
BRANCH  24  25
HETATM   25  N   UNL     1     -10.125  11.149  66.791  1.00  0.00    -0.211 NA 
HETATM   26  C   UNL     1     -10.109  11.443  68.128  1.00  0.00    -0.189 A  
HETATM   27  C   UNL     1     -10.901  12.483  68.620  1.00  0.00    -0.280 A  
HETATM   28  C   UNL     1      -9.234  10.761  69.156  1.00  0.00    -0.131 C  
HETATM   29  C   UNL     1     -11.734  13.218  67.791  1.00  0.00    -0.358 A  
HETATM   30  N   UNL     1     -12.377  14.329  68.344  1.00  0.00    -0.577 NA 
HETATM   31  C   UNL     1     -11.697  12.952  66.412  1.00  0.00    -0.454 A  
HETATM   32  H1  UNL     1     -12.989  14.871  67.734  1.00  0.00     0.000 HD 
HETATM   33  C   UNL     1     -10.908  11.876  65.919  1.00  0.00    -0.297 A  
HETATM   34  H2  UNL     1     -11.681  14.950  68.759  1.00  0.00     0.000 HD 
HETATM   35  C   UNL     1     -10.940  11.606  64.527  1.00  0.00    -0.376 A  
HETATM   36  C   UNL     1     -11.675  12.388  63.638  1.00  0.00    -0.596 A  
HETATM   37  C   UNL     1     -12.406  13.459  64.116  1.00  0.00    -0.395 A  
HETATM   38  C   UNL     1     -12.423  13.732  65.482  1.00  0.00    -0.548 A  
ENDBRANCH  24  25
ENDBRANCH  23  24
ENDBRANCH  22  23
ENDBRANCH  21  22
ENDBRANCH  20  21
ENDBRANCH  19  20
ENDBRANCH  18  19
ENDBRANCH  17  18
ENDBRANCH  16  17
ENDBRANCH  15  16
ENDBRANCH  14  15
TORSDOF 11
ENDMDL
MODEL      242
REMARK 921   NORMALIZED FREE ENERGY PREDICTED BY IDOCK:   -5.49 KCAL/MOL
REMARK 922        TOTAL FREE ENERGY PREDICTED BY IDOCK:  -10.37 KCAL/MOL
REMARK 923 INTER-LIGAND FREE ENERGY PREDICTED BY IDOCK:   -8.80 KCAL/MOL
REMARK 924 INTRA-LIGAND FREE ENERGY PREDICTED BY IDOCK:   -1.56 KCAL/MOL
REMARK 927      BINDING AFFINITY PREDICTED BY RF-SCORE:    0.00 PKD
ROOT
HETATM    1  C   UNL     1     -13.430  12.831  72.308  1.00  0.00    -0.591 C  
HETATM    2  C   UNL     1     -12.694  12.988  70.997  1.00  0.00    -0.262 A  
HETATM    3  C   UNL     1     -12.204  14.248  70.676  1.00  0.00    -0.427 A  
HETATM    4  C   UNL     1     -11.505  14.474  69.500  1.00  0.00    -0.288 A  
HETATM    5  N   UNL     1     -10.926  15.735  69.323  1.00  0.00    -0.259 NA 
HETATM    6  C   UNL     1     -11.215  13.373  68.672  1.00  0.00    -0.304 A  
HETATM    7  H2  UNL     1     -10.322  15.943  70.119  1.00  0.00     0.000 HD 
HETATM    8  C   UNL     1     -10.400  13.494  67.523  1.00  0.00    -0.237 A  
HETATM    9  H1  UNL     1     -10.412  15.901  68.459  1.00  0.00     0.000 HD 
HETATM   10  C   UNL     1     -10.125  12.408  66.693  1.00  0.00    -0.234 A  
HETATM   11  C   UNL     1     -10.667  11.170  66.981  1.00  0.00    -0.316 A  
HETATM   12  C   UNL     1     -11.472  11.015  68.113  1.00  0.00    -0.374 A  
HETATM   13  C   UNL     1     -11.739  12.094  68.995  1.00  0.00    -0.322 A  
HETATM   14  N   UNL     1     -12.466  11.934  70.156  1.00  0.00    -0.136 NA 
ENDROOT
BRANCH  14  15
HETATM   15  C   UNL     1     -12.956  10.583  70.544  1.00  0.00    -0.219 C  
BRANCH  15  16
HETATM   16  C   UNL     1     -11.873   9.814  71.299  1.00  0.00    -0.481 C  
BRANCH  16  17
HETATM   17  C   UNL     1     -12.359   8.431  71.724  1.00  0.00    -0.375 C  
BRANCH  17  18
HETATM   18  C   UNL     1     -11.214   7.434  71.926  1.00  0.00    -0.282 C  
BRANCH  18  19
HETATM   19  C   UNL     1     -10.422   7.713  73.200  1.00  0.00    -0.433 C  
BRANCH  19  20
HETATM   20  C   UNL     1      -8.927   7.418  73.059  1.00  0.00    -0.190 C  
BRANCH  20  21
HETATM   21  C   UNL     1      -8.610   6.272  72.088  1.00  0.00    -0.126 C  
BRANCH  21  22
HETATM   22  C   UNL     1      -7.781   6.723  70.882  1.00  0.00    -0.093 C  
BRANCH  22  23
HETATM   23  C   UNL     1      -7.414   5.573  69.937  1.00  0.00    -0.070 C  
BRANCH  23  24
HETATM   24  C   UNL     1      -7.270   6.055  68.494  1.00  0.00    -0.084 C  
BRANCH  24  25
HETATM   25  N   UNL     1      -8.438   5.631  67.680  1.00  0.00    -0.103 NA 
HETATM   26  C   UNL     1      -9.551   6.425  67.607  1.00  0.00    -0.122 A  
HETATM   27  C   UNL     1     -10.616   6.054  66.782  1.00  0.00    -0.359 A  
HETATM   28  C   UNL     1      -9.719   7.750  68.316  1.00  0.00    -0.169 C  
HETATM   29  C   UNL     1     -10.592   4.879  66.048  1.00  0.00    -0.261 A  
HETATM   30  N   UNL     1     -11.635   4.663  65.142  1.00  0.00    -1.055 NA 
HETATM   31  C   UNL     1      -9.422   4.103  66.080  1.00  0.00    -0.182 A  
HETATM   32  H1  UNL     1     -11.618   3.799  64.602  1.00  0.00     0.000 HD 
HETATM   33  C   UNL     1      -8.351   4.471  66.939  1.00  0.00    -0.105 A  
HETATM   34  H2  UNL     1     -11.699   5.458  64.505  1.00  0.00     0.000 HD 
HETATM   35  C   UNL     1      -7.209   3.630  66.982  1.00  0.00    -0.063 A  
HETATM   36  C   UNL     1      -7.091   2.499  66.179  1.00  0.00    -0.064 A  
HETATM   37  C   UNL     1      -8.117   2.168  65.313  1.00  0.00    -0.080 A  
HETATM   38  C   UNL     1      -9.267   2.954  65.270  1.00  0.00    -0.139 A  
ENDBRANCH  24  25
ENDBRANCH  23  24
ENDBRANCH  22  23
ENDBRANCH  21  22
ENDBRANCH  20  21
ENDBRANCH  19  20
ENDBRANCH  18  19
ENDBRANCH  17  18
ENDBRANCH  16  17
ENDBRANCH  15  16
ENDBRANCH  14  15
TORSDOF 11
ENDMDL
MODEL      243
REMARK 921   NORMALIZED FREE ENERGY PREDICTED BY IDOCK:   -5.48 KCAL/MOL
REMARK 922        TOTAL FREE ENERGY PREDICTED BY IDOCK:  -10.36 KCAL/MOL
REMARK 923 INTER-LIGAND FREE ENERGY PREDICTED BY IDOCK:   -8.62 KCAL/MOL
REMARK 924 INTRA-LIGAND FREE ENERGY PREDICTED BY IDOCK:   -1.74 KCAL/MOL
REMARK 927      BINDING AFFINITY PREDICTED BY RF-SCORE:    0.00 PKD
ROOT
HETATM    1  C   UNL     1     -10.722   9.068  69.469  1.00  0.00    -0.215 C  
HETATM    2  C   UNL     1     -10.072   8.278  68.355  1.00  0.00    -0.201 A  
HETATM    3  C   UNL     1     -10.760   7.181  67.852  1.00  0.00    -0.258 A  
HETATM    4  C   UNL     1     -10.242   6.412  66.821  1.00  0.00    -0.195 A  
HETATM    5  N   UNL     1     -11.062   5.416  66.280  1.00  0.00    -0.743 NA 
HETATM    6  C   UNL     1      -9.035   6.823  66.222  1.00  0.00    -0.170 A  
HETATM    7  H2  UNL     1     -11.943   5.832  65.980  1.00  0.00     0.000 HD 
HETATM    8  C   UNL     1      -8.504   6.172  65.085  1.00  0.00    -0.101 A  
HETATM    9  H1  UNL     1     -10.680   4.851  65.522  1.00  0.00     0.000 HD 
HETATM   10  C   UNL     1      -7.302   6.567  64.500  1.00  0.00    -0.082 A  
HETATM   11  C   UNL     1      -6.588   7.619  65.043  1.00  0.00    -0.044 A  
HETATM   12  C   UNL     1      -7.089   8.288  66.163  1.00  0.00    -0.065 A  
HETATM   13  C   UNL     1      -8.327   7.931  66.757  1.00  0.00    -0.120 A  
HETATM   14  N   UNL     1      -8.868   8.634  67.812  1.00  0.00    -0.136 NA 
ENDROOT
BRANCH  14  15
HETATM   15  C   UNL     1      -8.172   9.843  68.333  1.00  0.00    -0.106 C  
BRANCH  15  16
HETATM   16  C   UNL     1      -8.591  11.085  67.549  1.00  0.00    -0.128 C  
BRANCH  16  17
HETATM   17  C   UNL     1      -7.394  11.972  67.216  1.00  0.00    -0.151 C  
BRANCH  17  18
HETATM   18  C   UNL     1      -6.433  12.140  68.396  1.00  0.00    -0.056 C  
BRANCH  18  19
HETATM   19  C   UNL     1      -5.888  13.562  68.500  1.00  0.00    -0.090 C  
BRANCH  19  20
HETATM   20  C   UNL     1      -6.694  14.577  67.686  1.00  0.00    -0.194 C  
BRANCH  20  21
HETATM   21  C   UNL     1      -7.738  15.343  68.510  1.00  0.00    -0.132 C  
BRANCH  21  22
HETATM   22  C   UNL     1      -8.187  16.646  67.841  1.00  0.00    -0.183 C  
BRANCH  22  23
HETATM   23  C   UNL     1      -9.400  17.289  68.526  1.00  0.00    -0.276 C  
BRANCH  23  24
HETATM   24  C   UNL     1     -10.669  17.127  67.689  1.00  0.00    -0.302 C  
BRANCH  24  25
HETATM   25  N   UNL     1     -11.110  15.708  67.677  1.00  0.00    -0.323 NA 
HETATM   26  C   UNL     1     -11.010  14.967  66.530  1.00  0.00    -0.327 A  
HETATM   27  C   UNL     1     -11.359  13.614  66.546  1.00  0.00    -0.335 A  
HETATM   28  C   UNL     1     -10.479  15.477  65.210  1.00  0.00    -0.437 C  
HETATM   29  C   UNL     1     -11.835  12.998  67.693  1.00  0.00    -0.351 A  
HETATM   30  N   UNL     1     -12.020  11.613  67.652  1.00  0.00    -0.625 NA 
HETATM   31  C   UNL     1     -11.875  13.750  68.879  1.00  0.00    -0.396 A  
HETATM   32  H1  UNL     1     -12.369  11.160  68.496  1.00  0.00     0.000 HD 
HETATM   33  C   UNL     1     -11.543  15.132  68.853  1.00  0.00    -0.341 A  
HETATM   34  H2  UNL     1     -11.149  11.165  67.366  1.00  0.00     0.000 HD 
HETATM   35  C   UNL     1     -11.648  15.868  70.061  1.00  0.00    -0.346 A  
HETATM   36  C   UNL     1     -12.014  15.269  71.264  1.00  0.00    -0.409 A  
HETATM   37  C   UNL     1     -12.294  13.916  71.293  1.00  0.00    -0.419 A  
HETATM   38  C   UNL     1     -12.233  13.170  70.118  1.00  0.00    -0.360 A  
ENDBRANCH  24  25
ENDBRANCH  23  24
ENDBRANCH  22  23
ENDBRANCH  21  22
ENDBRANCH  20  21
ENDBRANCH  19  20
ENDBRANCH  18  19
ENDBRANCH  17  18
ENDBRANCH  16  17
ENDBRANCH  15  16
ENDBRANCH  14  15
TORSDOF 11
ENDMDL
MODEL      244
REMARK 921   NORMALIZED FREE ENERGY PREDICTED BY IDOCK:   -5.47 KCAL/MOL
REMARK 922        TOTAL FREE ENERGY PREDICTED BY IDOCK:  -10.35 KCAL/MOL
REMARK 923 INTER-LIGAND FREE ENERGY PREDICTED BY IDOCK:   -9.25 KCAL/MOL
REMARK 924 INTRA-LIGAND FREE ENERGY PREDICTED BY IDOCK:   -1.10 KCAL/MOL
REMARK 927      BINDING AFFINITY PREDICTED BY RF-SCORE:    0.00 PKD
ROOT
HETATM    1  C   UNL     1     -11.011   6.500  68.664  1.00  0.00    -0.363 C  
HETATM    2  C   UNL     1     -10.233   5.609  67.722  1.00  0.00    -0.193 A  
HETATM    3  C   UNL     1     -10.845   5.231  66.533  1.00  0.00    -0.196 A  
HETATM    4  C   UNL     1     -10.195   4.427  65.608  1.00  0.00    -0.238 A  
HETATM    5  N   UNL     1     -10.828   4.214  64.379  1.00  0.00    -0.605 NA 
HETATM    6  C   UNL     1      -8.855   4.074  65.855  1.00  0.00    -0.123 A  
HETATM    7  H2  UNL     1     -11.044   5.114  63.951  1.00  0.00     0.000 HD 
HETATM    8  C   UNL     1      -8.081   3.366  64.906  1.00  0.00    -0.090 A  
HETATM    9  H1  UNL     1     -10.350   3.623  63.700  1.00  0.00     0.000 HD 
HETATM   10  C   UNL     1      -6.759   3.001  65.155  1.00  0.00    -0.040 A  
HETATM   11  C   UNL     1      -6.174   3.324  66.364  1.00  0.00    -0.028 A  
HETATM   12  C   UNL     1      -6.909   4.029  67.321  1.00  0.00    -0.051 A  
HETATM   13  C   UNL     1      -8.245   4.444  67.082  1.00  0.00    -0.101 A  
HETATM   14  N   UNL     1      -8.952   5.207  67.986  1.00  0.00    -0.109 NA 
ENDROOT
BRANCH  14  15
HETATM   15  C   UNL     1      -8.298   5.666  69.242  1.00  0.00    -0.107 C  
BRANCH  15  16
HETATM   16  C   UNL     1      -8.433   4.608  70.336  1.00  0.00    -0.094 C  
BRANCH  16  17
HETATM   17  C   UNL     1      -8.980   5.205  71.630  1.00  0.00    -0.149 C  
BRANCH  17  18
HETATM   18  C   UNL     1     -10.442   4.828  71.888  1.00  0.00    -0.201 C  
BRANCH  18  19
HETATM   19  C   UNL     1     -11.110   5.760  72.894  1.00  0.00    -0.321 C  
BRANCH  19  20
HETATM   20  C   UNL     1     -11.669   7.035  72.258  1.00  0.00    -0.294 C  
BRANCH  20  21
HETATM   21  C   UNL     1     -10.779   8.269  72.457  1.00  0.00    -0.411 C  
BRANCH  21  22
HETATM   22  C   UNL     1     -10.895   9.280  71.313  1.00  0.00    -0.417 C  
BRANCH  22  23
HETATM   23  C   UNL     1     -11.933  10.377  71.579  1.00  0.00    -0.300 C  
BRANCH  23  24
HETATM   24  C   UNL     1     -12.579  10.867  70.282  1.00  0.00    -0.265 C  
BRANCH  24  25
HETATM   25  N   UNL     1     -12.092  12.227  69.937  1.00  0.00    -0.282 NA 
HETATM   26  C   UNL     1     -11.401  12.436  68.773  1.00  0.00    -0.293 A  
HETATM   27  C   UNL     1     -11.011  13.730  68.420  1.00  0.00    -0.275 A  
HETATM   28  C   UNL     1     -11.059  11.364  67.763  1.00  0.00    -0.323 C  
HETATM   29  C   UNL     1     -11.281  14.819  69.234  1.00  0.00    -0.283 A  
HETATM   30  N   UNL     1     -10.982  16.089  68.732  1.00  0.00    -0.299 NA 
HETATM   31  C   UNL     1     -12.044  14.605  70.393  1.00  0.00    -0.383 A  
HETATM   32  H1  UNL     1     -11.180  16.891  69.331  1.00  0.00     0.000 HD 
HETATM   33  C   UNL     1     -12.418  13.284  70.762  1.00  0.00    -0.324 A  
HETATM   34  H2  UNL     1     -11.449  16.216  67.834  1.00  0.00     0.000 HD 
HETATM   35  C   UNL     1     -13.142  13.105  71.968  1.00  0.00    -0.476 A  
HETATM   36  C   UNL     1     -13.534  14.179  72.763  1.00  0.00    -0.592 A  
HETATM   37  C   UNL     1     -13.206  15.466  72.379  1.00  0.00    -0.521 A  
HETATM   38  C   UNL     1     -12.466  15.674  71.217  1.00  0.00    -0.503 A  
ENDBRANCH  24  25
ENDBRANCH  23  24
ENDBRANCH  22  23
ENDBRANCH  21  22
ENDBRANCH  20  21
ENDBRANCH  19  20
ENDBRANCH  18  19
ENDBRANCH  17  18
ENDBRANCH  16  17
ENDBRANCH  15  16
ENDBRANCH  14  15
TORSDOF 11
ENDMDL
MODEL      245
REMARK 921   NORMALIZED FREE ENERGY PREDICTED BY IDOCK:   -5.45 KCAL/MOL
REMARK 922        TOTAL FREE ENERGY PREDICTED BY IDOCK:  -10.31 KCAL/MOL
REMARK 923 INTER-LIGAND FREE ENERGY PREDICTED BY IDOCK:   -7.79 KCAL/MOL
REMARK 924 INTRA-LIGAND FREE ENERGY PREDICTED BY IDOCK:   -2.52 KCAL/MOL
REMARK 927      BINDING AFFINITY PREDICTED BY RF-SCORE:    0.00 PKD
ROOT
HETATM    1  C   UNL     1     -10.035   6.323  72.504  1.00  0.00    -0.184 C  
HETATM    2  C   UNL     1     -10.860   7.523  72.097  1.00  0.00    -0.240 A  
HETATM    3  C   UNL     1     -12.113   7.675  72.678  1.00  0.00    -0.137 A  
HETATM    4  C   UNL     1     -12.926   8.756  72.371  1.00  0.00    -0.383 A  
HETATM    5  N   UNL     1     -14.107   8.906  73.105  1.00  0.00    -1.225 NA 
HETATM    6  C   UNL     1     -12.416   9.757  71.523  1.00  0.00    -0.495 A  
HETATM    7  H2  UNL     1     -13.885   8.924  74.101  1.00  0.00     0.000 HD 
HETATM    8  C   UNL     1     -13.128  10.951  71.261  1.00  0.00    -0.405 A  
HETATM    9  H1  UNL     1     -14.705   9.701  72.880  1.00  0.00     0.000 HD 
HETATM   10  C   UNL     1     -12.631  11.936  70.409  1.00  0.00    -0.153 A  
HETATM   11  C   UNL     1     -11.413  11.751  69.783  1.00  0.00    -0.320 A  
HETATM   12  C   UNL     1     -10.681  10.586  70.026  1.00  0.00    -0.282 A  
HETATM   13  C   UNL     1     -11.145   9.582  70.915  1.00  0.00    -0.336 A  
HETATM   14  N   UNL     1     -10.396   8.467  71.223  1.00  0.00    -0.204 NA 
ENDROOT
BRANCH  14  15
HETATM   15  C   UNL     1      -9.030   8.310  70.651  1.00  0.00    -0.151 C  
BRANCH  15  16
HETATM   16  C   UNL     1      -9.008   7.197  69.605  1.00  0.00    -0.141 C  
BRANCH  16  17
HETATM   17  C   UNL     1      -9.964   7.489  68.452  1.00  0.00    -0.185 C  
BRANCH  17  18
HETATM   18  C   UNL     1     -10.850   6.292  68.095  1.00  0.00    -0.401 C  
BRANCH  18  19
HETATM   19  C   UNL     1     -10.925   6.057  66.590  1.00  0.00    -0.229 C  
BRANCH  19  20
HETATM   20  C   UNL     1     -10.120   4.839  66.129  1.00  0.00    -0.288 C  
BRANCH  20  21
HETATM   21  C   UNL     1      -8.885   4.549  66.991  1.00  0.00    -0.113 C  
BRANCH  21  22
HETATM   22  C   UNL     1      -7.607   5.188  66.439  1.00  0.00    -0.088 C  
BRANCH  22  23
HETATM   23  C   UNL     1      -7.787   5.784  65.038  1.00  0.00    -0.107 C  
BRANCH  23  24
HETATM   24  C   UNL     1      -6.776   6.899  64.767  1.00  0.00    -0.043 C  
BRANCH  24  25
HETATM   25  N   UNL     1      -7.456   8.218  64.705  1.00  0.00    -0.088 NA 
HETATM   26  C   UNL     1      -8.176   8.570  63.595  1.00  0.00    -0.128 A  
HETATM   27  C   UNL     1      -8.872   9.781  63.574  1.00  0.00    -0.260 A  
HETATM   28  C   UNL     1      -8.346   7.710  62.363  1.00  0.00    -0.054 C  
HETATM   29  C   UNL     1      -8.834  10.661  64.644  1.00  0.00    -0.177 A  
HETATM   30  N   UNL     1      -9.675  11.776  64.592  1.00  0.00    -0.389 NA 
HETATM   31  C   UNL     1      -8.145  10.264  65.802  1.00  0.00    -0.149 A  
HETATM   32  H1  UNL     1      -9.647  12.424  65.380  1.00  0.00     0.000 HD 
HETATM   33  C   UNL     1      -7.418   9.043  65.810  1.00  0.00    -0.090 A  
HETATM   34  H2  UNL     1     -10.636  11.468  64.444  1.00  0.00     0.000 HD 
HETATM   35  C   UNL     1      -6.691   8.704  66.981  1.00  0.00    -0.062 A  
HETATM   36  C   UNL     1      -6.713   9.502  68.122  1.00  0.00    -0.062 A  
HETATM   37  C   UNL     1      -7.456  10.667  68.125  1.00  0.00    -0.090 A  
HETATM   38  C   UNL     1      -8.155  11.046  66.980  1.00  0.00    -0.136 A  
ENDBRANCH  24  25
ENDBRANCH  23  24
ENDBRANCH  22  23
ENDBRANCH  21  22
ENDBRANCH  20  21
ENDBRANCH  19  20
ENDBRANCH  18  19
ENDBRANCH  17  18
ENDBRANCH  16  17
ENDBRANCH  15  16
ENDBRANCH  14  15
TORSDOF 11
ENDMDL
MODEL      246
REMARK 921   NORMALIZED FREE ENERGY PREDICTED BY IDOCK:   -5.44 KCAL/MOL
REMARK 922        TOTAL FREE ENERGY PREDICTED BY IDOCK:  -10.30 KCAL/MOL
REMARK 923 INTER-LIGAND FREE ENERGY PREDICTED BY IDOCK:   -8.42 KCAL/MOL
REMARK 924 INTRA-LIGAND FREE ENERGY PREDICTED BY IDOCK:   -1.88 KCAL/MOL
REMARK 927      BINDING AFFINITY PREDICTED BY RF-SCORE:    0.00 PKD
ROOT
HETATM    1  C   UNL     1     -11.455  16.150  68.876  1.00  0.00    -0.331 C  
HETATM    2  C   UNL     1     -10.377  16.814  68.049  1.00  0.00    -0.317 A  
HETATM    3  C   UNL     1     -10.701  17.990  67.384  1.00  0.00    -0.334 A  
HETATM    4  C   UNL     1      -9.767  18.669  66.616  1.00  0.00    -0.341 A  
HETATM    5  N   UNL     1     -10.136  19.915  66.100  1.00  0.00    -0.483 NA 
HETATM    6  C   UNL     1      -8.443  18.191  66.598  1.00  0.00    -0.282 A  
HETATM    7  H2  UNL     1     -10.447  20.517  66.862  1.00  0.00     0.000 HD 
HETATM    8  C   UNL     1      -7.402  18.893  65.946  1.00  0.00    -0.260 A  
HETATM    9  H1  UNL     1      -9.449  20.414  65.535  1.00  0.00     0.000 HD 
HETATM   10  C   UNL     1      -6.094  18.414  65.913  1.00  0.00    -0.247 A  
HETATM   11  C   UNL     1      -5.789  17.211  66.522  1.00  0.00    -0.215 A  
HETATM   12  C   UNL     1      -6.792  16.495  67.181  1.00  0.00    -0.230 A  
HETATM   13  C   UNL     1      -8.125  16.976  67.261  1.00  0.00    -0.181 A  
HETATM   14  N   UNL     1      -9.104  16.319  67.974  1.00  0.00    -0.187 NA 
ENDROOT
BRANCH  14  15
HETATM   15  C   UNL     1      -8.765  15.085  68.735  1.00  0.00    -0.186 C  
BRANCH  15  16
HETATM   16  C   UNL     1      -9.142  13.838  67.937  1.00  0.00    -0.193 C  
BRANCH  16  17
HETATM   17  C   UNL     1      -7.932  12.945  67.682  1.00  0.00    -0.167 C  
BRANCH  17  18
HETATM   18  C   UNL     1      -6.841  13.102  68.746  1.00  0.00    -0.102 C  
BRANCH  18  19
HETATM   19  C   UNL     1      -6.574  11.801  69.497  1.00  0.00    -0.102 C  
BRANCH  19  20
HETATM   20  C   UNL     1      -7.582  10.697  69.169  1.00  0.00    -0.131 C  
BRANCH  20  21
HETATM   21  C   UNL     1      -6.965   9.486  68.457  1.00  0.00    -0.065 C  
BRANCH  21  22
HETATM   22  C   UNL     1      -7.933   8.812  67.480  1.00  0.00    -0.102 C  
BRANCH  22  23
HETATM   23  C   UNL     1      -9.212   9.623  67.239  1.00  0.00    -0.154 C  
BRANCH  23  24
HETATM   24  C   UNL     1     -10.465   8.791  67.510  1.00  0.00    -0.271 C  
BRANCH  24  25
HETATM   25  N   UNL     1     -10.648   8.580  68.969  1.00  0.00    -0.194 NA 
HETATM   26  C   UNL     1     -11.108   9.599  69.759  1.00  0.00    -0.217 A  
HETATM   27  C   UNL     1     -11.347   9.372  71.117  1.00  0.00    -0.422 A  
HETATM   28  C   UNL     1     -11.454  10.988  69.271  1.00  0.00    -0.370 C  
HETATM   29  C   UNL     1     -11.104   8.139  71.702  1.00  0.00    -0.255 A  
HETATM   30  N   UNL     1     -11.508   7.963  73.029  1.00  0.00    -0.548 NA 
HETATM   31  C   UNL     1     -10.693   7.082  70.872  1.00  0.00    -0.259 A  
HETATM   32  H1  UNL     1     -11.330   7.056  73.459  1.00  0.00     0.000 HD 
HETATM   33  C   UNL     1     -10.427   7.324  69.496  1.00  0.00    -0.230 A  
HETATM   34  H2  UNL     1     -12.501   8.186  73.111  1.00  0.00     0.000 HD 
HETATM   35  C   UNL     1      -9.962   6.243  68.704  1.00  0.00    -0.166 A  
HETATM   36  C   UNL     1      -9.809   4.959  69.221  1.00  0.00    -0.272 A  
HETATM   37  C   UNL     1     -10.110   4.718  70.548  1.00  0.00    -0.291 A  
HETATM   38  C   UNL     1     -10.538   5.765  71.363  1.00  0.00    -0.313 A  
ENDBRANCH  24  25
ENDBRANCH  23  24
ENDBRANCH  22  23
ENDBRANCH  21  22
ENDBRANCH  20  21
ENDBRANCH  19  20
ENDBRANCH  18  19
ENDBRANCH  17  18
ENDBRANCH  16  17
ENDBRANCH  15  16
ENDBRANCH  14  15
TORSDOF 11
ENDMDL
MODEL      247
REMARK 921   NORMALIZED FREE ENERGY PREDICTED BY IDOCK:   -5.43 KCAL/MOL
REMARK 922        TOTAL FREE ENERGY PREDICTED BY IDOCK:  -10.28 KCAL/MOL
REMARK 923 INTER-LIGAND FREE ENERGY PREDICTED BY IDOCK:   -8.43 KCAL/MOL
REMARK 924 INTRA-LIGAND FREE ENERGY PREDICTED BY IDOCK:   -1.84 KCAL/MOL
REMARK 927      BINDING AFFINITY PREDICTED BY RF-SCORE:    0.00 PKD
ROOT
HETATM    1  C   UNL     1     -10.152   9.900  66.088  1.00  0.00    -0.315 C  
HETATM    2  C   UNL     1     -10.290  11.403  66.006  1.00  0.00    -0.249 A  
HETATM    3  C   UNL     1     -11.495  11.919  65.544  1.00  0.00    -0.311 A  
HETATM    4  C   UNL     1     -11.709  13.286  65.452  1.00  0.00    -0.343 A  
HETATM    5  N   UNL     1     -12.996  13.718  65.114  1.00  0.00    -0.762 NA 
HETATM    6  C   UNL     1     -10.707  14.153  65.929  1.00  0.00    -0.298 A  
HETATM    7  H2  UNL     1     -13.669  13.315  65.766  1.00  0.00     0.000 HD 
HETATM    8  C   UNL     1     -10.896  15.553  65.991  1.00  0.00    -0.301 A  
HETATM    9  H1  UNL     1     -13.153  14.724  65.047  1.00  0.00     0.000 HD 
HETATM   10  C   UNL     1      -9.900  16.414  66.447  1.00  0.00    -0.312 A  
HETATM   11  C   UNL     1      -8.680  15.902  66.846  1.00  0.00    -0.272 A  
HETATM   12  C   UNL     1      -8.463  14.522  66.804  1.00  0.00    -0.108 A  
HETATM   13  C   UNL     1      -9.471  13.619  66.378  1.00  0.00    -0.234 A  
HETATM   14  N   UNL     1      -9.296  12.252  66.407  1.00  0.00    -0.226 NA 
ENDROOT
BRANCH  14  15
HETATM   15  C   UNL     1      -8.032  11.678  66.946  1.00  0.00    -0.161 C  
BRANCH  15  16
HETATM   16  C   UNL     1      -8.157  11.415  68.445  1.00  0.00    -0.145 C  
BRANCH  16  17
HETATM   17  C   UNL     1      -6.898  10.762  69.009  1.00  0.00    -0.075 C  
BRANCH  17  18
HETATM   18  C   UNL     1      -7.192   9.800  70.164  1.00  0.00    -0.146 C  
BRANCH  18  19
HETATM   19  C   UNL     1      -8.142   8.679  69.755  1.00  0.00    -0.114 C  
BRANCH  19  20
HETATM   20  C   UNL     1      -7.441   7.527  69.031  1.00  0.00    -0.096 C  
BRANCH  20  21
HETATM   21  C   UNL     1      -6.891   6.447  69.972  1.00  0.00    -0.054 C  
BRANCH  21  22
HETATM   22  C   UNL     1      -7.091   5.027  69.433  1.00  0.00    -0.056 C  
BRANCH  22  23
HETATM   23  C   UNL     1      -8.252   4.917  68.437  1.00  0.00    -0.084 C  
BRANCH  23  24
HETATM   24  C   UNL     1      -9.458   4.210  69.055  1.00  0.00    -0.174 C  
BRANCH  24  25
HETATM   25  N   UNL     1     -10.213   5.136  69.938  1.00  0.00    -0.278 NA 
HETATM   26  C   UNL     1     -10.992   6.122  69.395  1.00  0.00    -0.385 A  
HETATM   27  C   UNL     1     -11.756   6.942  70.230  1.00  0.00    -0.344 A  
HETATM   28  C   UNL     1     -11.160   6.380  67.915  1.00  0.00    -0.370 C  
HETATM   29  C   UNL     1     -11.727   6.805  71.609  1.00  0.00    -0.314 A  
HETATM   30  N   UNL     1     -12.630   7.570  72.352  1.00  0.00    -0.520 NA 
HETATM   31  C   UNL     1     -10.974   5.752  72.153  1.00  0.00    -0.311 A  
HETATM   32  H1  UNL     1     -12.610   7.469  73.367  1.00  0.00     0.000 HD 
HETATM   33  C   UNL     1     -10.180   4.935  71.302  1.00  0.00    -0.178 A  
HETATM   34  H2  UNL     1     -13.578   7.395  72.016  1.00  0.00     0.000 HD 
HETATM   35  C   UNL     1      -9.392   3.916  71.897  1.00  0.00    -0.191 A  
HETATM   36  C   UNL     1      -9.416   3.667  73.267  1.00  0.00    -0.128 A  
HETATM   37  C   UNL     1     -10.222   4.435  74.086  1.00  0.00    -0.257 A  
HETATM   38  C   UNL     1     -10.984   5.465  73.538  1.00  0.00    -0.323 A  
ENDBRANCH  24  25
ENDBRANCH  23  24
ENDBRANCH  22  23
ENDBRANCH  21  22
ENDBRANCH  20  21
ENDBRANCH  19  20
ENDBRANCH  18  19
ENDBRANCH  17  18
ENDBRANCH  16  17
ENDBRANCH  15  16
ENDBRANCH  14  15
TORSDOF 11
ENDMDL
MODEL      248
REMARK 921   NORMALIZED FREE ENERGY PREDICTED BY IDOCK:   -5.42 KCAL/MOL
REMARK 922        TOTAL FREE ENERGY PREDICTED BY IDOCK:  -10.26 KCAL/MOL
REMARK 923 INTER-LIGAND FREE ENERGY PREDICTED BY IDOCK:   -8.98 KCAL/MOL
REMARK 924 INTRA-LIGAND FREE ENERGY PREDICTED BY IDOCK:   -1.27 KCAL/MOL
REMARK 927      BINDING AFFINITY PREDICTED BY RF-SCORE:    0.00 PKD
ROOT
HETATM    1  C   UNL     1      -8.354  13.825  66.669  1.00  0.00     0.240 C  
HETATM    2  C   UNL     1      -8.576  15.276  67.032  1.00  0.00    -0.227 A  
HETATM    3  C   UNL     1      -7.825  15.806  68.073  1.00  0.00    -0.138 A  
HETATM    4  C   UNL     1      -7.957  17.131  68.460  1.00  0.00    -0.259 A  
HETATM    5  N   UNL     1      -7.063  17.618  69.419  1.00  0.00    -0.115 NA 
HETATM    6  C   UNL     1      -8.806  17.965  67.708  1.00  0.00    -0.251 A  
HETATM    7  H2  UNL     1      -6.107  17.452  69.103  1.00  0.00     0.000 HD 
HETATM    8  C   UNL     1      -8.901  19.354  67.954  1.00  0.00    -0.362 A  
HETATM    9  H1  UNL     1      -7.160  18.592  69.703  1.00  0.00     0.000 HD 
HETATM   10  C   UNL     1      -9.754  20.179  67.222  1.00  0.00    -0.574 A  
HETATM   11  C   UNL     1     -10.546  19.636  66.228  1.00  0.00    -0.585 A  
HETATM   12  C   UNL     1     -10.472  18.267  65.956  1.00  0.00    -0.380 A  
HETATM   13  C   UNL     1      -9.588  17.411  66.660  1.00  0.00    -0.274 A  
HETATM   14  N   UNL     1      -9.449  16.076  66.347  1.00  0.00    -0.268 NA 
ENDROOT
BRANCH  14  15
HETATM   15  C   UNL     1     -10.207  15.500  65.201  1.00  0.00    -0.299 C  
BRANCH  15  16
HETATM   16  C   UNL     1     -11.505  14.856  65.683  1.00  0.00    -0.290 C  
BRANCH  16  17
HETATM   17  C   UNL     1     -11.337  13.357  65.915  1.00  0.00    -0.327 C  
BRANCH  17  18
HETATM   18  C   UNL     1     -12.158  12.508  64.939  1.00  0.00    -0.499 C  
BRANCH  18  19
HETATM   19  C   UNL     1     -11.682  12.663  63.498  1.00  0.00    -0.604 C  
BRANCH  19  20
HETATM   20  C   UNL     1     -10.231  12.223  63.290  1.00  0.00    -0.245 C  
BRANCH  20  21
HETATM   21  C   UNL     1      -9.987  10.736  63.575  1.00  0.00    -0.403 C  
BRANCH  21  22
HETATM   22  C   UNL     1      -8.962  10.501  64.688  1.00  0.00    -0.229 C  
BRANCH  22  23
HETATM   23  C   UNL     1      -9.571   9.883  65.952  1.00  0.00    -0.300 C  
BRANCH  23  24
HETATM   24  C   UNL     1      -8.544   9.056  66.725  1.00  0.00    -0.123 C  
BRANCH  24  25
HETATM   25  N   UNL     1      -8.953   7.630  66.781  1.00  0.00    -0.137 NA 
HETATM   26  C   UNL     1      -8.566   6.764  65.793  1.00  0.00    -0.137 A  
HETATM   27  C   UNL     1      -8.894   5.409  65.890  1.00  0.00    -0.148 A  
HETATM   28  C   UNL     1      -7.732   7.137  64.589  1.00  0.00    -0.112 C  
HETATM   29  C   UNL     1      -9.631   4.913  66.954  1.00  0.00    -0.160 A  
HETATM   30  N   UNL     1      -9.786   3.526  67.040  1.00  0.00    -0.364 NA 
HETATM   31  C   UNL     1      -9.970   5.795  67.993  1.00  0.00    -0.173 A  
HETATM   32  H1  UNL     1     -10.328   3.161  67.823  1.00  0.00     0.000 HD 
HETATM   33  C   UNL     1      -9.656   7.178  67.878  1.00  0.00    -0.133 A  
HETATM   34  H2  UNL     1      -8.867   3.083  67.032  1.00  0.00     0.000 HD 
HETATM   35  C   UNL     1     -10.063   8.045  68.924  1.00  0.00    -0.209 A  
HETATM   36  C   UNL     1     -10.708   7.576  70.066  1.00  0.00    -0.248 A  
HETATM   37  C   UNL     1     -10.973   6.225  70.193  1.00  0.00    -0.411 A  
HETATM   38  C   UNL     1     -10.616   5.350  69.169  1.00  0.00    -0.241 A  
ENDBRANCH  24  25
ENDBRANCH  23  24
ENDBRANCH  22  23
ENDBRANCH  21  22
ENDBRANCH  20  21
ENDBRANCH  19  20
ENDBRANCH  18  19
ENDBRANCH  17  18
ENDBRANCH  16  17
ENDBRANCH  15  16
ENDBRANCH  14  15
TORSDOF 11
ENDMDL
MODEL      249
REMARK 921   NORMALIZED FREE ENERGY PREDICTED BY IDOCK:   -5.38 KCAL/MOL
REMARK 922        TOTAL FREE ENERGY PREDICTED BY IDOCK:  -10.20 KCAL/MOL
REMARK 923 INTER-LIGAND FREE ENERGY PREDICTED BY IDOCK:   -7.64 KCAL/MOL
REMARK 924 INTRA-LIGAND FREE ENERGY PREDICTED BY IDOCK:   -2.56 KCAL/MOL
REMARK 927      BINDING AFFINITY PREDICTED BY RF-SCORE:    0.00 PKD
ROOT
HETATM    1  C   UNL     1     -10.160   6.480  73.495  1.00  0.00    -0.258 C  
HETATM    2  C   UNL     1     -10.834   7.533  72.645  1.00  0.00    -0.315 A  
HETATM    3  C   UNL     1     -12.149   7.865  72.946  1.00  0.00    -0.016 A  
HETATM    4  C   UNL     1     -12.836   8.830  72.225  1.00  0.00    -0.405 A  
HETATM    5  N   UNL     1     -14.103   9.202  72.684  1.00  0.00    -0.886 NA 
HETATM    6  C   UNL     1     -12.138   9.545  71.232  1.00  0.00    -0.443 A  
HETATM    7  H2  UNL     1     -14.036   9.494  73.659  1.00  0.00     0.000 HD 
HETATM    8  C   UNL     1     -12.724  10.630  70.540  1.00  0.00    -0.395 A  
HETATM    9  H1  UNL     1     -14.608   9.912  72.154  1.00  0.00     0.000 HD 
HETATM   10  C   UNL     1     -12.040  11.328  69.545  1.00  0.00    -0.386 A  
HETATM   11  C   UNL     1     -10.754  10.954  69.205  1.00  0.00    -0.265 A  
HETATM   12  C   UNL     1     -10.144   9.889  69.875  1.00  0.00    -0.297 A  
HETATM   13  C   UNL     1     -10.802   9.184  70.915  1.00  0.00    -0.278 A  
HETATM   14  N   UNL     1     -10.182   8.185  71.635  1.00  0.00    -0.194 NA 
ENDROOT
BRANCH  14  15
HETATM   15  C   UNL     1      -8.757   7.850  71.363  1.00  0.00    -0.127 C  
BRANCH  15  16
HETATM   16  C   UNL     1      -8.653   6.779  70.279  1.00  0.00    -0.140 C  
BRANCH  16  17
HETATM   17  C   UNL     1      -9.929   5.947  70.187  1.00  0.00    -0.247 C  
BRANCH  17  18
HETATM   18  C   UNL     1      -9.688   4.457  70.451  1.00  0.00    -0.284 C  
BRANCH  18  19
HETATM   19  C   UNL     1      -9.483   3.667  69.162  1.00  0.00    -0.235 C  
BRANCH  19  20
HETATM   20  C   UNL     1      -8.140   2.935  69.111  1.00  0.00    -0.069 C  
BRANCH  20  21
HETATM   21  C   UNL     1      -7.016   3.645  69.878  1.00  0.00    -0.041 C  
BRANCH  21  22
HETATM   22  C   UNL     1      -5.866   4.093  68.973  1.00  0.00    -0.022 C  
BRANCH  22  23
HETATM   23  C   UNL     1      -5.757   3.272  67.683  1.00  0.00    -0.022 C  
BRANCH  23  24
HETATM   24  C   UNL     1      -5.891   4.154  66.441  1.00  0.00    -0.023 C  
BRANCH  24  25
HETATM   25  N   UNL     1      -7.313   4.255  66.022  1.00  0.00    -0.079 NA 
HETATM   26  C   UNL     1      -7.952   3.168  65.489  1.00  0.00    -0.086 A  
HETATM   27  C   UNL     1      -9.309   3.250  65.165  1.00  0.00    -0.149 A  
HETATM   28  C   UNL     1      -7.320   1.813  65.265  1.00  0.00    -0.054 C  
HETATM   29  C   UNL     1     -10.030   4.420  65.342  1.00  0.00    -0.218 A  
HETATM   30  N   UNL     1     -11.410   4.366  65.128  1.00  0.00    -1.082 NA 
HETATM   31  C   UNL     1      -9.383   5.510  65.947  1.00  0.00    -0.140 A  
HETATM   32  H1  UNL     1     -11.941   5.227  65.258  1.00  0.00     0.000 HD 
HETATM   33  C   UNL     1      -7.996   5.431  66.253  1.00  0.00    -0.105 A  
HETATM   34  H2  UNL     1     -11.813   3.631  65.708  1.00  0.00     0.000 HD 
HETATM   35  C   UNL     1      -7.368   6.572  66.813  1.00  0.00    -0.079 A  
HETATM   36  C   UNL     1      -8.075   7.734  67.114  1.00  0.00    -0.118 A  
HETATM   37  C   UNL     1      -9.431   7.792  66.855  1.00  0.00    -0.238 A  
HETATM   38  C   UNL     1     -10.073   6.700  66.274  1.00  0.00     0.055 A  
ENDBRANCH  24  25
ENDBRANCH  23  24
ENDBRANCH  22  23
ENDBRANCH  21  22
ENDBRANCH  20  21
ENDBRANCH  19  20
ENDBRANCH  18  19
ENDBRANCH  17  18
ENDBRANCH  16  17
ENDBRANCH  15  16
ENDBRANCH  14  15
TORSDOF 11
ENDMDL
MODEL      250
REMARK 921   NORMALIZED FREE ENERGY PREDICTED BY IDOCK:   -5.38 KCAL/MOL
REMARK 922        TOTAL FREE ENERGY PREDICTED BY IDOCK:  -10.19 KCAL/MOL
REMARK 923 INTER-LIGAND FREE ENERGY PREDICTED BY IDOCK:   -8.04 KCAL/MOL
REMARK 924 INTRA-LIGAND FREE ENERGY PREDICTED BY IDOCK:   -2.15 KCAL/MOL
REMARK 927      BINDING AFFINITY PREDICTED BY RF-SCORE:    0.00 PKD
ROOT
HETATM    1  C   UNL     1      -9.426   9.967  63.245  1.00  0.00    -0.230 C  
HETATM    2  C   UNL     1     -10.118  11.038  64.058  1.00  0.00    -0.350 A  
HETATM    3  C   UNL     1     -10.893  11.969  63.377  1.00  0.00    -0.471 A  
HETATM    4  C   UNL     1     -11.573  12.974  64.048  1.00  0.00    -0.430 A  
HETATM    5  N   UNL     1     -12.442  13.778  63.302  1.00  0.00    -1.092 NA 
HETATM    6  C   UNL     1     -11.540  12.979  65.455  1.00  0.00    -0.382 A  
HETATM    7  H2  UNL     1     -13.113  13.185  62.814  1.00  0.00     0.000 HD 
HETATM    8  C   UNL     1     -12.307  13.890  66.219  1.00  0.00    -0.489 A  
HETATM    9  H1  UNL     1     -12.941  14.517  63.795  1.00  0.00     0.000 HD 
HETATM   10  C   UNL     1     -12.262  13.907  67.612  1.00  0.00    -0.232 A  
HETATM   11  C   UNL     1     -11.440  13.022  68.284  1.00  0.00    -0.347 A  
HETATM   12  C   UNL     1     -10.675  12.105  67.559  1.00  0.00    -0.265 A  
HETATM   13  C   UNL     1     -10.727  12.040  66.142  1.00  0.00    -0.275 A  
HETATM   14  N   UNL     1     -10.037  11.089  65.422  1.00  0.00    -0.255 NA 
ENDROOT
BRANCH  14  15
HETATM   15  C   UNL     1      -9.241  10.052  66.135  1.00  0.00    -0.165 C  
BRANCH  15  16
HETATM   16  C   UNL     1     -10.150   8.941  66.658  1.00  0.00    -0.357 C  
BRANCH  16  17
HETATM   17  C   UNL     1      -9.518   7.564  66.475  1.00  0.00    -0.237 C  
BRANCH  17  18
HETATM   18  C   UNL     1      -9.326   6.816  67.798  1.00  0.00    -0.116 C  
BRANCH  18  19
HETATM   19  C   UNL     1     -10.634   6.657  68.567  1.00  0.00    -0.276 C  
BRANCH  19  20
HETATM   20  C   UNL     1     -10.638   5.449  69.507  1.00  0.00    -0.316 C  
BRANCH  20  21
HETATM   21  C   UNL     1      -9.854   4.244  68.971  1.00  0.00    -0.148 C  
BRANCH  21  22
HETATM   22  C   UNL     1      -9.361   3.310  70.080  1.00  0.00    -0.242 C  
BRANCH  22  23
HETATM   23  C   UNL     1      -9.200   4.012  71.434  1.00  0.00    -0.193 C  
BRANCH  23  24
HETATM   24  C   UNL     1      -7.744   4.397  71.698  1.00  0.00    -0.078 C  
BRANCH  24  25
HETATM   25  N   UNL     1      -7.543   5.856  71.502  1.00  0.00    -0.097 NA 
HETATM   26  C   UNL     1      -7.899   6.737  72.488  1.00  0.00    -0.100 A  
HETATM   27  C   UNL     1      -7.640   8.101  72.327  1.00  0.00    -0.147 A  
HETATM   28  C   UNL     1      -8.514   6.354  73.815  1.00  0.00    -0.127 C  
HETATM   29  C   UNL     1      -7.053   8.598  71.174  1.00  0.00    -0.081 A  
HETATM   30  N   UNL     1      -6.701   9.951  71.162  1.00  0.00    -0.332 NA 
HETATM   31  C   UNL     1      -6.635   7.681  70.196  1.00  0.00    -0.038 A  
HETATM   32  H1  UNL     1      -6.269  10.318  70.314  1.00  0.00     0.000 HD 
HETATM   33  C   UNL     1      -6.922   6.298  70.353  1.00  0.00    -0.063 A  
HETATM   34  H2  UNL     1      -6.098  10.150  71.960  1.00  0.00     0.000 HD 
HETATM   35  C   UNL     1      -6.531   5.411  69.317  1.00  0.00    -0.038 A  
HETATM   36  C   UNL     1      -5.838   5.849  68.190  1.00  0.00    -0.012 A  
HETATM   37  C   UNL     1      -5.523   7.188  68.062  1.00  0.00    -0.021 A  
HETATM   38  C   UNL     1      -5.922   8.091  69.046  1.00  0.00    -0.038 A  
ENDBRANCH  24  25
ENDBRANCH  23  24
ENDBRANCH  22  23
ENDBRANCH  21  22
ENDBRANCH  20  21
ENDBRANCH  19  20
ENDBRANCH  18  19
ENDBRANCH  17  18
ENDBRANCH  16  17
ENDBRANCH  15  16
ENDBRANCH  14  15
TORSDOF 11
ENDMDL
MODEL      251
REMARK 921   NORMALIZED FREE ENERGY PREDICTED BY IDOCK:   -5.38 KCAL/MOL
REMARK 922        TOTAL FREE ENERGY PREDICTED BY IDOCK:  -10.19 KCAL/MOL
REMARK 923 INTER-LIGAND FREE ENERGY PREDICTED BY IDOCK:   -8.49 KCAL/MOL
REMARK 924 INTRA-LIGAND FREE ENERGY PREDICTED BY IDOCK:   -1.70 KCAL/MOL
REMARK 927      BINDING AFFINITY PREDICTED BY RF-SCORE:    0.00 PKD
ROOT
HETATM    1  C   UNL     1      -8.411   8.014  73.939  1.00  0.00    -0.319 C  
HETATM    2  C   UNL     1      -9.190   7.526  72.739  1.00  0.00    -0.159 A  
HETATM    3  C   UNL     1     -10.543   7.261  72.909  1.00  0.00    -0.344 A  
HETATM    4  C   UNL     1     -11.333   6.823  71.857  1.00  0.00    -0.271 A  
HETATM    5  N   UNL     1     -12.710   6.718  72.081  1.00  0.00    -0.555 NA 
HETATM    6  C   UNL     1     -10.755   6.742  70.576  1.00  0.00    -0.277 A  
HETATM    7  H2  UNL     1     -13.065   7.612  72.420  1.00  0.00     0.000 HD 
HETATM    8  C   UNL     1     -11.519   6.429  69.427  1.00  0.00    -0.374 A  
HETATM    9  H1  UNL     1     -13.290   6.396  71.306  1.00  0.00     0.000 HD 
HETATM   10  C   UNL     1     -10.945   6.332  68.161  1.00  0.00    -0.412 A  
HETATM   11  C   UNL     1      -9.586   6.534  68.006  1.00  0.00    -0.119 A  
HETATM   12  C   UNL     1      -8.804   6.852  69.120  1.00  0.00    -0.134 A  
HETATM   13  C   UNL     1      -9.366   6.992  70.415  1.00  0.00    -0.159 A  
HETATM   14  N   UNL     1      -8.619   7.382  71.505  1.00  0.00    -0.116 NA 
ENDROOT
BRANCH  14  15
HETATM   15  C   UNL     1      -7.179   7.720  71.334  1.00  0.00    -0.063 C  
BRANCH  15  16
HETATM   16  C   UNL     1      -7.000   9.222  71.125  1.00  0.00    -0.064 C  
BRANCH  16  17
HETATM   17  C   UNL     1      -6.698   9.556  69.666  1.00  0.00    -0.054 C  
BRANCH  17  18
HETATM   18  C   UNL     1      -7.555  10.706  69.128  1.00  0.00    -0.131 C  
BRANCH  18  19
HETATM   19  C   UNL     1      -9.042  10.492  69.395  1.00  0.00    -0.123 C  
BRANCH  19  20
HETATM   20  C   UNL     1      -9.892  10.508  68.122  1.00  0.00    -0.169 C  
BRANCH  20  21
HETATM   21  C   UNL     1      -9.845  11.841  67.362  1.00  0.00    -0.189 C  
BRANCH  21  22
HETATM   22  C   UNL     1     -10.351  13.022  68.195  1.00  0.00    -0.244 C  
BRANCH  22  23
HETATM   23  C   UNL     1      -9.678  14.350  67.831  1.00  0.00    -0.223 C  
BRANCH  23  24
HETATM   24  C   UNL     1      -9.793  15.369  68.966  1.00  0.00    -0.234 C  
BRANCH  24  25
HETATM   25  N   UNL     1      -8.752  16.420  68.834  1.00  0.00    -0.249 NA 
HETATM   26  C   UNL     1      -7.458  16.156  69.195  1.00  0.00    -0.221 A  
HETATM   27  C   UNL     1      -6.471  17.125  69.000  1.00  0.00    -0.208 A  
HETATM   28  C   UNL     1      -6.963  14.840  69.752  1.00  0.00    -0.158 C  
HETATM   29  C   UNL     1      -6.769  18.371  68.470  1.00  0.00    -0.244 A  
HETATM   30  N   UNL     1      -5.699  19.221  68.177  1.00  0.00    -0.199 NA 
HETATM   31  C   UNL     1      -8.086  18.610  68.044  1.00  0.00    -0.296 A  
HETATM   32  H1  UNL     1      -5.918  20.137  67.787  1.00  0.00     0.000 HD 
HETATM   33  C   UNL     1      -9.092  17.631  68.268  1.00  0.00    -0.276 A  
HETATM   34  H2  UNL     1      -5.046  18.739  67.558  1.00  0.00     0.000 HD 
HETATM   35  C   UNL     1     -10.421  17.933  67.872  1.00  0.00    -0.404 A  
HETATM   36  C   UNL     1     -10.749  19.127  67.234  1.00  0.00    -0.585 A  
HETATM   37  C   UNL     1      -9.761  20.059  66.980  1.00  0.00    -0.555 A  
HETATM   38  C   UNL     1      -8.451  19.807  67.386  1.00  0.00    -0.360 A  
ENDBRANCH  24  25
ENDBRANCH  23  24
ENDBRANCH  22  23
ENDBRANCH  21  22
ENDBRANCH  20  21
ENDBRANCH  19  20
ENDBRANCH  18  19
ENDBRANCH  17  18
ENDBRANCH  16  17
ENDBRANCH  15  16
ENDBRANCH  14  15
TORSDOF 11
ENDMDL
MODEL      252
REMARK 921   NORMALIZED FREE ENERGY PREDICTED BY IDOCK:   -5.37 KCAL/MOL
REMARK 922        TOTAL FREE ENERGY PREDICTED BY IDOCK:  -10.18 KCAL/MOL
REMARK 923 INTER-LIGAND FREE ENERGY PREDICTED BY IDOCK:   -7.02 KCAL/MOL
REMARK 924 INTRA-LIGAND FREE ENERGY PREDICTED BY IDOCK:   -3.16 KCAL/MOL
REMARK 927      BINDING AFFINITY PREDICTED BY RF-SCORE:    0.00 PKD
ROOT
HETATM    1  C   UNL     1      -7.883  10.769  68.304  1.00  0.00    -0.115 C  
HETATM    2  C   UNL     1      -9.050  10.398  69.190  1.00  0.00    -0.187 A  
HETATM    3  C   UNL     1     -10.296  10.928  68.877  1.00  0.00    -0.222 A  
HETATM    4  C   UNL     1     -11.421  10.627  69.630  1.00  0.00    -0.291 A  
HETATM    5  N   UNL     1     -12.656  11.088  69.162  1.00  0.00    -0.560 NA 
HETATM    6  C   UNL     1     -11.296   9.689  70.673  1.00  0.00    -0.379 A  
HETATM    7  H2  UNL     1     -12.795  10.764  68.204  1.00  0.00     0.000 HD 
HETATM    8  C   UNL     1     -12.415   9.231  71.406  1.00  0.00    -0.418 A  
HETATM    9  H1  UNL     1     -13.483  10.866  69.715  1.00  0.00     0.000 HD 
HETATM   10  C   UNL     1     -12.291   8.315  72.449  1.00  0.00    -0.385 A  
HETATM   11  C   UNL     1     -11.042   7.839  72.799  1.00  0.00    -0.457 A  
HETATM   12  C   UNL     1      -9.916   8.267  72.091  1.00  0.00    -0.343 A  
HETATM   13  C   UNL     1     -10.016   9.171  71.001  1.00  0.00    -0.297 A  
HETATM   14  N   UNL     1      -8.923   9.538  70.246  1.00  0.00    -0.238 NA 
ENDROOT
BRANCH  14  15
HETATM   15  C   UNL     1      -7.589   8.942  70.533  1.00  0.00    -0.093 C  
BRANCH  15  16
HETATM   16  C   UNL     1      -7.268   7.834  69.533  1.00  0.00    -0.079 C  
BRANCH  16  17
HETATM   17  C   UNL     1      -6.760   6.575  70.231  1.00  0.00    -0.049 C  
BRANCH  17  18
HETATM   18  C   UNL     1      -7.672   5.364  70.013  1.00  0.00    -0.077 C  
BRANCH  18  19
HETATM   19  C   UNL     1      -8.359   4.919  71.300  1.00  0.00    -0.115 C  
BRANCH  19  20
HETATM   20  C   UNL     1      -9.517   3.947  71.062  1.00  0.00    -0.237 C  
BRANCH  20  21
HETATM   21  C   UNL     1      -9.069   2.543  70.633  1.00  0.00    -0.186 C  
BRANCH  21  22
HETATM   22  C   UNL     1      -9.500   2.188  69.208  1.00  0.00    -0.128 C  
BRANCH  22  23
HETATM   23  C   UNL     1      -8.402   2.432  68.166  1.00  0.00    -0.081 C  
BRANCH  23  24
HETATM   24  C   UNL     1      -8.991   2.766  66.795  1.00  0.00    -0.152 C  
BRANCH  24  25
HETATM   25  N   UNL     1      -8.412   4.028  66.269  1.00  0.00    -0.108 NA 
HETATM   26  C   UNL     1      -7.323   3.992  65.439  1.00  0.00    -0.076 A  
HETATM   27  C   UNL     1      -6.829   5.178  64.890  1.00  0.00    -0.049 A  
HETATM   28  C   UNL     1      -6.613   2.734  64.992  1.00  0.00    -0.035 C  
HETATM   29  C   UNL     1      -7.396   6.408  65.185  1.00  0.00    -0.077 A  
HETATM   30  N   UNL     1      -6.929   7.520  64.478  1.00  0.00    -0.054 NA 
HETATM   31  C   UNL     1      -8.550   6.429  65.986  1.00  0.00    -0.149 A  
HETATM   32  H1  UNL     1      -7.346   8.425  64.695  1.00  0.00     0.000 HD 
HETATM   33  C   UNL     1      -9.035   5.223  66.562  1.00  0.00    -0.120 A  
HETATM   34  H2  UNL     1      -7.011   7.343  63.477  1.00  0.00     0.000 HD 
HETATM   35  C   UNL     1     -10.170   5.295  67.409  1.00  0.00    -0.240 A  
HETATM   36  C   UNL     1     -10.842   6.492  67.646  1.00  0.00    -0.419 A  
HETATM   37  C   UNL     1     -10.394   7.655  67.050  1.00  0.00    -0.400 A  
HETATM   38  C   UNL     1      -9.261   7.625  66.238  1.00  0.00    -0.204 A  
ENDBRANCH  24  25
ENDBRANCH  23  24
ENDBRANCH  22  23
ENDBRANCH  21  22
ENDBRANCH  20  21
ENDBRANCH  19  20
ENDBRANCH  18  19
ENDBRANCH  17  18
ENDBRANCH  16  17
ENDBRANCH  15  16
ENDBRANCH  14  15
TORSDOF 11
ENDMDL
MODEL      253
REMARK 921   NORMALIZED FREE ENERGY PREDICTED BY IDOCK:   -5.37 KCAL/MOL
REMARK 922        TOTAL FREE ENERGY PREDICTED BY IDOCK:  -10.18 KCAL/MOL
REMARK 923 INTER-LIGAND FREE ENERGY PREDICTED BY IDOCK:   -8.67 KCAL/MOL
REMARK 924 INTRA-LIGAND FREE ENERGY PREDICTED BY IDOCK:   -1.51 KCAL/MOL
REMARK 927      BINDING AFFINITY PREDICTED BY RF-SCORE:    0.00 PKD
ROOT
HETATM    1  C   UNL     1      -8.247   9.680  67.509  1.00  0.00    -0.114 C  
HETATM    2  C   UNL     1      -8.226   8.538  66.518  1.00  0.00    -0.108 A  
HETATM    3  C   UNL     1      -7.439   8.680  65.382  1.00  0.00    -0.086 A  
HETATM    4  C   UNL     1      -7.353   7.674  64.431  1.00  0.00    -0.088 A  
HETATM    5  N   UNL     1      -6.429   7.842  63.394  1.00  0.00    -0.062 NA 
HETATM    6  C   UNL     1      -8.010   6.456  64.686  1.00  0.00    -0.118 A  
HETATM    7  H2  UNL     1      -5.505   8.010  63.790  1.00  0.00     0.000 HD 
HETATM    8  C   UNL     1      -7.870   5.337  63.832  1.00  0.00    -0.098 A  
HETATM    9  H1  UNL     1      -6.366   7.102  62.695  1.00  0.00     0.000 HD 
HETATM   10  C   UNL     1      -8.533   4.135  64.073  1.00  0.00    -0.103 A  
HETATM   11  C   UNL     1      -9.366   4.019  65.170  1.00  0.00    -0.163 A  
HETATM   12  C   UNL     1      -9.521   5.104  66.037  1.00  0.00    -0.170 A  
HETATM   13  C   UNL     1      -8.831   6.327  65.836  1.00  0.00    -0.139 A  
HETATM   14  N   UNL     1      -8.916   7.375  66.727  1.00  0.00    -0.134 NA 
ENDROOT
BRANCH  14  15
HETATM   15  C   UNL     1      -9.713   7.225  67.976  1.00  0.00    -0.141 C  
BRANCH  15  16
HETATM   16  C   UNL     1      -8.821   6.782  69.134  1.00  0.00    -0.134 C  
BRANCH  16  17
HETATM   17  C   UNL     1      -9.129   5.351  69.566  1.00  0.00    -0.140 C  
BRANCH  17  18
HETATM   18  C   UNL     1     -10.474   5.223  70.288  1.00  0.00    -0.332 C  
BRANCH  18  19
HETATM   19  C   UNL     1     -10.477   5.938  71.636  1.00  0.00    -0.285 C  
BRANCH  19  20
HETATM   20  C   UNL     1     -11.837   6.539  71.997  1.00  0.00    -0.374 C  
BRANCH  20  21
HETATM   21  C   UNL     1     -12.194   7.795  71.191  1.00  0.00    -0.289 C  
BRANCH  21  22
HETATM   22  C   UNL     1     -11.008   8.747  71.011  1.00  0.00    -0.328 C  
BRANCH  22  23
HETATM   23  C   UNL     1     -11.357  10.210  71.310  1.00  0.00    -0.241 C  
BRANCH  23  24
HETATM   24  C   UNL     1     -12.536  10.691  70.464  1.00  0.00    -0.348 C  
BRANCH  24  25
HETATM   25  N   UNL     1     -12.262  12.038  69.901  1.00  0.00    -0.223 NA 
HETATM   26  C   UNL     1     -11.784  12.166  68.625  1.00  0.00    -0.330 A  
HETATM   27  C   UNL     1     -11.597  13.438  68.077  1.00  0.00    -0.369 A  
HETATM   28  C   UNL     1     -11.483  11.015  67.691  1.00  0.00    -0.303 C  
HETATM   29  C   UNL     1     -11.859  14.588  68.804  1.00  0.00    -0.315 A  
HETATM   30  N   UNL     1     -11.782  15.810  68.129  1.00  0.00    -0.329 NA 
HETATM   31  C   UNL     1     -12.408  14.448  70.089  1.00  0.00    -0.406 A  
HETATM   32  H1  UNL     1     -11.975  16.657  68.664  1.00  0.00     0.000 HD 
HETATM   33  C   UNL     1     -12.573  13.153  70.652  1.00  0.00    -0.211 A  
HETATM   34  H2  UNL     1     -12.392  15.782  67.311  1.00  0.00     0.000 HD 
HETATM   35  C   UNL     1     -13.080  13.056  71.973  1.00  0.00    -0.481 A  
HETATM   36  C   UNL     1     -13.462  14.179  72.703  1.00  0.00    -0.634 A  
HETATM   37  C   UNL     1     -13.341  15.434  72.137  1.00  0.00    -0.541 A  
HETATM   38  C   UNL     1     -12.815  15.566  70.853  1.00  0.00    -0.535 A  
ENDBRANCH  24  25
ENDBRANCH  23  24
ENDBRANCH  22  23
ENDBRANCH  21  22
ENDBRANCH  20  21
ENDBRANCH  19  20
ENDBRANCH  18  19
ENDBRANCH  17  18
ENDBRANCH  16  17
ENDBRANCH  15  16
ENDBRANCH  14  15
TORSDOF 11
ENDMDL
MODEL      254
REMARK 921   NORMALIZED FREE ENERGY PREDICTED BY IDOCK:   -5.36 KCAL/MOL
REMARK 922        TOTAL FREE ENERGY PREDICTED BY IDOCK:  -10.17 KCAL/MOL
REMARK 923 INTER-LIGAND FREE ENERGY PREDICTED BY IDOCK:   -8.17 KCAL/MOL
REMARK 924 INTRA-LIGAND FREE ENERGY PREDICTED BY IDOCK:   -2.00 KCAL/MOL
REMARK 927      BINDING AFFINITY PREDICTED BY RF-SCORE:    0.00 PKD
ROOT
HETATM    1  C   UNL     1     -12.799  13.933  71.357  1.00  0.00    -0.439 C  
HETATM    2  C   UNL     1     -12.278  14.334  69.996  1.00  0.00    -0.359 A  
HETATM    3  C   UNL     1     -11.944  15.668  69.797  1.00  0.00    -0.371 A  
HETATM    4  C   UNL     1     -11.446  16.116  68.582  1.00  0.00    -0.340 A  
HETATM    5  N   UNL     1     -11.002  17.441  68.514  1.00  0.00    -0.228 NA 
HETATM    6  C   UNL     1     -11.193  15.167  67.573  1.00  0.00    -0.331 A  
HETATM    7  H2  UNL     1     -10.307  17.601  69.243  1.00  0.00     0.000 HD 
HETATM    8  C   UNL     1     -10.568  15.520  66.354  1.00  0.00    -0.312 A  
HETATM    9  H1  UNL     1     -10.636  17.770  67.621  1.00  0.00     0.000 HD 
HETATM   10  C   UNL     1     -10.332  14.586  65.347  1.00  0.00    -0.405 A  
HETATM   11  C   UNL     1     -10.724  13.272  65.524  1.00  0.00    -0.299 A  
HETATM   12  C   UNL     1     -11.338  12.890  66.720  1.00  0.00    -0.367 A  
HETATM   13  C   UNL     1     -11.559  13.811  67.776  1.00  0.00    -0.346 A  
HETATM   14  N   UNL     1     -12.092  13.428  68.988  1.00  0.00    -0.307 NA 
ENDROOT
BRANCH  14  15
HETATM   15  C   UNL     1     -12.409  11.995  69.239  1.00  0.00     0.080 C  
BRANCH  15  16
HETATM   16  C   UNL     1     -11.368  11.368  70.164  1.00  0.00    -0.207 C  
BRANCH  16  17
HETATM   17  C   UNL     1     -11.014   9.947  69.731  1.00  0.00    -0.304 C  
BRANCH  17  18
HETATM   18  C   UNL     1     -10.855   8.987  70.914  1.00  0.00    -0.323 C  
BRANCH  18  19
HETATM   19  C   UNL     1     -12.191   8.415  71.379  1.00  0.00    -0.335 C  
BRANCH  19  20
HETATM   20  C   UNL     1     -12.212   6.886  71.417  1.00  0.00    -0.418 C  
BRANCH  20  21
HETATM   21  C   UNL     1     -11.448   6.225  70.262  1.00  0.00    -0.428 C  
BRANCH  21  22
HETATM   22  C   UNL     1     -10.411   5.204  70.739  1.00  0.00    -0.294 C  
BRANCH  22  23
HETATM   23  C   UNL     1      -9.834   4.353  69.601  1.00  0.00    -0.272 C  
BRANCH  23  24
HETATM   24  C   UNL     1      -8.424   4.803  69.221  1.00  0.00    -0.080 C  
BRANCH  24  25
HETATM   25  N   UNL     1      -8.476   5.913  68.236  1.00  0.00    -0.114 NA 
HETATM   26  C   UNL     1      -9.002   5.702  66.989  1.00  0.00    -0.114 A  
HETATM   27  C   UNL     1      -9.114   6.769  66.093  1.00  0.00    -0.138 A  
HETATM   28  C   UNL     1      -9.550   4.385  66.490  1.00  0.00    -0.209 C  
HETATM   29  C   UNL     1      -8.680   8.044  66.422  1.00  0.00    -0.151 A  
HETATM   30  N   UNL     1      -8.965   9.074  65.521  1.00  0.00    -0.196 NA 
HETATM   31  C   UNL     1      -8.201   8.264  67.723  1.00  0.00    -0.127 A  
HETATM   32  H1  UNL     1      -8.646  10.012  65.762  1.00  0.00     0.000 HD 
HETATM   33  C   UNL     1      -8.065   7.172  68.623  1.00  0.00    -0.124 A  
HETATM   34  H2  UNL     1      -9.969   9.096  65.340  1.00  0.00     0.000 HD 
HETATM   35  C   UNL     1      -7.527   7.428  69.910  1.00  0.00    -0.085 A  
HETATM   36  C   UNL     1      -7.180   8.711  70.326  1.00  0.00    -0.049 A  
HETATM   37  C   UNL     1      -7.354   9.777  69.464  1.00  0.00    -0.092 A  
HETATM   38  C   UNL     1      -7.850   9.556  68.180  1.00  0.00    -0.083 A  
ENDBRANCH  24  25
ENDBRANCH  23  24
ENDBRANCH  22  23
ENDBRANCH  21  22
ENDBRANCH  20  21
ENDBRANCH  19  20
ENDBRANCH  18  19
ENDBRANCH  17  18
ENDBRANCH  16  17
ENDBRANCH  15  16
ENDBRANCH  14  15
TORSDOF 11
ENDMDL
MODEL      255
REMARK 921   NORMALIZED FREE ENERGY PREDICTED BY IDOCK:   -5.36 KCAL/MOL
REMARK 922        TOTAL FREE ENERGY PREDICTED BY IDOCK:  -10.16 KCAL/MOL
REMARK 923 INTER-LIGAND FREE ENERGY PREDICTED BY IDOCK:   -8.77 KCAL/MOL
REMARK 924 INTRA-LIGAND FREE ENERGY PREDICTED BY IDOCK:   -1.39 KCAL/MOL
REMARK 927      BINDING AFFINITY PREDICTED BY RF-SCORE:    0.00 PKD
ROOT
HETATM    1  C   UNL     1      -8.951   8.252  65.982  1.00  0.00    -0.224 C  
HETATM    2  C   UNL     1      -9.194   8.100  67.466  1.00  0.00    -0.137 A  
HETATM    3  C   UNL     1     -10.295   7.356  67.870  1.00  0.00    -0.258 A  
HETATM    4  C   UNL     1     -10.581   7.156  69.213  1.00  0.00    -0.221 A  
HETATM    5  N   UNL     1     -11.623   6.279  69.529  1.00  0.00    -0.545 NA 
HETATM    6  C   UNL     1      -9.672   7.647  70.170  1.00  0.00    -0.179 A  
HETATM    7  H2  UNL     1     -11.451   5.377  69.083  1.00  0.00     0.000 HD 
HETATM    8  C   UNL     1      -9.820   7.377  71.550  1.00  0.00    -0.185 A  
HETATM    9  H1  UNL     1     -11.833   6.132  70.516  1.00  0.00     0.000 HD 
HETATM   10  C   UNL     1      -8.931   7.876  72.501  1.00  0.00    -0.231 A  
HETATM   11  C   UNL     1      -7.872   8.669  72.100  1.00  0.00    -0.081 A  
HETATM   12  C   UNL     1      -7.694   8.949  70.742  1.00  0.00    -0.126 A  
HETATM   13  C   UNL     1      -8.562   8.426  69.750  1.00  0.00    -0.132 A  
HETATM   14  N   UNL     1      -8.351   8.631  68.403  1.00  0.00    -0.125 NA 
ENDROOT
BRANCH  14  15
HETATM   15  C   UNL     1      -7.148   9.382  67.948  1.00  0.00    -0.081 C  
BRANCH  15  16
HETATM   16  C   UNL     1      -7.489  10.852  67.714  1.00  0.00    -0.094 C  
BRANCH  16  17
HETATM   17  C   UNL     1      -6.728  11.766  68.671  1.00  0.00    -0.073 C  
BRANCH  17  18
HETATM   18  C   UNL     1      -6.569  13.191  68.134  1.00  0.00    -0.107 C  
BRANCH  18  19
HETATM   19  C   UNL     1      -7.804  14.048  68.394  1.00  0.00    -0.144 C  
BRANCH  19  20
HETATM   20  C   UNL     1      -7.468  15.469  68.853  1.00  0.00    -0.158 C  
BRANCH  20  21
HETATM   21  C   UNL     1      -8.658  16.436  68.799  1.00  0.00    -0.250 C  
BRANCH  21  22
HETATM   22  C   UNL     1      -9.861  15.948  69.611  1.00  0.00    -0.238 C  
BRANCH  22  23
HETATM   23  C   UNL     1     -11.039  15.501  68.736  1.00  0.00    -0.291 C  
BRANCH  23  24
HETATM   24  C   UNL     1     -12.352  15.502  69.519  1.00  0.00    -0.153 C  
BRANCH  24  25
HETATM   25  N   UNL     1     -12.530  14.218  70.245  1.00  0.00    -0.356 NA 
HETATM   26  C   UNL     1     -13.153  14.197  71.464  1.00  0.00    -0.353 A  
HETATM   27  C   UNL     1     -13.381  12.977  72.106  1.00  0.00    -0.622 A  
HETATM   28  C   UNL     1     -13.693  15.412  72.184  1.00  0.00    -0.618 C  
HETATM   29  C   UNL     1     -12.968  11.775  71.553  1.00  0.00    -0.341 A  
HETATM   30  N   UNL     1     -13.367  10.599  72.195  1.00  0.00    -0.580 NA 
HETATM   31  C   UNL     1     -12.387  11.800  70.275  1.00  0.00    -0.320 A  
HETATM   32  H1  UNL     1     -13.063   9.714  71.788  1.00  0.00     0.000 HD 
HETATM   33  C   UNL     1     -12.134  13.045  69.636  1.00  0.00    -0.241 A  
HETATM   34  H2  UNL     1     -14.382  10.594  72.290  1.00  0.00     0.000 HD 
HETATM   35  C   UNL     1     -11.496  13.030  68.369  1.00  0.00    -0.345 A  
HETATM   36  C   UNL     1     -11.163  11.842  67.722  1.00  0.00    -0.331 A  
HETATM   37  C   UNL     1     -11.449  10.633  68.327  1.00  0.00    -0.318 A  
HETATM   38  C   UNL     1     -12.045  10.613  69.587  1.00  0.00    -0.312 A  
ENDBRANCH  24  25
ENDBRANCH  23  24
ENDBRANCH  22  23
ENDBRANCH  21  22
ENDBRANCH  20  21
ENDBRANCH  19  20
ENDBRANCH  18  19
ENDBRANCH  17  18
ENDBRANCH  16  17
ENDBRANCH  15  16
ENDBRANCH  14  15
TORSDOF 11
ENDMDL
MODEL      256
REMARK 921   NORMALIZED FREE ENERGY PREDICTED BY IDOCK:   -5.36 KCAL/MOL
REMARK 922        TOTAL FREE ENERGY PREDICTED BY IDOCK:  -10.16 KCAL/MOL
REMARK 923 INTER-LIGAND FREE ENERGY PREDICTED BY IDOCK:   -8.82 KCAL/MOL
REMARK 924 INTRA-LIGAND FREE ENERGY PREDICTED BY IDOCK:   -1.34 KCAL/MOL
REMARK 927      BINDING AFFINITY PREDICTED BY RF-SCORE:    0.00 PKD
ROOT
HETATM    1  C   UNL     1     -10.195   5.640  69.157  1.00  0.00    -0.305 C  
HETATM    2  C   UNL     1     -10.827   6.914  69.670  1.00  0.00    -0.259 A  
HETATM    3  C   UNL     1     -11.433   6.880  70.920  1.00  0.00    -0.368 A  
HETATM    4  C   UNL     1     -12.022   8.009  71.470  1.00  0.00    -0.297 A  
HETATM    5  N   UNL     1     -12.482   7.922  72.788  1.00  0.00    -0.574 NA 
HETATM    6  C   UNL     1     -11.911   9.227  70.773  1.00  0.00    -0.269 A  
HETATM    7  H2  UNL     1     -11.719   7.613  73.391  1.00  0.00     0.000 HD 
HETATM    8  C   UNL     1     -12.371  10.447  71.321  1.00  0.00    -0.507 A  
HETATM    9  H1  UNL     1     -12.915   8.752  73.192  1.00  0.00     0.000 HD 
HETATM   10  C   UNL     1     -12.277  11.652  70.626  1.00  0.00    -0.461 A  
HETATM   11  C   UNL     1     -11.732  11.671  69.357  1.00  0.00    -0.405 A  
HETATM   12  C   UNL     1     -11.262  10.483  68.789  1.00  0.00    -0.317 A  
HETATM   13  C   UNL     1     -11.312   9.249  69.487  1.00  0.00     0.103 A  
HETATM   14  N   UNL     1     -10.781   8.088  68.969  1.00  0.00    -0.147 NA 
ENDROOT
BRANCH  14  15
HETATM   15  C   UNL     1     -10.081   8.114  67.654  1.00  0.00    -0.207 C  
BRANCH  15  16
HETATM   16  C   UNL     1      -8.581   7.891  67.837  1.00  0.00    -0.125 C  
BRANCH  16  17
HETATM   17  C   UNL     1      -7.878   9.160  68.310  1.00  0.00    -0.102 C  
BRANCH  17  18
HETATM   18  C   UNL     1      -7.711  10.199  67.197  1.00  0.00    -0.092 C  
BRANCH  18  19
HETATM   19  C   UNL     1      -6.522  11.122  67.441  1.00  0.00    -0.071 C  
BRANCH  19  20
HETATM   20  C   UNL     1      -6.931  12.546  67.824  1.00  0.00    -0.121 C  
BRANCH  20  21
HETATM   21  C   UNL     1      -8.349  12.650  68.402  1.00  0.00    -0.125 C  
BRANCH  21  22
HETATM   22  C   UNL     1      -8.826  14.096  68.561  1.00  0.00    -0.173 C  
BRANCH  22  23
HETATM   23  C   UNL     1      -9.653  14.595  67.371  1.00  0.00    -0.215 C  
BRANCH  23  24
HETATM   24  C   UNL     1      -8.791  15.367  66.371  1.00  0.00    -0.305 C  
BRANCH  24  25
HETATM   25  N   UNL     1      -9.019  16.829  66.503  1.00  0.00    -0.253 NA 
HETATM   26  C   UNL     1     -10.057  17.426  65.840  1.00  0.00    -0.205 A  
HETATM   27  C   UNL     1     -10.309  18.788  66.027  1.00  0.00    -0.467 A  
HETATM   28  C   UNL     1     -11.036  16.711  64.936  1.00  0.00    -0.162 C  
HETATM   29  C   UNL     1      -9.513  19.568  66.851  1.00  0.00    -0.344 A  
HETATM   30  N   UNL     1      -9.925  20.882  67.090  1.00  0.00    -0.456 NA 
HETATM   31  C   UNL     1      -8.489  18.935  67.575  1.00  0.00    -0.296 A  
HETATM   32  H1  UNL     1      -9.340  21.457  67.696  1.00  0.00     0.000 HD 
HETATM   33  C   UNL     1      -8.221  17.555  67.363  1.00  0.00    -0.207 A  
HETATM   34  H2  UNL     1     -10.879  20.876  67.451  1.00  0.00     0.000 HD 
HETATM   35  C   UNL     1      -7.144  16.965  68.073  1.00  0.00    -0.163 A  
HETATM   36  C   UNL     1      -6.386  17.682  68.996  1.00  0.00    -0.223 A  
HETATM   37  C   UNL     1      -6.677  19.012  69.231  1.00  0.00    -0.330 A  
HETATM   38  C   UNL     1      -7.708  19.631  68.526  1.00  0.00    -0.369 A  
ENDBRANCH  24  25
ENDBRANCH  23  24
ENDBRANCH  22  23
ENDBRANCH  21  22
ENDBRANCH  20  21
ENDBRANCH  19  20
ENDBRANCH  18  19
ENDBRANCH  17  18
ENDBRANCH  16  17
ENDBRANCH  15  16
ENDBRANCH  14  15
TORSDOF 11
ENDMDL
MODEL      257
REMARK 921   NORMALIZED FREE ENERGY PREDICTED BY IDOCK:   -5.36 KCAL/MOL
REMARK 922        TOTAL FREE ENERGY PREDICTED BY IDOCK:  -10.15 KCAL/MOL
REMARK 923 INTER-LIGAND FREE ENERGY PREDICTED BY IDOCK:   -8.56 KCAL/MOL
REMARK 924 INTRA-LIGAND FREE ENERGY PREDICTED BY IDOCK:   -1.60 KCAL/MOL
REMARK 927      BINDING AFFINITY PREDICTED BY RF-SCORE:    0.00 PKD
ROOT
HETATM    1  C   UNL     1      -8.001   9.067  70.509  1.00  0.00    -0.150 C  
HETATM    2  C   UNL     1      -8.857   8.067  71.253  1.00  0.00    -0.139 A  
HETATM    3  C   UNL     1     -10.108   8.483  71.690  1.00  0.00    -0.338 A  
HETATM    4  C   UNL     1     -10.961   7.624  72.366  1.00  0.00    -0.301 A  
HETATM    5  N   UNL     1     -12.254   8.080  72.643  1.00  0.00    -0.599 NA 
HETATM    6  C   UNL     1     -10.571   6.280  72.522  1.00  0.00    -0.239 A  
HETATM    7  H2  UNL     1     -12.698   8.381  71.776  1.00  0.00     0.000 HD 
HETATM    8  C   UNL     1     -11.433   5.310  73.085  1.00  0.00    -0.316 A  
HETATM    9  H1  UNL     1     -12.881   7.448  73.141  1.00  0.00     0.000 HD 
HETATM   10  C   UNL     1     -11.042   3.983  73.255  1.00  0.00    -0.301 A  
HETATM   11  C   UNL     1      -9.773   3.588  72.877  1.00  0.00    -0.188 A  
HETATM   12  C   UNL     1      -8.898   4.520  72.311  1.00  0.00    -0.133 A  
HETATM   13  C   UNL     1      -9.281   5.869  72.094  1.00  0.00    -0.146 A  
HETATM   14  N   UNL     1      -8.456   6.777  71.465  1.00  0.00    -0.119 NA 
ENDROOT
BRANCH  14  15
HETATM   15  C   UNL     1      -7.132   6.338  70.944  1.00  0.00    -0.070 C  
BRANCH  15  16
HETATM   16  C   UNL     1      -7.307   5.360  69.784  1.00  0.00    -0.065 C  
BRANCH  16  17
HETATM   17  C   UNL     1      -7.366   6.084  68.441  1.00  0.00    -0.085 C  
BRANCH  17  18
HETATM   18  C   UNL     1      -8.772   6.101  67.835  1.00  0.00    -0.113 C  
BRANCH  18  19
HETATM   19  C   UNL     1      -9.008   7.326  66.958  1.00  0.00    -0.140 C  
BRANCH  19  20
HETATM   20  C   UNL     1     -10.295   8.079  67.306  1.00  0.00    -0.371 C  
BRANCH  20  21
HETATM   21  C   UNL     1     -10.143   9.605  67.292  1.00  0.00    -0.267 C  
BRANCH  21  22
HETATM   22  C   UNL     1     -11.276  10.325  68.030  1.00  0.00    -0.303 C  
BRANCH  22  23
HETATM   23  C   UNL     1     -11.564  11.725  67.476  1.00  0.00    -0.361 C  
BRANCH  23  24
HETATM   24  C   UNL     1     -10.804  11.983  66.175  1.00  0.00    -0.286 C  
BRANCH  24  25
HETATM   25  N   UNL     1     -10.486  13.427  66.031  1.00  0.00    -0.289 NA 
HETATM   26  C   UNL     1     -11.404  14.283  65.484  1.00  0.00    -0.325 A  
HETATM   27  C   UNL     1     -11.126  15.651  65.419  1.00  0.00    -0.271 A  
HETATM   28  C   UNL     1     -12.771  13.882  64.978  1.00  0.00    -0.372 C  
HETATM   29  C   UNL     1      -9.923  16.170  65.872  1.00  0.00    -0.356 A  
HETATM   30  N   UNL     1      -9.792  17.562  65.900  1.00  0.00    -0.548 NA 
HETATM   31  C   UNL     1      -9.014  15.295  66.488  1.00  0.00    -0.340 A  
HETATM   32  H1  UNL     1      -8.908  17.945  66.233  1.00  0.00     0.000 HD 
HETATM   33  C   UNL     1      -9.290  13.901  66.529  1.00  0.00    -0.247 A  
HETATM   34  H2  UNL     1     -10.558  17.962  66.443  1.00  0.00     0.000 HD 
HETATM   35  C   UNL     1      -8.322  13.043  67.112  1.00  0.00    -0.153 A  
HETATM   36  C   UNL     1      -7.148  13.532  67.681  1.00  0.00    -0.176 A  
HETATM   37  C   UNL     1      -6.903  14.892  67.677  1.00  0.00    -0.204 A  
HETATM   38  C   UNL     1      -7.818  15.759  67.083  1.00  0.00    -0.247 A  
ENDBRANCH  24  25
ENDBRANCH  23  24
ENDBRANCH  22  23
ENDBRANCH  21  22
ENDBRANCH  20  21
ENDBRANCH  19  20
ENDBRANCH  18  19
ENDBRANCH  17  18
ENDBRANCH  16  17
ENDBRANCH  15  16
ENDBRANCH  14  15
TORSDOF 11
ENDMDL
MODEL      258
REMARK 921   NORMALIZED FREE ENERGY PREDICTED BY IDOCK:   -5.35 KCAL/MOL
REMARK 922        TOTAL FREE ENERGY PREDICTED BY IDOCK:  -10.14 KCAL/MOL
REMARK 923 INTER-LIGAND FREE ENERGY PREDICTED BY IDOCK:   -8.28 KCAL/MOL
REMARK 924 INTRA-LIGAND FREE ENERGY PREDICTED BY IDOCK:   -1.85 KCAL/MOL
REMARK 927      BINDING AFFINITY PREDICTED BY RF-SCORE:    0.00 PKD
ROOT
HETATM    1  C   UNL     1     -10.762  15.657  67.485  1.00  0.00    -0.303 C  
HETATM    2  C   UNL     1     -11.332  14.897  68.661  1.00  0.00    -0.292 A  
HETATM    3  C   UNL     1     -11.904  15.631  69.692  1.00  0.00    -0.377 A  
HETATM    4  C   UNL     1     -12.462  15.011  70.800  1.00  0.00    -0.352 A  
HETATM    5  N   UNL     1     -13.141  15.817  71.719  1.00  0.00    -0.460 NA 
HETATM    6  C   UNL     1     -12.525  13.605  70.817  1.00  0.00    -0.432 A  
HETATM    7  H2  UNL     1     -13.862  16.350  71.233  1.00  0.00     0.000 HD 
HETATM    8  C   UNL     1     -13.190  12.898  71.846  1.00  0.00    -0.521 A  
HETATM    9  H1  UNL     1     -13.551  15.361  72.534  1.00  0.00     0.000 HD 
HETATM   10  C   UNL     1     -13.239  11.505  71.873  1.00  0.00    -0.479 A  
HETATM   11  C   UNL     1     -12.614  10.777  70.879  1.00  0.00    -0.498 A  
HETATM   12  C   UNL     1     -11.953  11.445  69.844  1.00  0.00    -0.434 A  
HETATM   13  C   UNL     1     -11.917  12.861  69.771  1.00  0.00    -0.296 A  
HETATM   14  N   UNL     1     -11.337  13.530  68.715  1.00  0.00    -0.271 NA 
ENDROOT
BRANCH  14  15
HETATM   15  C   UNL     1     -10.765  12.762  67.575  1.00  0.00    -0.229 C  
BRANCH  15  16
HETATM   16  C   UNL     1      -9.374  12.236  67.925  1.00  0.00    -0.190 C  
BRANCH  16  17
HETATM   17  C   UNL     1      -8.793  11.388  66.797  1.00  0.00    -0.179 C  
BRANCH  17  18
HETATM   18  C   UNL     1      -9.619  10.130  66.511  1.00  0.00    -0.236 C  
BRANCH  18  19
HETATM   19  C   UNL     1      -9.649   9.783  65.025  1.00  0.00    -0.333 C  
BRANCH  19  20
HETATM   20  C   UNL     1      -8.510   8.854  64.600  1.00  0.00    -0.185 C  
BRANCH  20  21
HETATM   21  C   UNL     1      -8.133   7.810  65.659  1.00  0.00    -0.129 C  
BRANCH  21  22
HETATM   22  C   UNL     1      -8.514   6.383  65.253  1.00  0.00    -0.102 C  
BRANCH  22  23
HETATM   23  C   UNL     1      -8.343   5.366  66.388  1.00  0.00    -0.110 C  
BRANCH  23  24
HETATM   24  C   UNL     1      -7.675   5.995  67.611  1.00  0.00    -0.097 C  
BRANCH  24  25
HETATM   25  N   UNL     1      -8.196   5.389  68.863  1.00  0.00    -0.100 NA 
HETATM   26  C   UNL     1      -7.519   4.362  69.465  1.00  0.00    -0.054 A  
HETATM   27  C   UNL     1      -7.977   3.846  70.680  1.00  0.00    -0.054 A  
HETATM   28  C   UNL     1      -6.237   3.749  68.950  1.00  0.00    -0.028 C  
HETATM   29  C   UNL     1      -9.125   4.329  71.289  1.00  0.00    -0.127 A  
HETATM   30  N   UNL     1      -9.424   3.854  72.569  1.00  0.00    -0.119 NA 
HETATM   31  C   UNL     1      -9.777   5.423  70.697  1.00  0.00    -0.241 A  
HETATM   32  H1  UNL     1     -10.268   4.209  73.018  1.00  0.00     0.000 HD 
HETATM   33  C   UNL     1      -9.323   5.928  69.448  1.00  0.00    -0.130 A  
HETATM   34  H2  UNL     1      -8.625   4.012  73.183  1.00  0.00     0.000 HD 
HETATM   35  C   UNL     1     -10.042   6.999  68.858  1.00  0.00    -0.174 A  
HETATM   36  C   UNL     1     -11.136   7.591  69.486  1.00  0.00    -0.063 A  
HETATM   37  C   UNL     1     -11.548   7.125  70.719  1.00  0.00    -0.358 A  
HETATM   38  C   UNL     1     -10.884   6.053  71.312  1.00  0.00    -0.331 A  
ENDBRANCH  24  25
ENDBRANCH  23  24
ENDBRANCH  22  23
ENDBRANCH  21  22
ENDBRANCH  20  21
ENDBRANCH  19  20
ENDBRANCH  18  19
ENDBRANCH  17  18
ENDBRANCH  16  17
ENDBRANCH  15  16
ENDBRANCH  14  15
TORSDOF 11
ENDMDL
MODEL      259
REMARK 921   NORMALIZED FREE ENERGY PREDICTED BY IDOCK:   -5.34 KCAL/MOL
REMARK 922        TOTAL FREE ENERGY PREDICTED BY IDOCK:  -10.13 KCAL/MOL
REMARK 923 INTER-LIGAND FREE ENERGY PREDICTED BY IDOCK:   -7.43 KCAL/MOL
REMARK 924 INTRA-LIGAND FREE ENERGY PREDICTED BY IDOCK:   -2.71 KCAL/MOL
REMARK 927      BINDING AFFINITY PREDICTED BY RF-SCORE:    0.00 PKD
ROOT
HETATM    1  C   UNL     1      -7.590  10.810  66.013  1.00  0.00    -0.130 C  
HETATM    2  C   UNL     1      -8.767  10.917  66.955  1.00  0.00    -0.141 A  
HETATM    3  C   UNL     1      -9.888  11.610  66.516  1.00  0.00    -0.228 A  
HETATM    4  C   UNL     1     -11.015  11.742  67.313  1.00  0.00    -0.267 A  
HETATM    5  N   UNL     1     -12.148  12.330  66.740  1.00  0.00    -0.565 NA 
HETATM    6  C   UNL     1     -11.040  11.074  68.552  1.00  0.00    -0.297 A  
HETATM    7  H2  UNL     1     -12.395  11.826  65.888  1.00  0.00     0.000 HD 
HETATM    8  C   UNL     1     -12.196  11.051  69.367  1.00  0.00    -0.329 A  
HETATM    9  H1  UNL     1     -12.976  12.427  67.326  1.00  0.00     0.000 HD 
HETATM   10  C   UNL     1     -12.217  10.404  70.602  1.00  0.00    -0.441 A  
HETATM   11  C   UNL     1     -11.079   9.770  71.064  1.00  0.00    -0.431 A  
HETATM   12  C   UNL     1      -9.922   9.768  70.279  1.00  0.00    -0.309 A  
HETATM   13  C   UNL     1      -9.882  10.388  69.004  1.00  0.00    -0.212 A  
HETATM   14  N   UNL     1      -8.773  10.325  68.189  1.00  0.00    -0.122 NA 
ENDROOT
BRANCH  14  15
HETATM   15  C   UNL     1      -7.580   9.544  68.619  1.00  0.00    -0.080 C  
BRANCH  15  16
HETATM   16  C   UNL     1      -7.744   8.069  68.262  1.00  0.00    -0.117 C  
BRANCH  16  17
HETATM   17  C   UNL     1      -6.607   7.222  68.826  1.00  0.00    -0.048 C  
BRANCH  17  18
HETATM   18  C   UNL     1      -7.072   6.247  69.911  1.00  0.00    -0.072 C  
BRANCH  18  19
HETATM   19  C   UNL     1      -7.142   6.902  71.287  1.00  0.00    -0.075 C  
BRANCH  19  20
HETATM   20  C   UNL     1      -6.046   6.421  72.241  1.00  0.00    -0.038 C  
BRANCH  20  21
HETATM   21  C   UNL     1      -6.548   5.465  73.331  1.00  0.00    -0.072 C  
BRANCH  21  22
HETATM   22  C   UNL     1      -8.043   5.154  73.211  1.00  0.00    -0.111 C  
BRANCH  22  23
HETATM   23  C   UNL     1      -8.337   3.929  72.338  1.00  0.00    -0.094 C  
BRANCH  23  24
HETATM   24  C   UNL     1      -9.836   3.770  72.078  1.00  0.00    -0.173 C  
BRANCH  24  25
HETATM   25  N   UNL     1     -10.249   4.564  70.892  1.00  0.00    -0.155 NA 
HETATM   26  C   UNL     1     -10.939   5.735  71.055  1.00  0.00    -0.230 A  
HETATM   27  C   UNL     1     -11.260   6.513  69.939  1.00  0.00    -0.456 A  
HETATM   28  C   UNL     1     -11.351   6.323  72.385  1.00  0.00    -0.333 C  
HETATM   29  C   UNL     1     -10.921   6.117  68.654  1.00  0.00    -0.336 A  
HETATM   30  N   UNL     1     -11.153   7.024  67.617  1.00  0.00    -0.553 NA 
HETATM   31  C   UNL     1     -10.159   4.947  68.502  1.00  0.00    -0.148 A  
HETATM   32  H1  UNL     1     -10.904   6.733  66.672  1.00  0.00     0.000 HD 
HETATM   33  C   UNL     1      -9.856   4.146  69.638  1.00  0.00    -0.138 A  
HETATM   34  H2  UNL     1     -10.689   7.907  67.831  1.00  0.00     0.000 HD 
HETATM   35  C   UNL     1      -9.130   2.944  69.435  1.00  0.00    -0.197 A  
HETATM   36  C   UNL     1      -8.671   2.560  68.177  1.00  0.00    -0.135 A  
HETATM   37  C   UNL     1      -8.930   3.362  67.083  1.00  0.00    -0.173 A  
HETATM   38  C   UNL     1      -9.669   4.533  67.242  1.00  0.00    -0.221 A  
ENDBRANCH  24  25
ENDBRANCH  23  24
ENDBRANCH  22  23
ENDBRANCH  21  22
ENDBRANCH  20  21
ENDBRANCH  19  20
ENDBRANCH  18  19
ENDBRANCH  17  18
ENDBRANCH  16  17
ENDBRANCH  15  16
ENDBRANCH  14  15
TORSDOF 11
ENDMDL
MODEL      260
REMARK 921   NORMALIZED FREE ENERGY PREDICTED BY IDOCK:   -5.34 KCAL/MOL
REMARK 922        TOTAL FREE ENERGY PREDICTED BY IDOCK:  -10.12 KCAL/MOL
REMARK 923 INTER-LIGAND FREE ENERGY PREDICTED BY IDOCK:   -8.48 KCAL/MOL
REMARK 924 INTRA-LIGAND FREE ENERGY PREDICTED BY IDOCK:   -1.64 KCAL/MOL
REMARK 927      BINDING AFFINITY PREDICTED BY RF-SCORE:    0.00 PKD
ROOT
HETATM    1  C   UNL     1     -10.675  14.531  64.945  1.00  0.00    -0.448 C  
HETATM    2  C   UNL     1     -10.123  13.125  64.874  1.00  0.00    -0.217 A  
HETATM    3  C   UNL     1     -10.387  12.381  63.731  1.00  0.00    -0.454 A  
HETATM    4  C   UNL     1      -9.906  11.089  63.580  1.00  0.00    -0.351 A  
HETATM    5  N   UNL     1     -10.098  10.467  62.343  1.00  0.00    -0.717 NA 
HETATM    6  C   UNL     1      -9.056  10.573  64.577  1.00  0.00    -0.251 A  
HETATM    7  H2  UNL     1      -9.714  11.058  61.605  1.00  0.00     0.000 HD 
HETATM    8  C   UNL     1      -8.420   9.316  64.441  1.00  0.00    -0.201 A  
HETATM    9  H1  UNL     1      -9.744   9.517  62.232  1.00  0.00     0.000 HD 
HETATM   10  C   UNL     1      -7.591   8.796  65.433  1.00  0.00    -0.087 A  
HETATM   11  C   UNL     1      -7.381   9.511  66.597  1.00  0.00    -0.090 A  
HETATM   12  C   UNL     1      -7.989  10.759  66.760  1.00  0.00    -0.138 A  
HETATM   13  C   UNL     1      -8.809  11.329  65.752  1.00  0.00    -0.148 A  
HETATM   14  N   UNL     1      -9.350  12.592  65.869  1.00  0.00    -0.106 NA 
ENDROOT
BRANCH  14  15
HETATM   15  C   UNL     1      -9.036  13.425  67.063  1.00  0.00    -0.243 C  
BRANCH  15  16
HETATM   16  C   UNL     1     -10.260  13.551  67.968  1.00  0.00    -0.243 C  
BRANCH  16  17
HETATM   17  C   UNL     1     -10.184  12.593  69.153  1.00  0.00     0.233 C  
BRANCH  17  18
HETATM   18  C   UNL     1     -11.313  11.558  69.156  1.00  0.00    -0.351 C  
BRANCH  18  19
HETATM   19  C   UNL     1     -12.531  12.034  69.942  1.00  0.00    -0.019 C  
BRANCH  19  20
HETATM   20  C   UNL     1     -12.235  13.232  70.846  1.00  0.00    -0.346 C  
BRANCH  20  21
HETATM   21  C   UNL     1     -12.842  14.550  70.347  1.00  0.00    -0.315 C  
BRANCH  21  22
HETATM   22  C   UNL     1     -11.924  15.755  70.575  1.00  0.00    -0.401 C  
BRANCH  22  23
HETATM   23  C   UNL     1     -11.284  16.280  69.285  1.00  0.00    -0.312 C  
BRANCH  23  24
HETATM   24  C   UNL     1     -10.294  17.410  69.568  1.00  0.00    -0.011 C  
BRANCH  24  25
HETATM   25  N   UNL     1      -9.360  17.587  68.426  1.00  0.00    -0.279 NA 
HETATM   26  C   UNL     1      -9.569  18.587  67.515  1.00  0.00    -0.287 A  
HETATM   27  C   UNL     1      -8.646  18.792  66.485  1.00  0.00    -0.312 A  
HETATM   28  C   UNL     1     -10.717  19.569  67.552  1.00  0.00    -0.565 C  
HETATM   29  C   UNL     1      -7.527  17.987  66.341  1.00  0.00    -0.262 A  
HETATM   30  N   UNL     1      -6.588  18.356  65.373  1.00  0.00    -0.451 NA 
HETATM   31  C   UNL     1      -7.288  17.005  67.316  1.00  0.00    -0.190 A  
HETATM   32  H1  UNL     1      -5.764  17.765  65.266  1.00  0.00     0.000 HD 
HETATM   33  C   UNL     1      -8.241  16.783  68.347  1.00  0.00    -0.224 A  
HETATM   34  H2  UNL     1      -6.292  19.319  65.540  1.00  0.00     0.000 HD 
HETATM   35  C   UNL     1      -7.989  15.746  69.281  1.00  0.00    -0.239 A  
HETATM   36  C   UNL     1      -6.823  14.984  69.243  1.00  0.00    -0.149 A  
HETATM   37  C   UNL     1      -5.879  15.231  68.265  1.00  0.00    -0.121 A  
HETATM   38  C   UNL     1      -6.111  16.221  67.312  1.00  0.00    -0.189 A  
ENDBRANCH  24  25
ENDBRANCH  23  24
ENDBRANCH  22  23
ENDBRANCH  21  22
ENDBRANCH  20  21
ENDBRANCH  19  20
ENDBRANCH  18  19
ENDBRANCH  17  18
ENDBRANCH  16  17
ENDBRANCH  15  16
ENDBRANCH  14  15
TORSDOF 11
ENDMDL
MODEL      261
REMARK 921   NORMALIZED FREE ENERGY PREDICTED BY IDOCK:   -5.33 KCAL/MOL
REMARK 922        TOTAL FREE ENERGY PREDICTED BY IDOCK:  -10.12 KCAL/MOL
REMARK 923 INTER-LIGAND FREE ENERGY PREDICTED BY IDOCK:   -8.26 KCAL/MOL
REMARK 924 INTRA-LIGAND FREE ENERGY PREDICTED BY IDOCK:   -1.85 KCAL/MOL
REMARK 927      BINDING AFFINITY PREDICTED BY RF-SCORE:    0.00 PKD
ROOT
HETATM    1  C   UNL     1      -6.953   8.525  72.374  1.00  0.00    -0.081 C  
HETATM    2  C   UNL     1      -7.978   7.905  71.451  1.00  0.00    -0.094 A  
HETATM    3  C   UNL     1      -8.962   7.106  72.019  1.00  0.00    -0.141 A  
HETATM    4  C   UNL     1      -9.947   6.512  71.246  1.00  0.00    -0.181 A  
HETATM    5  N   UNL     1     -10.978   5.842  71.913  1.00  0.00    -0.260 NA 
HETATM    6  C   UNL     1      -9.990   6.813  69.871  1.00  0.00    -0.184 A  
HETATM    7  H2  UNL     1     -11.413   6.476  72.584  1.00  0.00     0.000 HD 
HETATM    8  C   UNL     1     -11.035   6.353  69.036  1.00  0.00    -0.410 A  
HETATM    9  H1  UNL     1     -11.703   5.405  71.344  1.00  0.00     0.000 HD 
HETATM   10  C   UNL     1     -11.071   6.636  67.672  1.00  0.00    -0.357 A  
HETATM   11  C   UNL     1     -10.056   7.378  67.099  1.00  0.00    -0.314 A  
HETATM   12  C   UNL     1      -9.012   7.854  67.897  1.00  0.00    -0.129 A  
HETATM   13  C   UNL     1      -8.968   7.611  69.294  1.00  0.00    -0.135 A  
HETATM   14  N   UNL     1      -7.986   8.141  70.104  1.00  0.00    -0.105 NA 
ENDROOT
BRANCH  14  15
HETATM   15  C   UNL     1      -6.953   9.042  69.523  1.00  0.00    -0.051 C  
BRANCH  15  16
HETATM   16  C   UNL     1      -7.201  10.489  69.946  1.00  0.00    -0.136 C  
BRANCH  16  17
HETATM   17  C   UNL     1      -8.136  11.206  68.977  1.00  0.00    -0.078 C  
BRANCH  17  18
HETATM   18  C   UNL     1      -7.608  11.219  67.539  1.00  0.00    -0.110 C  
BRANCH  18  19
HETATM   19  C   UNL     1      -7.702  12.603  66.902  1.00  0.00     0.080 C  
BRANCH  19  20
HETATM   20  C   UNL     1      -7.749  13.737  67.928  1.00  0.00    -0.161 C  
BRANCH  20  21
HETATM   21  C   UNL     1      -7.265  15.087  67.382  1.00  0.00    -0.224 C  
BRANCH  21  22
HETATM   22  C   UNL     1      -8.257  15.728  66.407  1.00  0.00    -0.206 C  
BRANCH  22  23
HETATM   23  C   UNL     1      -9.465  16.364  67.104  1.00  0.00    -0.238 C  
BRANCH  23  24
HETATM   24  C   UNL     1     -10.783  15.880  66.499  1.00  0.00    -0.258 C  
BRANCH  24  25
HETATM   25  N   UNL     1     -11.127  14.527  67.007  1.00  0.00    -0.313 NA 
HETATM   26  C   UNL     1     -10.867  13.419  66.245  1.00  0.00    -0.289 A  
HETATM   27  C   UNL     1     -11.126  12.147  66.760  1.00  0.00    -0.349 A  
HETATM   28  C   UNL     1     -10.244  13.440  64.868  1.00  0.00    -0.339 C  
HETATM   29  C   UNL     1     -11.671  11.969  68.022  1.00  0.00    -0.331 A  
HETATM   30  N   UNL     1     -11.761  10.661  68.508  1.00  0.00    -0.663 NA 
HETATM   31  C   UNL     1     -11.876  13.107  68.820  1.00  0.00    -0.361 A  
HETATM   32  H1  UNL     1     -12.161  10.530  69.436  1.00  0.00     0.000 HD 
HETATM   33  C   UNL     1     -11.635  14.401  68.283  1.00  0.00    -0.328 A  
HETATM   34  H2  UNL     1     -10.839  10.225  68.474  1.00  0.00     0.000 HD 
HETATM   35  C   UNL     1     -11.905  15.527  69.103  1.00  0.00    -0.373 A  
HETATM   36  C   UNL     1     -12.348  15.396  70.418  1.00  0.00    -0.443 A  
HETATM   37  C   UNL     1     -12.541  14.135  70.949  1.00  0.00    -0.433 A  
HETATM   38  C   UNL     1     -12.316  13.009  70.160  1.00  0.00    -0.270 A  
ENDBRANCH  24  25
ENDBRANCH  23  24
ENDBRANCH  22  23
ENDBRANCH  21  22
ENDBRANCH  20  21
ENDBRANCH  19  20
ENDBRANCH  18  19
ENDBRANCH  17  18
ENDBRANCH  16  17
ENDBRANCH  15  16
ENDBRANCH  14  15
TORSDOF 11
ENDMDL
MODEL      262
REMARK 921   NORMALIZED FREE ENERGY PREDICTED BY IDOCK:   -5.32 KCAL/MOL
REMARK 922        TOTAL FREE ENERGY PREDICTED BY IDOCK:  -10.10 KCAL/MOL
REMARK 923 INTER-LIGAND FREE ENERGY PREDICTED BY IDOCK:   -7.49 KCAL/MOL
REMARK 924 INTRA-LIGAND FREE ENERGY PREDICTED BY IDOCK:   -2.61 KCAL/MOL
REMARK 927      BINDING AFFINITY PREDICTED BY RF-SCORE:    0.00 PKD
ROOT
HETATM    1  C   UNL     1      -7.542  10.787  65.896  1.00  0.00    -0.106 C  
HETATM    2  C   UNL     1      -8.716  10.930  66.839  1.00  0.00    -0.144 A  
HETATM    3  C   UNL     1      -9.817  11.653  66.398  1.00  0.00    -0.233 A  
HETATM    4  C   UNL     1     -10.940  11.819  67.194  1.00  0.00    -0.276 A  
HETATM    5  N   UNL     1     -12.056  12.437  66.619  1.00  0.00    -0.584 NA 
HETATM    6  C   UNL     1     -10.983  11.157  68.435  1.00  0.00    -0.277 A  
HETATM    7  H2  UNL     1     -12.317  11.937  65.769  1.00  0.00     0.000 HD 
HETATM    8  C   UNL     1     -12.139  11.169  69.251  1.00  0.00    -0.377 A  
HETATM    9  H1  UNL     1     -12.881  12.560  67.205  1.00  0.00     0.000 HD 
HETATM   10  C   UNL     1     -12.178  10.527  70.488  1.00  0.00    -0.435 A  
HETATM   11  C   UNL     1     -11.058   9.863  70.952  1.00  0.00    -0.418 A  
HETATM   12  C   UNL     1      -9.902   9.826  70.167  1.00  0.00    -0.306 A  
HETATM   13  C   UNL     1      -9.845  10.440  68.889  1.00  0.00    -0.200 A  
HETATM   14  N   UNL     1      -8.738  10.343  68.074  1.00  0.00    -0.122 NA 
ENDROOT
BRANCH  14  15
HETATM   15  C   UNL     1      -7.567   9.531  68.507  1.00  0.00    -0.081 C  
BRANCH  15  16
HETATM   16  C   UNL     1      -7.720   8.081  68.051  1.00  0.00    -0.118 C  
BRANCH  16  17
HETATM   17  C   UNL     1      -6.414   7.304  68.199  1.00  0.00    -0.045 C  
BRANCH  17  18
HETATM   18  C   UNL     1      -6.635   5.830  68.550  1.00  0.00    -0.052 C  
BRANCH  18  19
HETATM   19  C   UNL     1      -6.444   5.556  70.039  1.00  0.00    -0.034 C  
BRANCH  19  20
HETATM   20  C   UNL     1      -5.145   4.810  70.354  1.00  0.00     0.000 C  
BRANCH  20  21
HETATM   21  C   UNL     1      -5.350   3.334  70.720  1.00  0.00    -0.008 C  
BRANCH  21  22
HETATM   22  C   UNL     1      -6.824   2.917  70.715  1.00  0.00    -0.033 C  
BRANCH  22  23
HETATM   23  C   UNL     1      -7.274   2.306  69.383  1.00  0.00    -0.043 C  
BRANCH  23  24
HETATM   24  C   UNL     1      -8.797   2.184  69.306  1.00  0.00    -0.091 C  
BRANCH  24  25
HETATM   25  N   UNL     1      -9.387   3.392  68.673  1.00  0.00    -0.168 NA 
HETATM   26  C   UNL     1      -9.458   3.489  67.309  1.00  0.00    -0.187 A  
HETATM   27  C   UNL     1     -10.080   4.595  66.723  1.00  0.00    -0.246 A  
HETATM   28  C   UNL     1      -8.960   2.443  66.337  1.00  0.00    -0.124 C  
HETATM   29  C   UNL     1     -10.610   5.622  67.489  1.00  0.00    -0.221 A  
HETATM   30  N   UNL     1     -11.339   6.612  66.823  1.00  0.00    -0.795 NA 
HETATM   31  C   UNL     1     -10.589   5.483  68.886  1.00  0.00    -0.258 A  
HETATM   32  H1  UNL     1     -11.729   7.367  67.386  1.00  0.00     0.000 HD 
HETATM   33  C   UNL     1      -9.933   4.370  69.478  1.00  0.00    -0.117 A  
HETATM   34  H2  UNL     1     -12.085   6.175  66.282  1.00  0.00     0.000 HD 
HETATM   35  C   UNL     1      -9.887   4.295  70.894  1.00  0.00    -0.259 A  
HETATM   36  C   UNL     1     -10.503   5.245  71.706  1.00  0.00    -0.278 A  
HETATM   37  C   UNL     1     -11.176   6.303  71.126  1.00  0.00    -0.365 A  
HETATM   38  C   UNL     1     -11.212   6.424  69.738  1.00  0.00    -0.484 A  
ENDBRANCH  24  25
ENDBRANCH  23  24
ENDBRANCH  22  23
ENDBRANCH  21  22
ENDBRANCH  20  21
ENDBRANCH  19  20
ENDBRANCH  18  19
ENDBRANCH  17  18
ENDBRANCH  16  17
ENDBRANCH  15  16
ENDBRANCH  14  15
TORSDOF 11
ENDMDL
MODEL      263
REMARK 921   NORMALIZED FREE ENERGY PREDICTED BY IDOCK:   -5.31 KCAL/MOL
REMARK 922        TOTAL FREE ENERGY PREDICTED BY IDOCK:  -10.07 KCAL/MOL
REMARK 923 INTER-LIGAND FREE ENERGY PREDICTED BY IDOCK:   -8.58 KCAL/MOL
REMARK 924 INTRA-LIGAND FREE ENERGY PREDICTED BY IDOCK:   -1.49 KCAL/MOL
REMARK 927      BINDING AFFINITY PREDICTED BY RF-SCORE:    0.00 PKD
ROOT
HETATM    1  C   UNL     1      -8.474   7.695  72.880  1.00  0.00    -0.185 C  
HETATM    2  C   UNL     1      -8.784   7.120  71.517  1.00  0.00    -0.119 A  
HETATM    3  C   UNL     1      -8.409   5.806  71.267  1.00  0.00    -0.127 A  
HETATM    4  C   UNL     1      -8.668   5.198  70.048  1.00  0.00    -0.107 A  
HETATM    5  N   UNL     1      -8.386   3.833  69.933  1.00  0.00    -0.055 NA 
HETATM    6  C   UNL     1      -9.411   5.913  69.090  1.00  0.00    -0.137 A  
HETATM    7  H2  UNL     1      -8.871   3.324  70.672  1.00  0.00     0.000 HD 
HETATM    8  C   UNL     1      -9.828   5.323  67.874  1.00  0.00    -0.189 A  
HETATM    9  H1  UNL     1      -8.577   3.386  69.036  1.00  0.00     0.000 HD 
HETATM   10  C   UNL     1     -10.549   6.035  66.916  1.00  0.00    -0.384 A  
HETATM   11  C   UNL     1     -10.865   7.361  67.140  1.00  0.00    -0.340 A  
HETATM   12  C   UNL     1     -10.473   7.972  68.335  1.00  0.00    -0.205 A  
HETATM   13  C   UNL     1      -9.770   7.263  69.343  1.00  0.00    -0.161 A  
HETATM   14  N   UNL     1      -9.447   7.832  70.556  1.00  0.00    -0.163 NA 
ENDROOT
BRANCH  14  15
HETATM   15  C   UNL     1      -9.885   9.222  70.862  1.00  0.00    -0.293 C  
BRANCH  15  16
HETATM   16  C   UNL     1     -11.334   9.237  71.343  1.00  0.00    -0.434 C  
BRANCH  16  17
HETATM   17  C   UNL     1     -12.093  10.448  70.807  1.00  0.00    -0.463 C  
BRANCH  17  18
HETATM   18  C   UNL     1     -13.308  10.817  71.663  1.00  0.00    -0.390 C  
BRANCH  18  19
HETATM   19  C   UNL     1     -13.250  12.259  72.158  1.00  0.00    -0.466 C  
BRANCH  19  20
HETATM   20  C   UNL     1     -12.742  13.241  71.100  1.00  0.00    -0.404 C  
BRANCH  20  21
HETATM   21  C   UNL     1     -12.236  14.569  71.678  1.00  0.00    -0.403 C  
BRANCH  21  22
HETATM   22  C   UNL     1     -11.645  15.497  70.613  1.00  0.00    -0.378 C  
BRANCH  22  23
HETATM   23  C   UNL     1     -12.158  15.199  69.200  1.00  0.00    -0.258 C  
BRANCH  23  24
HETATM   24  C   UNL     1     -11.202  15.731  68.131  1.00  0.00    -0.344 C  
BRANCH  24  25
HETATM   25  N   UNL     1     -10.412  14.623  67.536  1.00  0.00    -0.246 NA 
HETATM   26  C   UNL     1     -10.935  13.876  66.515  1.00  0.00    -0.300 A  
HETATM   27  C   UNL     1     -10.158  12.883  65.912  1.00  0.00    -0.295 A  
HETATM   28  C   UNL     1     -12.308  14.070  65.912  1.00  0.00    -0.515 C  
HETATM   29  C   UNL     1      -8.868  12.609  66.340  1.00  0.00     0.016 A  
HETATM   30  N   UNL     1      -8.118  11.702  65.586  1.00  0.00    -0.195 NA 
HETATM   31  C   UNL     1      -8.318  13.421  67.345  1.00  0.00    -0.193 A  
HETATM   32  H1  UNL     1      -7.169  11.500  65.900  1.00  0.00     0.000 HD 
HETATM   33  C   UNL     1      -9.120  14.414  67.972  1.00  0.00    -0.188 A  
HETATM   34  H2  UNL     1      -8.092  12.011  64.614  1.00  0.00     0.000 HD 
HETATM   35  C   UNL     1      -8.544  15.177  69.020  1.00  0.00    -0.219 A  
HETATM   36  C   UNL     1      -7.216  15.015  69.409  1.00  0.00    -0.194 A  
HETATM   37  C   UNL     1      -6.427  14.079  68.768  1.00  0.00    -0.093 A  
HETATM   38  C   UNL     1      -6.972  13.290  67.757  1.00  0.00    -0.154 A  
ENDBRANCH  24  25
ENDBRANCH  23  24
ENDBRANCH  22  23
ENDBRANCH  21  22
ENDBRANCH  20  21
ENDBRANCH  19  20
ENDBRANCH  18  19
ENDBRANCH  17  18
ENDBRANCH  16  17
ENDBRANCH  15  16
ENDBRANCH  14  15
TORSDOF 11
ENDMDL
MODEL      264
REMARK 921   NORMALIZED FREE ENERGY PREDICTED BY IDOCK:   -5.31 KCAL/MOL
REMARK 922        TOTAL FREE ENERGY PREDICTED BY IDOCK:  -10.07 KCAL/MOL
REMARK 923 INTER-LIGAND FREE ENERGY PREDICTED BY IDOCK:   -8.25 KCAL/MOL
REMARK 924 INTRA-LIGAND FREE ENERGY PREDICTED BY IDOCK:   -1.82 KCAL/MOL
REMARK 927      BINDING AFFINITY PREDICTED BY RF-SCORE:    0.00 PKD
ROOT
HETATM    1  C   UNL     1     -11.902   6.695  71.660  1.00  0.00    -0.383 C  
HETATM    2  C   UNL     1     -10.866   6.073  70.751  1.00  0.00    -0.292 A  
HETATM    3  C   UNL     1     -10.508   4.752  70.984  1.00  0.00    -0.114 A  
HETATM    4  C   UNL     1      -9.577   4.102  70.187  1.00  0.00    -0.202 A  
HETATM    5  N   UNL     1      -9.381   2.734  70.404  1.00  0.00    -0.144 NA 
HETATM    6  C   UNL     1      -9.065   4.784  69.067  1.00  0.00    -0.157 A  
HETATM    7  H2  UNL     1     -10.277   2.251  70.337  1.00  0.00     0.000 HD 
HETATM    8  C   UNL     1      -8.211   4.153  68.132  1.00  0.00    -0.094 A  
HETATM    9  H1  UNL     1      -8.696   2.257  69.818  1.00  0.00     0.000 HD 
HETATM   10  C   UNL     1      -7.691   4.831  67.031  1.00  0.00    -0.091 A  
HETATM   11  C   UNL     1      -7.999   6.164  66.837  1.00  0.00    -0.105 A  
HETATM   12  C   UNL     1      -8.846   6.815  67.739  1.00  0.00    -0.118 A  
HETATM   13  C   UNL     1      -9.419   6.141  68.848  1.00  0.00    -0.123 A  
HETATM   14  N   UNL     1     -10.316   6.752  69.698  1.00  0.00    -0.191 NA 
ENDROOT
BRANCH  14  15
HETATM   15  C   UNL     1     -10.752   8.151  69.435  1.00  0.00    -0.156 C  
BRANCH  15  16
HETATM   16  C   UNL     1     -10.129   9.109  70.449  1.00  0.00    -0.264 C  
BRANCH  16  17
HETATM   17  C   UNL     1      -8.690   9.459  70.080  1.00  0.00    -0.245 C  
BRANCH  17  18
HETATM   18  C   UNL     1      -8.598  10.497  68.958  1.00  0.00    -0.160 C  
BRANCH  18  19
HETATM   19  C   UNL     1      -7.493  10.170  67.958  1.00  0.00    -0.087 C  
BRANCH  19  20
HETATM   20  C   UNL     1      -7.787  10.680  66.545  1.00  0.00    -0.140 C  
BRANCH  20  21
HETATM   21  C   UNL     1      -9.023  10.041  65.899  1.00  0.00    -0.182 C  
BRANCH  21  22
HETATM   22  C   UNL     1     -10.082  11.068  65.490  1.00  0.00    -0.316 C  
BRANCH  22  23
HETATM   23  C   UNL     1      -9.796  12.477  66.022  1.00  0.00    -0.266 C  
BRANCH  23  24
HETATM   24  C   UNL     1     -11.021  13.384  65.903  1.00  0.00    -0.274 C  
BRANCH  24  25
HETATM   25  N   UNL     1     -11.217  14.166  67.150  1.00  0.00    -0.306 NA 
HETATM   26  C   UNL     1     -11.656  13.547  68.289  1.00  0.00    -0.346 A  
HETATM   27  C   UNL     1     -11.768  14.275  69.477  1.00  0.00    -0.366 A  
HETATM   28  C   UNL     1     -11.986  12.076  68.405  1.00  0.00    -0.256 C  
HETATM   29  C   UNL     1     -11.472  15.628  69.531  1.00  0.00    -0.344 A  
HETATM   30  N   UNL     1     -11.473  16.238  70.789  1.00  0.00    -0.537 NA 
HETATM   31  C   UNL     1     -10.962  16.240  68.374  1.00  0.00    -0.351 A  
HETATM   32  H1  UNL     1     -11.255  17.234  70.829  1.00  0.00     0.000 HD 
HETATM   33  C   UNL     1     -10.874  15.502  67.162  1.00  0.00    -0.316 A  
HETATM   34  H2  UNL     1     -10.844  15.730  71.411  1.00  0.00     0.000 HD 
HETATM   35  C   UNL     1     -10.405  16.173  66.003  1.00  0.00    -0.372 A  
HETATM   36  C   UNL     1      -9.989  17.502  66.034  1.00  0.00    -0.231 A  
HETATM   37  C   UNL     1     -10.037  18.203  67.224  1.00  0.00    -0.354 A  
HETATM   38  C   UNL     1     -10.523  17.584  68.374  1.00  0.00    -0.372 A  
ENDBRANCH  24  25
ENDBRANCH  23  24
ENDBRANCH  22  23
ENDBRANCH  21  22
ENDBRANCH  20  21
ENDBRANCH  19  20
ENDBRANCH  18  19
ENDBRANCH  17  18
ENDBRANCH  16  17
ENDBRANCH  15  16
ENDBRANCH  14  15
TORSDOF 11
ENDMDL
MODEL      265
REMARK 921   NORMALIZED FREE ENERGY PREDICTED BY IDOCK:   -5.30 KCAL/MOL
REMARK 922        TOTAL FREE ENERGY PREDICTED BY IDOCK:  -10.06 KCAL/MOL
REMARK 923 INTER-LIGAND FREE ENERGY PREDICTED BY IDOCK:   -8.32 KCAL/MOL
REMARK 924 INTRA-LIGAND FREE ENERGY PREDICTED BY IDOCK:   -1.74 KCAL/MOL
REMARK 927      BINDING AFFINITY PREDICTED BY RF-SCORE:    0.00 PKD
ROOT
HETATM    1  C   UNL     1     -11.491   8.600  71.641  1.00  0.00    -0.375 C  
HETATM    2  C   UNL     1     -11.081   7.420  70.789  1.00  0.00    -0.265 A  
HETATM    3  C   UNL     1     -11.491   7.405  69.461  1.00  0.00     0.182 A  
HETATM    4  C   UNL     1     -11.145   6.368  68.608  1.00  0.00    -0.311 A  
HETATM    5  N   UNL     1     -11.478   6.503  67.256  1.00  0.00    -0.743 NA 
HETATM    6  C   UNL     1     -10.283   5.365  69.091  1.00  0.00    -0.302 A  
HETATM    7  H2  UNL     1     -11.089   7.376  66.899  1.00  0.00     0.000 HD 
HETATM    8  C   UNL     1      -9.780   4.343  68.253  1.00  0.00    -0.171 A  
HETATM    9  H1  UNL     1     -11.223   5.740  66.629  1.00  0.00     0.000 HD 
HETATM   10  C   UNL     1      -8.940   3.339  68.732  1.00  0.00    -0.186 A  
HETATM   11  C   UNL     1      -8.587   3.321  70.068  1.00  0.00    -0.111 A  
HETATM   12  C   UNL     1      -9.061   4.321  70.922  1.00  0.00    -0.186 A  
HETATM   13  C   UNL     1      -9.889   5.374  70.455  1.00  0.00    -0.205 A  
HETATM   14  N   UNL     1     -10.298   6.407  71.270  1.00  0.00    -0.204 NA 
ENDROOT
BRANCH  14  15
HETATM   15  C   UNL     1      -9.828   6.468  72.682  1.00  0.00    -0.169 C  
BRANCH  15  16
HETATM   16  C   UNL     1      -8.359   6.883  72.743  1.00  0.00    -0.118 C  
BRANCH  16  17
HETATM   17  C   UNL     1      -8.202   8.401  72.752  1.00  0.00    -0.186 C  
BRANCH  17  18
HETATM   18  C   UNL     1      -7.817   8.968  71.383  1.00  0.00    -0.088 C  
BRANCH  18  19
HETATM   19  C   UNL     1      -7.527   7.871  70.364  1.00  0.00    -0.077 C  
BRANCH  19  20
HETATM   20  C   UNL     1      -7.985   8.227  68.947  1.00  0.00    -0.113 C  
BRANCH  20  21
HETATM   21  C   UNL     1      -8.401   9.695  68.781  1.00  0.00    -0.111 C  
BRANCH  21  22
HETATM   22  C   UNL     1      -8.318  10.178  67.330  1.00  0.00    -0.118 C  
BRANCH  22  23
HETATM   23  C   UNL     1      -8.465  11.698  67.191  1.00  0.00    -0.162 C  
BRANCH  23  24
HETATM   24  C   UNL     1      -9.884  12.159  67.522  1.00  0.00    -0.191 C  
BRANCH  24  25
HETATM   25  N   UNL     1     -10.278  13.302  66.660  1.00  0.00    -0.260 NA 
HETATM   26  C   UNL     1      -9.854  14.569  66.960  1.00  0.00    -0.249 A  
HETATM   27  C   UNL     1     -10.168  15.628  66.104  1.00  0.00    -0.327 A  
HETATM   28  C   UNL     1      -8.991  14.938  68.146  1.00  0.00    -0.176 C  
HETATM   29  C   UNL     1     -10.928  15.438  64.961  1.00  0.00    -0.436 A  
HETATM   30  N   UNL     1     -11.069  16.524  64.092  1.00  0.00    -1.320 NA 
HETATM   31  C   UNL     1     -11.306  14.127  64.627  1.00  0.00    -0.374 A  
HETATM   32  H1  UNL     1     -11.628  16.385  63.250  1.00  0.00     0.000 HD 
HETATM   33  C   UNL     1     -11.006  13.056  65.514  1.00  0.00    -0.274 A  
HETATM   34  H2  UNL     1     -10.145  16.868  63.829  1.00  0.00     0.000 HD 
HETATM   35  C   UNL     1     -11.451  11.755  65.167  1.00  0.00    -0.248 A  
HETATM   36  C   UNL     1     -12.122  11.496  63.974  1.00  0.00    -0.079 A  
HETATM   37  C   UNL     1     -12.374  12.532  63.095  1.00  0.00    -0.303 A  
HETATM   38  C   UNL     1     -11.979  13.828  63.420  1.00  0.00    -0.065 A  
ENDBRANCH  24  25
ENDBRANCH  23  24
ENDBRANCH  22  23
ENDBRANCH  21  22
ENDBRANCH  20  21
ENDBRANCH  19  20
ENDBRANCH  18  19
ENDBRANCH  17  18
ENDBRANCH  16  17
ENDBRANCH  15  16
ENDBRANCH  14  15
TORSDOF 11
ENDMDL
MODEL      266
REMARK 921   NORMALIZED FREE ENERGY PREDICTED BY IDOCK:   -5.30 KCAL/MOL
REMARK 922        TOTAL FREE ENERGY PREDICTED BY IDOCK:  -10.06 KCAL/MOL
REMARK 923 INTER-LIGAND FREE ENERGY PREDICTED BY IDOCK:   -7.90 KCAL/MOL
REMARK 924 INTRA-LIGAND FREE ENERGY PREDICTED BY IDOCK:   -2.16 KCAL/MOL
REMARK 927      BINDING AFFINITY PREDICTED BY RF-SCORE:    0.00 PKD
ROOT
HETATM    1  C   UNL     1     -10.601  18.250  65.657  1.00  0.00    -0.107 C  
HETATM    2  C   UNL     1     -10.859  16.781  65.907  1.00  0.00    -0.053 A  
HETATM    3  C   UNL     1     -11.157  15.980  64.812  1.00  0.00    -0.378 A  
HETATM    4  C   UNL     1     -11.392  14.620  64.952  1.00  0.00    -0.403 A  
HETATM    5  N   UNL     1     -11.543  13.865  63.785  1.00  0.00    -0.617 NA 
HETATM    6  C   UNL     1     -11.229  14.042  66.226  1.00  0.00    -0.320 A  
HETATM    7  H2  UNL     1     -10.730  14.006  63.185  1.00  0.00     0.000 HD 
HETATM    8  C   UNL     1     -11.324  12.646  66.432  1.00  0.00    -0.381 A  
HETATM    9  H1  UNL     1     -11.716  12.866  63.888  1.00  0.00     0.000 HD 
HETATM   10  C   UNL     1     -11.179  12.073  67.694  1.00  0.00    -0.343 A  
HETATM   11  C   UNL     1     -10.946  12.881  68.791  1.00  0.00    -0.292 A  
HETATM   12  C   UNL     1     -10.840  14.264  68.621  1.00  0.00    -0.265 A  
HETATM   13  C   UNL     1     -10.947  14.871  67.343  1.00  0.00    -0.314 A  
HETATM   14  N   UNL     1     -10.766  16.224  67.152  1.00  0.00    -0.288 NA 
ENDROOT
BRANCH  14  15
HETATM   15  C   UNL     1     -10.396  17.092  68.304  1.00  0.00    -0.354 C  
BRANCH  15  16
HETATM   16  C   UNL     1      -8.986  16.766  68.793  1.00  0.00    -0.254 C  
BRANCH  16  17
HETATM   17  C   UNL     1      -7.935  17.091  67.735  1.00  0.00    -0.192 C  
BRANCH  17  18
HETATM   18  C   UNL     1      -7.187  15.850  67.237  1.00  0.00    -0.251 C  
BRANCH  18  19
HETATM   19  C   UNL     1      -5.752  15.795  67.752  1.00  0.00    -0.164 C  
BRANCH  19  20
HETATM   20  C   UNL     1      -5.434  14.508  68.516  1.00  0.00    -0.099 C  
BRANCH  20  21
HETATM   21  C   UNL     1      -6.554  13.460  68.459  1.00  0.00    -0.089 C  
BRANCH  21  22
HETATM   22  C   UNL     1      -6.070  12.049  68.809  1.00  0.00    -0.059 C  
BRANCH  22  23
HETATM   23  C   UNL     1      -6.968  11.339  69.829  1.00  0.00    -0.008 C  
BRANCH  23  24
HETATM   24  C   UNL     1      -6.662   9.843  69.902  1.00  0.00    -0.088 C  
BRANCH  24  25
HETATM   25  N   UNL     1      -7.912   9.046  69.812  1.00  0.00    -0.093 NA 
HETATM   26  C   UNL     1      -8.432   8.452  70.931  1.00  0.00    -0.140 A  
HETATM   27  C   UNL     1      -9.647   7.767  70.852  1.00  0.00    -0.173 A  
HETATM   28  C   UNL     1      -7.823   8.522  72.313  1.00  0.00    -0.122 C  
HETATM   29  C   UNL     1     -10.337   7.644  69.657  1.00  0.00    -0.213 A  
HETATM   30  N   UNL     1     -11.610   7.068  69.703  1.00  0.00    -0.559 NA 
HETATM   31  C   UNL     1      -9.830   8.309  68.529  1.00  0.00    -0.188 A  
HETATM   32  H1  UNL     1     -12.119   6.978  68.824  1.00  0.00     0.000 HD 
HETATM   33  C   UNL     1      -8.581   8.985  68.607  1.00  0.00    -0.129 A  
HETATM   34  H2  UNL     1     -12.186   7.577  70.374  1.00  0.00     0.000 HD 
HETATM   35  C   UNL     1      -8.077   9.598  67.431  1.00  0.00    -0.110 A  
HETATM   36  C   UNL     1      -8.788   9.598  66.233  1.00  0.00    -0.172 A  
HETATM   37  C   UNL     1     -10.021   8.977  66.173  1.00  0.00    -0.311 A  
HETATM   38  C   UNL     1     -10.530   8.337  67.301  1.00  0.00    -0.373 A  
ENDBRANCH  24  25
ENDBRANCH  23  24
ENDBRANCH  22  23
ENDBRANCH  21  22
ENDBRANCH  20  21
ENDBRANCH  19  20
ENDBRANCH  18  19
ENDBRANCH  17  18
ENDBRANCH  16  17
ENDBRANCH  15  16
ENDBRANCH  14  15
TORSDOF 11
ENDMDL
MODEL      267
REMARK 921   NORMALIZED FREE ENERGY PREDICTED BY IDOCK:   -5.29 KCAL/MOL
REMARK 922        TOTAL FREE ENERGY PREDICTED BY IDOCK:  -10.04 KCAL/MOL
REMARK 923 INTER-LIGAND FREE ENERGY PREDICTED BY IDOCK:   -8.67 KCAL/MOL
REMARK 924 INTRA-LIGAND FREE ENERGY PREDICTED BY IDOCK:   -1.37 KCAL/MOL
REMARK 927      BINDING AFFINITY PREDICTED BY RF-SCORE:    0.00 PKD
ROOT
HETATM    1  C   UNL     1     -11.628  11.883  67.679  1.00  0.00    -0.382 C  
HETATM    2  C   UNL     1     -12.079  12.434  69.013  1.00  0.00    -0.136 A  
HETATM    3  C   UNL     1     -12.500  11.529  69.979  1.00  0.00    -0.192 A  
HETATM    4  C   UNL     1     -12.915  11.950  71.234  1.00  0.00    -0.236 A  
HETATM    5  N   UNL     1     -13.186  10.965  72.190  1.00  0.00    -0.586 NA 
HETATM    6  C   UNL     1     -12.812  13.318  71.548  1.00  0.00    -0.419 A  
HETATM    7  H2  UNL     1     -12.370  10.360  72.291  1.00  0.00     0.000 HD 
HETATM    8  C   UNL     1     -13.092  13.813  72.843  1.00  0.00    -0.308 A  
HETATM    9  H1  UNL     1     -13.491  11.275  73.112  1.00  0.00     0.000 HD 
HETATM   10  C   UNL     1     -13.007  15.169  73.151  1.00  0.00    -0.627 A  
HETATM   11  C   UNL     1     -12.650  16.074  72.170  1.00  0.00    -0.489 A  
HETATM   12  C   UNL     1     -12.359  15.618  70.881  1.00  0.00    -0.479 A  
HETATM   13  C   UNL     1     -12.404  14.240  70.548  1.00  0.00    -0.360 A  
HETATM   14  N   UNL     1     -12.044  13.770  69.303  1.00  0.00    -0.343 NA 
ENDROOT
BRANCH  14  15
HETATM   15  C   UNL     1     -11.541  14.718  68.270  1.00  0.00    -0.323 C  
BRANCH  15  16
HETATM   16  C   UNL     1     -10.078  15.072  68.530  1.00  0.00    -0.225 C  
BRANCH  16  17
HETATM   17  C   UNL     1      -9.245  14.996  67.254  1.00  0.00    -0.210 C  
BRANCH  17  18
HETATM   18  C   UNL     1      -7.905  14.282  67.459  1.00  0.00    -0.209 C  
BRANCH  18  19
HETATM   19  C   UNL     1      -8.024  12.771  67.289  1.00  0.00    -0.156 C  
BRANCH  19  20
HETATM   20  C   UNL     1      -7.250  11.982  68.348  1.00  0.00    -0.092 C  
BRANCH  20  21
HETATM   21  C   UNL     1      -8.143  11.327  69.410  1.00  0.00     0.223 C  
BRANCH  21  22
HETATM   22  C   UNL     1      -8.615   9.926  69.012  1.00  0.00    -0.149 C  
BRANCH  22  23
HETATM   23  C   UNL     1      -9.280   9.162  70.163  1.00  0.00    -0.231 C  
BRANCH  23  24
HETATM   24  C   UNL     1     -10.515   8.395  69.691  1.00  0.00    -0.221 C  
BRANCH  24  25
HETATM   25  N   UNL     1     -10.420   6.963  70.073  1.00  0.00    -0.201 NA 
HETATM   26  C   UNL     1     -10.444   5.990  69.110  1.00  0.00    -0.257 A  
HETATM   27  C   UNL     1     -10.281   4.650  69.472  1.00  0.00    -0.097 A  
HETATM   28  C   UNL     1     -10.576   6.242  67.625  1.00  0.00    -0.339 C  
HETATM   29  C   UNL     1     -10.121   4.268  70.794  1.00  0.00    -0.084 A  
HETATM   30  N   UNL     1      -9.820   2.926  71.046  1.00  0.00    -0.083 NA 
HETATM   31  C   UNL     1     -10.034   5.276  71.768  1.00  0.00    -0.245 A  
HETATM   32  H1  UNL     1      -9.702   2.645  72.019  1.00  0.00     0.000 HD 
HETATM   33  C   UNL     1     -10.225   6.636  71.399  1.00  0.00    -0.199 A  
HETATM   34  H2  UNL     1      -8.990   2.661  70.515  1.00  0.00     0.000 HD 
HETATM   35  C   UNL     1     -10.183   7.619  72.421  1.00  0.00    -0.282 A  
HETATM   36  C   UNL     1      -9.914   7.296  73.749  1.00  0.00    -0.368 A  
HETATM   37  C   UNL     1      -9.686   5.978  74.097  1.00  0.00    -0.205 A  
HETATM   38  C   UNL     1      -9.752   4.983  73.123  1.00  0.00    -0.167 A  
ENDBRANCH  24  25
ENDBRANCH  23  24
ENDBRANCH  22  23
ENDBRANCH  21  22
ENDBRANCH  20  21
ENDBRANCH  19  20
ENDBRANCH  18  19
ENDBRANCH  17  18
ENDBRANCH  16  17
ENDBRANCH  15  16
ENDBRANCH  14  15
TORSDOF 11
ENDMDL
MODEL      268
REMARK 921   NORMALIZED FREE ENERGY PREDICTED BY IDOCK:   -5.29 KCAL/MOL
REMARK 922        TOTAL FREE ENERGY PREDICTED BY IDOCK:  -10.04 KCAL/MOL
REMARK 923 INTER-LIGAND FREE ENERGY PREDICTED BY IDOCK:   -8.98 KCAL/MOL
REMARK 924 INTRA-LIGAND FREE ENERGY PREDICTED BY IDOCK:   -1.06 KCAL/MOL
REMARK 927      BINDING AFFINITY PREDICTED BY RF-SCORE:    0.00 PKD
ROOT
HETATM    1  C   UNL     1     -10.119   4.469  71.195  1.00  0.00    -0.218 C  
HETATM    2  C   UNL     1      -9.983   5.382  69.997  1.00  0.00    -0.233 A  
HETATM    3  C   UNL     1      -9.690   4.801  68.769  1.00  0.00    -0.235 A  
HETATM    4  C   UNL     1      -9.563   5.565  67.619  1.00  0.00    -0.123 A  
HETATM    5  N   UNL     1      -9.408   4.886  66.405  1.00  0.00    -0.136 NA 
HETATM    6  C   UNL     1      -9.833   6.944  67.699  1.00  0.00    -0.164 A  
HETATM    7  H2  UNL     1     -10.177   4.226  66.288  1.00  0.00     0.000 HD 
HETATM    8  C   UNL     1      -9.851   7.771  66.552  1.00  0.00    -0.255 A  
HETATM    9  H1  UNL     1      -9.315   5.448  65.560  1.00  0.00     0.000 HD 
HETATM   10  C   UNL     1     -10.102   9.140  66.632  1.00  0.00    -0.343 A  
HETATM   11  C   UNL     1     -10.330   9.725  67.863  1.00  0.00    -0.258 A  
HETATM   12  C   UNL     1     -10.326   8.935  69.015  1.00  0.00    -0.226 A  
HETATM   13  C   UNL     1     -10.109   7.534  68.961  1.00  0.00    -0.192 A  
HETATM   14  N   UNL     1     -10.180   6.733  70.080  1.00  0.00    -0.192 NA 
ENDROOT
BRANCH  14  15
HETATM   15  C   UNL     1     -10.543   7.328  71.396  1.00  0.00    -0.211 C  
BRANCH  15  16
HETATM   16  C   UNL     1     -12.035   7.653  71.446  1.00  0.00    -0.336 C  
BRANCH  16  17
HETATM   17  C   UNL     1     -12.312   8.899  72.283  1.00  0.00    -0.430 C  
BRANCH  17  18
HETATM   18  C   UNL     1     -11.692  10.166  71.687  1.00  0.00    -0.144 C  
BRANCH  18  19
HETATM   19  C   UNL     1     -12.729  11.049  71.001  1.00  0.00    -0.485 C  
BRANCH  19  20
HETATM   20  C   UNL     1     -12.653  12.516  71.432  1.00  0.00    -0.297 C  
BRANCH  20  21
HETATM   21  C   UNL     1     -12.702  13.509  70.263  1.00  0.00    -0.118 C  
BRANCH  21  22
HETATM   22  C   UNL     1     -12.483  14.960  70.702  1.00  0.00    -0.411 C  
BRANCH  22  23
HETATM   23  C   UNL     1     -11.153  15.545  70.214  1.00  0.00    -0.345 C  
BRANCH  23  24
HETATM   24  C   UNL     1     -11.060  15.535  68.688  1.00  0.00    -0.297 C  
BRANCH  24  25
HETATM   25  N   UNL     1      -9.676  15.844  68.246  1.00  0.00    -0.207 NA 
HETATM   26  C   UNL     1      -8.814  14.830  67.924  1.00  0.00    -0.167 A  
HETATM   27  C   UNL     1      -7.538  15.131  67.439  1.00  0.00    -0.232 A  
HETATM   28  C   UNL     1      -9.144  13.356  67.988  1.00  0.00    -0.205 C  
HETATM   29  C   UNL     1      -7.103  16.439  67.298  1.00  0.00    -0.181 A  
HETATM   30  N   UNL     1      -5.871  16.646  66.672  1.00  0.00    -0.328 NA 
HETATM   31  C   UNL     1      -8.015  17.473  67.571  1.00  0.00    -0.210 A  
HETATM   32  H1  UNL     1      -5.551  17.608  66.567  1.00  0.00     0.000 HD 
HETATM   33  C   UNL     1      -9.303  17.163  68.087  1.00  0.00    -0.264 A  
HETATM   34  H2  UNL     1      -5.877  16.192  65.758  1.00  0.00     0.000 HD 
HETATM   35  C   UNL     1     -10.175  18.237  68.400  1.00  0.00    -0.402 A  
HETATM   36  C   UNL     1      -9.825  19.566  68.171  1.00  0.00    -0.506 A  
HETATM   37  C   UNL     1      -8.588  19.860  67.628  1.00  0.00    -0.385 A  
HETATM   38  C   UNL     1      -7.695  18.830  67.340  1.00  0.00    -0.240 A  
ENDBRANCH  24  25
ENDBRANCH  23  24
ENDBRANCH  22  23
ENDBRANCH  21  22
ENDBRANCH  20  21
ENDBRANCH  19  20
ENDBRANCH  18  19
ENDBRANCH  17  18
ENDBRANCH  16  17
ENDBRANCH  15  16
ENDBRANCH  14  15
TORSDOF 11
ENDMDL
MODEL      269
REMARK 921   NORMALIZED FREE ENERGY PREDICTED BY IDOCK:   -5.29 KCAL/MOL
REMARK 922        TOTAL FREE ENERGY PREDICTED BY IDOCK:  -10.04 KCAL/MOL
REMARK 923 INTER-LIGAND FREE ENERGY PREDICTED BY IDOCK:   -8.48 KCAL/MOL
REMARK 924 INTRA-LIGAND FREE ENERGY PREDICTED BY IDOCK:   -1.56 KCAL/MOL
REMARK 927      BINDING AFFINITY PREDICTED BY RF-SCORE:    0.00 PKD
ROOT
HETATM    1  C   UNL     1     -13.870  13.563  72.151  1.00  0.00    -0.628 C  
HETATM    2  C   UNL     1     -13.109  12.463  71.446  1.00  0.00    -0.204 A  
HETATM    3  C   UNL     1     -13.025  11.228  72.075  1.00  0.00    -0.379 A  
HETATM    4  C   UNL     1     -12.358  10.161  71.490  1.00  0.00    -0.408 A  
HETATM    5  N   UNL     1     -12.444   8.918  72.124  1.00  0.00    -0.380 NA 
HETATM    6  C   UNL     1     -11.843  10.327  70.190  1.00  0.00    -0.343 A  
HETATM    7  H2  UNL     1     -13.426   8.672  72.252  1.00  0.00     0.000 HD 
HETATM    8  C   UNL     1     -11.263   9.256  69.472  1.00  0.00    -0.017 A  
HETATM    9  H1  UNL     1     -11.954   8.134  71.694  1.00  0.00     0.000 HD 
HETATM   10  C   UNL     1     -10.738   9.422  68.192  1.00  0.00    -0.230 A  
HETATM   11  C   UNL     1     -10.766  10.668  67.595  1.00  0.00    -0.315 A  
HETATM   12  C   UNL     1     -11.338  11.747  68.275  1.00  0.00    -0.343 A  
HETATM   13  C   UNL     1     -11.913  11.600  69.564  1.00  0.00    -0.317 A  
HETATM   14  N   UNL     1     -12.549  12.637  70.210  1.00  0.00    -0.053 NA 
ENDROOT
BRANCH  14  15
HETATM   15  C   UNL     1     -12.695  13.955  69.532  1.00  0.00     0.294 C  
BRANCH  15  16
HETATM   16  C   UNL     1     -11.593  14.915  69.978  1.00  0.00    -0.331 C  
BRANCH  16  17
HETATM   17  C   UNL     1     -11.120  15.801  68.829  1.00  0.00    -0.321 C  
BRANCH  17  18
HETATM   18  C   UNL     1     -10.884  17.253  69.254  1.00  0.00     0.075 C  
BRANCH  18  19
HETATM   19  C   UNL     1     -10.561  18.157  68.069  1.00  0.00    -0.359 C  
BRANCH  19  20
HETATM   20  C   UNL     1     -10.007  19.522  68.484  1.00  0.00    -0.538 C  
BRANCH  20  21
HETATM   21  C   UNL     1      -8.724  19.922  67.745  1.00  0.00    -0.377 C  
BRANCH  21  22
HETATM   22  C   UNL     1      -7.474  19.833  68.626  1.00  0.00    -0.329 C  
BRANCH  22  23
HETATM   23  C   UNL     1      -6.989  18.395  68.843  1.00  0.00    -0.297 C  
BRANCH  23  24
HETATM   24  C   UNL     1      -6.813  17.654  67.517  1.00  0.00    -0.171 C  
BRANCH  24  25
HETATM   25  N   UNL     1      -7.019  16.195  67.700  1.00  0.00    -0.137 NA 
HETATM   26  C   UNL     1      -6.249  15.498  68.593  1.00  0.00    -0.096 A  
HETATM   27  C   UNL     1      -6.498  14.141  68.813  1.00  0.00    -0.091 A  
HETATM   28  C   UNL     1      -5.150  16.094  69.442  1.00  0.00    -0.111 C  
HETATM   29  C   UNL     1      -7.495  13.463  68.127  1.00  0.00    -0.133 A  
HETATM   30  N   UNL     1      -7.766  12.148  68.517  1.00  0.00    -0.128 NA 
HETATM   31  C   UNL     1      -8.320  14.200  67.262  1.00  0.00    -0.212 A  
HETATM   32  H1  UNL     1      -8.499  11.650  68.013  1.00  0.00     0.000 HD 
HETATM   33  C   UNL     1      -8.047  15.574  67.022  1.00  0.00    -0.237 A  
HETATM   34  H2  UNL     1      -7.970  12.128  69.516  1.00  0.00     0.000 HD 
HETATM   35  C   UNL     1      -8.871  16.269  66.099  1.00  0.00    -0.362 A  
HETATM   36  C   UNL     1      -9.954  15.660  65.470  1.00  0.00    -0.364 A  
HETATM   37  C   UNL     1     -10.242  14.335  65.738  1.00  0.00    -0.351 A  
HETATM   38  C   UNL     1      -9.433  13.615  66.615  1.00  0.00    -0.285 A  
ENDBRANCH  24  25
ENDBRANCH  23  24
ENDBRANCH  22  23
ENDBRANCH  21  22
ENDBRANCH  20  21
ENDBRANCH  19  20
ENDBRANCH  18  19
ENDBRANCH  17  18
ENDBRANCH  16  17
ENDBRANCH  15  16
ENDBRANCH  14  15
TORSDOF 11
ENDMDL
MODEL      270
REMARK 921   NORMALIZED FREE ENERGY PREDICTED BY IDOCK:   -5.28 KCAL/MOL
REMARK 922        TOTAL FREE ENERGY PREDICTED BY IDOCK:  -10.03 KCAL/MOL
REMARK 923 INTER-LIGAND FREE ENERGY PREDICTED BY IDOCK:   -8.74 KCAL/MOL
REMARK 924 INTRA-LIGAND FREE ENERGY PREDICTED BY IDOCK:   -1.29 KCAL/MOL
REMARK 927      BINDING AFFINITY PREDICTED BY RF-SCORE:    0.00 PKD
ROOT
HETATM    1  C   UNL     1     -10.974  16.783  70.281  1.00  0.00     0.079 C  
HETATM    2  C   UNL     1     -10.970  16.321  68.842  1.00  0.00    -0.334 A  
HETATM    3  C   UNL     1     -10.133  16.982  67.951  1.00  0.00    -0.306 A  
HETATM    4  C   UNL     1     -10.059  16.612  66.617  1.00  0.00    -0.301 A  
HETATM    5  N   UNL     1      -9.088  17.235  65.825  1.00  0.00    -0.510 NA 
HETATM    6  C   UNL     1     -10.783  15.481  66.196  1.00  0.00    -0.315 A  
HETATM    7  H2  UNL     1      -8.173  17.117  66.259  1.00  0.00     0.000 HD 
HETATM    8  C   UNL     1     -10.664  14.960  64.886  1.00  0.00    -0.426 A  
HETATM    9  H1  UNL     1      -9.034  16.963  64.844  1.00  0.00     0.000 HD 
HETATM   10  C   UNL     1     -11.393  13.850  64.462  1.00  0.00    -0.381 A  
HETATM   11  C   UNL     1     -12.273  13.234  65.332  1.00  0.00    -0.501 A  
HETATM   12  C   UNL     1     -12.409  13.720  66.636  1.00  0.00    -0.403 A  
HETATM   13  C   UNL     1     -11.654  14.825  67.105  1.00  0.00    -0.359 A  
HETATM   14  N   UNL     1     -11.722  15.263  68.410  1.00  0.00    -0.343 NA 
ENDROOT
BRANCH  14  15
HETATM   15  C   UNL     1     -12.574  14.537  69.393  1.00  0.00     0.059 C  
BRANCH  15  16
HETATM   16  C   UNL     1     -11.738  13.549  70.204  1.00  0.00    -0.280 C  
BRANCH  16  17
HETATM   17  C   UNL     1     -11.973  12.110  69.754  1.00  0.00    -0.372 C  
BRANCH  17  18
HETATM   18  C   UNL     1     -10.761  11.504  69.040  1.00  0.00    -0.233 C  
BRANCH  18  19
HETATM   19  C   UNL     1     -10.542  10.041  69.414  1.00  0.00    -0.256 C  
BRANCH  19  20
HETATM   20  C   UNL     1     -11.420   9.578  70.579  1.00  0.00    -0.337 C  
BRANCH  20  21
HETATM   21  C   UNL     1     -10.627   9.058  71.785  1.00  0.00    -0.426 C  
BRANCH  21  22
HETATM   22  C   UNL     1     -11.476   8.214  72.740  1.00  0.00    -0.397 C  
BRANCH  22  23
HETATM   23  C   UNL     1     -10.864   6.840  73.039  1.00  0.00    -0.314 C  
BRANCH  23  24
HETATM   24  C   UNL     1     -11.584   5.726  72.279  1.00  0.00    -0.241 C  
BRANCH  24  25
HETATM   25  N   UNL     1     -10.605   4.827  71.617  1.00  0.00    -0.088 NA 
HETATM   26  C   UNL     1     -10.238   5.047  70.316  1.00  0.00    -0.258 A  
HETATM   27  C   UNL     1      -9.263   4.242  69.723  1.00  0.00    -0.207 A  
HETATM   28  C   UNL     1     -10.765   6.164  69.443  1.00  0.00    -0.385 C  
HETATM   29  C   UNL     1      -8.667   3.195  70.410  1.00  0.00    -0.069 A  
HETATM   30  N   UNL     1      -7.602   2.538  69.788  1.00  0.00    -0.043 NA 
HETATM   31  C   UNL     1      -9.003   3.016  71.762  1.00  0.00    -0.142 A  
HETATM   32  H1  UNL     1      -7.163   1.768  70.293  1.00  0.00     0.000 HD 
HETATM   33  C   UNL     1     -10.014   3.822  72.354  1.00  0.00    -0.164 A  
HETATM   34  H2  UNL     1      -6.889   3.221  69.529  1.00  0.00     0.000 HD 
HETATM   35  C   UNL     1     -10.362   3.573  73.707  1.00  0.00    -0.236 A  
HETATM   36  C   UNL     1      -9.713   2.606  74.472  1.00  0.00    -0.134 A  
HETATM   37  C   UNL     1      -8.702   1.854  73.906  1.00  0.00    -0.061 A  
HETATM   38  C   UNL     1      -8.358   2.051  72.570  1.00  0.00    -0.054 A  
ENDBRANCH  24  25
ENDBRANCH  23  24
ENDBRANCH  22  23
ENDBRANCH  21  22
ENDBRANCH  20  21
ENDBRANCH  19  20
ENDBRANCH  18  19
ENDBRANCH  17  18
ENDBRANCH  16  17
ENDBRANCH  15  16
ENDBRANCH  14  15
TORSDOF 11
ENDMDL
MODEL      271
REMARK 921   NORMALIZED FREE ENERGY PREDICTED BY IDOCK:   -5.26 KCAL/MOL
REMARK 922        TOTAL FREE ENERGY PREDICTED BY IDOCK:   -9.99 KCAL/MOL
REMARK 923 INTER-LIGAND FREE ENERGY PREDICTED BY IDOCK:   -7.66 KCAL/MOL
REMARK 924 INTRA-LIGAND FREE ENERGY PREDICTED BY IDOCK:   -2.33 KCAL/MOL
REMARK 927      BINDING AFFINITY PREDICTED BY RF-SCORE:    0.00 PKD
ROOT
HETATM    1  C   UNL     1      -8.797  12.569  67.345  1.00  0.00    -0.187 C  
HETATM    2  C   UNL     1      -9.861  12.419  68.408  1.00  0.00    -0.198 A  
HETATM    3  C   UNL     1     -10.755  13.468  68.584  1.00  0.00    -0.271 A  
HETATM    4  C   UNL     1     -11.770  13.404  69.527  1.00  0.00    -0.324 A  
HETATM    5  N   UNL     1     -12.708  14.442  69.539  1.00  0.00    -0.492 NA 
HETATM    6  C   UNL     1     -11.940  12.206  70.246  1.00  0.00    -0.389 A  
HETATM    7  H2  UNL     1     -13.118  14.536  68.609  1.00  0.00     0.000 HD 
HETATM    8  C   UNL     1     -13.025  12.012  71.132  1.00  0.00    -0.252 A  
HETATM    9  H1  UNL     1     -13.454  14.394  70.232  1.00  0.00     0.000 HD 
HETATM   10  C   UNL     1     -13.186  10.833  71.858  1.00  0.00    -0.524 A  
HETATM   11  C   UNL     1     -12.259   9.816  71.728  1.00  0.00    -0.449 A  
HETATM   12  C   UNL     1     -11.178   9.973  70.855  1.00  0.00    -0.415 A  
HETATM   13  C   UNL     1     -11.009  11.148  70.078  1.00  0.00    -0.006 A  
HETATM   14  N   UNL     1      -9.992  11.282  69.158  1.00  0.00    -0.103 NA 
ENDROOT
BRANCH  14  15
HETATM   15  C   UNL     1      -9.055  10.149  68.918  1.00  0.00    -0.165 C  
BRANCH  15  16
HETATM   16  C   UNL     1      -9.780   8.983  68.250  1.00  0.00    -0.169 C  
BRANCH  16  17
HETATM   17  C   UNL     1     -10.446   9.407  66.944  1.00  0.00    -0.281 C  
BRANCH  17  18
HETATM   18  C   UNL     1      -9.621   9.038  65.707  1.00  0.00    -0.287 C  
BRANCH  18  19
HETATM   19  C   UNL     1      -8.120   9.126  65.967  1.00  0.00    -0.110 C  
BRANCH  19  20
HETATM   20  C   UNL     1      -7.316   8.056  65.225  1.00  0.00    -0.070 C  
BRANCH  20  21
HETATM   21  C   UNL     1      -6.379   7.245  66.130  1.00  0.00    -0.041 C  
BRANCH  21  22
HETATM   22  C   UNL     1      -7.131   6.388  67.153  1.00  0.00    -0.073 C  
BRANCH  22  23
HETATM   23  C   UNL     1      -6.962   6.882  68.595  1.00  0.00    -0.076 C  
BRANCH  23  24
HETATM   24  C   UNL     1      -7.191   5.757  69.605  1.00  0.00    -0.069 C  
BRANCH  24  25
HETATM   25  N   UNL     1      -8.448   5.982  70.363  1.00  0.00    -0.130 NA 
HETATM   26  C   UNL     1      -9.608   5.369  69.970  1.00  0.00    -0.169 A  
HETATM   27  C   UNL     1     -10.769   5.527  70.731  1.00  0.00    -0.294 A  
HETATM   28  C   UNL     1      -9.743   4.451  68.777  1.00  0.00    -0.200 C  
HETATM   29  C   UNL     1     -10.791   6.317  71.870  1.00  0.00    -0.242 A  
HETATM   30  N   UNL     1     -11.954   6.300  72.645  1.00  0.00    -0.518 NA 
HETATM   31  C   UNL     1      -9.583   6.890  72.300  1.00  0.00    -0.159 A  
HETATM   32  H1  UNL     1     -11.971   6.881  73.483  1.00  0.00     0.000 HD 
HETATM   33  C   UNL     1      -8.410   6.748  71.510  1.00  0.00    -0.115 A  
HETATM   34  H2  UNL     1     -12.177   5.337  72.898  1.00  0.00     0.000 HD 
HETATM   35  C   UNL     1      -7.223   7.387  71.952  1.00  0.00    -0.067 A  
HETATM   36  C   UNL     1      -7.167   8.099  73.148  1.00  0.00    -0.157 A  
HETATM   37  C   UNL     1      -8.299   8.199  73.935  1.00  0.00    -0.311 A  
HETATM   38  C   UNL     1      -9.490   7.611  73.514  1.00  0.00    -0.347 A  
ENDBRANCH  24  25
ENDBRANCH  23  24
ENDBRANCH  22  23
ENDBRANCH  21  22
ENDBRANCH  20  21
ENDBRANCH  19  20
ENDBRANCH  18  19
ENDBRANCH  17  18
ENDBRANCH  16  17
ENDBRANCH  15  16
ENDBRANCH  14  15
TORSDOF 11
ENDMDL
MODEL      272
REMARK 921   NORMALIZED FREE ENERGY PREDICTED BY IDOCK:   -5.25 KCAL/MOL
REMARK 922        TOTAL FREE ENERGY PREDICTED BY IDOCK:   -9.99 KCAL/MOL
REMARK 923 INTER-LIGAND FREE ENERGY PREDICTED BY IDOCK:   -9.55 KCAL/MOL
REMARK 924 INTRA-LIGAND FREE ENERGY PREDICTED BY IDOCK:   -0.43 KCAL/MOL
REMARK 927      BINDING AFFINITY PREDICTED BY RF-SCORE:    0.00 PKD
ROOT
HETATM    1  C   UNL     1      -5.877   8.436  72.680  1.00  0.00    -0.067 C  
HETATM    2  C   UNL     1      -6.561   7.132  72.333  1.00  0.00    -0.056 A  
HETATM    3  C   UNL     1      -6.054   5.966  72.891  1.00  0.00    -0.048 A  
HETATM    4  C   UNL     1      -6.631   4.731  72.636  1.00  0.00    -0.051 A  
HETATM    5  N   UNL     1      -6.146   3.630  73.349  1.00  0.00    -0.011 NA 
HETATM    6  C   UNL     1      -7.810   4.690  71.867  1.00  0.00    -0.098 A  
HETATM    7  H2  UNL     1      -6.200   3.826  74.349  1.00  0.00     0.000 HD 
HETATM    8  C   UNL     1      -8.532   3.490  71.667  1.00  0.00    -0.095 A  
HETATM    9  H1  UNL     1      -6.571   2.722  73.161  1.00  0.00     0.000 HD 
HETATM   10  C   UNL     1      -9.690   3.445  70.893  1.00  0.00    -0.200 A  
HETATM   11  C   UNL     1     -10.156   4.597  70.286  1.00  0.00    -0.276 A  
HETATM   12  C   UNL     1      -9.469   5.800  70.470  1.00  0.00    -0.201 A  
HETATM   13  C   UNL     1      -8.308   5.883  71.281  1.00  0.00    -0.124 A  
HETATM   14  N   UNL     1      -7.669   7.078  71.533  1.00  0.00    -0.090 NA 
ENDROOT
BRANCH  14  15
HETATM   15  C   UNL     1      -8.226   8.347  70.986  1.00  0.00    -0.128 C  
BRANCH  15  16
HETATM   16  C   UNL     1      -9.339   8.878  71.887  1.00  0.00    -0.275 C  
BRANCH  16  17
HETATM   17  C   UNL     1     -10.387   9.651  71.090  1.00  0.00    -0.236 C  
BRANCH  17  18
HETATM   18  C   UNL     1     -11.818   9.369  71.558  1.00  0.00    -0.456 C  
BRANCH  18  19
HETATM   19  C   UNL     1     -12.782  10.488  71.176  1.00  0.00    -0.518 C  
BRANCH  19  20
HETATM   20  C   UNL     1     -12.084  11.699  70.553  1.00  0.00    -0.458 C  
BRANCH  20  21
HETATM   21  C   UNL     1     -11.715  11.511  69.076  1.00  0.00    -0.400 C  
BRANCH  21  22
HETATM   22  C   UNL     1     -10.986  12.720  68.483  1.00  0.00    -0.288 C  
BRANCH  22  23
HETATM   23  C   UNL     1      -9.459  12.596  68.548  1.00  0.00    -0.094 C  
BRANCH  23  24
HETATM   24  C   UNL     1      -8.817  12.827  67.179  1.00  0.00    -0.202 C  
BRANCH  24  25
HETATM   25  N   UNL     1      -9.590  13.829  66.401  1.00  0.00    -0.284 NA 
HETATM   26  C   UNL     1      -9.363  15.167  66.584  1.00  0.00    -0.267 A  
HETATM   27  C   UNL     1     -10.042  16.100  65.797  1.00  0.00    -0.390 A  
HETATM   28  C   UNL     1      -8.363  15.753  67.555  1.00  0.00    -0.183 C  
HETATM   29  C   UNL     1     -10.969  15.711  64.843  1.00  0.00    -0.431 A  
HETATM   30  N   UNL     1     -11.489  16.702  64.006  1.00  0.00    -1.551 NA 
HETATM   31  C   UNL     1     -11.149  14.336  64.618  1.00  0.00    -0.371 A  
HETATM   32  H1  UNL     1     -12.171  16.416  63.304  1.00  0.00     0.000 HD 
HETATM   33  C   UNL     1     -10.475  13.390  65.439  1.00  0.00    -0.302 A  
HETATM   34  H2  UNL     1     -10.721  17.194  63.548  1.00  0.00     0.000 HD 
HETATM   35  C   UNL     1     -10.725  12.012  65.215  1.00  0.00    -0.331 A  
HETATM   36  C   UNL     1     -11.563  11.568  64.194  1.00  0.00    -0.251 A  
HETATM   37  C   UNL     1     -12.183  12.489  63.372  1.00  0.00    -0.613 A  
HETATM   38  C   UNL     1     -11.984  13.852  63.585  1.00  0.00    -0.207 A  
ENDBRANCH  24  25
ENDBRANCH  23  24
ENDBRANCH  22  23
ENDBRANCH  21  22
ENDBRANCH  20  21
ENDBRANCH  19  20
ENDBRANCH  18  19
ENDBRANCH  17  18
ENDBRANCH  16  17
ENDBRANCH  15  16
ENDBRANCH  14  15
TORSDOF 11
ENDMDL
MODEL      273
REMARK 921   NORMALIZED FREE ENERGY PREDICTED BY IDOCK:   -5.24 KCAL/MOL
REMARK 922        TOTAL FREE ENERGY PREDICTED BY IDOCK:   -9.96 KCAL/MOL
REMARK 923 INTER-LIGAND FREE ENERGY PREDICTED BY IDOCK:   -8.82 KCAL/MOL
REMARK 924 INTRA-LIGAND FREE ENERGY PREDICTED BY IDOCK:   -1.14 KCAL/MOL
REMARK 927      BINDING AFFINITY PREDICTED BY RF-SCORE:    0.00 PKD
ROOT
HETATM    1  C   UNL     1      -7.833   6.926  65.534  1.00  0.00    -0.112 C  
HETATM    2  C   UNL     1      -8.286   5.951  66.597  1.00  0.00    -0.110 A  
HETATM    3  C   UNL     1      -8.066   4.598  66.373  1.00  0.00    -0.103 A  
HETATM    4  C   UNL     1      -8.438   3.640  67.304  1.00  0.00    -0.100 A  
HETATM    5  N   UNL     1      -8.052   2.318  67.061  1.00  0.00    -0.071 NA 
HETATM    6  C   UNL     1      -8.963   4.074  68.536  1.00  0.00    -0.162 A  
HETATM    7  H2  UNL     1      -7.041   2.281  66.926  1.00  0.00     0.000 HD 
HETATM    8  C   UNL     1      -9.248   3.172  69.587  1.00  0.00    -0.221 A  
HETATM    9  H1  UNL     1      -8.325   1.613  67.746  1.00  0.00     0.000 HD 
HETATM   10  C   UNL     1      -9.783   3.598  70.802  1.00  0.00    -0.222 A  
HETATM   11  C   UNL     1     -10.060   4.937  70.998  1.00  0.00    -0.288 A  
HETATM   12  C   UNL     1      -9.783   5.856  69.981  1.00  0.00    -0.209 A  
HETATM   13  C   UNL     1      -9.206   5.456  68.748  1.00  0.00    -0.124 A  
HETATM   14  N   UNL     1      -8.857   6.362  67.770  1.00  0.00    -0.114 NA 
ENDROOT
BRANCH  14  15
HETATM   15  C   UNL     1      -9.037   7.821  68.012  1.00  0.00    -0.128 C  
BRANCH  15  16
HETATM   16  C   UNL     1     -10.387   8.293  67.474  1.00  0.00    -0.333 C  
BRANCH  16  17
HETATM   17  C   UNL     1     -10.774   9.655  68.044  1.00  0.00    -0.284 C  
BRANCH  17  18
HETATM   18  C   UNL     1     -10.037  10.815  67.367  1.00  0.00    -0.227 C  
BRANCH  18  19
HETATM   19  C   UNL     1     -10.852  11.436  66.237  1.00  0.00    -0.318 C  
BRANCH  19  20
HETATM   20  C   UNL     1     -11.870  12.469  66.724  1.00  0.00    -0.416 C  
BRANCH  20  21
HETATM   21  C   UNL     1     -12.182  13.565  65.696  1.00  0.00    -0.500 C  
BRANCH  21  22
HETATM   22  C   UNL     1     -10.949  14.009  64.904  1.00  0.00    -0.398 C  
BRANCH  22  23
HETATM   23  C   UNL     1     -10.420  15.384  65.329  1.00  0.00    -0.440 C  
BRANCH  23  24
HETATM   24  C   UNL     1     -10.911  15.768  66.725  1.00  0.00    -0.254 C  
BRANCH  24  25
HETATM   25  N   UNL     1      -9.822  16.411  67.505  1.00  0.00    -0.236 NA 
HETATM   26  C   UNL     1      -8.937  15.643  68.212  1.00  0.00    -0.181 A  
HETATM   27  C   UNL     1      -7.872  16.251  68.883  1.00  0.00    -0.224 A  
HETATM   28  C   UNL     1      -8.966  14.133  68.290  1.00  0.00    -0.188 C  
HETATM   29  C   UNL     1      -7.699  17.626  68.878  1.00  0.00    -0.205 A  
HETATM   30  N   UNL     1      -6.529  18.131  69.453  1.00  0.00    -0.256 NA 
HETATM   31  C   UNL     1      -8.574  18.400  68.098  1.00  0.00    -0.301 A  
HETATM   32  H1  UNL     1      -6.401  19.142  69.449  1.00  0.00     0.000 HD 
HETATM   33  C   UNL     1      -9.670  17.780  67.438  1.00  0.00    -0.284 A  
HETATM   34  H2  UNL     1      -5.720  17.687  69.017  1.00  0.00     0.000 HD 
HETATM   35  C   UNL     1     -10.563  18.604  66.705  1.00  0.00    -0.410 A  
HETATM   36  C   UNL     1     -10.366  19.978  66.577  1.00  0.00    -0.572 A  
HETATM   37  C   UNL     1      -9.276  20.570  67.186  1.00  0.00    -0.485 A  
HETATM   38  C   UNL     1      -8.398  19.794  67.940  1.00  0.00    -0.342 A  
ENDBRANCH  24  25
ENDBRANCH  23  24
ENDBRANCH  22  23
ENDBRANCH  21  22
ENDBRANCH  20  21
ENDBRANCH  19  20
ENDBRANCH  18  19
ENDBRANCH  17  18
ENDBRANCH  16  17
ENDBRANCH  15  16
ENDBRANCH  14  15
TORSDOF 11
ENDMDL
MODEL      274
REMARK 921   NORMALIZED FREE ENERGY PREDICTED BY IDOCK:   -5.23 KCAL/MOL
REMARK 922        TOTAL FREE ENERGY PREDICTED BY IDOCK:   -9.95 KCAL/MOL
REMARK 923 INTER-LIGAND FREE ENERGY PREDICTED BY IDOCK:   -8.57 KCAL/MOL
REMARK 924 INTRA-LIGAND FREE ENERGY PREDICTED BY IDOCK:   -1.38 KCAL/MOL
REMARK 927      BINDING AFFINITY PREDICTED BY RF-SCORE:    0.00 PKD
ROOT
HETATM    1  C   UNL     1      -7.473   4.485  67.900  1.00  0.00    -0.069 C  
HETATM    2  C   UNL     1      -7.779   3.889  66.544  1.00  0.00    -0.089 A  
HETATM    3  C   UNL     1      -6.750   3.241  65.873  1.00  0.00    -0.044 A  
HETATM    4  C   UNL     1      -6.950   2.655  64.632  1.00  0.00    -0.048 A  
HETATM    5  N   UNL     1      -5.901   1.903  64.095  1.00  0.00    -0.009 NA 
HETATM    6  C   UNL     1      -8.254   2.646  64.101  1.00  0.00    -0.082 A  
HETATM    7  H2  UNL     1      -5.623   1.185  64.765  1.00  0.00     0.000 HD 
HETATM    8  C   UNL     1      -8.570   1.960  62.905  1.00  0.00    -0.076 A  
HETATM    9  H1  UNL     1      -6.049   1.472  63.182  1.00  0.00     0.000 HD 
HETATM   10  C   UNL     1      -9.856   1.964  62.368  1.00  0.00    -0.088 A  
HETATM   11  C   UNL     1     -10.863   2.663  63.005  1.00  0.00    -0.219 A  
HETATM   12  C   UNL     1     -10.586   3.346  64.192  1.00  0.00    -0.161 A  
HETATM   13  C   UNL     1      -9.295   3.330  64.781  1.00  0.00    -0.148 A  
HETATM   14  N   UNL     1      -9.029   3.934  65.991  1.00  0.00    -0.126 NA 
ENDROOT
BRANCH  14  15
HETATM   15  C   UNL     1     -10.130   4.590  66.750  1.00  0.00    -0.186 C  
BRANCH  15  16
HETATM   16  C   UNL     1     -10.257   6.059  66.354  1.00  0.00    -0.135 C  
BRANCH  16  17
HETATM   17  C   UNL     1     -10.991   6.868  67.420  1.00  0.00    -0.374 C  
BRANCH  17  18
HETATM   18  C   UNL     1     -10.058   7.394  68.516  1.00  0.00    -0.187 C  
BRANCH  18  19
HETATM   19  C   UNL     1      -9.894   8.910  68.456  1.00  0.00    -0.182 C  
BRANCH  19  20
HETATM   20  C   UNL     1     -10.076   9.482  67.048  1.00  0.00    -0.297 C  
BRANCH  20  21
HETATM   21  C   UNL     1     -10.013  11.014  66.988  1.00  0.00    -0.223 C  
BRANCH  21  22
HETATM   22  C   UNL     1     -11.285  11.642  66.410  1.00  0.00    -0.349 C  
BRANCH  22  23
HETATM   23  C   UNL     1     -11.602  13.020  67.002  1.00  0.00    -0.413 C  
BRANCH  23  24
HETATM   24  C   UNL     1     -10.710  13.334  68.204  1.00  0.00    -0.249 C  
BRANCH  24  25
HETATM   25  N   UNL     1     -11.524  13.819  69.347  1.00  0.00    -0.277 NA 
HETATM   26  C   UNL     1     -11.804  15.154  69.475  1.00  0.00    -0.332 A  
HETATM   27  C   UNL     1     -12.631  15.593  70.513  1.00  0.00    -0.423 A  
HETATM   28  C   UNL     1     -11.335  16.234  68.527  1.00  0.00    -0.330 C  
HETATM   29  C   UNL     1     -13.160  14.713  71.444  1.00  0.00    -0.347 A  
HETATM   30  N   UNL     1     -14.089  15.221  72.356  1.00  0.00    -0.527 NA 
HETATM   31  C   UNL     1     -12.919  13.341  71.269  1.00  0.00    -0.353 A  
HETATM   32  H1  UNL     1     -14.479  14.574  73.041  1.00  0.00     0.000 HD 
HETATM   33  C   UNL     1     -12.057  12.900  70.227  1.00  0.00    -0.302 A  
HETATM   34  H2  UNL     1     -14.851  15.671  71.847  1.00  0.00     0.000 HD 
HETATM   35  C   UNL     1     -11.796  11.510  70.117  1.00  0.00    -0.440 A  
HETATM   36  C   UNL     1     -12.393  10.576  70.960  1.00  0.00    -0.503 A  
HETATM   37  C   UNL     1     -13.264  11.004  71.944  1.00  0.00    -0.503 A  
HETATM   38  C   UNL     1     -13.516  12.366  72.100  1.00  0.00    -0.481 A  
ENDBRANCH  24  25
ENDBRANCH  23  24
ENDBRANCH  22  23
ENDBRANCH  21  22
ENDBRANCH  20  21
ENDBRANCH  19  20
ENDBRANCH  18  19
ENDBRANCH  17  18
ENDBRANCH  16  17
ENDBRANCH  15  16
ENDBRANCH  14  15
TORSDOF 11
ENDMDL
MODEL      275
REMARK 921   NORMALIZED FREE ENERGY PREDICTED BY IDOCK:   -5.23 KCAL/MOL
REMARK 922        TOTAL FREE ENERGY PREDICTED BY IDOCK:   -9.94 KCAL/MOL
REMARK 923 INTER-LIGAND FREE ENERGY PREDICTED BY IDOCK:   -7.09 KCAL/MOL
REMARK 924 INTRA-LIGAND FREE ENERGY PREDICTED BY IDOCK:   -2.85 KCAL/MOL
REMARK 927      BINDING AFFINITY PREDICTED BY RF-SCORE:    0.00 PKD
ROOT
HETATM    1  C   UNL     1     -11.536  16.091  64.317  1.00  0.00    -0.162 C  
HETATM    2  C   UNL     1     -11.479  14.719  64.949  1.00  0.00    -0.412 A  
HETATM    3  C   UNL     1     -11.575  13.614  64.112  1.00  0.00    -0.386 A  
HETATM    4  C   UNL     1     -11.517  12.321  64.609  1.00  0.00    -0.336 A  
HETATM    5  N   UNL     1     -11.478  11.273  63.684  1.00  0.00    -0.543 NA 
HETATM    6  C   UNL     1     -11.262  12.144  65.982  1.00  0.00    -0.382 A  
HETATM    7  H2  UNL     1     -10.700  11.421  63.040  1.00  0.00     0.000 HD 
HETATM    8  C   UNL     1     -11.062  10.863  66.548  1.00  0.00    -0.119 A  
HETATM    9  H1  UNL     1     -11.435  10.322  64.050  1.00  0.00     0.000 HD 
HETATM   10  C   UNL     1     -10.826  10.685  67.910  1.00  0.00    -0.328 A  
HETATM   11  C   UNL     1     -10.795  11.781  68.750  1.00  0.00    -0.268 A  
HETATM   12  C   UNL     1     -10.983  13.062  68.222  1.00  0.00    -0.285 A  
HETATM   13  C   UNL     1     -11.190  13.277  66.835  1.00  0.00    -0.305 A  
HETATM   14  N   UNL     1     -11.298  14.539  66.293  1.00  0.00    -0.347 NA 
ENDROOT
BRANCH  14  15
HETATM   15  C   UNL     1     -11.147  15.737  67.166  1.00  0.00    -0.180 C  
BRANCH  15  16
HETATM   16  C   UNL     1      -9.678  15.968  67.513  1.00  0.00    -0.228 C  
BRANCH  16  17
HETATM   17  C   UNL     1      -8.884  16.457  66.304  1.00  0.00    -0.367 C  
BRANCH  17  18
HETATM   18  C   UNL     1      -8.397  17.901  66.456  1.00  0.00    -0.290 C  
BRANCH  18  19
HETATM   19  C   UNL     1      -7.039  18.125  65.797  1.00  0.00    -0.256 C  
BRANCH  19  20
HETATM   20  C   UNL     1      -5.964  18.597  66.779  1.00  0.00    -0.173 C  
BRANCH  20  21
HETATM   21  C   UNL     1      -6.052  17.935  68.160  1.00  0.00    -0.174 C  
BRANCH  21  22
HETATM   22  C   UNL     1      -5.502  16.506  68.175  1.00  0.00    -0.117 C  
BRANCH  22  23
HETATM   23  C   UNL     1      -5.404  15.910  69.584  1.00  0.00    -0.116 C  
BRANCH  23  24
HETATM   24  C   UNL     1      -6.602  15.014  69.900  1.00  0.00    -0.170 C  
BRANCH  24  25
HETATM   25  N   UNL     1      -6.188  13.589  69.961  1.00  0.00    -0.127 NA 
HETATM   26  C   UNL     1      -5.528  13.111  71.062  1.00  0.00    -0.194 A  
HETATM   27  C   UNL     1      -5.207  11.753  71.143  1.00  0.00    -0.098 A  
HETATM   28  C   UNL     1      -5.153  13.933  72.274  1.00  0.00    -0.201 C  
HETATM   29  C   UNL     1      -5.515  10.870  70.120  1.00  0.00    -0.071 A  
HETATM   30  N   UNL     1      -5.286   9.510  70.352  1.00  0.00    -0.031 NA 
HETATM   31  C   UNL     1      -6.247  11.356  69.025  1.00  0.00    -0.058 A  
HETATM   32  H1  UNL     1      -5.513   8.860  69.599  1.00  0.00     0.000 HD 
HETATM   33  C   UNL     1      -6.549  12.742  68.934  1.00  0.00    -0.095 A  
HETATM   34  H2  UNL     1      -5.775   9.226  71.201  1.00  0.00     0.000 HD 
HETATM   35  C   UNL     1      -7.243  13.202  67.785  1.00  0.00    -0.147 A  
HETATM   36  C   UNL     1      -7.672  12.335  66.782  1.00  0.00     0.074 A  
HETATM   37  C   UNL     1      -7.413  10.982  66.895  1.00  0.00    -0.133 A  
HETATM   38  C   UNL     1      -6.705  10.502  67.995  1.00  0.00    -0.065 A  
ENDBRANCH  24  25
ENDBRANCH  23  24
ENDBRANCH  22  23
ENDBRANCH  21  22
ENDBRANCH  20  21
ENDBRANCH  19  20
ENDBRANCH  18  19
ENDBRANCH  17  18
ENDBRANCH  16  17
ENDBRANCH  15  16
ENDBRANCH  14  15
TORSDOF 11
ENDMDL
MODEL      276
REMARK 921   NORMALIZED FREE ENERGY PREDICTED BY IDOCK:   -5.22 KCAL/MOL
REMARK 922        TOTAL FREE ENERGY PREDICTED BY IDOCK:   -9.94 KCAL/MOL
REMARK 923 INTER-LIGAND FREE ENERGY PREDICTED BY IDOCK:   -8.05 KCAL/MOL
REMARK 924 INTRA-LIGAND FREE ENERGY PREDICTED BY IDOCK:   -1.89 KCAL/MOL
REMARK 927      BINDING AFFINITY PREDICTED BY RF-SCORE:    0.00 PKD
ROOT
HETATM    1  C   UNL     1     -10.915  13.764  66.624  1.00  0.00    -0.298 C  
HETATM    2  C   UNL     1     -11.569  13.522  67.966  1.00  0.00    -0.337 A  
HETATM    3  C   UNL     1     -11.772  12.205  68.360  1.00  0.00    -0.388 A  
HETATM    4  C   UNL     1     -12.351  11.896  69.582  1.00  0.00    -0.048 A  
HETATM    5  N   UNL     1     -12.387  10.550  69.959  1.00  0.00    -0.481 NA 
HETATM    6  C   UNL     1     -12.648  12.951  70.466  1.00  0.00    -0.204 A  
HETATM    7  H2  UNL     1     -11.443  10.166  69.928  1.00  0.00     0.000 HD 
HETATM    8  C   UNL     1     -13.121  12.716  71.778  1.00  0.00    -0.461 A  
HETATM    9  H1  UNL     1     -12.814  10.323  70.857  1.00  0.00     0.000 HD 
HETATM   10  C   UNL     1     -13.431  13.759  72.650  1.00  0.00    -0.638 A  
HETATM   11  C   UNL     1     -13.288  15.068  72.232  1.00  0.00    -0.497 A  
HETATM   12  C   UNL     1     -12.817  15.334  70.943  1.00  0.00    -0.511 A  
HETATM   13  C   UNL     1     -12.460  14.294  70.047  1.00  0.00    -0.300 A  
HETATM   14  N   UNL     1     -11.920  14.545  68.804  1.00  0.00    -0.304 NA 
ENDROOT
BRANCH  14  15
HETATM   15  C   UNL     1     -11.648  15.947  68.383  1.00  0.00    -0.315 C  
BRANCH  15  16
HETATM   16  C   UNL     1     -10.269  16.395  68.865  1.00  0.00    -0.258 C  
BRANCH  16  17
HETATM   17  C   UNL     1      -9.510  17.148  67.776  1.00  0.00    -0.253 C  
BRANCH  17  18
HETATM   18  C   UNL     1      -7.990  17.084  67.957  1.00  0.00    -0.195 C  
BRANCH  18  19
HETATM   19  C   UNL     1      -7.341  16.060  67.030  1.00  0.00    -0.258 C  
BRANCH  19  20
HETATM   20  C   UNL     1      -6.649  14.920  67.781  1.00  0.00    -0.187 C  
BRANCH  20  21
HETATM   21  C   UNL     1      -7.596  13.787  68.197  1.00  0.00    -0.128 C  
BRANCH  21  22
HETATM   22  C   UNL     1      -7.406  12.514  67.367  1.00  0.00    -0.147 C  
BRANCH  22  23
HETATM   23  C   UNL     1      -7.836  11.241  68.105  1.00  0.00    -0.127 C  
BRANCH  23  24
HETATM   24  C   UNL     1      -9.066  10.604  67.458  1.00  0.00    -0.139 C  
BRANCH  24  25
HETATM   25  N   UNL     1      -8.817   9.170  67.161  1.00  0.00    -0.119 NA 
HETATM   26  C   UNL     1      -9.026   8.221  68.126  1.00  0.00    -0.139 A  
HETATM   27  C   UNL     1      -8.860   6.868  67.816  1.00  0.00    -0.119 A  
HETATM   28  C   UNL     1      -9.496   8.504  69.534  1.00  0.00    -0.165 C  
HETATM   29  C   UNL     1      -8.460   6.454  66.556  1.00  0.00    -0.118 A  
HETATM   30  N   UNL     1      -8.461   5.080  66.298  1.00  0.00    -0.112 NA 
HETATM   31  C   UNL     1      -8.310   7.429  65.556  1.00  0.00    -0.139 A  
HETATM   32  H1  UNL     1      -8.167   4.775  65.370  1.00  0.00     0.000 HD 
HETATM   33  C   UNL     1      -8.455   8.805  65.881  1.00  0.00    -0.143 A  
HETATM   34  H2  UNL     1      -9.386   4.700  66.500  1.00  0.00     0.000 HD 
HETATM   35  C   UNL     1      -8.242   9.761  64.855  1.00  0.00    -0.142 A  
HETATM   36  C   UNL     1      -7.948   9.389  63.545  1.00  0.00    -0.141 A  
HETATM   37  C   UNL     1      -7.850   8.048  63.224  1.00  0.00    -0.147 A  
HETATM   38  C   UNL     1      -8.021   7.084  64.215  1.00  0.00    -0.091 A  
ENDBRANCH  24  25
ENDBRANCH  23  24
ENDBRANCH  22  23
ENDBRANCH  21  22
ENDBRANCH  20  21
ENDBRANCH  19  20
ENDBRANCH  18  19
ENDBRANCH  17  18
ENDBRANCH  16  17
ENDBRANCH  15  16
ENDBRANCH  14  15
TORSDOF 11
ENDMDL
MODEL      277
REMARK 921   NORMALIZED FREE ENERGY PREDICTED BY IDOCK:   -5.22 KCAL/MOL
REMARK 922        TOTAL FREE ENERGY PREDICTED BY IDOCK:   -9.94 KCAL/MOL
REMARK 923 INTER-LIGAND FREE ENERGY PREDICTED BY IDOCK:   -8.55 KCAL/MOL
REMARK 924 INTRA-LIGAND FREE ENERGY PREDICTED BY IDOCK:   -1.39 KCAL/MOL
REMARK 927      BINDING AFFINITY PREDICTED BY RF-SCORE:    0.00 PKD
ROOT
HETATM    1  C   UNL     1     -11.030   6.529  68.756  1.00  0.00    -0.371 C  
HETATM    2  C   UNL     1     -10.246   5.699  67.764  1.00  0.00    -0.193 A  
HETATM    3  C   UNL     1     -10.909   5.241  66.633  1.00  0.00    -0.168 A  
HETATM    4  C   UNL     1     -10.259   4.487  65.668  1.00  0.00    -0.253 A  
HETATM    5  N   UNL     1     -10.963   4.190  64.496  1.00  0.00    -0.724 NA 
HETATM    6  C   UNL     1      -8.875   4.271  65.809  1.00  0.00    -0.121 A  
HETATM    7  H2  UNL     1     -11.300   5.056  64.076  1.00  0.00     0.000 HD 
HETATM    8  C   UNL     1      -8.113   3.624  64.809  1.00  0.00    -0.090 A  
HETATM    9  H1  UNL     1     -10.485   3.635  63.787  1.00  0.00     0.000 HD 
HETATM   10  C   UNL     1      -6.746   3.394  64.954  1.00  0.00    -0.040 A  
HETATM   11  C   UNL     1      -6.102   3.794  66.109  1.00  0.00    -0.028 A  
HETATM   12  C   UNL     1      -6.825   4.443  67.114  1.00  0.00    -0.052 A  
HETATM   13  C   UNL     1      -8.209   4.722  66.979  1.00  0.00    -0.106 A  
HETATM   14  N   UNL     1      -8.915   5.429  67.928  1.00  0.00    -0.109 NA 
ENDROOT
BRANCH  14  15
HETATM   15  C   UNL     1      -8.211   5.973  69.123  1.00  0.00    -0.111 C  
BRANCH  15  16
HETATM   16  C   UNL     1      -8.197   4.946  70.253  1.00  0.00    -0.081 C  
BRANCH  16  17
HETATM   17  C   UNL     1      -8.596   5.571  71.587  1.00  0.00    -0.132 C  
BRANCH  17  18
HETATM   18  C   UNL     1     -10.033   5.233  71.996  1.00  0.00    -0.238 C  
BRANCH  18  19
HETATM   19  C   UNL     1     -10.576   6.197  73.047  1.00  0.00    -0.263 C  
BRANCH  19  20
HETATM   20  C   UNL     1     -11.228   7.443  72.444  1.00  0.00    -0.337 C  
BRANCH  20  21
HETATM   21  C   UNL     1     -10.234   8.562  72.109  1.00  0.00    -0.403 C  
BRANCH  21  22
HETATM   22  C   UNL     1     -10.752   9.519  71.031  1.00  0.00    -0.411 C  
BRANCH  22  23
HETATM   23  C   UNL     1     -12.015  10.278  71.454  1.00  0.00    -0.419 C  
BRANCH  23  24
HETATM   24  C   UNL     1     -12.699  10.942  70.259  1.00  0.00    -0.214 C  
BRANCH  24  25
HETATM   25  N   UNL     1     -12.186  12.322  70.061  1.00  0.00    -0.241 NA 
HETATM   26  C   UNL     1     -12.484  13.304  70.967  1.00  0.00    -0.336 A  
HETATM   27  C   UNL     1     -11.938  14.580  70.813  1.00  0.00    -0.388 A  
HETATM   28  C   UNL     1     -13.335  13.115  72.203  1.00  0.00    -0.621 C  
HETATM   29  C   UNL     1     -11.115  14.895  69.744  1.00  0.00    -0.274 A  
HETATM   30  N   UNL     1     -10.500  16.151  69.751  1.00  0.00    -0.293 NA 
HETATM   31  C   UNL     1     -10.763  13.866  68.854  1.00  0.00    -0.256 A  
HETATM   32  H1  UNL     1      -9.894  16.383  68.964  1.00  0.00     0.000 HD 
HETATM   33  C   UNL     1     -11.341  12.576  69.000  1.00  0.00    -0.290 A  
HETATM   34  H2  UNL     1      -9.981  16.267  70.621  1.00  0.00     0.000 HD 
HETATM   35  C   UNL     1     -11.002  11.579  68.050  1.00  0.00    -0.284 A  
HETATM   36  C   UNL     1     -10.092  11.815  67.022  1.00  0.00    -0.232 A  
HETATM   37  C   UNL     1      -9.500  13.059  66.909  1.00  0.00    -0.242 A  
HETATM   38  C   UNL     1      -9.836  14.070  67.807  1.00  0.00    -0.232 A  
ENDBRANCH  24  25
ENDBRANCH  23  24
ENDBRANCH  22  23
ENDBRANCH  21  22
ENDBRANCH  20  21
ENDBRANCH  19  20
ENDBRANCH  18  19
ENDBRANCH  17  18
ENDBRANCH  16  17
ENDBRANCH  15  16
ENDBRANCH  14  15
TORSDOF 11
ENDMDL
MODEL      278
REMARK 921   NORMALIZED FREE ENERGY PREDICTED BY IDOCK:   -5.22 KCAL/MOL
REMARK 922        TOTAL FREE ENERGY PREDICTED BY IDOCK:   -9.93 KCAL/MOL
REMARK 923 INTER-LIGAND FREE ENERGY PREDICTED BY IDOCK:   -7.19 KCAL/MOL
REMARK 924 INTRA-LIGAND FREE ENERGY PREDICTED BY IDOCK:   -2.74 KCAL/MOL
REMARK 927      BINDING AFFINITY PREDICTED BY RF-SCORE:    0.00 PKD
ROOT
HETATM    1  C   UNL     1     -11.191  10.311  68.338  1.00  0.00    -0.284 C  
HETATM    2  C   UNL     1     -10.476   9.230  67.558  1.00  0.00    -0.274 A  
HETATM    3  C   UNL     1      -9.889   9.584  66.350  1.00  0.00    -0.320 A  
HETATM    4  C   UNL     1      -9.201   8.657  65.581  1.00  0.00    -0.139 A  
HETATM    5  N   UNL     1      -8.521   9.128  64.453  1.00  0.00    -0.179 NA 
HETATM    6  C   UNL     1      -9.027   7.359  66.096  1.00  0.00    -0.182 A  
HETATM    7  H2  UNL     1      -7.883   9.874  64.732  1.00  0.00     0.000 HD 
HETATM    8  C   UNL     1      -8.232   6.392  65.437  1.00  0.00    -0.142 A  
HETATM    9  H1  UNL     1      -8.016   8.447  63.888  1.00  0.00     0.000 HD 
HETATM   10  C   UNL     1      -8.072   5.101  65.938  1.00  0.00    -0.109 A  
HETATM   11  C   UNL     1      -8.710   4.734  67.107  1.00  0.00    -0.103 A  
HETATM   12  C   UNL     1      -9.497   5.668  67.787  1.00  0.00    -0.121 A  
HETATM   13  C   UNL     1      -9.650   6.999  67.320  1.00  0.00    -0.141 A  
HETATM   14  N   UNL     1     -10.359   7.949  68.023  1.00  0.00    -0.211 NA 
ENDROOT
BRANCH  14  15
HETATM   15  C   UNL     1     -10.953   7.605  69.344  1.00  0.00    -0.057 C  
BRANCH  15  16
HETATM   16  C   UNL     1      -9.864   7.480  70.408  1.00  0.00    -0.183 C  
BRANCH  16  17
HETATM   17  C   UNL     1      -9.601   8.814  71.102  1.00  0.00    -0.309 C  
BRANCH  17  18
HETATM   18  C   UNL     1      -8.182   9.339  70.865  1.00  0.00    -0.179 C  
BRANCH  18  19
HETATM   19  C   UNL     1      -7.352   8.391  70.004  1.00  0.00    -0.059 C  
BRANCH  19  20
HETATM   20  C   UNL     1      -6.965   8.989  68.650  1.00  0.00    -0.063 C  
BRANCH  20  21
HETATM   21  C   UNL     1      -7.188  10.504  68.553  1.00  0.00    -0.085 C  
BRANCH  21  22
HETATM   22  C   UNL     1      -6.559  11.123  67.302  1.00  0.00    -0.083 C  
BRANCH  22  23
HETATM   23  C   UNL     1      -7.431  12.208  66.660  1.00  0.00     0.175 C  
BRANCH  23  24
HETATM   24  C   UNL     1      -8.493  12.723  67.632  1.00  0.00    -0.178 C  
BRANCH  24  25
HETATM   25  N   UNL     1      -9.089  13.989  67.134  1.00  0.00    -0.222 NA 
HETATM   26  C   UNL     1      -8.559  15.194  67.511  1.00  0.00    -0.180 A  
HETATM   27  C   UNL     1      -9.079  16.378  66.980  1.00  0.00    -0.232 A  
HETATM   28  C   UNL     1      -7.377  15.371  68.437  1.00  0.00    -0.114 C  
HETATM   29  C   UNL     1     -10.145  16.372  66.095  1.00  0.00    -0.346 A  
HETATM   30  N   UNL     1     -10.502  17.588  65.506  1.00  0.00    -0.637 NA 
HETATM   31  C   UNL     1     -10.641  15.130  65.665  1.00  0.00    -0.370 A  
HETATM   32  H1  UNL     1     -11.287  17.584  64.855  1.00  0.00     0.000 HD 
HETATM   33  C   UNL     1     -10.126  13.929  66.226  1.00  0.00    -0.300 A  
HETATM   34  H2  UNL     1      -9.686  17.994  65.048  1.00  0.00     0.000 HD 
HETATM   35  C   UNL     1     -10.691  12.697  65.805  1.00  0.00    -0.295 A  
HETATM   36  C   UNL     1     -11.688  12.634  64.835  1.00  0.00    -0.399 A  
HETATM   37  C   UNL     1     -12.156  13.800  64.261  1.00  0.00    -0.481 A  
HETATM   38  C   UNL     1     -11.646  15.029  64.675  1.00  0.00    -0.386 A  
ENDBRANCH  24  25
ENDBRANCH  23  24
ENDBRANCH  22  23
ENDBRANCH  21  22
ENDBRANCH  20  21
ENDBRANCH  19  20
ENDBRANCH  18  19
ENDBRANCH  17  18
ENDBRANCH  16  17
ENDBRANCH  15  16
ENDBRANCH  14  15
TORSDOF 11
ENDMDL
MODEL      279
REMARK 921   NORMALIZED FREE ENERGY PREDICTED BY IDOCK:   -5.18 KCAL/MOL
REMARK 922        TOTAL FREE ENERGY PREDICTED BY IDOCK:   -9.86 KCAL/MOL
REMARK 923 INTER-LIGAND FREE ENERGY PREDICTED BY IDOCK:   -7.49 KCAL/MOL
REMARK 924 INTRA-LIGAND FREE ENERGY PREDICTED BY IDOCK:   -2.37 KCAL/MOL
REMARK 927      BINDING AFFINITY PREDICTED BY RF-SCORE:    0.00 PKD
ROOT
HETATM    1  C   UNL     1      -5.871  10.040  69.508  1.00  0.00    -0.037 C  
HETATM    2  C   UNL     1      -7.136   9.218  69.609  1.00  0.00    -0.061 A  
HETATM    3  C   UNL     1      -7.806   9.206  70.826  1.00  0.00    -0.173 A  
HETATM    4  C   UNL     1      -8.981   8.490  70.999  1.00  0.00    -0.179 A  
HETATM    5  N   UNL     1      -9.662   8.647  72.211  1.00  0.00    -0.307 NA 
HETATM    6  C   UNL     1      -9.541   7.844  69.880  1.00  0.00    -0.168 A  
HETATM    7  H2  UNL     1      -9.846   9.638  72.368  1.00  0.00     0.000 HD 
HETATM    8  C   UNL     1     -10.799   7.201  69.939  1.00  0.00    -0.276 A  
HETATM    9  H1  UNL     1     -10.526   8.121  72.337  1.00  0.00     0.000 HD 
HETATM   10  C   UNL     1     -11.348   6.548  68.837  1.00  0.00    -0.267 A  
HETATM   11  C   UNL     1     -10.649   6.508  67.645  1.00  0.00    -0.332 A  
HETATM   12  C   UNL     1      -9.406   7.139  67.552  1.00  0.00    -0.137 A  
HETATM   13  C   UNL     1      -8.839   7.842  68.646  1.00  0.00    -0.134 A  
HETATM   14  N   UNL     1      -7.652   8.534  68.542  1.00  0.00    -0.094 NA 
ENDROOT
BRANCH  14  15
HETATM   15  C   UNL     1      -6.945   8.602  67.233  1.00  0.00    -0.075 C  
BRANCH  15  16
HETATM   16  C   UNL     1      -7.359   9.855  66.463  1.00  0.00    -0.099 C  
BRANCH  16  17
HETATM   17  C   UNL     1      -7.855   9.514  65.060  1.00  0.00    -0.117 C  
BRANCH  17  18
HETATM   18  C   UNL     1      -9.343   9.816  64.865  1.00  0.00    -0.327 C  
BRANCH  18  19
HETATM   19  C   UNL     1      -9.921  10.641  66.010  1.00  0.00    -0.295 C  
BRANCH  19  20
HETATM   20  C   UNL     1     -10.760  11.829  65.534  1.00  0.00    -0.329 C  
BRANCH  20  21
HETATM   21  C   UNL     1     -11.717  12.380  66.601  1.00  0.00    -0.438 C  
BRANCH  21  22
HETATM   22  C   UNL     1     -12.337  13.724  66.210  1.00  0.00    -0.479 C  
BRANCH  22  23
HETATM   23  C   UNL     1     -11.294  14.791  65.858  1.00  0.00    -0.331 C  
BRANCH  23  24
HETATM   24  C   UNL     1     -10.818  15.544  67.101  1.00  0.00    -0.316 C  
BRANCH  24  25
HETATM   25  N   UNL     1      -9.457  16.100  66.887  1.00  0.00    -0.223 NA 
HETATM   26  C   UNL     1      -9.301  17.395  66.469  1.00  0.00    -0.270 A  
HETATM   27  C   UNL     1      -8.017  17.932  66.340  1.00  0.00    -0.302 A  
HETATM   28  C   UNL     1     -10.431  18.356  66.179  1.00  0.00    -0.422 C  
HETATM   29  C   UNL     1      -6.883  17.179  66.600  1.00  0.00    -0.243 A  
HETATM   30  N   UNL     1      -5.652  17.840  66.586  1.00  0.00    -0.154 NA 
HETATM   31  C   UNL     1      -7.054  15.873  67.089  1.00  0.00    -0.240 A  
HETATM   32  H1  UNL     1      -4.817  17.286  66.777  1.00  0.00     0.000 HD 
HETATM   33  C   UNL     1      -8.361  15.322  67.194  1.00  0.00    -0.216 A  
HETATM   34  H2  UNL     1      -5.686  18.631  67.230  1.00  0.00     0.000 HD 
HETATM   35  C   UNL     1      -8.487  13.981  67.641  1.00  0.00    -0.193 A  
HETATM   36  C   UNL     1      -7.384  13.220  68.021  1.00  0.00    -0.127 A  
HETATM   37  C   UNL     1      -6.120  13.774  67.958  1.00  0.00    -0.140 A  
HETATM   38  C   UNL     1      -5.957  15.078  67.492  1.00  0.00     0.008 A  
ENDBRANCH  24  25
ENDBRANCH  23  24
ENDBRANCH  22  23
ENDBRANCH  21  22
ENDBRANCH  20  21
ENDBRANCH  19  20
ENDBRANCH  18  19
ENDBRANCH  17  18
ENDBRANCH  16  17
ENDBRANCH  15  16
ENDBRANCH  14  15
TORSDOF 11
ENDMDL
MODEL      280
REMARK 921   NORMALIZED FREE ENERGY PREDICTED BY IDOCK:   -5.17 KCAL/MOL
REMARK 922        TOTAL FREE ENERGY PREDICTED BY IDOCK:   -9.84 KCAL/MOL
REMARK 923 INTER-LIGAND FREE ENERGY PREDICTED BY IDOCK:   -8.75 KCAL/MOL
REMARK 924 INTRA-LIGAND FREE ENERGY PREDICTED BY IDOCK:   -1.09 KCAL/MOL
REMARK 927      BINDING AFFINITY PREDICTED BY RF-SCORE:    0.00 PKD
ROOT
HETATM    1  C   UNL     1      -9.918   7.384  68.969  1.00  0.00    -0.176 C  
HETATM    2  C   UNL     1      -9.434   6.374  67.953  1.00  0.00    -0.115 A  
HETATM    3  C   UNL     1      -9.672   5.030  68.212  1.00  0.00    -0.200 A  
HETATM    4  C   UNL     1      -9.274   4.041  67.325  1.00  0.00    -0.165 A  
HETATM    5  N   UNL     1      -9.679   2.729  67.595  1.00  0.00    -0.312 NA 
HETATM    6  C   UNL     1      -8.703   4.432  66.099  1.00  0.00    -0.113 A  
HETATM    7  H2  UNL     1     -10.693   2.703  67.695  1.00  0.00     0.000 HD 
HETATM    8  C   UNL     1      -8.388   3.496  65.087  1.00  0.00    -0.097 A  
HETATM    9  H1  UNL     1      -9.386   2.002  66.942  1.00  0.00     0.000 HD 
HETATM   10  C   UNL     1      -7.808   3.880  63.879  1.00  0.00    -0.084 A  
HETATM   11  C   UNL     1      -7.514   5.211  63.652  1.00  0.00    -0.054 A  
HETATM   12  C   UNL     1      -7.820   6.163  64.629  1.00  0.00    -0.113 A  
HETATM   13  C   UNL     1      -8.443   5.806  65.852  1.00  0.00    -0.139 A  
HETATM   14  N   UNL     1      -8.819   6.744  66.789  1.00  0.00    -0.120 NA 
ENDROOT
BRANCH  14  15
HETATM   15  C   UNL     1      -8.620   8.193  66.508  1.00  0.00    -0.138 C  
BRANCH  15  16
HETATM   16  C   UNL     1      -9.897   8.812  65.943  1.00  0.00    -0.136 C  
BRANCH  16  17
HETATM   17  C   UNL     1      -9.789  10.332  65.844  1.00  0.00    -0.298 C  
BRANCH  17  18
HETATM   18  C   UNL     1     -10.316  10.880  64.515  1.00  0.00    -0.417 C  
BRANCH  18  19
HETATM   19  C   UNL     1     -11.298  12.031  64.713  1.00  0.00    -0.369 C  
BRANCH  19  20
HETATM   20  C   UNL     1     -11.639  12.287  66.183  1.00  0.00    -0.450 C  
BRANCH  20  21
HETATM   21  C   UNL     1     -12.005  13.746  66.490  1.00  0.00    -0.470 C  
BRANCH  21  22
HETATM   22  C   UNL     1     -11.781  14.122  67.957  1.00  0.00    -0.394 C  
BRANCH  22  23
HETATM   23  C   UNL     1     -11.521  15.619  68.164  1.00  0.00    -0.325 C  
BRANCH  23  24
HETATM   24  C   UNL     1     -10.206  15.865  68.904  1.00  0.00    -0.226 C  
BRANCH  24  25
HETATM   25  N   UNL     1      -9.218  16.524  68.013  1.00  0.00    -0.211 NA 
HETATM   26  C   UNL     1      -8.295  15.774  67.334  1.00  0.00    -0.168 A  
HETATM   27  C   UNL     1      -7.417  16.395  66.442  1.00  0.00    -0.132 A  
HETATM   28  C   UNL     1      -8.171  14.270  67.414  1.00  0.00    -0.217 C  
HETATM   29  C   UNL     1      -7.433  17.766  66.241  1.00  0.00    -0.293 A  
HETATM   30  N   UNL     1      -6.620  18.279  65.225  1.00  0.00    -0.437 NA 
HETATM   31  C   UNL     1      -8.423  18.519  66.893  1.00  0.00    -0.277 A  
HETATM   32  H1  UNL     1      -6.631  19.288  65.077  1.00  0.00     0.000 HD 
HETATM   33  C   UNL     1      -9.298  17.888  67.819  1.00  0.00    -0.262 A  
HETATM   34  H2  UNL     1      -6.838  17.807  64.348  1.00  0.00     0.000 HD 
HETATM   35  C   UNL     1     -10.249  18.693  68.497  1.00  0.00    -0.398 A  
HETATM   36  C   UNL     1     -10.378  20.057  68.246  1.00  0.00    -0.494 A  
HETATM   37  C   UNL     1      -9.554  20.659  67.314  1.00  0.00    -0.558 A  
HETATM   38  C   UNL     1      -8.587  19.903  66.653  1.00  0.00    -0.390 A  
ENDBRANCH  24  25
ENDBRANCH  23  24
ENDBRANCH  22  23
ENDBRANCH  21  22
ENDBRANCH  20  21
ENDBRANCH  19  20
ENDBRANCH  18  19
ENDBRANCH  17  18
ENDBRANCH  16  17
ENDBRANCH  15  16
ENDBRANCH  14  15
TORSDOF 11
ENDMDL
MODEL      281
REMARK 921   NORMALIZED FREE ENERGY PREDICTED BY IDOCK:   -5.16 KCAL/MOL
REMARK 922        TOTAL FREE ENERGY PREDICTED BY IDOCK:   -9.84 KCAL/MOL
REMARK 923 INTER-LIGAND FREE ENERGY PREDICTED BY IDOCK:   -7.73 KCAL/MOL
REMARK 924 INTRA-LIGAND FREE ENERGY PREDICTED BY IDOCK:   -2.11 KCAL/MOL
REMARK 927      BINDING AFFINITY PREDICTED BY RF-SCORE:    0.00 PKD
ROOT
HETATM    1  C   UNL     1     -12.054  13.834  66.399  1.00  0.00    -0.483 C  
HETATM    2  C   UNL     1     -10.968  14.725  66.958  1.00  0.00    -0.324 A  
HETATM    3  C   UNL     1     -11.352  15.923  67.548  1.00  0.00    -0.098 A  
HETATM    4  C   UNL     1     -10.420  16.791  68.098  1.00  0.00    -0.332 A  
HETATM    5  N   UNL     1     -10.903  17.902  68.796  1.00  0.00    -0.214 NA 
HETATM    6  C   UNL     1      -9.071  16.388  68.133  1.00  0.00    -0.201 A  
HETATM    7  H2  UNL     1     -11.544  17.589  69.526  1.00  0.00     0.000 HD 
HETATM    8  C   UNL     1      -8.078  17.153  68.788  1.00  0.00    -0.252 A  
HETATM    9  H1  UNL     1     -10.218  18.540  69.200  1.00  0.00     0.000 HD 
HETATM   10  C   UNL     1      -6.740  16.765  68.809  1.00  0.00    -0.185 A  
HETATM   11  C   UNL     1      -6.352  15.605  68.166  1.00  0.00    -0.133 A  
HETATM   12  C   UNL     1      -7.310  14.822  67.515  1.00  0.00    -0.225 A  
HETATM   13  C   UNL     1      -8.684  15.174  67.507  1.00  0.00    -0.177 A  
HETATM   14  N   UNL     1      -9.647  14.370  66.937  1.00  0.00    -0.246 NA 
ENDROOT
BRANCH  14  15
HETATM   15  C   UNL     1      -9.263  13.059  66.345  1.00  0.00    -0.132 C  
BRANCH  15  16
HETATM   16  C   UNL     1      -9.182  11.983  67.426  1.00  0.00    -0.180 C  
BRANCH  16  17
HETATM   17  C   UNL     1      -9.779  10.661  66.950  1.00  0.00    -0.213 C  
BRANCH  17  18
HETATM   18  C   UNL     1     -11.076  10.297  67.679  1.00  0.00    -0.319 C  
BRANCH  18  19
HETATM   19  C   UNL     1     -11.414  11.289  68.787  1.00  0.00    -0.359 C  
BRANCH  19  20
HETATM   20  C   UNL     1     -12.611  10.858  69.638  1.00  0.00    -0.075 C  
BRANCH  20  21
HETATM   21  C   UNL     1     -12.302  10.756  71.137  1.00  0.00    -0.498 C  
BRANCH  21  22
HETATM   22  C   UNL     1     -13.098   9.652  71.838  1.00  0.00    -0.530 C  
BRANCH  22  23
HETATM   23  C   UNL     1     -12.213   8.537  72.407  1.00  0.00    -0.432 C  
BRANCH  23  24
HETATM   24  C   UNL     1     -11.481   7.779  71.300  1.00  0.00    -0.269 C  
BRANCH  24  25
HETATM   25  N   UNL     1     -10.161   7.296  71.780  1.00  0.00    -0.179 NA 
HETATM   26  C   UNL     1     -10.080   6.166  72.549  1.00  0.00    -0.178 A  
HETATM   27  C   UNL     1      -8.829   5.677  72.936  1.00  0.00    -0.124 A  
HETATM   28  C   UNL     1     -11.259   5.327  72.987  1.00  0.00    -0.387 C  
HETATM   29  C   UNL     1      -7.655   6.324  72.584  1.00  0.00    -0.100 A  
HETATM   30  N   UNL     1      -6.450   5.686  72.891  1.00  0.00    -0.061 NA 
HETATM   31  C   UNL     1      -7.744   7.446  71.744  1.00  0.00    -0.086 A  
HETATM   32  H1  UNL     1      -5.585   6.161  72.633  1.00  0.00     0.000 HD 
HETATM   33  C   UNL     1      -9.019   7.954  71.373  1.00  0.00    -0.136 A  
HETATM   34  H2  UNL     1      -6.452   4.749  72.488  1.00  0.00     0.000 HD 
HETATM   35  C   UNL     1      -9.066   9.121  70.567  1.00  0.00    -0.284 A  
HETATM   36  C   UNL     1      -7.912   9.742  70.096  1.00  0.00    -0.201 A  
HETATM   37  C   UNL     1      -6.675   9.220  70.423  1.00  0.00    -0.073 A  
HETATM   38  C   UNL     1      -6.592   8.094  71.240  1.00  0.00    -0.045 A  
ENDBRANCH  24  25
ENDBRANCH  23  24
ENDBRANCH  22  23
ENDBRANCH  21  22
ENDBRANCH  20  21
ENDBRANCH  19  20
ENDBRANCH  18  19
ENDBRANCH  17  18
ENDBRANCH  16  17
ENDBRANCH  15  16
ENDBRANCH  14  15
TORSDOF 11
ENDMDL
MODEL      282
REMARK 921   NORMALIZED FREE ENERGY PREDICTED BY IDOCK:   -5.15 KCAL/MOL
REMARK 922        TOTAL FREE ENERGY PREDICTED BY IDOCK:   -9.82 KCAL/MOL
REMARK 923 INTER-LIGAND FREE ENERGY PREDICTED BY IDOCK:   -8.16 KCAL/MOL
REMARK 924 INTRA-LIGAND FREE ENERGY PREDICTED BY IDOCK:   -1.66 KCAL/MOL
REMARK 927      BINDING AFFINITY PREDICTED BY RF-SCORE:    0.00 PKD
ROOT
HETATM    1  C   UNL     1      -9.360   2.314  69.120  1.00  0.00    -0.185 C  
HETATM    2  C   UNL     1      -9.037   3.217  67.952  1.00  0.00    -0.169 A  
HETATM    3  C   UNL     1      -8.938   2.639  66.693  1.00  0.00    -0.156 A  
HETATM    4  C   UNL     1      -8.660   3.399  65.566  1.00  0.00    -0.112 A  
HETATM    5  N   UNL     1      -8.720   2.760  64.324  1.00  0.00    -0.094 NA 
HETATM    6  C   UNL     1      -8.572   4.797  65.709  1.00  0.00    -0.124 A  
HETATM    7  H2  UNL     1      -9.633   2.319  64.215  1.00  0.00     0.000 HD 
HETATM    8  C   UNL     1      -8.419   5.654  64.595  1.00  0.00    -0.085 A  
HETATM    9  H1  UNL     1      -8.515   3.319  63.496  1.00  0.00     0.000 HD 
HETATM   10  C   UNL     1      -8.315   7.037  64.735  1.00  0.00     0.018 A  
HETATM   11  C   UNL     1      -8.350   7.604  65.995  1.00  0.00    -0.135 A  
HETATM   12  C   UNL     1      -8.507   6.784  67.116  1.00  0.00    -0.120 A  
HETATM   13  C   UNL     1      -8.651   5.378  67.002  1.00  0.00    -0.109 A  
HETATM   14  N   UNL     1      -8.885   4.569  68.093  1.00  0.00    -0.104 NA 
ENDROOT
BRANCH  14  15
HETATM   15  C   UNL     1      -9.046   5.175  69.444  1.00  0.00    -0.108 C  
BRANCH  15  16
HETATM   16  C   UNL     1     -10.468   5.697  69.634  1.00  0.00    -0.374 C  
BRANCH  16  17
HETATM   17  C   UNL     1     -10.534   6.768  70.720  1.00  0.00    -0.242 C  
BRANCH  17  18
HETATM   18  C   UNL     1     -10.735   8.177  70.154  1.00  0.00    -0.243 C  
BRANCH  18  19
HETATM   19  C   UNL     1      -9.720   9.173  70.708  1.00  0.00    -0.337 C  
BRANCH  19  20
HETATM   20  C   UNL     1      -8.464   9.297  69.843  1.00  0.00    -0.170 C  
BRANCH  20  21
HETATM   21  C   UNL     1      -8.255  10.697  69.250  1.00  0.00    -0.122 C  
BRANCH  21  22
HETATM   22  C   UNL     1      -7.567  10.670  67.883  1.00  0.00    -0.091 C  
BRANCH  22  23
HETATM   23  C   UNL     1      -8.091  11.742  66.920  1.00  0.00    -0.160 C  
BRANCH  23  24
HETATM   24  C   UNL     1      -9.487  12.222  67.320  1.00  0.00    -0.186 C  
BRANCH  24  25
HETATM   25  N   UNL     1      -9.959  13.285  66.397  1.00  0.00    -0.282 NA 
HETATM   26  C   UNL     1     -10.688  12.957  65.285  1.00  0.00    -0.296 A  
HETATM   27  C   UNL     1     -11.191  13.967  64.461  1.00  0.00    -0.372 A  
HETATM   28  C   UNL     1     -11.068  11.550  64.880  1.00  0.00    -0.282 C  
HETATM   29  C   UNL     1     -10.949  15.307  64.722  1.00  0.00    -0.386 A  
HETATM   30  N   UNL     1     -11.611  16.248  63.928  1.00  0.00    -1.573 NA 
HETATM   31  C   UNL     1     -10.255  15.637  65.898  1.00  0.00    -0.372 A  
HETATM   32  H1  UNL     1     -11.434  17.234  64.120  1.00  0.00     0.000 HD 
HETATM   33  C   UNL     1      -9.724  14.605  66.720  1.00  0.00    -0.257 A  
HETATM   34  H2  UNL     1     -12.616  16.073  63.965  1.00  0.00     0.000 HD 
HETATM   35  C   UNL     1      -8.983  14.981  67.870  1.00  0.00    -0.175 A  
HETATM   36  C   UNL     1      -8.808  16.314  68.235  1.00  0.00    -0.188 A  
HETATM   37  C   UNL     1      -9.363  17.312  67.456  1.00  0.00    -0.236 A  
HETATM   38  C   UNL     1     -10.069  16.979  66.302  1.00  0.00    -0.330 A  
ENDBRANCH  24  25
ENDBRANCH  23  24
ENDBRANCH  22  23
ENDBRANCH  21  22
ENDBRANCH  20  21
ENDBRANCH  19  20
ENDBRANCH  18  19
ENDBRANCH  17  18
ENDBRANCH  16  17
ENDBRANCH  15  16
ENDBRANCH  14  15
TORSDOF 11
ENDMDL
MODEL      283
REMARK 921   NORMALIZED FREE ENERGY PREDICTED BY IDOCK:   -5.15 KCAL/MOL
REMARK 922        TOTAL FREE ENERGY PREDICTED BY IDOCK:   -9.82 KCAL/MOL
REMARK 923 INTER-LIGAND FREE ENERGY PREDICTED BY IDOCK:   -8.80 KCAL/MOL
REMARK 924 INTRA-LIGAND FREE ENERGY PREDICTED BY IDOCK:   -1.02 KCAL/MOL
REMARK 927      BINDING AFFINITY PREDICTED BY RF-SCORE:    0.00 PKD
ROOT
HETATM    1  C   UNL     1     -13.048   7.133  71.193  1.00  0.00    -0.294 C  
HETATM    2  C   UNL     1     -11.693   6.539  71.502  1.00  0.00    -0.324 A  
HETATM    3  C   UNL     1     -11.544   5.854  72.702  1.00  0.00    -0.289 A  
HETATM    4  C   UNL     1     -10.338   5.266  73.055  1.00  0.00    -0.193 A  
HETATM    5  N   UNL     1     -10.317   4.477  74.209  1.00  0.00    -0.227 NA 
HETATM    6  C   UNL     1      -9.283   5.295  72.124  1.00  0.00    -0.156 A  
HETATM    7  H2  UNL     1     -11.035   3.756  74.138  1.00  0.00     0.000 HD 
HETATM    8  C   UNL     1      -8.065   4.612  72.351  1.00  0.00    -0.106 A  
HETATM    9  H1  UNL     1      -9.430   4.045  74.469  1.00  0.00     0.000 HD 
HETATM   10  C   UNL     1      -7.013   4.654  71.438  1.00  0.00    -0.042 A  
HETATM   11  C   UNL     1      -7.142   5.389  70.275  1.00  0.00    -0.062 A  
HETATM   12  C   UNL     1      -8.335   6.071  70.017  1.00  0.00    -0.123 A  
HETATM   13  C   UNL     1      -9.435   6.018  70.911  1.00  0.00    -0.168 A  
HETATM   14  N   UNL     1     -10.642   6.620  70.631  1.00  0.00    -0.220 NA 
ENDROOT
BRANCH  14  15
HETATM   15  C   UNL     1     -10.839   7.316  69.328  1.00  0.00    -0.159 C  
BRANCH  15  16
HETATM   16  C   UNL     1     -11.109   6.307  68.214  1.00  0.00    -0.364 C  
BRANCH  16  17
HETATM   17  C   UNL     1     -10.779   6.884  66.840  1.00  0.00    -0.386 C  
BRANCH  17  18
HETATM   18  C   UNL     1      -9.449   7.643  66.817  1.00  0.00    -0.244 C  
BRANCH  18  19
HETATM   19  C   UNL     1      -9.395   8.679  65.698  1.00  0.00    -0.173 C  
BRANCH  19  20
HETATM   20  C   UNL     1      -9.923  10.052  66.119  1.00  0.00    -0.322 C  
BRANCH  20  21
HETATM   21  C   UNL     1     -10.363  10.935  64.944  1.00  0.00    -0.371 C  
BRANCH  21  22
HETATM   22  C   UNL     1     -11.257  12.101  65.375  1.00  0.00    -0.381 C  
BRANCH  22  23
HETATM   23  C   UNL     1     -10.532  13.452  65.367  1.00  0.00    -0.310 C  
BRANCH  23  24
HETATM   24  C   UNL     1      -9.600  13.597  66.570  1.00  0.00    -0.286 C  
BRANCH  24  25
HETATM   25  N   UNL     1     -10.277  14.327  67.673  1.00  0.00    -0.236 NA 
HETATM   26  C   UNL     1     -10.880  13.634  68.688  1.00  0.00    -0.263 A  
HETATM   27  C   UNL     1     -11.451  14.327  69.759  1.00  0.00    -0.317 A  
HETATM   28  C   UNL     1     -10.936  12.127  68.797  1.00  0.00    -0.274 C  
HETATM   29  C   UNL     1     -11.451  15.713  69.811  1.00  0.00    -0.342 A  
HETATM   30  N   UNL     1     -11.914  16.313  70.985  1.00  0.00    -0.569 NA 
HETATM   31  C   UNL     1     -10.776  16.413  68.798  1.00  0.00    -0.321 A  
HETATM   32  H1  UNL     1     -11.913  17.333  71.025  1.00  0.00     0.000 HD 
HETATM   33  C   UNL     1     -10.218  15.705  67.698  1.00  0.00    -0.261 A  
HETATM   34  H2  UNL     1     -11.392  15.946  71.781  1.00  0.00     0.000 HD 
HETATM   35  C   UNL     1      -9.591  16.453  66.669  1.00  0.00    -0.273 A  
HETATM   36  C   UNL     1      -9.468  17.839  66.732  1.00  0.00    -0.289 A  
HETATM   37  C   UNL     1      -9.973  18.520  67.823  1.00  0.00    -0.369 A  
HETATM   38  C   UNL     1     -10.623  17.818  68.836  1.00  0.00    -0.084 A  
ENDBRANCH  24  25
ENDBRANCH  23  24
ENDBRANCH  22  23
ENDBRANCH  21  22
ENDBRANCH  20  21
ENDBRANCH  19  20
ENDBRANCH  18  19
ENDBRANCH  17  18
ENDBRANCH  16  17
ENDBRANCH  15  16
ENDBRANCH  14  15
TORSDOF 11
ENDMDL
MODEL      284
REMARK 921   NORMALIZED FREE ENERGY PREDICTED BY IDOCK:   -5.15 KCAL/MOL
REMARK 922        TOTAL FREE ENERGY PREDICTED BY IDOCK:   -9.82 KCAL/MOL
REMARK 923 INTER-LIGAND FREE ENERGY PREDICTED BY IDOCK:   -8.73 KCAL/MOL
REMARK 924 INTRA-LIGAND FREE ENERGY PREDICTED BY IDOCK:   -1.08 KCAL/MOL
REMARK 927      BINDING AFFINITY PREDICTED BY RF-SCORE:    0.00 PKD
ROOT
HETATM    1  C   UNL     1      -7.117  14.565  67.681  1.00  0.00    -0.202 C  
HETATM    2  C   UNL     1      -7.647  15.981  67.713  1.00  0.00    -0.140 A  
HETATM    3  C   UNL     1      -7.026  16.887  68.563  1.00  0.00    -0.186 A  
HETATM    4  C   UNL     1      -7.442  18.208  68.642  1.00  0.00    -0.290 A  
HETATM    5  N   UNL     1      -6.672  19.084  69.414  1.00  0.00    -0.292 NA 
HETATM    6  C   UNL     1      -8.455  18.643  67.766  1.00  0.00    -0.293 A  
HETATM    7  H2  UNL     1      -5.704  19.054  69.093  1.00  0.00     0.000 HD 
HETATM    8  C   UNL     1      -8.848  19.999  67.692  1.00  0.00    -0.407 A  
HETATM    9  H1  UNL     1      -6.978  20.055  69.472  1.00  0.00     0.000 HD 
HETATM   10  C   UNL     1      -9.862  20.429  66.837  1.00  0.00    -0.572 A  
HETATM   11  C   UNL     1     -10.521  19.513  66.039  1.00  0.00    -0.611 A  
HETATM   12  C   UNL     1     -10.152  18.166  66.084  1.00  0.00    -0.338 A  
HETATM   13  C   UNL     1      -9.100  17.706  66.918  1.00  0.00    -0.253 A  
HETATM   14  N   UNL     1      -8.676  16.394  66.912  1.00  0.00    -0.188 NA 
ENDROOT
BRANCH  14  15
HETATM   15  C   UNL     1      -9.294  15.419  65.971  1.00  0.00    -0.329 C  
BRANCH  15  16
HETATM   16  C   UNL     1     -10.485  14.722  66.625  1.00  0.00    -0.286 C  
BRANCH  16  17
HETATM   17  C   UNL     1     -11.238  13.842  65.630  1.00  0.00    -0.306 C  
BRANCH  17  18
HETATM   18  C   UNL     1     -10.317  13.198  64.590  1.00  0.00    -0.381 C  
BRANCH  18  19
HETATM   19  C   UNL     1     -10.876  11.880  64.061  1.00  0.00    -0.438 C  
BRANCH  19  20
HETATM   20  C   UNL     1     -10.039  10.664  64.466  1.00  0.00    -0.421 C  
BRANCH  20  21
HETATM   21  C   UNL     1     -10.373  10.118  65.860  1.00  0.00    -0.221 C  
BRANCH  21  22
HETATM   22  C   UNL     1      -9.180  10.159  66.820  1.00  0.00    -0.174 C  
BRANCH  22  23
HETATM   23  C   UNL     1      -9.103   8.937  67.742  1.00  0.00    -0.143 C  
BRANCH  23  24
HETATM   24  C   UNL     1      -9.050   9.345  69.214  1.00  0.00    -0.152 C  
BRANCH  24  25
HETATM   25  N   UNL     1      -8.737   8.174  70.072  1.00  0.00    -0.130 NA 
HETATM   26  C   UNL     1      -7.435   7.841  70.334  1.00  0.00    -0.078 A  
HETATM   27  C   UNL     1      -7.150   6.782  71.200  1.00  0.00    -0.075 A  
HETATM   28  C   UNL     1      -6.227   8.577  69.802  1.00  0.00    -0.035 C  
HETATM   29  C   UNL     1      -8.156   6.031  71.788  1.00  0.00    -0.114 A  
HETATM   30  N   UNL     1      -7.780   5.089  72.749  1.00  0.00    -0.096 NA 
HETATM   31  C   UNL     1      -9.488   6.419  71.563  1.00  0.00    -0.162 A  
HETATM   32  H1  UNL     1      -8.521   4.537  73.182  1.00  0.00     0.000 HD 
HETATM   33  C   UNL     1      -9.774   7.481  70.662  1.00  0.00    -0.175 A  
HETATM   34  H2  UNL     1      -7.234   5.550  73.478  1.00  0.00     0.000 HD 
HETATM   35  C   UNL     1     -11.133   7.806  70.421  1.00  0.00    -0.259 A  
HETATM   36  C   UNL     1     -12.177   7.155  71.074  1.00  0.00    -0.384 A  
HETATM   37  C   UNL     1     -11.893   6.152  71.982  1.00  0.00    -0.336 A  
HETATM   38  C   UNL     1     -10.569   5.785  72.217  1.00  0.00    -0.264 A  
ENDBRANCH  24  25
ENDBRANCH  23  24
ENDBRANCH  22  23
ENDBRANCH  21  22
ENDBRANCH  20  21
ENDBRANCH  19  20
ENDBRANCH  18  19
ENDBRANCH  17  18
ENDBRANCH  16  17
ENDBRANCH  15  16
ENDBRANCH  14  15
TORSDOF 11
ENDMDL
MODEL      285
REMARK 921   NORMALIZED FREE ENERGY PREDICTED BY IDOCK:   -5.14 KCAL/MOL
REMARK 922        TOTAL FREE ENERGY PREDICTED BY IDOCK:   -9.80 KCAL/MOL
REMARK 923 INTER-LIGAND FREE ENERGY PREDICTED BY IDOCK:   -6.64 KCAL/MOL
REMARK 924 INTRA-LIGAND FREE ENERGY PREDICTED BY IDOCK:   -3.16 KCAL/MOL
REMARK 927      BINDING AFFINITY PREDICTED BY RF-SCORE:    0.00 PKD
ROOT
HETATM    1  C   UNL     1      -7.550  10.910  68.352  1.00  0.00    -0.104 C  
HETATM    2  C   UNL     1      -8.729  10.438  69.174  1.00  0.00    -0.166 A  
HETATM    3  C   UNL     1     -10.003  10.768  68.728  1.00  0.00    -0.201 A  
HETATM    4  C   UNL     1     -11.137  10.362  69.415  1.00  0.00    -0.254 A  
HETATM    5  N   UNL     1     -12.378  10.615  68.821  1.00  0.00    -0.784 NA 
HETATM    6  C   UNL     1     -10.977   9.520  70.532  1.00  0.00    -0.348 A  
HETATM    7  H2  UNL     1     -12.391  10.214  67.883  1.00  0.00     0.000 HD 
HETATM    8  C   UNL     1     -12.083   8.958  71.211  1.00  0.00    -0.360 A  
HETATM    9  H1  UNL     1     -13.212  10.316  69.326  1.00  0.00     0.000 HD 
HETATM   10  C   UNL     1     -11.926   8.138  72.327  1.00  0.00    -0.434 A  
HETATM   11  C   UNL     1     -10.659   7.864  72.805  1.00  0.00    -0.418 A  
HETATM   12  C   UNL     1      -9.544   8.399  72.153  1.00  0.00    -0.367 A  
HETATM   13  C   UNL     1      -9.671   9.207  70.994  1.00  0.00    -0.289 A  
HETATM   14  N   UNL     1      -8.578   9.675  70.298  1.00  0.00    -0.214 NA 
ENDROOT
BRANCH  14  15
HETATM   15  C   UNL     1      -7.205   9.290  70.729  1.00  0.00    -0.121 C  
BRANCH  15  16
HETATM   16  C   UNL     1      -6.806   7.947  70.121  1.00  0.00    -0.045 C  
BRANCH  16  17
HETATM   17  C   UNL     1      -6.148   7.035  71.153  1.00  0.00    -0.036 C  
BRANCH  17  18
HETATM   18  C   UNL     1      -6.833   5.671  71.265  1.00  0.00    -0.062 C  
BRANCH  18  19
HETATM   19  C   UNL     1      -7.495   5.466  72.624  1.00  0.00    -0.097 C  
BRANCH  19  20
HETATM   20  C   UNL     1      -8.451   4.272  72.656  1.00  0.00    -0.101 C  
BRANCH  20  21
HETATM   21  C   UNL     1      -7.858   2.987  72.063  1.00  0.00    -0.054 C  
BRANCH  21  22
HETATM   22  C   UNL     1      -8.758   2.349  71.000  1.00  0.00    -0.114 C  
BRANCH  22  23
HETATM   23  C   UNL     1      -8.377   2.748  69.569  1.00  0.00    -0.086 C  
BRANCH  23  24
HETATM   24  C   UNL     1      -9.614   2.943  68.691  1.00  0.00    -0.014 C  
BRANCH  24  25
HETATM   25  N   UNL     1      -9.539   4.232  67.959  1.00  0.00    -0.162 NA 
HETATM   26  C   UNL     1      -9.929   5.394  68.569  1.00  0.00    -0.164 A  
HETATM   27  C   UNL     1      -9.787   6.612  67.899  1.00  0.00    -0.138 A  
HETATM   28  C   UNL     1     -10.465   5.497  69.978  1.00  0.00    -0.373 C  
HETATM   29  C   UNL     1      -9.282   6.679  66.609  1.00  0.00    -0.157 A  
HETATM   30  N   UNL     1      -9.041   7.948  66.076  1.00  0.00    -0.294 NA 
HETATM   31  C   UNL     1      -8.826   5.491  66.016  1.00  0.00    -0.147 A  
HETATM   32  H1  UNL     1      -8.669   7.998  65.128  1.00  0.00     0.000 HD 
HETATM   33  C   UNL     1      -8.995   4.251  66.691  1.00  0.00    -0.121 A  
HETATM   34  H2  UNL     1      -8.428   8.468  66.705  1.00  0.00     0.000 HD 
HETATM   35  C   UNL     1      -8.570   3.067  66.034  1.00  0.00    -0.117 A  
HETATM   36  C   UNL     1      -7.955   3.094  64.785  1.00  0.00    -0.086 A  
HETATM   37  C   UNL     1      -7.753   4.305  64.151  1.00  0.00    -0.083 A  
HETATM   38  C   UNL     1      -8.188   5.484  64.754  1.00  0.00    -0.133 A  
ENDBRANCH  24  25
ENDBRANCH  23  24
ENDBRANCH  22  23
ENDBRANCH  21  22
ENDBRANCH  20  21
ENDBRANCH  19  20
ENDBRANCH  18  19
ENDBRANCH  17  18
ENDBRANCH  16  17
ENDBRANCH  15  16
ENDBRANCH  14  15
TORSDOF 11
ENDMDL
MODEL      286
REMARK 921   NORMALIZED FREE ENERGY PREDICTED BY IDOCK:   -5.14 KCAL/MOL
REMARK 922        TOTAL FREE ENERGY PREDICTED BY IDOCK:   -9.80 KCAL/MOL
REMARK 923 INTER-LIGAND FREE ENERGY PREDICTED BY IDOCK:   -7.80 KCAL/MOL
REMARK 924 INTRA-LIGAND FREE ENERGY PREDICTED BY IDOCK:   -1.99 KCAL/MOL
REMARK 927      BINDING AFFINITY PREDICTED BY RF-SCORE:    0.00 PKD
ROOT
HETATM    1  C   UNL     1      -7.360   6.888  72.562  1.00  0.00    -0.085 C  
HETATM    2  C   UNL     1      -7.684   6.698  71.098  1.00  0.00    -0.097 A  
HETATM    3  C   UNL     1      -7.171   5.575  70.461  1.00  0.00    -0.070 A  
HETATM    4  C   UNL     1      -7.433   5.318  69.123  1.00  0.00    -0.069 A  
HETATM    5  N   UNL     1      -6.996   4.096  68.601  1.00  0.00    -0.047 NA 
HETATM    6  C   UNL     1      -8.315   6.175  68.438  1.00  0.00    -0.114 A  
HETATM    7  H2  UNL     1      -7.369   3.335  69.169  1.00  0.00     0.000 HD 
HETATM    8  C   UNL     1      -8.736   5.914  67.113  1.00  0.00    -0.108 A  
HETATM    9  H1  UNL     1      -7.189   3.908  67.618  1.00  0.00     0.000 HD 
HETATM   10  C   UNL     1      -9.596   6.770  66.428  1.00  0.00    -0.149 A  
HETATM   11  C   UNL     1     -10.054   7.919  67.044  1.00  0.00    -0.347 A  
HETATM   12  C   UNL     1      -9.663   8.203  68.355  1.00  0.00    -0.172 A  
HETATM   13  C   UNL     1      -8.817   7.333  69.089  1.00  0.00    -0.136 A  
HETATM   14  N   UNL     1      -8.489   7.563  70.408  1.00  0.00    -0.139 NA 
ENDROOT
BRANCH  14  15
HETATM   15  C   UNL     1      -9.070   8.732  71.123  1.00  0.00    -0.225 C  
BRANCH  15  16
HETATM   16  C   UNL     1     -10.346   8.333  71.861  1.00  0.00    -0.324 C  
BRANCH  16  17
HETATM   17  C   UNL     1     -11.593   8.656  71.042  1.00  0.00    -0.325 C  
BRANCH  17  18
HETATM   18  C   UNL     1     -12.750   9.177  71.900  1.00  0.00    -0.464 C  
BRANCH  18  19
HETATM   19  C   UNL     1     -13.091  10.631  71.588  1.00  0.00    -0.555 C  
BRANCH  19  20
HETATM   20  C   UNL     1     -12.337  11.181  70.376  1.00  0.00    -0.430 C  
BRANCH  20  21
HETATM   21  C   UNL     1     -12.308  12.714  70.307  1.00  0.00    -0.269 C  
BRANCH  21  22
HETATM   22  C   UNL     1     -11.724  13.242  68.994  1.00  0.00    -0.368 C  
BRANCH  22  23
HETATM   23  C   UNL     1     -11.811  12.231  67.844  1.00  0.00    -0.358 C  
BRANCH  23  24
HETATM   24  C   UNL     1     -11.251  12.808  66.544  1.00  0.00    -0.307 C  
BRANCH  24  25
HETATM   25  N   UNL     1     -10.454  11.787  65.818  1.00  0.00    -0.251 NA 
HETATM   26  C   UNL     1     -10.814  11.403  64.553  1.00  0.00    -0.309 A  
HETATM   27  C   UNL     1     -10.018  10.497  63.849  1.00  0.00    -0.348 A  
HETATM   28  C   UNL     1     -12.007  11.936  63.792  1.00  0.00    -0.547 C  
HETATM   29  C   UNL     1      -8.876   9.945  64.408  1.00  0.00    -0.217 A  
HETATM   30  N   UNL     1      -8.066   9.162  63.580  1.00  0.00    -0.150 NA 
HETATM   31  C   UNL     1      -8.479  10.391  65.679  1.00  0.00    -0.169 A  
HETATM   32  H1  UNL     1      -7.225   8.757  63.990  1.00  0.00     0.000 HD 
HETATM   33  C   UNL     1      -9.306  11.295  66.402  1.00  0.00    -0.192 A  
HETATM   34  H2  UNL     1      -7.810   9.701  62.751  1.00  0.00     0.000 HD 
HETATM   35  C   UNL     1      -8.897  11.679  67.705  1.00  0.00    -0.159 A  
HETATM   36  C   UNL     1      -7.700  11.239  68.266  1.00  0.00    -0.122 A  
HETATM   37  C   UNL     1      -6.879  10.394  67.543  1.00  0.00    -0.075 A  
HETATM   38  C   UNL     1      -7.267   9.972  66.273  1.00  0.00    -0.106 A  
ENDBRANCH  24  25
ENDBRANCH  23  24
ENDBRANCH  22  23
ENDBRANCH  21  22
ENDBRANCH  20  21
ENDBRANCH  19  20
ENDBRANCH  18  19
ENDBRANCH  17  18
ENDBRANCH  16  17
ENDBRANCH  15  16
ENDBRANCH  14  15
TORSDOF 11
ENDMDL
MODEL      287
REMARK 921   NORMALIZED FREE ENERGY PREDICTED BY IDOCK:   -5.13 KCAL/MOL
REMARK 922        TOTAL FREE ENERGY PREDICTED BY IDOCK:   -9.79 KCAL/MOL
REMARK 923 INTER-LIGAND FREE ENERGY PREDICTED BY IDOCK:   -8.87 KCAL/MOL
REMARK 924 INTRA-LIGAND FREE ENERGY PREDICTED BY IDOCK:   -0.91 KCAL/MOL
REMARK 927      BINDING AFFINITY PREDICTED BY RF-SCORE:    0.00 PKD
ROOT
HETATM    1  C   UNL     1     -10.934   6.235  67.890  1.00  0.00    -0.421 C  
HETATM    2  C   UNL     1     -10.759   6.480  69.371  1.00  0.00    -0.277 A  
HETATM    3  C   UNL     1     -11.897   6.732  70.126  1.00  0.00    -0.321 A  
HETATM    4  C   UNL     1     -11.825   6.952  71.494  1.00  0.00    -0.324 A  
HETATM    5  N   UNL     1     -13.030   7.055  72.197  1.00  0.00    -0.544 NA 
HETATM    6  C   UNL     1     -10.574   6.821  72.127  1.00  0.00    -0.237 A  
HETATM    7  H2  UNL     1     -13.596   6.226  72.019  1.00  0.00     0.000 HD 
HETATM    8  C   UNL     1     -10.434   6.902  73.532  1.00  0.00    -0.382 A  
HETATM    9  H1  UNL     1     -12.976   7.217  73.202  1.00  0.00     0.000 HD 
HETATM   10  C   UNL     1      -9.195   6.789  74.159  1.00  0.00    -0.234 A  
HETATM   11  C   UNL     1      -8.056   6.602  73.399  1.00  0.00    -0.112 A  
HETATM   12  C   UNL     1      -8.161   6.510  72.008  1.00  0.00    -0.107 A  
HETATM   13  C   UNL     1      -9.413   6.586  71.345  1.00  0.00    -0.158 A  
HETATM   14  N   UNL     1      -9.537   6.419  69.983  1.00  0.00    -0.158 NA 
ENDROOT
BRANCH  14  15
HETATM   15  C   UNL     1      -8.336   6.097  69.163  1.00  0.00    -0.116 C  
BRANCH  15  16
HETATM   16  C   UNL     1      -7.956   7.282  68.276  1.00  0.00    -0.124 C  
BRANCH  16  17
HETATM   17  C   UNL     1      -7.731   8.549  69.096  1.00  0.00    -0.091 C  
BRANCH  17  18
HETATM   18  C   UNL     1      -6.419   9.258  68.748  1.00  0.00    -0.048 C  
BRANCH  18  19
HETATM   19  C   UNL     1      -6.369  10.682  69.294  1.00  0.00    -0.057 C  
BRANCH  19  20
HETATM   20  C   UNL     1      -7.461  11.587  68.720  1.00  0.00    -0.119 C  
BRANCH  20  21
HETATM   21  C   UNL     1      -7.847  11.253  67.273  1.00  0.00    -0.141 C  
BRANCH  21  22
HETATM   22  C   UNL     1      -9.000  12.112  66.747  1.00  0.00    -0.203 C  
BRANCH  22  23
HETATM   23  C   UNL     1     -10.370  11.441  66.895  1.00  0.00    -0.262 C  
BRANCH  23  24
HETATM   24  C   UNL     1     -11.509  12.413  66.587  1.00  0.00    -0.370 C  
BRANCH  24  25
HETATM   25  N   UNL     1     -11.602  13.460  67.636  1.00  0.00    -0.319 NA 
HETATM   26  C   UNL     1     -11.968  13.126  68.912  1.00  0.00    -0.277 A  
HETATM   27  C   UNL     1     -11.983  14.104  69.910  1.00  0.00    -0.398 A  
HETATM   28  C   UNL     1     -12.314  11.730  69.378  1.00  0.00    -0.097 C  
HETATM   29  C   UNL     1     -11.660  15.424  69.639  1.00  0.00    -0.331 A  
HETATM   30  N   UNL     1     -11.561  16.300  70.724  1.00  0.00    -0.543 NA 
HETATM   31  C   UNL     1     -11.225  15.746  68.342  1.00  0.00    -0.362 A  
HETATM   32  H1  UNL     1     -11.324  17.272  70.524  1.00  0.00     0.000 HD 
HETATM   33  C   UNL     1     -11.236  14.753  67.324  1.00  0.00    -0.346 A  
HETATM   34  H2  UNL     1     -10.898  15.924  71.402  1.00  0.00     0.000 HD 
HETATM   35  C   UNL     1     -10.841  15.132  66.016  1.00  0.00    -0.335 A  
HETATM   36  C   UNL     1     -10.402  16.420  65.719  1.00  0.00    -0.388 A  
HETATM   37  C   UNL     1     -10.352  17.371  66.720  1.00  0.00    -0.305 A  
HETATM   38  C   UNL     1     -10.764  17.041  68.010  1.00  0.00    -0.365 A  
ENDBRANCH  24  25
ENDBRANCH  23  24
ENDBRANCH  22  23
ENDBRANCH  21  22
ENDBRANCH  20  21
ENDBRANCH  19  20
ENDBRANCH  18  19
ENDBRANCH  17  18
ENDBRANCH  16  17
ENDBRANCH  15  16
ENDBRANCH  14  15
TORSDOF 11
ENDMDL
MODEL      288
REMARK 921   NORMALIZED FREE ENERGY PREDICTED BY IDOCK:   -5.13 KCAL/MOL
REMARK 922        TOTAL FREE ENERGY PREDICTED BY IDOCK:   -9.78 KCAL/MOL
REMARK 923 INTER-LIGAND FREE ENERGY PREDICTED BY IDOCK:   -6.82 KCAL/MOL
REMARK 924 INTRA-LIGAND FREE ENERGY PREDICTED BY IDOCK:   -2.96 KCAL/MOL
REMARK 927      BINDING AFFINITY PREDICTED BY RF-SCORE:    0.00 PKD
ROOT
HETATM    1  C   UNL     1     -11.259  15.540  64.575  1.00  0.00    -0.327 C  
HETATM    2  C   UNL     1     -11.141  14.068  64.898  1.00  0.00    -0.375 A  
HETATM    3  C   UNL     1     -10.925  13.188  63.845  1.00  0.00    -0.308 A  
HETATM    4  C   UNL     1     -10.790  11.824  64.056  1.00  0.00    -0.385 A  
HETATM    5  N   UNL     1     -10.433  11.031  62.961  1.00  0.00    -0.788 NA 
HETATM    6  C   UNL     1     -10.781  11.352  65.383  1.00  0.00    -0.313 A  
HETATM    7  H2  UNL     1      -9.574  11.394  62.548  1.00  0.00     0.000 HD 
HETATM    8  C   UNL     1     -10.522   9.996  65.693  1.00  0.00    -0.048 A  
HETATM    9  H1  UNL     1     -10.334  10.028  63.117  1.00  0.00     0.000 HD 
HETATM   10  C   UNL     1     -10.530   9.523  67.004  1.00  0.00    -0.302 A  
HETATM   11  C   UNL     1     -10.808  10.389  68.044  1.00  0.00    -0.319 A  
HETATM   12  C   UNL     1     -11.062  11.736  67.772  1.00  0.00    -0.302 A  
HETATM   13  C   UNL     1     -11.026  12.253  66.452  1.00  0.00    -0.287 A  
HETATM   14  N   UNL     1     -11.197  13.593  66.180  1.00  0.00    -0.300 NA 
ENDROOT
BRANCH  14  15
HETATM   15  C   UNL     1     -11.379  14.560  67.298  1.00  0.00    -0.350 C  
BRANCH  15  16
HETATM   16  C   UNL     1     -10.074  14.741  68.070  1.00  0.00    -0.218 C  
BRANCH  16  17
HETATM   17  C   UNL     1      -8.933  15.175  67.153  1.00  0.00    -0.231 C  
BRANCH  17  18
HETATM   18  C   UNL     1      -8.078  16.294  67.755  1.00  0.00    -0.160 C  
BRANCH  18  19
HETATM   19  C   UNL     1      -6.642  16.264  67.239  1.00  0.00    -0.228 C  
BRANCH  19  20
HETATM   20  C   UNL     1      -5.613  15.972  68.334  1.00  0.00    -0.107 C  
BRANCH  20  21
HETATM   21  C   UNL     1      -5.789  14.602  69.001  1.00  0.00    -0.088 C  
BRANCH  21  22
HETATM   22  C   UNL     1      -5.508  13.434  68.051  1.00  0.00    -0.113 C  
BRANCH  22  23
HETATM   23  C   UNL     1      -5.756  12.063  68.689  1.00  0.00    -0.052 C  
BRANCH  23  24
HETATM   24  C   UNL     1      -7.190  11.586  68.459  1.00  0.00    -0.096 C  
BRANCH  24  25
HETATM   25  N   UNL     1      -7.217  10.130  68.164  1.00  0.00    -0.080 NA 
HETATM   26  C   UNL     1      -7.459   9.229  69.167  1.00  0.00    -0.072 A  
HETATM   27  C   UNL     1      -7.555   7.867  68.868  1.00  0.00    -0.100 A  
HETATM   28  C   UNL     1      -7.702   9.587  70.615  1.00  0.00    -0.151 C  
HETATM   29  C   UNL     1      -7.383   7.391  67.578  1.00  0.00    -0.102 A  
HETATM   30  N   UNL     1      -7.640   6.036  67.351  1.00  0.00    -0.092 NA 
HETATM   31  C   UNL     1      -7.199   8.327  66.547  1.00  0.00    -0.076 A  
HETATM   32  H1  UNL     1      -7.515   5.686  66.401  1.00  0.00     0.000 HD 
HETATM   33  C   UNL     1      -7.077   9.709  66.858  1.00  0.00    -0.086 A  
HETATM   34  H2  UNL     1      -8.584   5.814  67.670  1.00  0.00     0.000 HD 
HETATM   35  C   UNL     1      -6.837  10.616  65.794  1.00  0.00    -0.098 A  
HETATM   36  C   UNL     1      -6.769  10.199  64.466  1.00  0.00    -0.117 A  
HETATM   37  C   UNL     1      -6.931   8.860  64.164  1.00  0.00    -0.089 A  
HETATM   38  C   UNL     1      -7.135   7.938  65.189  1.00  0.00    -0.060 A  
ENDBRANCH  24  25
ENDBRANCH  23  24
ENDBRANCH  22  23
ENDBRANCH  21  22
ENDBRANCH  20  21
ENDBRANCH  19  20
ENDBRANCH  18  19
ENDBRANCH  17  18
ENDBRANCH  16  17
ENDBRANCH  15  16
ENDBRANCH  14  15
TORSDOF 11
ENDMDL
MODEL      289
REMARK 921   NORMALIZED FREE ENERGY PREDICTED BY IDOCK:   -5.13 KCAL/MOL
REMARK 922        TOTAL FREE ENERGY PREDICTED BY IDOCK:   -9.77 KCAL/MOL
REMARK 923 INTER-LIGAND FREE ENERGY PREDICTED BY IDOCK:   -8.01 KCAL/MOL
REMARK 924 INTRA-LIGAND FREE ENERGY PREDICTED BY IDOCK:   -1.77 KCAL/MOL
REMARK 927      BINDING AFFINITY PREDICTED BY RF-SCORE:    0.00 PKD
ROOT
HETATM    1  C   UNL     1      -9.830   4.328  71.303  1.00  0.00    -0.257 C  
HETATM    2  C   UNL     1      -9.412   5.545  70.508  1.00  0.00    -0.164 A  
HETATM    3  C   UNL     1      -8.751   5.336  69.304  1.00  0.00    -0.108 A  
HETATM    4  C   UNL     1      -8.347   6.397  68.507  1.00  0.00    -0.113 A  
HETATM    5  N   UNL     1      -7.817   6.095  67.248  1.00  0.00    -0.101 NA 
HETATM    6  C   UNL     1      -8.706   7.701  68.898  1.00  0.00    -0.135 A  
HETATM    7  H2  UNL     1      -8.482   5.521  66.731  1.00  0.00     0.000 HD 
HETATM    8  C   UNL     1      -8.446   8.826  68.080  1.00  0.00    -0.130 A  
HETATM    9  H1  UNL     1      -7.520   6.876  66.663  1.00  0.00     0.000 HD 
HETATM   10  C   UNL     1      -8.785  10.119  68.473  1.00  0.00    -0.123 A  
HETATM   11  C   UNL     1      -9.386  10.329  69.700  1.00  0.00    -0.167 A  
HETATM   12  C   UNL     1      -9.663   9.238  70.529  1.00  0.00    -0.316 A  
HETATM   13  C   UNL     1      -9.360   7.907  70.140  1.00  0.00    -0.156 A  
HETATM   14  N   UNL     1      -9.700   6.818  70.914  1.00  0.00    -0.178 NA 
ENDROOT
BRANCH  14  15
HETATM   15  C   UNL     1     -10.454   7.017  72.183  1.00  0.00    -0.209 C  
BRANCH  15  16
HETATM   16  C   UNL     1     -11.959   6.925  71.935  1.00  0.00    -0.363 C  
BRANCH  16  17
HETATM   17  C   UNL     1     -12.683   8.186  72.399  1.00  0.00    -0.235 C  
BRANCH  17  18
HETATM   18  C   UNL     1     -12.875   9.210  71.276  1.00  0.00    -0.323 C  
BRANCH  18  19
HETATM   19  C   UNL     1     -13.652  10.438  71.741  1.00  0.00    -0.246 C  
BRANCH  19  20
HETATM   20  C   UNL     1     -12.760  11.656  71.995  1.00  0.00    -0.095 C  
BRANCH  20  21
HETATM   21  C   UNL     1     -13.528  12.982  72.073  1.00  0.00    -0.584 C  
BRANCH  21  22
HETATM   22  C   UNL     1     -12.607  14.204  72.113  1.00  0.00    -0.328 C  
BRANCH  22  23
HETATM   23  C   UNL     1     -11.716  14.331  70.872  1.00  0.00    -0.242 C  
BRANCH  23  24
HETATM   24  C   UNL     1     -12.547  14.494  69.598  1.00  0.00    -0.070 C  
BRANCH  24  25
HETATM   25  N   UNL     1     -11.732  14.175  68.398  1.00  0.00    -0.325 NA 
HETATM   26  C   UNL     1     -11.609  12.878  67.975  1.00  0.00    -0.342 A  
HETATM   27  C   UNL     1     -10.902  12.594  66.804  1.00  0.00    -0.279 A  
HETATM   28  C   UNL     1     -12.242  11.682  68.649  1.00  0.00     0.003 C  
HETATM   29  C   UNL     1     -10.291  13.593  66.062  1.00  0.00    -0.304 A  
HETATM   30  N   UNL     1      -9.732  13.233  64.833  1.00  0.00    -0.551 NA 
HETATM   31  C   UNL     1     -10.476  14.925  66.468  1.00  0.00    -0.297 A  
HETATM   32  H1  UNL     1      -9.282  13.967  64.287  1.00  0.00     0.000 HD 
HETATM   33  C   UNL     1     -11.174  15.208  67.674  1.00  0.00    -0.327 A  
HETATM   34  H2  UNL     1     -10.442  12.775  64.260  1.00  0.00     0.000 HD 
HETATM   35  C   UNL     1     -11.292  16.563  68.077  1.00  0.00    -0.107 A  
HETATM   36  C   UNL     1     -10.792  17.610  67.307  1.00  0.00    -0.141 A  
HETATM   37  C   UNL     1     -10.151  17.334  66.114  1.00  0.00    -0.312 A  
HETATM   38  C   UNL     1      -9.989  16.011  65.705  1.00  0.00    -0.382 A  
ENDBRANCH  24  25
ENDBRANCH  23  24
ENDBRANCH  22  23
ENDBRANCH  21  22
ENDBRANCH  20  21
ENDBRANCH  19  20
ENDBRANCH  18  19
ENDBRANCH  17  18
ENDBRANCH  16  17
ENDBRANCH  15  16
ENDBRANCH  14  15
TORSDOF 11
ENDMDL
MODEL      290
REMARK 921   NORMALIZED FREE ENERGY PREDICTED BY IDOCK:   -5.12 KCAL/MOL
REMARK 922        TOTAL FREE ENERGY PREDICTED BY IDOCK:   -9.76 KCAL/MOL
REMARK 923 INTER-LIGAND FREE ENERGY PREDICTED BY IDOCK:   -8.49 KCAL/MOL
REMARK 924 INTRA-LIGAND FREE ENERGY PREDICTED BY IDOCK:   -1.27 KCAL/MOL
REMARK 927      BINDING AFFINITY PREDICTED BY RF-SCORE:    0.00 PKD
ROOT
HETATM    1  C   UNL     1      -8.929   7.429  65.738  1.00  0.00    -0.061 C  
HETATM    2  C   UNL     1      -9.327   6.790  67.049  1.00  0.00    -0.143 A  
HETATM    3  C   UNL     1      -9.363   5.403  67.111  1.00  0.00    -0.117 A  
HETATM    4  C   UNL     1      -9.704   4.738  68.279  1.00  0.00    -0.140 A  
HETATM    5  N   UNL     1      -9.576   3.345  68.292  1.00  0.00    -0.139 NA 
HETATM    6  C   UNL     1      -9.924   5.501  69.442  1.00  0.00    -0.276 A  
HETATM    7  H2  UNL     1      -8.625   3.092  68.026  1.00  0.00     0.000 HD 
HETATM    8  C   UNL     1     -10.150   4.898  70.701  1.00  0.00    -0.306 A  
HETATM    9  H1  UNL     1      -9.827   2.857  69.152  1.00  0.00     0.000 HD 
HETATM   10  C   UNL     1     -10.385   5.651  71.850  1.00  0.00    -0.266 A  
HETATM   11  C   UNL     1     -10.412   7.031  71.772  1.00  0.00    -0.223 A  
HETATM   12  C   UNL     1     -10.185   7.658  70.544  1.00  0.00    -0.201 A  
HETATM   13  C   UNL     1      -9.909   6.918  69.366  1.00  0.00    -0.158 A  
HETATM   14  N   UNL     1      -9.607   7.528  68.167  1.00  0.00    -0.146 NA 
ENDROOT
BRANCH  14  15
HETATM   15  C   UNL     1      -9.513   9.012  68.093  1.00  0.00    -0.142 C  
BRANCH  15  16
HETATM   16  C   UNL     1     -10.835   9.612  67.619  1.00  0.00    -0.276 C  
BRANCH  16  17
HETATM   17  C   UNL     1     -11.391  10.616  68.625  1.00  0.00    -0.345 C  
BRANCH  17  18
HETATM   18  C   UNL     1     -10.579  11.913  68.683  1.00  0.00    -0.259 C  
BRANCH  18  19
HETATM   19  C   UNL     1     -10.593  12.663  67.354  1.00  0.00    -0.240 C  
BRANCH  19  20
HETATM   20  C   UNL     1     -11.894  13.431  67.108  1.00  0.00    -0.429 C  
BRANCH  20  21
HETATM   21  C   UNL     1     -11.722  14.675  66.226  1.00  0.00    -0.325 C  
BRANCH  21  22
HETATM   22  C   UNL     1     -10.300  14.828  65.679  1.00  0.00    -0.369 C  
BRANCH  22  23
HETATM   23  C   UNL     1      -9.789  16.273  65.722  1.00  0.00    -0.332 C  
BRANCH  23  24
HETATM   24  C   UNL     1     -10.235  16.990  66.996  1.00  0.00    -0.303 C  
BRANCH  24  25
HETATM   25  N   UNL     1      -9.161  17.886  67.496  1.00  0.00    -0.248 NA 
HETATM   26  C   UNL     1      -9.203  19.228  67.227  1.00  0.00    -0.303 A  
HETATM   27  C   UNL     1      -8.228  20.074  67.763  1.00  0.00    -0.330 A  
HETATM   28  C   UNL     1     -10.280  19.919  66.423  1.00  0.00    -0.617 C  
HETATM   29  C   UNL     1      -7.192  19.588  68.545  1.00  0.00    -0.326 A  
HETATM   30  N   UNL     1      -6.351  20.522  69.155  1.00  0.00    -0.271 NA 
HETATM   31  C   UNL     1      -7.193  18.221  68.868  1.00  0.00    -0.282 A  
HETATM   32  H1  UNL     1      -5.589  20.165  69.731  1.00  0.00     0.000 HD 
HETATM   33  C   UNL     1      -8.172  17.359  68.301  1.00  0.00    -0.247 A  
HETATM   34  H2  UNL     1      -6.912  21.173  69.705  1.00  0.00     0.000 HD 
HETATM   35  C   UNL     1      -8.106  15.976  68.609  1.00  0.00    -0.187 A  
HETATM   36  C   UNL     1      -7.150  15.457  69.480  1.00  0.00    -0.200 A  
HETATM   37  C   UNL     1      -6.227  16.304  70.063  1.00  0.00    -0.109 A  
HETATM   38  C   UNL     1      -6.244  17.663  69.756  1.00  0.00    -0.178 A  
ENDBRANCH  24  25
ENDBRANCH  23  24
ENDBRANCH  22  23
ENDBRANCH  21  22
ENDBRANCH  20  21
ENDBRANCH  19  20
ENDBRANCH  18  19
ENDBRANCH  17  18
ENDBRANCH  16  17
ENDBRANCH  15  16
ENDBRANCH  14  15
TORSDOF 11
ENDMDL
MODEL      291
REMARK 921   NORMALIZED FREE ENERGY PREDICTED BY IDOCK:   -5.12 KCAL/MOL
REMARK 922        TOTAL FREE ENERGY PREDICTED BY IDOCK:   -9.76 KCAL/MOL
REMARK 923 INTER-LIGAND FREE ENERGY PREDICTED BY IDOCK:   -7.76 KCAL/MOL
REMARK 924 INTRA-LIGAND FREE ENERGY PREDICTED BY IDOCK:   -2.00 KCAL/MOL
REMARK 927      BINDING AFFINITY PREDICTED BY RF-SCORE:    0.00 PKD
ROOT
HETATM    1  C   UNL     1      -6.401   9.929  69.749  1.00  0.00    -0.054 C  
HETATM    2  C   UNL     1      -7.518   8.974  69.394  1.00  0.00    -0.077 A  
HETATM    3  C   UNL     1      -8.637   8.950  70.217  1.00  0.00    -0.178 A  
HETATM    4  C   UNL     1      -9.712   8.114  69.954  1.00  0.00    -0.176 A  
HETATM    5  N   UNL     1     -10.853   8.257  70.750  1.00  0.00    -0.223 NA 
HETATM    6  C   UNL     1      -9.690   7.350  68.772  1.00  0.00    -0.149 A  
HETATM    7  H2  UNL     1     -11.166   9.227  70.720  1.00  0.00     0.000 HD 
HETATM    8  C   UNL     1     -10.798   6.571  68.364  1.00  0.00    -0.357 A  
HETATM    9  H1  UNL     1     -11.643   7.642  70.556  1.00  0.00     0.000 HD 
HETATM   10  C   UNL     1     -10.772   5.800  67.202  1.00  0.00    -0.358 A  
HETATM   11  C   UNL     1      -9.633   5.777  66.419  1.00  0.00    -0.175 A  
HETATM   12  C   UNL     1      -8.524   6.542  66.791  1.00  0.00    -0.113 A  
HETATM   13  C   UNL     1      -8.534   7.362  67.948  1.00  0.00    -0.122 A  
HETATM   14  N   UNL     1      -7.476   8.180  68.281  1.00  0.00    -0.095 NA 
ENDROOT
BRANCH  14  15
HETATM   15  C   UNL     1      -6.289   8.259  67.385  1.00  0.00    -0.057 C  
BRANCH  15  16
HETATM   16  C   UNL     1      -6.560   9.203  66.215  1.00  0.00    -0.066 C  
BRANCH  16  17
HETATM   17  C   UNL     1      -6.303   8.523  64.873  1.00  0.00    -0.064 C  
BRANCH  17  18
HETATM   18  C   UNL     1      -7.514   8.579  63.936  1.00  0.00    -0.118 C  
BRANCH  18  19
HETATM   19  C   UNL     1      -8.652   9.416  64.512  1.00  0.00    -0.219 C  
BRANCH  19  20
HETATM   20  C   UNL     1      -9.486  10.119  63.439  1.00  0.00    -0.308 C  
BRANCH  20  21
HETATM   21  C   UNL     1     -10.644  10.954  64.002  1.00  0.00    -0.310 C  
BRANCH  21  22
HETATM   22  C   UNL     1     -10.632  12.403  63.507  1.00  0.00    -0.451 C  
BRANCH  22  23
HETATM   23  C   UNL     1     -10.299  13.415  64.609  1.00  0.00    -0.400 C  
BRANCH  23  24
HETATM   24  C   UNL     1     -11.564  14.013  65.224  1.00  0.00    -0.337 C  
BRANCH  24  25
HETATM   25  N   UNL     1     -11.290  14.526  66.591  1.00  0.00    -0.347 NA 
HETATM   26  C   UNL     1     -10.922  15.832  66.776  1.00  0.00    -0.192 A  
HETATM   27  C   UNL     1     -10.737  16.325  68.070  1.00  0.00    -0.331 A  
HETATM   28  C   UNL     1     -10.750  16.849  65.671  1.00  0.00    -0.173 C  
HETATM   29  C   UNL     1     -10.889  15.516  69.186  1.00  0.00    -0.251 A  
HETATM   30  N   UNL     1     -10.826  16.129  70.440  1.00  0.00    -0.295 NA 
HETATM   31  C   UNL     1     -11.327  14.195  68.991  1.00  0.00    -0.310 A  
HETATM   32  H1  UNL     1     -10.938  15.534  71.261  1.00  0.00     0.000 HD 
HETATM   33  C   UNL     1     -11.490  13.691  67.671  1.00  0.00    -0.325 A  
HETATM   34  H2  UNL     1     -11.507  16.888  70.480  1.00  0.00     0.000 HD 
HETATM   35  C   UNL     1     -11.881  12.336  67.516  1.00  0.00    -0.331 A  
HETATM   36  C   UNL     1     -12.154  11.515  68.608  1.00  0.00    -0.197 A  
HETATM   37  C   UNL     1     -12.036  12.022  69.888  1.00  0.00    -0.391 A  
HETATM   38  C   UNL     1     -11.622  13.339  70.076  1.00  0.00    -0.212 A  
ENDBRANCH  24  25
ENDBRANCH  23  24
ENDBRANCH  22  23
ENDBRANCH  21  22
ENDBRANCH  20  21
ENDBRANCH  19  20
ENDBRANCH  18  19
ENDBRANCH  17  18
ENDBRANCH  16  17
ENDBRANCH  15  16
ENDBRANCH  14  15
TORSDOF 11
ENDMDL
MODEL      292
REMARK 921   NORMALIZED FREE ENERGY PREDICTED BY IDOCK:   -5.09 KCAL/MOL
REMARK 922        TOTAL FREE ENERGY PREDICTED BY IDOCK:   -9.72 KCAL/MOL
REMARK 923 INTER-LIGAND FREE ENERGY PREDICTED BY IDOCK:   -7.84 KCAL/MOL
REMARK 924 INTRA-LIGAND FREE ENERGY PREDICTED BY IDOCK:   -1.88 KCAL/MOL
REMARK 927      BINDING AFFINITY PREDICTED BY RF-SCORE:    0.00 PKD
ROOT
HETATM    1  C   UNL     1      -7.186   9.068  67.927  1.00  0.00    -0.080 C  
HETATM    2  C   UNL     1      -7.573   8.071  66.858  1.00  0.00    -0.095 A  
HETATM    3  C   UNL     1      -6.842   8.071  65.677  1.00  0.00    -0.056 A  
HETATM    4  C   UNL     1      -7.122   7.180  64.652  1.00  0.00    -0.061 A  
HETATM    5  N   UNL     1      -6.248   7.154  63.560  1.00  0.00    -0.044 NA 
HETATM    6  C   UNL     1      -8.110   6.201  64.869  1.00  0.00    -0.132 A  
HETATM    7  H2  UNL     1      -5.297   6.996  63.893  1.00  0.00     0.000 HD 
HETATM    8  C   UNL     1      -8.368   5.176  63.929  1.00  0.00    -0.131 A  
HETATM    9  H1  UNL     1      -6.454   6.498  62.807  1.00  0.00     0.000 HD 
HETATM   10  C   UNL     1      -9.357   4.216  64.135  1.00  0.00    -0.158 A  
HETATM   11  C   UNL     1     -10.125   4.258  65.283  1.00  0.00    -0.231 A  
HETATM   12  C   UNL     1      -9.891   5.253  66.235  1.00  0.00    -0.202 A  
HETATM   13  C   UNL     1      -8.868   6.222  66.069  1.00  0.00    -0.151 A  
HETATM   14  N   UNL     1      -8.576   7.159  67.037  1.00  0.00    -0.120 NA 
ENDROOT
BRANCH  14  15
HETATM   15  C   UNL     1      -9.313   7.143  68.331  1.00  0.00    -0.135 C  
BRANCH  15  16
HETATM   16  C   UNL     1      -8.486   6.453  69.413  1.00  0.00    -0.126 C  
BRANCH  16  17
HETATM   17  C   UNL     1      -8.936   5.011  69.632  1.00  0.00    -0.133 C  
BRANCH  17  18
HETATM   18  C   UNL     1     -10.166   4.902  70.538  1.00  0.00    -0.288 C  
BRANCH  18  19
HETATM   19  C   UNL     1     -10.091   5.850  71.731  1.00  0.00    -0.228 C  
BRANCH  19  20
HETATM   20  C   UNL     1     -11.466   6.260  72.263  1.00  0.00    -0.351 C  
BRANCH  20  21
HETATM   21  C   UNL     1     -12.146   7.364  71.442  1.00  0.00    -0.357 C  
BRANCH  21  22
HETATM   22  C   UNL     1     -11.344   8.669  71.416  1.00  0.00    -0.350 C  
BRANCH  22  23
HETATM   23  C   UNL     1     -12.179   9.898  71.792  1.00  0.00    -0.425 C  
BRANCH  23  24
HETATM   24  C   UNL     1     -12.946  10.448  70.589  1.00  0.00    -0.283 C  
BRANCH  24  25
HETATM   25  N   UNL     1     -12.387  11.757  70.166  1.00  0.00    -0.234 NA 
HETATM   26  C   UNL     1     -12.608  12.877  70.923  1.00  0.00    -0.270 A  
HETATM   27  C   UNL     1     -12.019  14.090  70.557  1.00  0.00    -0.390 A  
HETATM   28  C   UNL     1     -13.413  12.914  72.202  1.00  0.00    -0.619 C  
HETATM   29  C   UNL     1     -11.230  14.203  69.423  1.00  0.00    -0.255 A  
HETATM   30  N   UNL     1     -10.566  15.416  69.218  1.00  0.00    -0.237 NA 
HETATM   31  C   UNL     1     -10.957  13.037  68.689  1.00  0.00    -0.297 A  
HETATM   32  H1  UNL     1      -9.985  15.500  68.384  1.00  0.00     0.000 HD 
HETATM   33  C   UNL     1     -11.578  11.811  69.049  1.00  0.00    -0.311 A  
HETATM   34  H2  UNL     1     -10.007  15.638  70.041  1.00  0.00     0.000 HD 
HETATM   35  C   UNL     1     -11.319  10.668  68.249  1.00  0.00    -0.357 A  
HETATM   36  C   UNL     1     -10.445  10.706  67.165  1.00  0.00    -0.295 A  
HETATM   37  C   UNL     1      -9.809  11.891  66.844  1.00  0.00    -0.217 A  
HETATM   38  C   UNL     1     -10.067  13.040  67.589  1.00  0.00    -0.217 A  
ENDBRANCH  24  25
ENDBRANCH  23  24
ENDBRANCH  22  23
ENDBRANCH  21  22
ENDBRANCH  20  21
ENDBRANCH  19  20
ENDBRANCH  18  19
ENDBRANCH  17  18
ENDBRANCH  16  17
ENDBRANCH  15  16
ENDBRANCH  14  15
TORSDOF 11
ENDMDL
MODEL      293
REMARK 921   NORMALIZED FREE ENERGY PREDICTED BY IDOCK:   -5.09 KCAL/MOL
REMARK 922        TOTAL FREE ENERGY PREDICTED BY IDOCK:   -9.71 KCAL/MOL
REMARK 923 INTER-LIGAND FREE ENERGY PREDICTED BY IDOCK:   -7.97 KCAL/MOL
REMARK 924 INTRA-LIGAND FREE ENERGY PREDICTED BY IDOCK:   -1.74 KCAL/MOL
REMARK 927      BINDING AFFINITY PREDICTED BY RF-SCORE:    0.00 PKD
ROOT
HETATM    1  C   UNL     1      -7.991   9.068  71.354  1.00  0.00    -0.096 C  
HETATM    2  C   UNL     1      -8.892   7.989  71.911  1.00  0.00    -0.142 A  
HETATM    3  C   UNL     1     -10.257   8.243  71.954  1.00  0.00    -0.314 A  
HETATM    4  C   UNL     1     -11.154   7.302  72.436  1.00  0.00    -0.275 A  
HETATM    5  N   UNL     1     -12.518   7.584  72.311  1.00  0.00    -0.499 NA 
HETATM    6  C   UNL     1     -10.661   6.034  72.798  1.00  0.00    -0.269 A  
HETATM    7  H2  UNL     1     -12.733   7.783  71.334  1.00  0.00     0.000 HD 
HETATM    8  C   UNL     1     -11.521   4.977  73.178  1.00  0.00    -0.362 A  
HETATM    9  H1  UNL     1     -13.178   6.891  72.666  1.00  0.00     0.000 HD 
HETATM   10  C   UNL     1     -11.035   3.726  73.553  1.00  0.00    -0.339 A  
HETATM   11  C   UNL     1      -9.672   3.497  73.570  1.00  0.00    -0.146 A  
HETATM   12  C   UNL     1      -8.795   4.518  73.194  1.00  0.00    -0.110 A  
HETATM   13  C   UNL     1      -9.263   5.790  72.774  1.00  0.00    -0.136 A  
HETATM   14  N   UNL     1      -8.412   6.778  72.327  1.00  0.00    -0.107 NA 
ENDROOT
BRANCH  14  15
HETATM   15  C   UNL     1      -6.951   6.508  72.225  1.00  0.00    -0.073 C  
BRANCH  15  16
HETATM   16  C   UNL     1      -6.660   5.549  71.072  1.00  0.00    -0.044 C  
BRANCH  16  17
HETATM   17  C   UNL     1      -6.486   6.294  69.751  1.00  0.00    -0.043 C  
BRANCH  17  18
HETATM   18  C   UNL     1      -7.579   5.960  68.731  1.00  0.00    -0.090 C  
BRANCH  18  19
HETATM   19  C   UNL     1      -7.591   6.935  67.558  1.00  0.00    -0.109 C  
BRANCH  19  20
HETATM   20  C   UNL     1      -8.971   7.539  67.289  1.00  0.00    -0.130 C  
BRANCH  20  21
HETATM   21  C   UNL     1      -9.078   9.026  67.653  1.00  0.00    -0.144 C  
BRANCH  21  22
HETATM   22  C   UNL     1     -10.315   9.347  68.496  1.00  0.00    -0.236 C  
BRANCH  22  23
HETATM   23  C   UNL     1     -10.473  10.844  68.792  1.00  0.00    -0.224 C  
BRANCH  23  24
HETATM   24  C   UNL     1     -11.817  11.376  68.293  1.00  0.00    -0.249 C  
BRANCH  24  25
HETATM   25  N   UNL     1     -11.623  12.594  67.465  1.00  0.00    -0.339 NA 
HETATM   26  C   UNL     1     -11.712  13.836  68.035  1.00  0.00    -0.355 A  
HETATM   27  C   UNL     1     -11.456  14.973  67.265  1.00  0.00    -0.312 A  
HETATM   28  C   UNL     1     -12.014  14.102  69.492  1.00  0.00    -0.389 C  
HETATM   29  C   UNL     1     -11.138  14.884  65.919  1.00  0.00    -0.338 A  
HETATM   30  N   UNL     1     -10.758  16.061  65.267  1.00  0.00    -0.451 NA 
HETATM   31  C   UNL     1     -10.987  13.605  65.358  1.00  0.00    -0.302 A  
HETATM   32  H1  UNL     1     -10.523  15.996  64.276  1.00  0.00     0.000 HD 
HETATM   33  C   UNL     1     -11.273  12.451  66.138  1.00  0.00    -0.322 A  
HETATM   34  H2  UNL     1      -9.980  16.489  65.769  1.00  0.00     0.000 HD 
HETATM   35  C   UNL     1     -11.160  11.180  65.519  1.00  0.00    -0.073 A  
HETATM   36  C   UNL     1     -10.736  11.034  64.200  1.00  0.00    -0.344 A  
HETATM   37  C   UNL     1     -10.418  12.156  63.458  1.00  0.00    -0.490 A  
HETATM   38  C   UNL     1     -10.549  13.422  64.026  1.00  0.00    -0.122 A  
ENDBRANCH  24  25
ENDBRANCH  23  24
ENDBRANCH  22  23
ENDBRANCH  21  22
ENDBRANCH  20  21
ENDBRANCH  19  20
ENDBRANCH  18  19
ENDBRANCH  17  18
ENDBRANCH  16  17
ENDBRANCH  15  16
ENDBRANCH  14  15
TORSDOF 11
ENDMDL
MODEL      294
REMARK 921   NORMALIZED FREE ENERGY PREDICTED BY IDOCK:   -5.08 KCAL/MOL
REMARK 922        TOTAL FREE ENERGY PREDICTED BY IDOCK:   -9.70 KCAL/MOL
REMARK 923 INTER-LIGAND FREE ENERGY PREDICTED BY IDOCK:   -8.13 KCAL/MOL
REMARK 924 INTRA-LIGAND FREE ENERGY PREDICTED BY IDOCK:   -1.57 KCAL/MOL
REMARK 927      BINDING AFFINITY PREDICTED BY RF-SCORE:    0.00 PKD
ROOT
HETATM    1  C   UNL     1      -9.455   3.052  68.494  1.00  0.00    -0.204 C  
HETATM    2  C   UNL     1      -9.073   3.971  67.356  1.00  0.00    -0.150 A  
HETATM    3  C   UNL     1      -8.852   3.402  66.109  1.00  0.00    -0.137 A  
HETATM    4  C   UNL     1      -8.512   4.176  65.009  1.00  0.00    -0.115 A  
HETATM    5  N   UNL     1      -8.448   3.540  63.765  1.00  0.00    -0.090 NA 
HETATM    6  C   UNL     1      -8.489   5.576  65.159  1.00  0.00    -0.147 A  
HETATM    7  H2  UNL     1      -9.332   3.066  63.582  1.00  0.00     0.000 HD 
HETATM    8  C   UNL     1      -8.278   6.443  64.062  1.00  0.00     0.024 A  
HETATM    9  H1  UNL     1      -8.198   4.110  62.957  1.00  0.00     0.000 HD 
HETATM   10  C   UNL     1      -8.237   7.828  64.211  1.00  0.00    -0.030 A  
HETATM   11  C   UNL     1      -8.395   8.388  65.465  1.00  0.00    -0.161 A  
HETATM   12  C   UNL     1      -8.612   7.559  66.569  1.00  0.00    -0.134 A  
HETATM   13  C   UNL     1      -8.693   6.149  66.442  1.00  0.00    -0.138 A  
HETATM   14  N   UNL     1      -8.984   5.328  67.510  1.00  0.00    -0.109 NA 
ENDROOT
BRANCH  14  15
HETATM   15  C   UNL     1      -9.275   5.922  68.844  1.00  0.00    -0.119 C  
BRANCH  15  16
HETATM   16  C   UNL     1     -10.721   6.409  68.913  1.00  0.00    -0.339 C  
BRANCH  16  17
HETATM   17  C   UNL     1     -10.887   7.539  69.925  1.00  0.00    -0.250 C  
BRANCH  17  18
HETATM   18  C   UNL     1     -10.586   8.919  69.332  1.00  0.00    -0.226 C  
BRANCH  18  19
HETATM   19  C   UNL     1      -9.240   9.466  69.796  1.00  0.00    -0.209 C  
BRANCH  19  20
HETATM   20  C   UNL     1      -8.529  10.304  68.730  1.00  0.00    -0.130 C  
BRANCH  20  21
HETATM   21  C   UNL     1      -7.731  11.484  69.299  1.00  0.00     0.105 C  
BRANCH  21  22
HETATM   22  C   UNL     1      -6.801  12.130  68.268  1.00  0.00    -0.069 C  
BRANCH  22  23
HETATM   23  C   UNL     1      -7.537  13.042  67.279  1.00  0.00    -0.097 C  
BRANCH  23  24
HETATM   24  C   UNL     1      -8.795  13.647  67.901  1.00  0.00    -0.188 C  
BRANCH  24  25
HETATM   25  N   UNL     1      -9.623  14.315  66.864  1.00  0.00    -0.252 NA 
HETATM   26  C   UNL     1      -9.684  15.681  66.806  1.00  0.00    -0.241 A  
HETATM   27  C   UNL     1     -10.406  16.302  65.783  1.00  0.00    -0.393 A  
HETATM   28  C   UNL     1      -8.964  16.623  67.745  1.00  0.00    -0.211 C  
HETATM   29  C   UNL     1     -11.094  15.568  64.830  1.00  0.00    -0.416 A  
HETATM   30  N   UNL     1     -11.666  16.269  63.765  1.00  0.00    -1.488 NA 
HETATM   31  C   UNL     1     -10.975  14.169  64.860  1.00  0.00    -0.405 A  
HETATM   32  H1  UNL     1     -12.172  15.730  63.063  1.00  0.00     0.000 HD 
HETATM   33  C   UNL     1     -10.260  13.541  65.917  1.00  0.00    -0.301 A  
HETATM   34  H2  UNL     1     -10.948  16.829  63.305  1.00  0.00     0.000 HD 
HETATM   35  C   UNL     1     -10.209  12.123  65.941  1.00  0.00    -0.272 A  
HETATM   36  C   UNL     1     -10.791  11.345  64.943  1.00  0.00    -0.323 A  
HETATM   37  C   UNL     1     -11.449  11.960  63.895  1.00  0.00    -0.511 A  
HETATM   38  C   UNL     1     -11.545  13.350  63.858  1.00  0.00    -0.401 A  
ENDBRANCH  24  25
ENDBRANCH  23  24
ENDBRANCH  22  23
ENDBRANCH  21  22
ENDBRANCH  20  21
ENDBRANCH  19  20
ENDBRANCH  18  19
ENDBRANCH  17  18
ENDBRANCH  16  17
ENDBRANCH  15  16
ENDBRANCH  14  15
TORSDOF 11
ENDMDL
MODEL      295
REMARK 921   NORMALIZED FREE ENERGY PREDICTED BY IDOCK:   -5.08 KCAL/MOL
REMARK 922        TOTAL FREE ENERGY PREDICTED BY IDOCK:   -9.69 KCAL/MOL
REMARK 923 INTER-LIGAND FREE ENERGY PREDICTED BY IDOCK:   -8.09 KCAL/MOL
REMARK 924 INTRA-LIGAND FREE ENERGY PREDICTED BY IDOCK:   -1.61 KCAL/MOL
REMARK 927      BINDING AFFINITY PREDICTED BY RF-SCORE:    0.00 PKD
ROOT
HETATM    1  C   UNL     1     -10.699   5.400  70.795  1.00  0.00    -0.252 C  
HETATM    2  C   UNL     1     -10.464   6.394  69.680  1.00  0.00    -0.227 A  
HETATM    3  C   UNL     1     -10.218   5.896  68.407  1.00  0.00    -0.236 A  
HETATM    4  C   UNL     1     -10.007   6.740  67.327  1.00  0.00    -0.157 A  
HETATM    5  N   UNL     1      -9.908   6.157  66.060  1.00  0.00    -0.387 NA 
HETATM    6  C   UNL     1     -10.142   8.127  67.527  1.00  0.00    -0.286 A  
HETATM    7  H2  UNL     1     -10.736   5.587  65.885  1.00  0.00     0.000 HD 
HETATM    8  C   UNL     1     -10.070   9.048  66.456  1.00  0.00    -0.354 A  
HETATM    9  H1  UNL     1      -9.753   6.778  65.266  1.00  0.00     0.000 HD 
HETATM   10  C   UNL     1     -10.187  10.423  66.654  1.00  0.00    -0.292 A  
HETATM   11  C   UNL     1     -10.369  10.919  67.931  1.00  0.00    -0.216 A  
HETATM   12  C   UNL     1     -10.451  10.035  69.010  1.00  0.00    -0.233 A  
HETATM   13  C   UNL     1     -10.371   8.630  68.835  1.00  0.00    -0.211 A  
HETATM   14  N   UNL     1     -10.529   7.746  69.880  1.00  0.00    -0.227 NA 
ENDROOT
BRANCH  14  15
HETATM   15  C   UNL     1     -10.845   8.258  71.243  1.00  0.00    -0.237 C  
BRANCH  15  16
HETATM   16  C   UNL     1     -12.337   8.116  71.539  1.00  0.00    -0.335 C  
BRANCH  16  17
HETATM   17  C   UNL     1     -13.124   9.334  71.064  1.00  0.00    -0.164 C  
BRANCH  17  18
HETATM   18  C   UNL     1     -13.637  10.199  72.219  1.00  0.00    -0.224 C  
BRANCH  18  19
HETATM   19  C   UNL     1     -13.399  11.686  71.977  1.00  0.00    -0.405 C  
BRANCH  19  20
HETATM   20  C   UNL     1     -12.457  11.964  70.803  1.00  0.00    -0.384 C  
BRANCH  20  21
HETATM   21  C   UNL     1     -12.526  13.405  70.280  1.00  0.00    -0.285 C  
BRANCH  21  22
HETATM   22  C   UNL     1     -11.170  14.114  70.303  1.00  0.00     0.006 C  
BRANCH  22  23
HETATM   23  C   UNL     1     -11.277  15.613  70.608  1.00  0.00    -0.382 C  
BRANCH  23  24
HETATM   24  C   UNL     1     -11.907  16.380  69.445  1.00  0.00     0.138 C  
BRANCH  24  25
HETATM   25  N   UNL     1     -10.890  16.680  68.404  1.00  0.00    -0.351 NA 
HETATM   26  C   UNL     1     -10.008  17.712  68.580  1.00  0.00    -0.367 A  
HETATM   27  C   UNL     1      -9.009  17.942  67.631  1.00  0.00    -0.250 A  
HETATM   28  C   UNL     1      -9.973  18.627  69.783  1.00  0.00     0.556 C  
HETATM   29  C   UNL     1      -8.898  17.165  66.489  1.00  0.00    -0.262 A  
HETATM   30  N   UNL     1      -7.784  17.375  65.671  1.00  0.00    -0.334 NA 
HETATM   31  C   UNL     1      -9.767  16.070  66.347  1.00  0.00    -0.307 A  
HETATM   32  H1  UNL     1      -7.702  16.804  64.830  1.00  0.00     0.000 HD 
HETATM   33  C   UNL     1     -10.798  15.855  67.302  1.00  0.00    -0.279 A  
HETATM   34  H2  UNL     1      -6.934  17.279  66.228  1.00  0.00     0.000 HD 
HETATM   35  C   UNL     1     -11.687  14.770  67.094  1.00  0.00    -0.351 A  
HETATM   36  C   UNL     1     -11.548  13.894  66.020  1.00  0.00    -0.359 A  
HETATM   37  C   UNL     1     -10.518  14.081  65.117  1.00  0.00    -0.415 A  
HETATM   38  C   UNL     1      -9.646  15.157  65.274  1.00  0.00    -0.013 A  
ENDBRANCH  24  25
ENDBRANCH  23  24
ENDBRANCH  22  23
ENDBRANCH  21  22
ENDBRANCH  20  21
ENDBRANCH  19  20
ENDBRANCH  18  19
ENDBRANCH  17  18
ENDBRANCH  16  17
ENDBRANCH  15  16
ENDBRANCH  14  15
TORSDOF 11
ENDMDL
MODEL      296
REMARK 921   NORMALIZED FREE ENERGY PREDICTED BY IDOCK:   -5.07 KCAL/MOL
REMARK 922        TOTAL FREE ENERGY PREDICTED BY IDOCK:   -9.68 KCAL/MOL
REMARK 923 INTER-LIGAND FREE ENERGY PREDICTED BY IDOCK:   -8.06 KCAL/MOL
REMARK 924 INTRA-LIGAND FREE ENERGY PREDICTED BY IDOCK:   -1.62 KCAL/MOL
REMARK 927      BINDING AFFINITY PREDICTED BY RF-SCORE:    0.00 PKD
ROOT
HETATM    1  C   UNL     1     -12.528   6.526  71.809  1.00  0.00    -0.293 C  
HETATM    2  C   UNL     1     -11.095   7.006  71.857  1.00  0.00    -0.242 A  
HETATM    3  C   UNL     1     -10.540   7.268  73.103  1.00  0.00    -0.400 A  
HETATM    4  C   UNL     1      -9.227   7.697  73.235  1.00  0.00    -0.229 A  
HETATM    5  N   UNL     1      -8.708   7.800  74.530  1.00  0.00    -0.445 NA 
HETATM    6  C   UNL     1      -8.429   7.772  72.078  1.00  0.00    -0.146 A  
HETATM    7  H2  UNL     1      -8.820   6.907  75.010  1.00  0.00     0.000 HD 
HETATM    8  C   UNL     1      -7.049   8.076  72.139  1.00  0.00    -0.086 A  
HETATM    9  H1  UNL     1      -7.743   8.116  74.627  1.00  0.00     0.000 HD 
HETATM   10  C   UNL     1      -6.261   8.167  70.994  1.00  0.00    -0.034 A  
HETATM   11  C   UNL     1      -6.831   7.968  69.751  1.00  0.00    -0.044 A  
HETATM   12  C   UNL     1      -8.191   7.659  69.656  1.00  0.00    -0.128 A  
HETATM   13  C   UNL     1      -9.010   7.525  70.807  1.00  0.00    -0.149 A  
HETATM   14  N   UNL     1     -10.332   7.144  70.730  1.00  0.00    -0.206 NA 
ENDROOT
BRANCH  14  15
HETATM   15  C   UNL     1     -10.931   6.808  69.408  1.00  0.00    -0.276 C  
BRANCH  15  16
HETATM   16  C   UNL     1     -10.477   5.425  68.947  1.00  0.00    -0.238 C  
BRANCH  16  17
HETATM   17  C   UNL     1     -10.371   5.346  67.426  1.00  0.00    -0.258 C  
BRANCH  17  18
HETATM   18  C   UNL     1      -8.930   5.479  66.923  1.00  0.00    -0.111 C  
BRANCH  18  19
HETATM   19  C   UNL     1      -8.814   6.450  65.752  1.00  0.00    -0.111 C  
BRANCH  19  20
HETATM   20  C   UNL     1      -8.599   7.900  66.191  1.00  0.00    -0.164 C  
BRANCH  20  21
HETATM   21  C   UNL     1      -9.847   8.782  66.054  1.00  0.00    -0.234 C  
BRANCH  21  22
HETATM   22  C   UNL     1      -9.953   9.844  67.153  1.00  0.00    -0.252 C  
BRANCH  22  23
HETATM   23  C   UNL     1     -10.636  11.133  66.683  1.00  0.00    -0.314 C  
BRANCH  23  24
HETATM   24  C   UNL     1     -10.048  11.633  65.363  1.00  0.00    -0.259 C  
BRANCH  24  25
HETATM   25  N   UNL     1     -10.265  13.094  65.213  1.00  0.00    -0.300 NA 
HETATM   26  C   UNL     1     -11.332  13.561  64.493  1.00  0.00    -0.365 A  
HETATM   27  C   UNL     1     -11.571  14.936  64.417  1.00  0.00    -0.296 A  
HETATM   28  C   UNL     1     -12.354  12.694  63.793  1.00  0.00    -0.568 C  
HETATM   29  C   UNL     1     -10.735  15.855  65.033  1.00  0.00    -0.404 A  
HETATM   30  N   UNL     1     -11.132  17.195  65.025  1.00  0.00    -0.608 NA 
HETATM   31  C   UNL     1      -9.680  15.365  65.821  1.00  0.00    -0.385 A  
HETATM   32  H1  UNL     1     -10.517  17.871  65.478  1.00  0.00     0.000 HD 
HETATM   33  C   UNL     1      -9.426  13.967  65.875  1.00  0.00    -0.055 A  
HETATM   34  H2  UNL     1     -12.068  17.271  65.423  1.00  0.00     0.000 HD 
HETATM   35  C   UNL     1      -8.318  13.517  66.638  1.00  0.00     0.244 A  
HETATM   36  C   UNL     1      -7.516  14.393  67.366  1.00  0.00    -0.183 A  
HETATM   37  C   UNL     1      -7.792  15.746  67.345  1.00  0.00    -0.203 A  
HETATM   38  C   UNL     1      -8.853  16.225  66.579  1.00  0.00    -0.318 A  
ENDBRANCH  24  25
ENDBRANCH  23  24
ENDBRANCH  22  23
ENDBRANCH  21  22
ENDBRANCH  20  21
ENDBRANCH  19  20
ENDBRANCH  18  19
ENDBRANCH  17  18
ENDBRANCH  16  17
ENDBRANCH  15  16
ENDBRANCH  14  15
TORSDOF 11
ENDMDL
MODEL      297
REMARK 921   NORMALIZED FREE ENERGY PREDICTED BY IDOCK:   -5.06 KCAL/MOL
REMARK 922        TOTAL FREE ENERGY PREDICTED BY IDOCK:   -9.67 KCAL/MOL
REMARK 923 INTER-LIGAND FREE ENERGY PREDICTED BY IDOCK:   -7.98 KCAL/MOL
REMARK 924 INTRA-LIGAND FREE ENERGY PREDICTED BY IDOCK:   -1.68 KCAL/MOL
REMARK 927      BINDING AFFINITY PREDICTED BY RF-SCORE:    0.00 PKD
ROOT
HETATM    1  C   UNL     1     -12.195   6.742  71.603  1.00  0.00    -0.410 C  
HETATM    2  C   UNL     1     -10.754   7.179  71.734  1.00  0.00    -0.215 A  
HETATM    3  C   UNL     1     -10.299   7.543  72.996  1.00  0.00    -0.376 A  
HETATM    4  C   UNL     1      -8.988   7.942  73.206  1.00  0.00    -0.264 A  
HETATM    5  N   UNL     1      -8.579   8.153  74.527  1.00  0.00    -0.392 NA 
HETATM    6  C   UNL     1      -8.090   7.881  72.123  1.00  0.00    -0.154 A  
HETATM    7  H2  UNL     1      -8.767   7.314  75.075  1.00  0.00     0.000 HD 
HETATM    8  C   UNL     1      -6.709   8.148  72.280  1.00  0.00    -0.081 A  
HETATM    9  H1  UNL     1      -7.614   8.446  74.680  1.00  0.00     0.000 HD 
HETATM   10  C   UNL     1      -5.821   8.104  71.206  1.00  0.00    -0.034 A  
HETATM   11  C   UNL     1      -6.289   7.805  69.941  1.00  0.00    -0.030 A  
HETATM   12  C   UNL     1      -7.646   7.530  69.753  1.00  0.00    -0.094 A  
HETATM   13  C   UNL     1      -8.567   7.532  70.833  1.00  0.00    -0.130 A  
HETATM   14  N   UNL     1      -9.891   7.186  70.673  1.00  0.00    -0.182 NA 
ENDROOT
BRANCH  14  15
HETATM   15  C   UNL     1     -10.386   6.744  69.340  1.00  0.00    -0.199 C  
BRANCH  15  16
HETATM   16  C   UNL     1     -10.290   5.225  69.206  1.00  0.00    -0.286 C  
BRANCH  16  17
HETATM   17  C   UNL     1      -9.842   4.811  67.807  1.00  0.00    -0.194 C  
BRANCH  17  18
HETATM   18  C   UNL     1      -8.406   4.281  67.774  1.00  0.00    -0.098 C  
BRANCH  18  19
HETATM   19  C   UNL     1      -7.582   4.913  66.656  1.00  0.00    -0.088 C  
BRANCH  19  20
HETATM   20  C   UNL     1      -7.604   6.443  66.682  1.00  0.00    -0.094 C  
BRANCH  20  21
HETATM   21  C   UNL     1      -8.543   7.067  65.642  1.00  0.00    -0.121 C  
BRANCH  21  22
HETATM   22  C   UNL     1      -9.244   8.330  66.152  1.00  0.00    -0.250 C  
BRANCH  22  23
HETATM   23  C   UNL     1      -9.098   9.527  65.204  1.00  0.00    -0.281 C  
BRANCH  23  24
HETATM   24  C   UNL     1      -8.454  10.723  65.904  1.00  0.00    -0.166 C  
BRANCH  24  25
HETATM   25  N   UNL     1      -9.490  11.581  66.535  1.00  0.00    -0.199 NA 
HETATM   26  C   UNL     1      -9.519  11.738  67.895  1.00  0.00    -0.191 A  
HETATM   27  C   UNL     1     -10.450  12.603  68.475  1.00  0.00    -0.249 A  
HETATM   28  C   UNL     1      -8.561  11.084  68.865  1.00  0.00    -0.122 C  
HETATM   29  C   UNL     1     -11.375  13.295  67.709  1.00  0.00    -0.295 A  
HETATM   30  N   UNL     1     -12.169  14.245  68.359  1.00  0.00    -0.595 NA 
HETATM   31  C   UNL     1     -11.297  13.178  66.311  1.00  0.00    -0.348 A  
HETATM   32  H1  UNL     1     -12.849  14.755  67.795  1.00  0.00     0.000 HD 
HETATM   33  C   UNL     1     -10.365  12.277  65.727  1.00  0.00    -0.258 A  
HETATM   34  H2  UNL     1     -11.568  14.911  68.845  1.00  0.00     0.000 HD 
HETATM   35  C   UNL     1     -10.355  12.147  64.315  1.00  0.00    -0.363 A  
HETATM   36  C   UNL     1     -11.189  12.905  63.496  1.00  0.00    -0.350 A  
HETATM   37  C   UNL     1     -12.064  13.810  64.065  1.00  0.00    -0.448 A  
HETATM   38  C   UNL     1     -12.122  13.939  65.451  1.00  0.00    -0.423 A  
ENDBRANCH  24  25
ENDBRANCH  23  24
ENDBRANCH  22  23
ENDBRANCH  21  22
ENDBRANCH  20  21
ENDBRANCH  19  20
ENDBRANCH  18  19
ENDBRANCH  17  18
ENDBRANCH  16  17
ENDBRANCH  15  16
ENDBRANCH  14  15
TORSDOF 11
ENDMDL
MODEL      298
REMARK 921   NORMALIZED FREE ENERGY PREDICTED BY IDOCK:   -5.06 KCAL/MOL
REMARK 922        TOTAL FREE ENERGY PREDICTED BY IDOCK:   -9.66 KCAL/MOL
REMARK 923 INTER-LIGAND FREE ENERGY PREDICTED BY IDOCK:   -8.15 KCAL/MOL
REMARK 924 INTRA-LIGAND FREE ENERGY PREDICTED BY IDOCK:   -1.51 KCAL/MOL
REMARK 927      BINDING AFFINITY PREDICTED BY RF-SCORE:    0.00 PKD
ROOT
HETATM    1  C   UNL     1     -10.708   5.764  68.379  1.00  0.00    -0.283 C  
HETATM    2  C   UNL     1     -10.328   6.246  69.760  1.00  0.00    -0.207 A  
HETATM    3  C   UNL     1     -10.993   5.691  70.847  1.00  0.00    -0.257 A  
HETATM    4  C   UNL     1     -10.694   6.067  72.148  1.00  0.00    -0.226 A  
HETATM    5  N   UNL     1     -11.309   5.357  73.184  1.00  0.00    -0.457 NA 
HETATM    6  C   UNL     1      -9.629   6.963  72.356  1.00  0.00    -0.167 A  
HETATM    7  H2  UNL     1     -11.118   4.362  73.070  1.00  0.00     0.000 HD 
HETATM    8  C   UNL     1      -9.176   7.300  73.653  1.00  0.00    -0.262 A  
HETATM    9  H1  UNL     1     -11.089   5.634  74.140  1.00  0.00     0.000 HD 
HETATM   10  C   UNL     1      -8.132   8.200  73.862  1.00  0.00    -0.301 A  
HETATM   11  C   UNL     1      -7.516   8.799  72.780  1.00  0.00     0.138 A  
HETATM   12  C   UNL     1      -7.935   8.483  71.484  1.00  0.00    -0.169 A  
HETATM   13  C   UNL     1      -8.970   7.544  71.240  1.00  0.00    -0.137 A  
HETATM   14  N   UNL     1      -9.338   7.167  69.967  1.00  0.00    -0.155 NA 
ENDROOT
BRANCH  14  15
HETATM   15  C   UNL     1      -8.604   7.711  68.791  1.00  0.00    -0.129 C  
BRANCH  15  16
HETATM   16  C   UNL     1      -7.266   6.996  68.612  1.00  0.00    -0.094 C  
BRANCH  16  17
HETATM   17  C   UNL     1      -6.362   7.731  67.627  1.00  0.00    -0.051 C  
BRANCH  17  18
HETATM   18  C   UNL     1      -5.265   8.545  68.320  1.00  0.00    -0.034 C  
BRANCH  18  19
HETATM   19  C   UNL     1      -5.472  10.048  68.158  1.00  0.00    -0.038 C  
BRANCH  19  20
HETATM   20  C   UNL     1      -6.040  10.436  66.791  1.00  0.00    -0.064 C  
BRANCH  20  21
HETATM   21  C   UNL     1      -7.168  11.474  66.860  1.00  0.00    -0.137 C  
BRANCH  21  22
HETATM   22  C   UNL     1      -8.423  10.947  67.562  1.00  0.00    -0.123 C  
BRANCH  22  23
HETATM   23  C   UNL     1      -9.317  10.101  66.648  1.00  0.00    -0.195 C  
BRANCH  23  24
HETATM   24  C   UNL     1     -10.735   9.977  67.207  1.00  0.00    -0.244 C  
BRANCH  24  25
HETATM   25  N   UNL     1     -11.258  11.307  67.608  1.00  0.00    -0.278 NA 
HETATM   26  C   UNL     1     -11.437  11.606  68.932  1.00  0.00    -0.287 A  
HETATM   27  C   UNL     1     -11.860  12.885  69.305  1.00  0.00    -0.363 A  
HETATM   28  C   UNL     1     -11.150  10.666  70.081  1.00  0.00    -0.341 C  
HETATM   29  C   UNL     1     -12.134  13.864  68.362  1.00  0.00    -0.291 A  
HETATM   30  N   UNL     1     -12.411  15.151  68.831  1.00  0.00    -0.603 NA 
HETATM   31  C   UNL     1     -11.888  13.569  67.011  1.00  0.00    -0.447 A  
HETATM   32  H1  UNL     1     -12.612  15.872  68.138  1.00  0.00     0.000 HD 
HETATM   33  C   UNL     1     -11.482  12.259  66.635  1.00  0.00    -0.373 A  
HETATM   34  H2  UNL     1     -11.645  15.464  69.429  1.00  0.00     0.000 HD 
HETATM   35  C   UNL     1     -11.296  11.987  65.255  1.00  0.00    -0.366 A  
HETATM   36  C   UNL     1     -11.451  12.969  64.279  1.00  0.00    -0.428 A  
HETATM   37  C   UNL     1     -11.804  14.252  64.653  1.00  0.00    -0.459 A  
HETATM   38  C   UNL     1     -12.027  14.545  65.997  1.00  0.00    -0.319 A  
ENDBRANCH  24  25
ENDBRANCH  23  24
ENDBRANCH  22  23
ENDBRANCH  21  22
ENDBRANCH  20  21
ENDBRANCH  19  20
ENDBRANCH  18  19
ENDBRANCH  17  18
ENDBRANCH  16  17
ENDBRANCH  15  16
ENDBRANCH  14  15
TORSDOF 11
ENDMDL
MODEL      299
REMARK 921   NORMALIZED FREE ENERGY PREDICTED BY IDOCK:   -5.03 KCAL/MOL
REMARK 922        TOTAL FREE ENERGY PREDICTED BY IDOCK:   -9.61 KCAL/MOL
REMARK 923 INTER-LIGAND FREE ENERGY PREDICTED BY IDOCK:   -8.55 KCAL/MOL
REMARK 924 INTRA-LIGAND FREE ENERGY PREDICTED BY IDOCK:   -1.06 KCAL/MOL
REMARK 927      BINDING AFFINITY PREDICTED BY RF-SCORE:    0.00 PKD
ROOT
HETATM    1  C   UNL     1     -11.513   7.662  70.757  1.00  0.00    -0.295 C  
HETATM    2  C   UNL     1     -10.452   6.773  70.148  1.00  0.00    -0.209 A  
HETATM    3  C   UNL     1     -10.431   5.436  70.527  1.00  0.00    -0.335 A  
HETATM    4  C   UNL     1      -9.501   4.550  70.005  1.00  0.00    -0.177 A  
HETATM    5  N   UNL     1      -9.640   3.197  70.331  1.00  0.00    -0.159 NA 
HETATM    6  C   UNL     1      -8.628   5.012  69.001  1.00  0.00    -0.091 A  
HETATM    7  H2  UNL     1     -10.579   2.886  70.082  1.00  0.00     0.000 HD 
HETATM    8  C   UNL     1      -7.737   4.146  68.326  1.00  0.00    -0.070 A  
HETATM    9  H1  UNL     1      -8.956   2.546  69.947  1.00  0.00     0.000 HD 
HETATM   10  C   UNL     1      -6.861   4.604  67.344  1.00  0.00    -0.059 A  
HETATM   11  C   UNL     1      -6.841   5.946  67.015  1.00  0.00    -0.063 A  
HETATM   12  C   UNL     1      -7.713   6.829  67.659  1.00  0.00    -0.111 A  
HETATM   13  C   UNL     1      -8.640   6.384  68.636  1.00  0.00    -0.123 A  
HETATM   14  N   UNL     1      -9.558   7.231  69.220  1.00  0.00    -0.156 NA 
ENDROOT
BRANCH  14  15
HETATM   15  C   UNL     1      -9.631   8.655  68.791  1.00  0.00    -0.156 C  
BRANCH  15  16
HETATM   16  C   UNL     1     -10.400   8.782  67.477  1.00  0.00    -0.334 C  
BRANCH  16  17
HETATM   17  C   UNL     1      -9.815   9.874  66.586  1.00  0.00    -0.265 C  
BRANCH  17  18
HETATM   18  C   UNL     1      -9.558   9.399  65.153  1.00  0.00    -0.195 C  
BRANCH  18  19
HETATM   19  C   UNL     1      -9.646  10.539  64.142  1.00  0.00    -0.369 C  
BRANCH  19  20
HETATM   20  C   UNL     1     -10.728  11.566  64.482  1.00  0.00    -0.390 C  
BRANCH  20  21
HETATM   21  C   UNL     1     -10.214  13.010  64.547  1.00  0.00    -0.331 C  
BRANCH  21  22
HETATM   22  C   UNL     1     -11.148  13.943  65.322  1.00  0.00    -0.318 C  
BRANCH  22  23
HETATM   23  C   UNL     1     -10.479  15.257  65.741  1.00  0.00    -0.365 C  
BRANCH  23  24
HETATM   24  C   UNL     1     -10.767  15.593  67.205  1.00  0.00    -0.305 C  
BRANCH  24  25
HETATM   25  N   UNL     1      -9.658  16.392  67.787  1.00  0.00    -0.230 NA 
HETATM   26  C   UNL     1      -8.605  15.764  68.398  1.00  0.00    -0.171 A  
HETATM   27  C   UNL     1      -7.531  16.519  68.878  1.00  0.00    -0.225 A  
HETATM   28  C   UNL     1      -8.459  14.268  68.556  1.00  0.00    -0.164 C  
HETATM   29  C   UNL     1      -7.511  17.901  68.778  1.00  0.00    -0.268 A  
HETATM   30  N   UNL     1      -6.335  18.557  69.153  1.00  0.00    -0.246 NA 
HETATM   31  C   UNL     1      -8.564  18.530  68.094  1.00  0.00    -0.324 A  
HETATM   32  H1  UNL     1      -6.319  19.574  69.080  1.00  0.00     0.000 HD 
HETATM   33  C   UNL     1      -9.666  17.762  67.630  1.00  0.00    -0.282 A  
HETATM   34  H2  UNL     1      -5.550  18.170  68.629  1.00  0.00     0.000 HD 
HETATM   35  C   UNL     1     -10.735  18.443  66.992  1.00  0.00    -0.330 A  
HETATM   36  C   UNL     1     -10.709  19.817  66.768  1.00  0.00    -0.526 A  
HETATM   37  C   UNL     1      -9.616  20.554  67.183  1.00  0.00    -0.570 A  
HETATM   38  C   UNL     1      -8.564  19.922  67.843  1.00  0.00    -0.341 A  
ENDBRANCH  24  25
ENDBRANCH  23  24
ENDBRANCH  22  23
ENDBRANCH  21  22
ENDBRANCH  20  21
ENDBRANCH  19  20
ENDBRANCH  18  19
ENDBRANCH  17  18
ENDBRANCH  16  17
ENDBRANCH  15  16
ENDBRANCH  14  15
TORSDOF 11
ENDMDL
MODEL      300
REMARK 921   NORMALIZED FREE ENERGY PREDICTED BY IDOCK:   -5.01 KCAL/MOL
REMARK 922        TOTAL FREE ENERGY PREDICTED BY IDOCK:   -9.58 KCAL/MOL
REMARK 923 INTER-LIGAND FREE ENERGY PREDICTED BY IDOCK:   -8.21 KCAL/MOL
REMARK 924 INTRA-LIGAND FREE ENERGY PREDICTED BY IDOCK:   -1.37 KCAL/MOL
REMARK 927      BINDING AFFINITY PREDICTED BY RF-SCORE:    0.00 PKD
ROOT
HETATM    1  C   UNL     1     -10.521   9.838  68.579  1.00  0.00    -0.239 C  
HETATM    2  C   UNL     1      -9.956   8.532  68.069  1.00  0.00    -0.183 A  
HETATM    3  C   UNL     1     -10.380   7.359  68.680  1.00  0.00    -0.215 A  
HETATM    4  C   UNL     1      -9.921   6.119  68.262  1.00  0.00    -0.143 A  
HETATM    5  N   UNL     1     -10.506   4.985  68.836  1.00  0.00    -0.073 NA 
HETATM    6  C   UNL     1      -9.080   6.062  67.134  1.00  0.00    -0.113 A  
HETATM    7  H2  UNL     1     -11.518   5.029  68.712  1.00  0.00     0.000 HD 
HETATM    8  C   UNL     1      -8.671   4.833  66.566  1.00  0.00    -0.111 A  
HETATM    9  H1  UNL     1     -10.169   4.073  68.529  1.00  0.00     0.000 HD 
HETATM   10  C   UNL     1      -7.826   4.775  65.460  1.00  0.00    -0.094 A  
HETATM   11  C   UNL     1      -7.355   5.944  64.894  1.00  0.00    -0.073 A  
HETATM   12  C   UNL     1      -7.746   7.176  65.427  1.00  0.00    -0.111 A  
HETATM   13  C   UNL     1      -8.633   7.266  66.530  1.00  0.00    -0.133 A  
HETATM   14  N   UNL     1      -9.087   8.474  67.014  1.00  0.00    -0.139 NA 
ENDROOT
BRANCH  14  15
HETATM   15  C   UNL     1      -8.684   9.741  66.341  1.00  0.00    -0.131 C  
BRANCH  15  16
HETATM   16  C   UNL     1      -9.627  10.058  65.183  1.00  0.00    -0.356 C  
BRANCH  16  17
HETATM   17  C   UNL     1     -10.016  11.534  65.161  1.00  0.00    -0.304 C  
BRANCH  17  18
HETATM   18  C   UNL     1     -11.531  11.750  65.115  1.00  0.00    -0.248 C  
BRANCH  18  19
HETATM   19  C   UNL     1     -12.005  12.743  66.172  1.00  0.00    -0.476 C  
BRANCH  19  20
HETATM   20  C   UNL     1     -12.755  13.940  65.582  1.00  0.00    -0.534 C  
BRANCH  20  21
HETATM   21  C   UNL     1     -12.104  14.519  64.319  1.00  0.00    -0.448 C  
BRANCH  21  22
HETATM   22  C   UNL     1     -11.592  15.949  64.513  1.00  0.00    -0.232 C  
BRANCH  22  23
HETATM   23  C   UNL     1     -10.319  16.025  65.365  1.00  0.00    -0.386 C  
BRANCH  23  24
HETATM   24  C   UNL     1     -10.621  16.495  66.788  1.00  0.00    -0.224 C  
BRANCH  24  25
HETATM   25  N   UNL     1      -9.533  17.370  67.293  1.00  0.00    -0.247 NA 
HETATM   26  C   UNL     1      -9.569  18.719  67.058  1.00  0.00    -0.303 A  
HETATM   27  C   UNL     1      -8.580  19.544  67.598  1.00  0.00    -0.355 A  
HETATM   28  C   UNL     1     -10.655  19.437  66.289  1.00  0.00    -0.569 C  
HETATM   29  C   UNL     1      -7.535  19.031  68.351  1.00  0.00    -0.300 A  
HETATM   30  N   UNL     1      -6.677  19.945  68.970  1.00  0.00    -0.322 NA 
HETATM   31  C   UNL     1      -7.540  17.657  68.639  1.00  0.00    -0.276 A  
HETATM   32  H1  UNL     1      -5.908  19.568  69.524  1.00  0.00     0.000 HD 
HETATM   33  C   UNL     1      -8.534  16.816  68.067  1.00  0.00    -0.205 A  
HETATM   34  H2  UNL     1      -7.224  20.585  69.546  1.00  0.00     0.000 HD 
HETATM   35  C   UNL     1      -8.473  15.426  68.339  1.00  0.00    -0.160 A  
HETATM   36  C   UNL     1      -7.507  14.878  69.180  1.00  0.00    -0.158 A  
HETATM   37  C   UNL     1      -6.568  15.704  69.769  1.00  0.00    -0.160 A  
HETATM   38  C   UNL     1      -6.581  17.071  69.497  1.00  0.00    -0.194 A  
ENDBRANCH  24  25
ENDBRANCH  23  24
ENDBRANCH  22  23
ENDBRANCH  21  22
ENDBRANCH  20  21
ENDBRANCH  19  20
ENDBRANCH  18  19
ENDBRANCH  17  18
ENDBRANCH  16  17
ENDBRANCH  15  16
ENDBRANCH  14  15
TORSDOF 11
ENDMDL
MODEL      301
REMARK 921   NORMALIZED FREE ENERGY PREDICTED BY IDOCK:   -5.01 KCAL/MOL
REMARK 922        TOTAL FREE ENERGY PREDICTED BY IDOCK:   -9.58 KCAL/MOL
REMARK 923 INTER-LIGAND FREE ENERGY PREDICTED BY IDOCK:   -7.95 KCAL/MOL
REMARK 924 INTRA-LIGAND FREE ENERGY PREDICTED BY IDOCK:   -1.63 KCAL/MOL
REMARK 927      BINDING AFFINITY PREDICTED BY RF-SCORE:    0.00 PKD
ROOT
HETATM    1  C   UNL     1     -11.080  10.538  68.672  1.00  0.00    -0.319 C  
HETATM    2  C   UNL     1     -10.271   9.311  68.320  1.00  0.00    -0.201 A  
HETATM    3  C   UNL     1     -10.927   8.260  67.693  1.00  0.00     0.088 A  
HETATM    4  C   UNL     1     -10.255   7.104  67.323  1.00  0.00    -0.245 A  
HETATM    5  N   UNL     1     -10.959   6.158  66.571  1.00  0.00    -0.713 NA 
HETATM    6  C   UNL     1      -8.861   7.052  67.512  1.00  0.00    -0.119 A  
HETATM    7  H2  UNL     1     -11.341   6.607  65.738  1.00  0.00     0.000 HD 
HETATM    8  C   UNL     1      -8.082   5.967  67.048  1.00  0.00    -0.102 A  
HETATM    9  H1  UNL     1     -10.465   5.309  66.299  1.00  0.00     0.000 HD 
HETATM   10  C   UNL     1      -6.704   5.906  67.249  1.00  0.00    -0.061 A  
HETATM   11  C   UNL     1      -6.065   6.924  67.930  1.00  0.00    -0.033 A  
HETATM   12  C   UNL     1      -6.804   8.015  68.396  1.00  0.00    -0.068 A  
HETATM   13  C   UNL     1      -8.202   8.121  68.175  1.00  0.00    -0.129 A  
HETATM   14  N   UNL     1      -8.927   9.227  68.561  1.00  0.00    -0.129 NA 
ENDROOT
BRANCH  14  15
HETATM   15  C   UNL     1      -8.234  10.386  69.189  1.00  0.00    -0.157 C  
BRANCH  15  16
HETATM   16  C   UNL     1      -7.793  11.391  68.126  1.00  0.00    -0.130 C  
BRANCH  16  17
HETATM   17  C   UNL     1      -6.339  11.811  68.317  1.00  0.00    -0.050 C  
BRANCH  17  18
HETATM   18  C   UNL     1      -6.127  12.671  69.567  1.00  0.00    -0.119 C  
BRANCH  18  19
HETATM   19  C   UNL     1      -5.238  13.880  69.293  1.00  0.00    -0.081 C  
BRANCH  19  20
HETATM   20  C   UNL     1      -5.549  14.569  67.963  1.00  0.00    -0.133 C  
BRANCH  20  21
HETATM   21  C   UNL     1      -6.610  15.673  68.069  1.00  0.00    -0.152 C  
BRANCH  21  22
HETATM   22  C   UNL     1      -7.384  15.885  66.765  1.00  0.00    -0.140 C  
BRANCH  22  23
HETATM   23  C   UNL     1      -7.816  17.341  66.549  1.00  0.00    -0.322 C  
BRANCH  23  24
HETATM   24  C   UNL     1      -9.295  17.439  66.176  1.00  0.00    -0.149 C  
BRANCH  24  25
HETATM   25  N   UNL     1     -10.122  16.615  67.094  1.00  0.00    -0.270 NA 
HETATM   26  C   UNL     1     -10.450  17.088  68.337  1.00  0.00    -0.370 A  
HETATM   27  C   UNL     1     -11.288  16.339  69.166  1.00  0.00    -0.291 A  
HETATM   28  C   UNL     1     -10.022  18.426  68.897  1.00  0.00    -0.374 C  
HETATM   29  C   UNL     1     -11.784  15.105  68.777  1.00  0.00    -0.342 A  
HETATM   30  N   UNL     1     -12.728  14.497  69.609  1.00  0.00    -0.540 NA 
HETATM   31  C   UNL     1     -11.495  14.657  67.477  1.00  0.00    -0.378 A  
HETATM   32  H1  UNL     1     -13.093  13.589  69.322  1.00  0.00     0.000 HD 
HETATM   33  C   UNL     1     -10.621  15.410  66.646  1.00  0.00    -0.306 A  
HETATM   34  H2  UNL     1     -13.506  15.139  69.762  1.00  0.00     0.000 HD 
HETATM   35  C   UNL     1     -10.311  14.895  65.361  1.00  0.00    -0.413 A  
HETATM   36  C   UNL     1     -10.873  13.714  64.881  1.00  0.00    -0.382 A  
HETATM   37  C   UNL     1     -11.755  13.007  65.676  1.00  0.00    -0.418 A  
HETATM   38  C   UNL     1     -12.055  13.468  66.956  1.00  0.00    -0.401 A  
ENDBRANCH  24  25
ENDBRANCH  23  24
ENDBRANCH  22  23
ENDBRANCH  21  22
ENDBRANCH  20  21
ENDBRANCH  19  20
ENDBRANCH  18  19
ENDBRANCH  17  18
ENDBRANCH  16  17
ENDBRANCH  15  16
ENDBRANCH  14  15
TORSDOF 11
ENDMDL
MODEL      302
REMARK 921   NORMALIZED FREE ENERGY PREDICTED BY IDOCK:   -5.00 KCAL/MOL
REMARK 922        TOTAL FREE ENERGY PREDICTED BY IDOCK:   -9.57 KCAL/MOL
REMARK 923 INTER-LIGAND FREE ENERGY PREDICTED BY IDOCK:   -5.94 KCAL/MOL
REMARK 924 INTRA-LIGAND FREE ENERGY PREDICTED BY IDOCK:   -3.63 KCAL/MOL
REMARK 927      BINDING AFFINITY PREDICTED BY RF-SCORE:    0.00 PKD
ROOT
HETATM    1  C   UNL     1     -12.096   6.998  70.604  1.00  0.00    -0.332 C  
HETATM    2  C   UNL     1     -10.639   6.972  71.007  1.00  0.00    -0.218 A  
HETATM    3  C   UNL     1     -10.130   5.786  71.522  1.00  0.00    -0.246 A  
HETATM    4  C   UNL     1      -8.801   5.674  71.902  1.00  0.00    -0.135 A  
HETATM    5  N   UNL     1      -8.340   4.407  72.276  1.00  0.00    -0.107 NA 
HETATM    6  C   UNL     1      -7.944   6.765  71.665  1.00  0.00    -0.102 A  
HETATM    7  H2  UNL     1      -8.533   3.744  71.526  1.00  0.00     0.000 HD 
HETATM    8  C   UNL     1      -6.552   6.689  71.904  1.00  0.00    -0.054 A  
HETATM    9  H1  UNL     1      -7.362   4.325  72.555  1.00  0.00     0.000 HD 
HETATM   10  C   UNL     1      -5.704   7.774  71.686  1.00  0.00    -0.035 A  
HETATM   11  C   UNL     1      -6.224   8.971  71.233  1.00  0.00    -0.065 A  
HETATM   12  C   UNL     1      -7.595   9.078  70.981  1.00  0.00    -0.138 A  
HETATM   13  C   UNL     1      -8.476   7.980  71.160  1.00  0.00    -0.123 A  
HETATM   14  N   UNL     1      -9.815   8.050  70.841  1.00  0.00    -0.175 NA 
ENDROOT
BRANCH  14  15
HETATM   15  C   UNL     1     -10.370   9.295  70.239  1.00  0.00    -0.229 C  
BRANCH  15  16
HETATM   16  C   UNL     1      -9.797   9.519  68.841  1.00  0.00    -0.179 C  
BRANCH  16  17
HETATM   17  C   UNL     1     -10.784   9.101  67.755  1.00  0.00    -0.243 C  
BRANCH  17  18
HETATM   18  C   UNL     1     -10.239   7.995  66.847  1.00  0.00    -0.385 C  
BRANCH  18  19
HETATM   19  C   UNL     1      -9.456   6.942  67.625  1.00  0.00    -0.133 C  
BRANCH  19  20
HETATM   20  C   UNL     1      -8.066   6.672  67.045  1.00  0.00    -0.113 C  
BRANCH  20  21
HETATM   21  C   UNL     1      -6.915   7.128  67.952  1.00  0.00    -0.080 C  
BRANCH  21  22
HETATM   22  C   UNL     1      -6.172   8.350  67.405  1.00  0.00    -0.056 C  
BRANCH  22  23
HETATM   23  C   UNL     1      -6.803   8.920  66.129  1.00  0.00    -0.074 C  
BRANCH  23  24
HETATM   24  C   UNL     1      -6.480  10.404  65.956  1.00  0.00    -0.119 C  
BRANCH  24  25
HETATM   25  N   UNL     1      -7.530  11.246  66.584  1.00  0.00    -0.146 NA 
HETATM   26  C   UNL     1      -7.255  11.953  67.724  1.00  0.00    -0.104 A  
HETATM   27  C   UNL     1      -8.225  12.800  68.267  1.00  0.00    -0.159 A  
HETATM   28  C   UNL     1      -5.927  11.953  68.446  1.00  0.00    -0.049 C  
HETATM   29  C   UNL     1      -9.482  12.926  67.696  1.00  0.00    -0.197 A  
HETATM   30  N   UNL     1     -10.334  13.902  68.223  1.00  0.00    -0.242 NA 
HETATM   31  C   UNL     1      -9.734  12.247  66.493  1.00  0.00    -0.242 A  
HETATM   32  H1  UNL     1     -11.258  13.996  67.803  1.00  0.00     0.000 HD 
HETATM   33  C   UNL     1      -8.753  11.368  65.957  1.00  0.00    -0.131 A  
HETATM   34  H2  UNL     1      -9.863  14.807  68.204  1.00  0.00     0.000 HD 
HETATM   35  C   UNL     1      -9.067  10.659  64.770  1.00  0.00    -0.236 A  
HETATM   36  C   UNL     1     -10.274  10.837  64.098  1.00  0.00    -0.412 A  
HETATM   37  C   UNL     1     -11.208  11.725  64.599  1.00  0.00    -0.349 A  
HETATM   38  C   UNL     1     -10.944  12.413  65.782  1.00  0.00    -0.333 A  
ENDBRANCH  24  25
ENDBRANCH  23  24
ENDBRANCH  22  23
ENDBRANCH  21  22
ENDBRANCH  20  21
ENDBRANCH  19  20
ENDBRANCH  18  19
ENDBRANCH  17  18
ENDBRANCH  16  17
ENDBRANCH  15  16
ENDBRANCH  14  15
TORSDOF 11
ENDMDL
MODEL      303
REMARK 921   NORMALIZED FREE ENERGY PREDICTED BY IDOCK:   -4.99 KCAL/MOL
REMARK 922        TOTAL FREE ENERGY PREDICTED BY IDOCK:   -9.55 KCAL/MOL
REMARK 923 INTER-LIGAND FREE ENERGY PREDICTED BY IDOCK:   -7.99 KCAL/MOL
REMARK 924 INTRA-LIGAND FREE ENERGY PREDICTED BY IDOCK:   -1.56 KCAL/MOL
REMARK 927      BINDING AFFINITY PREDICTED BY RF-SCORE:    0.00 PKD
ROOT
HETATM    1  C   UNL     1     -10.546   6.210  67.211  1.00  0.00    -0.362 C  
HETATM    2  C   UNL     1     -10.485   6.652  68.656  1.00  0.00    -0.211 A  
HETATM    3  C   UNL     1     -11.658   6.602  69.398  1.00  0.00    -0.210 A  
HETATM    4  C   UNL     1     -11.686   6.975  70.734  1.00  0.00    -0.349 A  
HETATM    5  N   UNL     1     -12.873   6.760  71.442  1.00  0.00    -0.298 NA 
HETATM    6  C   UNL     1     -10.471   7.320  71.357  1.00  0.00    -0.219 A  
HETATM    7  H2  UNL     1     -13.140   5.778  71.361  1.00  0.00     0.000 HD 
HETATM    8  C   UNL     1     -10.391   7.588  72.743  1.00  0.00    -0.331 A  
HETATM    9  H1  UNL     1     -12.893   7.034  72.423  1.00  0.00     0.000 HD 
HETATM   10  C   UNL     1      -9.192   7.946  73.358  1.00  0.00    -0.351 A  
HETATM   11  C   UNL     1      -8.040   8.056  72.604  1.00  0.00    -0.197 A  
HETATM   12  C   UNL     1      -8.084   7.790  71.232  1.00  0.00    -0.096 A  
HETATM   13  C   UNL     1      -9.281   7.391  70.585  1.00  0.00    -0.157 A  
HETATM   14  N   UNL     1      -9.320   7.050  69.250  1.00  0.00    -0.146 NA 
ENDROOT
BRANCH  14  15
HETATM   15  C   UNL     1      -8.064   7.048  68.449  1.00  0.00    -0.124 C  
BRANCH  15  16
HETATM   16  C   UNL     1      -7.845   8.407  67.788  1.00  0.00    -0.107 C  
BRANCH  16  17
HETATM   17  C   UNL     1      -7.314   8.260  66.364  1.00  0.00    -0.080 C  
BRANCH  17  18
HETATM   18  C   UNL     1      -7.241   9.594  65.616  1.00  0.00    -0.097 C  
BRANCH  18  19
HETATM   19  C   UNL     1      -7.931   9.532  64.256  1.00  0.00    -0.136 C  
BRANCH  19  20
HETATM   20  C   UNL     1      -8.211  10.913  63.658  1.00  0.00     0.187 C  
BRANCH  20  21
HETATM   21  C   UNL     1      -9.461  10.962  62.768  1.00  0.00    -0.359 C  
BRANCH  21  22
HETATM   22  C   UNL     1     -10.603  11.772  63.387  1.00  0.00    -0.479 C  
BRANCH  22  23
HETATM   23  C   UNL     1     -11.027  11.261  64.769  1.00  0.00    -0.262 C  
BRANCH  23  24
HETATM   24  C   UNL     1     -11.718  12.353  65.585  1.00  0.00    -0.414 C  
BRANCH  24  25
HETATM   25  N   UNL     1     -10.897  13.591  65.606  1.00  0.00    -0.284 NA 
HETATM   26  C   UNL     1     -11.286  14.687  64.883  1.00  0.00    -0.403 A  
HETATM   27  C   UNL     1     -10.548  15.870  64.965  1.00  0.00    -0.372 A  
HETATM   28  C   UNL     1     -12.522  14.760  64.015  1.00  0.00    -0.015 C  
HETATM   29  C   UNL     1      -9.405  15.963  65.743  1.00  0.00    -0.245 A  
HETATM   30  N   UNL     1      -8.817  17.223  65.878  1.00  0.00    -0.541 NA 
HETATM   31  C   UNL     1      -9.050  14.855  66.530  1.00  0.00    -0.309 A  
HETATM   32  H1  UNL     1      -7.976  17.292  66.451  1.00  0.00     0.000 HD 
HETATM   33  C   UNL     1      -9.789  13.645  66.425  1.00  0.00    -0.296 A  
HETATM   34  H2  UNL     1      -9.513  17.886  66.221  1.00  0.00     0.000 HD 
HETATM   35  C   UNL     1      -9.365  12.532  67.196  1.00  0.00    -0.201 A  
HETATM   36  C   UNL     1      -8.289  12.609  68.078  1.00  0.00    -0.175 A  
HETATM   37  C   UNL     1      -7.600  13.800  68.209  1.00  0.00    -0.129 A  
HETATM   38  C   UNL     1      -7.970  14.903  67.442  1.00  0.00    -0.223 A  
ENDBRANCH  24  25
ENDBRANCH  23  24
ENDBRANCH  22  23
ENDBRANCH  21  22
ENDBRANCH  20  21
ENDBRANCH  19  20
ENDBRANCH  18  19
ENDBRANCH  17  18
ENDBRANCH  16  17
ENDBRANCH  15  16
ENDBRANCH  14  15
TORSDOF 11
ENDMDL
MODEL      304
REMARK 921   NORMALIZED FREE ENERGY PREDICTED BY IDOCK:   -4.98 KCAL/MOL
REMARK 922        TOTAL FREE ENERGY PREDICTED BY IDOCK:   -9.53 KCAL/MOL
REMARK 923 INTER-LIGAND FREE ENERGY PREDICTED BY IDOCK:   -7.68 KCAL/MOL
REMARK 924 INTRA-LIGAND FREE ENERGY PREDICTED BY IDOCK:   -1.85 KCAL/MOL
REMARK 927      BINDING AFFINITY PREDICTED BY RF-SCORE:    0.00 PKD
ROOT
HETATM    1  C   UNL     1      -7.444   8.058  72.166  1.00  0.00    -0.111 C  
HETATM    2  C   UNL     1      -7.976   7.254  71.001  1.00  0.00    -0.098 A  
HETATM    3  C   UNL     1      -7.585   5.925  70.899  1.00  0.00    -0.096 A  
HETATM    4  C   UNL     1      -8.039   5.114  69.869  1.00  0.00    -0.082 A  
HETATM    5  N   UNL     1      -7.711   3.755  69.923  1.00  0.00    -0.051 NA 
HETATM    6  C   UNL     1      -8.988   5.640  68.973  1.00  0.00    -0.117 A  
HETATM    7  H2  UNL     1      -8.018   3.369  70.816  1.00  0.00     0.000 HD 
HETATM    8  C   UNL     1      -9.597   4.845  67.974  1.00  0.00    -0.190 A  
HETATM    9  H1  UNL     1      -8.045   3.159  69.166  1.00  0.00     0.000 HD 
HETATM   10  C   UNL     1     -10.525   5.368  67.075  1.00  0.00    -0.319 A  
HETATM   11  C   UNL     1     -10.863   6.707  67.140  1.00  0.00    -0.471 A  
HETATM   12  C   UNL     1     -10.284   7.519  68.119  1.00  0.00    -0.228 A  
HETATM   13  C   UNL     1      -9.365   7.006  69.070  1.00  0.00    -0.136 A  
HETATM   14  N   UNL     1      -8.848   7.779  70.087  1.00  0.00    -0.144 NA 
ENDROOT
BRANCH  14  15
HETATM   15  C   UNL     1      -9.294   9.191  70.245  1.00  0.00    -0.220 C  
BRANCH  15  16
HETATM   16  C   UNL     1     -10.572   9.263  71.078  1.00  0.00    -0.386 C  
BRANCH  16  17
HETATM   17  C   UNL     1     -11.544  10.303  70.528  1.00  0.00    -0.424 C  
BRANCH  17  18
HETATM   18  C   UNL     1     -12.697  10.607  71.489  1.00  0.00    -0.549 C  
BRANCH  18  19
HETATM   19  C   UNL     1     -13.172  12.053  71.382  1.00  0.00    -0.170 C  
BRANCH  19  20
HETATM   20  C   UNL     1     -12.218  12.944  70.583  1.00  0.00    -0.386 C  
BRANCH  20  21
HETATM   21  C   UNL     1     -12.258  14.422  70.994  1.00  0.00    -0.422 C  
BRANCH  21  22
HETATM   22  C   UNL     1     -11.726  15.360  69.907  1.00  0.00    -0.357 C  
BRANCH  22  23
HETATM   23  C   UNL     1     -12.072  14.896  68.487  1.00  0.00    -0.193 C  
BRANCH  23  24
HETATM   24  C   UNL     1     -10.965  15.251  67.494  1.00  0.00    -0.315 C  
BRANCH  24  25
HETATM   25  N   UNL     1      -9.808  14.333  67.650  1.00  0.00    -0.222 NA 
HETATM   26  C   UNL     1      -8.658  14.770  68.251  1.00  0.00    -0.164 A  
HETATM   27  C   UNL     1      -7.601  13.880  68.459  1.00  0.00    -0.134 A  
HETATM   28  C   UNL     1      -8.436  16.166  68.788  1.00  0.00    -0.236 C  
HETATM   29  C   UNL     1      -7.671  12.558  68.046  1.00  0.00    -0.140 A  
HETATM   30  N   UNL     1      -6.628  11.708  68.425  1.00  0.00    -0.058 NA 
HETATM   31  C   UNL     1      -8.876  12.103  67.488  1.00  0.00    -0.175 A  
HETATM   32  H1  UNL     1      -6.679  10.736  68.122  1.00  0.00     0.000 HD 
HETATM   33  C   UNL     1      -9.940  13.017  67.255  1.00  0.00    -0.232 A  
HETATM   34  H2  UNL     1      -6.519  11.739  69.439  1.00  0.00     0.000 HD 
HETATM   35  C   UNL     1     -11.121  12.528  66.640  1.00  0.00    -0.327 A  
HETATM   36  C   UNL     1     -11.281  11.185  66.308  1.00  0.00    -0.087 A  
HETATM   37  C   UNL     1     -10.262  10.291  66.575  1.00  0.00    -0.289 A  
HETATM   38  C   UNL     1      -9.075  10.744  67.149  1.00  0.00    -0.153 A  
ENDBRANCH  24  25
ENDBRANCH  23  24
ENDBRANCH  22  23
ENDBRANCH  21  22
ENDBRANCH  20  21
ENDBRANCH  19  20
ENDBRANCH  18  19
ENDBRANCH  17  18
ENDBRANCH  16  17
ENDBRANCH  15  16
ENDBRANCH  14  15
TORSDOF 11
ENDMDL
MODEL      305
REMARK 921   NORMALIZED FREE ENERGY PREDICTED BY IDOCK:   -4.98 KCAL/MOL
REMARK 922        TOTAL FREE ENERGY PREDICTED BY IDOCK:   -9.53 KCAL/MOL
REMARK 923 INTER-LIGAND FREE ENERGY PREDICTED BY IDOCK:   -7.21 KCAL/MOL
REMARK 924 INTRA-LIGAND FREE ENERGY PREDICTED BY IDOCK:   -2.33 KCAL/MOL
REMARK 927      BINDING AFFINITY PREDICTED BY RF-SCORE:    0.00 PKD
ROOT
HETATM    1  C   UNL     1     -11.948  15.220  69.460  1.00  0.00    -0.356 C  
HETATM    2  C   UNL     1     -11.613  13.886  68.833  1.00  0.00    -0.316 A  
HETATM    3  C   UNL     1     -11.993  12.736  69.513  1.00  0.00    -0.338 A  
HETATM    4  C   UNL     1     -11.736  11.473  69.001  1.00  0.00    -0.335 A  
HETATM    5  N   UNL     1     -12.278  10.376  69.679  1.00  0.00    -0.529 NA 
HETATM    6  C   UNL     1     -11.162  11.376  67.719  1.00  0.00    -0.346 A  
HETATM    7  H2  UNL     1     -13.286  10.503  69.774  1.00  0.00     0.000 HD 
HETATM    8  C   UNL     1     -10.985  10.132  67.070  1.00  0.00    -0.162 A  
HETATM    9  H1  UNL     1     -12.089   9.448  69.302  1.00  0.00     0.000 HD 
HETATM   10  C   UNL     1     -10.401  10.033  65.808  1.00  0.00    -0.191 A  
HETATM   11  C   UNL     1      -9.966  11.174  65.162  1.00  0.00    -0.323 A  
HETATM   12  C   UNL     1     -10.132  12.420  65.773  1.00  0.00    -0.273 A  
HETATM   13  C   UNL     1     -10.755  12.555  67.040  1.00  0.00    -0.242 A  
HETATM   14  N   UNL     1     -10.995  13.784  67.617  1.00  0.00    -0.260 NA 
ENDROOT
BRANCH  14  15
HETATM   15  C   UNL     1     -10.642  15.030  66.881  1.00  0.00    -0.297 C  
BRANCH  15  16
HETATM   16  C   UNL     1      -9.128  15.151  66.723  1.00  0.00    -0.282 C  
BRANCH  16  17
HETATM   17  C   UNL     1      -8.447  15.475  68.050  1.00  0.00    -0.143 C  
BRANCH  17  18
HETATM   18  C   UNL     1      -7.754  14.261  68.676  1.00  0.00    -0.135 C  
BRANCH  18  19
HETATM   19  C   UNL     1      -6.692  13.665  67.758  1.00  0.00    -0.177 C  
BRANCH  19  20
HETATM   20  C   UNL     1      -6.560  12.146  67.893  1.00  0.00    -0.085 C  
BRANCH  20  21
HETATM   21  C   UNL     1      -7.819  11.461  68.441  1.00  0.00    -0.135 C  
BRANCH  21  22
HETATM   22  C   UNL     1      -7.507  10.373  69.472  1.00  0.00    -0.148 C  
BRANCH  22  23
HETATM   23  C   UNL     1      -8.628   9.337  69.617  1.00  0.00    -0.151 C  
BRANCH  23  24
HETATM   24  C   UNL     1      -8.166   7.945  69.187  1.00  0.00    -0.132 C  
BRANCH  24  25
HETATM   25  N   UNL     1      -8.747   6.904  70.074  1.00  0.00    -0.141 NA 
HETATM   26  C   UNL     1      -9.891   6.247  69.707  1.00  0.00    -0.165 A  
HETATM   27  C   UNL     1     -10.390   5.219  70.511  1.00  0.00    -0.336 A  
HETATM   28  C   UNL     1     -10.664   6.496  68.432  1.00  0.00    -0.339 C  
HETATM   29  C   UNL     1      -9.771   4.857  71.697  1.00  0.00    -0.173 A  
HETATM   30  N   UNL     1     -10.256   3.726  72.360  1.00  0.00    -0.168 NA 
HETATM   31  C   UNL     1      -8.564   5.493  72.034  1.00  0.00    -0.131 A  
HETATM   32  H1  UNL     1      -9.800   3.460  73.232  1.00  0.00     0.000 HD 
HETATM   33  C   UNL     1      -8.073   6.555  71.226  1.00  0.00    -0.113 A  
HETATM   34  H2  UNL     1     -10.248   2.931  71.720  1.00  0.00     0.000 HD 
HETATM   35  C   UNL     1      -6.880   7.207  71.630  1.00  0.00    -0.056 A  
HETATM   36  C   UNL     1      -6.161   6.806  72.754  1.00  0.00    -0.054 A  
HETATM   37  C   UNL     1      -6.619   5.745  73.513  1.00  0.00    -0.074 A  
HETATM   38  C   UNL     1      -7.805   5.104  73.162  1.00  0.00    -0.101 A  
ENDBRANCH  24  25
ENDBRANCH  23  24
ENDBRANCH  22  23
ENDBRANCH  21  22
ENDBRANCH  20  21
ENDBRANCH  19  20
ENDBRANCH  18  19
ENDBRANCH  17  18
ENDBRANCH  16  17
ENDBRANCH  15  16
ENDBRANCH  14  15
TORSDOF 11
ENDMDL
MODEL      306
REMARK 921   NORMALIZED FREE ENERGY PREDICTED BY IDOCK:   -4.97 KCAL/MOL
REMARK 922        TOTAL FREE ENERGY PREDICTED BY IDOCK:   -9.52 KCAL/MOL
REMARK 923 INTER-LIGAND FREE ENERGY PREDICTED BY IDOCK:   -6.84 KCAL/MOL
REMARK 924 INTRA-LIGAND FREE ENERGY PREDICTED BY IDOCK:   -2.68 KCAL/MOL
REMARK 927      BINDING AFFINITY PREDICTED BY RF-SCORE:    0.00 PKD
ROOT
HETATM    1  C   UNL     1      -7.551   7.888  73.579  1.00  0.00    -0.189 C  
HETATM    2  C   UNL     1      -8.011   6.470  73.329  1.00  0.00    -0.099 A  
HETATM    3  C   UNL     1      -7.050   5.528  72.982  1.00  0.00    -0.085 A  
HETATM    4  C   UNL     1      -7.385   4.203  72.750  1.00  0.00    -0.072 A  
HETATM    5  N   UNL     1      -6.339   3.296  72.547  1.00  0.00    -0.013 NA 
HETATM    6  C   UNL     1      -8.718   3.803  72.965  1.00  0.00    -0.096 A  
HETATM    7  H2  UNL     1      -5.692   3.347  73.335  1.00  0.00     0.000 HD 
HETATM    8  C   UNL     1      -9.117   2.450  72.875  1.00  0.00    -0.099 A  
HETATM    9  H1  UNL     1      -6.586   2.322  72.377  1.00  0.00     0.000 HD 
HETATM   10  C   UNL     1     -10.439   2.054  73.072  1.00  0.00    -0.229 A  
HETATM   11  C   UNL     1     -11.404   3.002  73.353  1.00  0.00    -0.211 A  
HETATM   12  C   UNL     1     -11.041   4.348  73.456  1.00  0.00    -0.388 A  
HETATM   13  C   UNL     1      -9.698   4.775  73.296  1.00  0.00    -0.136 A  
HETATM   14  N   UNL     1      -9.316   6.088  73.472  1.00  0.00    -0.134 NA 
ENDROOT
BRANCH  14  15
HETATM   15  C   UNL     1     -10.322   7.102  73.893  1.00  0.00    -0.296 C  
BRANCH  15  16
HETATM   16  C   UNL     1     -10.902   7.822  72.677  1.00  0.00    -0.413 C  
BRANCH  16  17
HETATM   17  C   UNL     1     -12.274   7.270  72.298  1.00  0.00    -0.192 C  
BRANCH  17  18
HETATM   18  C   UNL     1     -12.367   6.868  70.823  1.00  0.00    -0.314 C  
BRANCH  18  19
HETATM   19  C   UNL     1     -11.014   6.933  70.120  1.00  0.00    -0.322 C  
BRANCH  19  20
HETATM   20  C   UNL     1     -10.601   5.604  69.483  1.00  0.00    -0.384 C  
BRANCH  20  21
HETATM   21  C   UNL     1      -9.100   5.305  69.590  1.00  0.00    -0.149 C  
BRANCH  21  22
HETATM   22  C   UNL     1      -8.360   5.473  68.260  1.00  0.00    -0.098 C  
BRANCH  22  23
HETATM   23  C   UNL     1      -8.976   6.550  67.359  1.00  0.00    -0.110 C  
BRANCH  23  24
HETATM   24  C   UNL     1      -8.013   7.717  67.139  1.00  0.00    -0.117 C  
BRANCH  24  25
HETATM   25  N   UNL     1      -8.643   8.999  67.545  1.00  0.00    -0.120 NA 
HETATM   26  C   UNL     1      -8.566   9.421  68.846  1.00  0.00    -0.131 A  
HETATM   27  C   UNL     1      -9.098  10.663  69.205  1.00  0.00    -0.117 A  
HETATM   28  C   UNL     1      -7.880   8.669  69.964  1.00  0.00    -0.103 C  
HETATM   29  C   UNL     1      -9.732  11.478  68.281  1.00  0.00    -0.198 A  
HETATM   30  N   UNL     1     -10.102  12.760  68.698  1.00  0.00    -0.384 NA 
HETATM   31  C   UNL     1      -9.751  11.066  66.938  1.00  0.00    -0.215 A  
HETATM   32  H1  UNL     1     -10.569  13.360  68.018  1.00  0.00     0.000 HD 
HETATM   33  C   UNL     1      -9.231   9.791  66.581  1.00  0.00    -0.150 A  
HETATM   34  H2  UNL     1      -9.284  13.243  69.069  1.00  0.00     0.000 HD 
HETATM   35  C   UNL     1      -9.317   9.390  65.223  1.00  0.00    -0.303 A  
HETATM   36  C   UNL     1      -9.845  10.221  64.238  1.00  0.00    -0.357 A  
HETATM   37  C   UNL     1     -10.310  11.476  64.582  1.00  0.00    -0.349 A  
HETATM   38  C   UNL     1     -10.270  11.889  65.912  1.00  0.00    -0.270 A  
ENDBRANCH  24  25
ENDBRANCH  23  24
ENDBRANCH  22  23
ENDBRANCH  21  22
ENDBRANCH  20  21
ENDBRANCH  19  20
ENDBRANCH  18  19
ENDBRANCH  17  18
ENDBRANCH  16  17
ENDBRANCH  15  16
ENDBRANCH  14  15
TORSDOF 11
ENDMDL
MODEL      307
REMARK 921   NORMALIZED FREE ENERGY PREDICTED BY IDOCK:   -4.97 KCAL/MOL
REMARK 922        TOTAL FREE ENERGY PREDICTED BY IDOCK:   -9.52 KCAL/MOL
REMARK 923 INTER-LIGAND FREE ENERGY PREDICTED BY IDOCK:   -7.85 KCAL/MOL
REMARK 924 INTRA-LIGAND FREE ENERGY PREDICTED BY IDOCK:   -1.66 KCAL/MOL
REMARK 927      BINDING AFFINITY PREDICTED BY RF-SCORE:    0.00 PKD
ROOT
HETATM    1  C   UNL     1      -7.729  11.045  68.335  1.00  0.00    -0.119 C  
HETATM    2  C   UNL     1      -8.048   9.740  67.641  1.00  0.00    -0.113 A  
HETATM    3  C   UNL     1      -8.478   9.796  66.321  1.00  0.00    -0.129 A  
HETATM    4  C   UNL     1      -8.777   8.645  65.607  1.00  0.00    -0.182 A  
HETATM    5  N   UNL     1      -9.064   8.784  64.246  1.00  0.00    -0.346 NA 
HETATM    6  C   UNL     1      -8.543   7.400  66.221  1.00  0.00    -0.148 A  
HETATM    7  H2  UNL     1      -8.296   9.275  63.787  1.00  0.00     0.000 HD 
HETATM    8  C   UNL     1      -8.700   6.180  65.521  1.00  0.00    -0.105 A  
HETATM    9  H1  UNL     1      -9.284   7.938  63.721  1.00  0.00     0.000 HD 
HETATM   10  C   UNL     1      -8.485   4.945  66.131  1.00  0.00    -0.112 A  
HETATM   11  C   UNL     1      -8.119   4.892  67.463  1.00  0.00    -0.102 A  
HETATM   12  C   UNL     1      -7.950   6.079  68.181  1.00  0.00    -0.110 A  
HETATM   13  C   UNL     1      -8.126   7.351  67.577  1.00  0.00    -0.114 A  
HETATM   14  N   UNL     1      -7.886   8.528  68.253  1.00  0.00    -0.105 NA 
ENDROOT
BRANCH  14  15
HETATM   15  C   UNL     1      -7.375   8.488  69.651  1.00  0.00    -0.060 C  
BRANCH  15  16
HETATM   16  C   UNL     1      -8.453   7.975  70.604  1.00  0.00    -0.125 C  
BRANCH  16  17
HETATM   17  C   UNL     1      -9.572   8.996  70.791  1.00  0.00    -0.308 C  
BRANCH  17  18
HETATM   18  C   UNL     1     -10.859   8.375  71.341  1.00  0.00    -0.304 C  
BRANCH  18  19
HETATM   19  C   UNL     1     -12.110   9.012  70.743  1.00  0.00    -0.169 C  
BRANCH  19  20
HETATM   20  C   UNL     1     -12.898   9.855  71.748  1.00  0.00    -0.540 C  
BRANCH  20  21
HETATM   21  C   UNL     1     -12.930  11.352  71.412  1.00  0.00    -0.468 C  
BRANCH  21  22
HETATM   22  C   UNL     1     -12.038  11.716  70.221  1.00  0.00    -0.443 C  
BRANCH  22  23
HETATM   23  C   UNL     1     -11.538  13.164  70.261  1.00  0.00    -0.079 C  
BRANCH  23  24
HETATM   24  C   UNL     1     -12.288  14.047  69.264  1.00  0.00    -0.171 C  
BRANCH  24  25
HETATM   25  N   UNL     1     -11.335  14.773  68.387  1.00  0.00    -0.285 NA 
HETATM   26  C   UNL     1     -10.666  15.872  68.857  1.00  0.00    -0.254 A  
HETATM   27  C   UNL     1      -9.717  16.505  68.051  1.00  0.00    -0.236 A  
HETATM   28  C   UNL     1     -10.818  16.452  70.245  1.00  0.00    -0.218 C  
HETATM   29  C   UNL     1      -9.449  16.068  66.763  1.00  0.00    -0.231 A  
HETATM   30  N   UNL     1      -8.385  16.672  66.086  1.00  0.00    -0.398 NA 
HETATM   31  C   UNL     1     -10.092  14.904  66.312  1.00  0.00    -0.298 A  
HETATM   32  H1  UNL     1      -8.186  16.350  65.139  1.00  0.00     0.000 HD 
HETATM   33  C   UNL     1     -11.075  14.277  67.126  1.00  0.00    -0.311 A  
HETATM   34  H2  UNL     1      -7.539  16.596  66.651  1.00  0.00     0.000 HD 
HETATM   35  C   UNL     1     -11.741  13.135  66.611  1.00  0.00    -0.427 A  
HETATM   36  C   UNL     1     -11.426  12.592  65.368  1.00  0.00    -0.373 A  
HETATM   37  C   UNL     1     -10.440  13.179  64.598  1.00  0.00    -0.411 A  
HETATM   38  C   UNL     1      -9.789  14.322  65.060  1.00  0.00    -0.058 A  
ENDBRANCH  24  25
ENDBRANCH  23  24
ENDBRANCH  22  23
ENDBRANCH  21  22
ENDBRANCH  20  21
ENDBRANCH  19  20
ENDBRANCH  18  19
ENDBRANCH  17  18
ENDBRANCH  16  17
ENDBRANCH  15  16
ENDBRANCH  14  15
TORSDOF 11
ENDMDL
MODEL      308
REMARK 921   NORMALIZED FREE ENERGY PREDICTED BY IDOCK:   -4.97 KCAL/MOL
REMARK 922        TOTAL FREE ENERGY PREDICTED BY IDOCK:   -9.51 KCAL/MOL
REMARK 923 INTER-LIGAND FREE ENERGY PREDICTED BY IDOCK:   -8.14 KCAL/MOL
REMARK 924 INTRA-LIGAND FREE ENERGY PREDICTED BY IDOCK:   -1.37 KCAL/MOL
REMARK 927      BINDING AFFINITY PREDICTED BY RF-SCORE:    0.00 PKD
ROOT
HETATM    1  C   UNL     1     -10.927   6.071  68.065  1.00  0.00    -0.340 C  
HETATM    2  C   UNL     1     -10.440   6.399  69.459  1.00  0.00    -0.230 A  
HETATM    3  C   UNL     1     -11.035   5.736  70.526  1.00  0.00    -0.320 A  
HETATM    4  C   UNL     1     -10.637   5.967  71.834  1.00  0.00    -0.226 A  
HETATM    5  N   UNL     1     -11.188   5.156  72.831  1.00  0.00    -0.292 NA 
HETATM    6  C   UNL     1      -9.543   6.825  72.058  1.00  0.00    -0.151 A  
HETATM    7  H2  UNL     1     -11.024   4.176  72.597  1.00  0.00     0.000 HD 
HETATM    8  C   UNL     1      -8.993   7.015  73.347  1.00  0.00    -0.169 A  
HETATM    9  H1  UNL     1     -10.896   5.326  73.793  1.00  0.00     0.000 HD 
HETATM   10  C   UNL     1      -7.921   7.876  73.574  1.00  0.00    -0.225 A  
HETATM   11  C   UNL     1      -7.373   8.582  72.520  1.00  0.00    -0.077 A  
HETATM   12  C   UNL     1      -7.889   8.411  71.232  1.00  0.00    -0.128 A  
HETATM   13  C   UNL     1      -8.956   7.516  70.966  1.00  0.00    -0.147 A  
HETATM   14  N   UNL     1      -9.421   7.281  69.690  1.00  0.00    -0.156 NA 
ENDROOT
BRANCH  14  15
HETATM   15  C   UNL     1      -8.763   7.942  68.528  1.00  0.00    -0.131 C  
BRANCH  15  16
HETATM   16  C   UNL     1      -7.502   7.183  68.120  1.00  0.00    -0.099 C  
BRANCH  16  17
HETATM   17  C   UNL     1      -6.477   8.105  67.466  1.00  0.00    -0.057 C  
BRANCH  17  18
HETATM   18  C   UNL     1      -5.246   8.346  68.345  1.00  0.00    -0.033 C  
BRANCH  18  19
HETATM   19  C   UNL     1      -5.348   9.646  69.137  1.00  0.00    -0.036 C  
BRANCH  19  20
HETATM   20  C   UNL     1      -5.514  10.882  68.250  1.00  0.00    -0.039 C  
BRANCH  20  21
HETATM   21  C   UNL     1      -6.339  12.003  68.895  1.00  0.00    -0.081 C  
BRANCH  21  22
HETATM   22  C   UNL     1      -7.775  11.578  69.217  1.00  0.00     0.105 C  
BRANCH  22  23
HETATM   23  C   UNL     1      -8.636  11.362  67.967  1.00  0.00    -0.147 C  
BRANCH  23  24
HETATM   24  C   UNL     1     -10.122  11.563  68.266  1.00  0.00    -0.199 C  
BRANCH  24  25
HETATM   25  N   UNL     1     -10.784  12.297  67.158  1.00  0.00    -0.228 NA 
HETATM   26  C   UNL     1     -11.556  13.397  67.425  1.00  0.00    -0.354 A  
HETATM   27  C   UNL     1     -12.115  14.125  66.372  1.00  0.00    -0.475 A  
HETATM   28  C   UNL     1     -11.821  13.956  68.804  1.00  0.00    -0.396 C  
HETATM   29  C   UNL     1     -11.934  13.748  65.050  1.00  0.00    -0.383 A  
HETATM   30  N   UNL     1     -12.408  14.616  64.062  1.00  0.00    -0.999 NA 
HETATM   31  C   UNL     1     -11.090  12.658  64.782  1.00  0.00    -0.335 A  
HETATM   32  H1  UNL     1     -12.275  14.340  63.089  1.00  0.00     0.000 HD 
HETATM   33  C   UNL     1     -10.543  11.905  65.857  1.00  0.00    -0.266 A  
HETATM   34  H2  UNL     1     -12.007  15.543  64.206  1.00  0.00     0.000 HD 
HETATM   35  C   UNL     1      -9.739  10.779  65.545  1.00  0.00    -0.290 A  
HETATM   36  C   UNL     1      -9.437  10.427  64.231  1.00  0.00    -0.349 A  
HETATM   37  C   UNL     1      -9.935  11.187  63.190  1.00  0.00    -0.393 A  
HETATM   38  C   UNL     1     -10.755  12.280  63.462  1.00  0.00    -0.497 A  
ENDBRANCH  24  25
ENDBRANCH  23  24
ENDBRANCH  22  23
ENDBRANCH  21  22
ENDBRANCH  20  21
ENDBRANCH  19  20
ENDBRANCH  18  19
ENDBRANCH  17  18
ENDBRANCH  16  17
ENDBRANCH  15  16
ENDBRANCH  14  15
TORSDOF 11
ENDMDL
MODEL      309
REMARK 921   NORMALIZED FREE ENERGY PREDICTED BY IDOCK:   -4.95 KCAL/MOL
REMARK 922        TOTAL FREE ENERGY PREDICTED BY IDOCK:   -9.48 KCAL/MOL
REMARK 923 INTER-LIGAND FREE ENERGY PREDICTED BY IDOCK:   -7.36 KCAL/MOL
REMARK 924 INTRA-LIGAND FREE ENERGY PREDICTED BY IDOCK:   -2.12 KCAL/MOL
REMARK 927      BINDING AFFINITY PREDICTED BY RF-SCORE:    0.00 PKD
ROOT
HETATM    1  C   UNL     1      -9.596   9.973  64.572  1.00  0.00    -0.346 C  
HETATM    2  C   UNL     1      -9.969   9.935  66.036  1.00  0.00    -0.268 A  
HETATM    3  C   UNL     1     -10.702  10.999  66.546  1.00  0.00    -0.298 A  
HETATM    4  C   UNL     1     -11.097  11.036  67.875  1.00  0.00    -0.288 A  
HETATM    5  N   UNL     1     -11.950  12.071  68.269  1.00  0.00    -0.463 NA 
HETATM    6  C   UNL     1     -10.820   9.918  68.685  1.00  0.00    -0.244 A  
HETATM    7  H2  UNL     1     -12.777  12.072  67.672  1.00  0.00     0.000 HD 
HETATM    8  C   UNL     1     -11.298   9.819  70.013  1.00  0.00    -0.269 A  
HETATM    9  H1  UNL     1     -12.240  12.098  69.246  1.00  0.00     0.000 HD 
HETATM   10  C   UNL     1     -11.011   8.720  70.822  1.00  0.00    -0.294 A  
HETATM   11  C   UNL     1     -10.229   7.692  70.331  1.00  0.00    -0.203 A  
HETATM   12  C   UNL     1      -9.746   7.756  69.021  1.00  0.00    -0.157 A  
HETATM   13  C   UNL     1     -10.051   8.845  68.163  1.00  0.00    -0.189 A  
HETATM   14  N   UNL     1      -9.646   8.881  66.846  1.00  0.00    -0.174 NA 
ENDROOT
BRANCH  14  15
HETATM   15  C   UNL     1      -8.904   7.727  66.266  1.00  0.00    -0.160 C  
BRANCH  15  16
HETATM   16  C   UNL     1      -7.398   7.920  66.427  1.00  0.00    -0.086 C  
BRANCH  16  17
HETATM   17  C   UNL     1      -6.701   8.062  65.077  1.00  0.00    -0.051 C  
BRANCH  17  18
HETATM   18  C   UNL     1      -5.977   9.403  64.919  1.00  0.00    -0.066 C  
BRANCH  18  19
HETATM   19  C   UNL     1      -5.167   9.772  66.158  1.00  0.00    -0.039 C  
BRANCH  19  20
HETATM   20  C   UNL     1      -5.380  11.219  66.609  1.00  0.00    -0.122 C  
BRANCH  20  21
HETATM   21  C   UNL     1      -6.847  11.575  66.880  1.00  0.00    -0.138 C  
BRANCH  21  22
HETATM   22  C   UNL     1      -7.021  12.534  68.061  1.00  0.00    -0.095 C  
BRANCH  22  23
HETATM   23  C   UNL     1      -7.220  13.992  67.630  1.00  0.00    -0.190 C  
BRANCH  23  24
HETATM   24  C   UNL     1      -8.239  14.707  68.519  1.00  0.00    -0.152 C  
BRANCH  24  25
HETATM   25  N   UNL     1      -8.679  15.980  67.892  1.00  0.00    -0.165 NA 
HETATM   26  C   UNL     1      -8.093  17.163  68.254  1.00  0.00    -0.239 A  
HETATM   27  C   UNL     1      -8.461  18.346  67.608  1.00  0.00    -0.264 A  
HETATM   28  C   UNL     1      -6.999  17.310  69.287  1.00  0.00    -0.178 C  
HETATM   29  C   UNL     1      -9.431  18.364  66.619  1.00  0.00    -0.313 A  
HETATM   30  N   UNL     1      -9.629  19.564  65.930  1.00  0.00    -0.417 NA 
HETATM   31  C   UNL     1      -9.981  17.138  66.210  1.00  0.00    -0.316 A  
HETATM   32  H1  UNL     1     -10.342  19.577  65.202  1.00  0.00     0.000 HD 
HETATM   33  C   UNL     1      -9.622  15.940  66.886  1.00  0.00    -0.229 A  
HETATM   34  H2  UNL     1      -8.741  19.878  65.537  1.00  0.00     0.000 HD 
HETATM   35  C   UNL     1     -10.240  14.730  66.478  1.00  0.00    -0.281 A  
HETATM   36  C   UNL     1     -11.138  14.679  65.415  1.00  0.00    -0.349 A  
HETATM   37  C   UNL     1     -11.451  15.839  64.732  1.00  0.00    -0.256 A  
HETATM   38  C   UNL     1     -10.887  17.050  65.128  1.00  0.00    -0.059 A  
ENDBRANCH  24  25
ENDBRANCH  23  24
ENDBRANCH  22  23
ENDBRANCH  21  22
ENDBRANCH  20  21
ENDBRANCH  19  20
ENDBRANCH  18  19
ENDBRANCH  17  18
ENDBRANCH  16  17
ENDBRANCH  15  16
ENDBRANCH  14  15
TORSDOF 11
ENDMDL
MODEL      310
REMARK 921   NORMALIZED FREE ENERGY PREDICTED BY IDOCK:   -4.95 KCAL/MOL
REMARK 922        TOTAL FREE ENERGY PREDICTED BY IDOCK:   -9.48 KCAL/MOL
REMARK 923 INTER-LIGAND FREE ENERGY PREDICTED BY IDOCK:   -6.97 KCAL/MOL
REMARK 924 INTRA-LIGAND FREE ENERGY PREDICTED BY IDOCK:   -2.51 KCAL/MOL
REMARK 927      BINDING AFFINITY PREDICTED BY RF-SCORE:    0.00 PKD
ROOT
HETATM    1  C   UNL     1     -11.279  15.528  64.587  1.00  0.00    -0.381 C  
HETATM    2  C   UNL     1     -11.213  14.077  65.005  1.00  0.00    -0.352 A  
HETATM    3  C   UNL     1     -11.008  13.125  64.014  1.00  0.00    -0.377 A  
HETATM    4  C   UNL     1     -10.921  11.774  64.314  1.00  0.00    -0.359 A  
HETATM    5  N   UNL     1     -10.572  10.902  63.278  1.00  0.00    -0.701 NA 
HETATM    6  C   UNL     1     -10.950  11.387  65.667  1.00  0.00    -0.254 A  
HETATM    7  H2  UNL     1      -9.695  11.211  62.859  1.00  0.00     0.000 HD 
HETATM    8  C   UNL     1     -10.740  10.047  66.068  1.00  0.00     0.078 A  
HETATM    9  H1  UNL     1     -10.508   9.908  63.499  1.00  0.00     0.000 HD 
HETATM   10  C   UNL     1     -10.785   9.659  67.406  1.00  0.00    -0.308 A  
HETATM   11  C   UNL     1     -11.053  10.598  68.384  1.00  0.00    -0.328 A  
HETATM   12  C   UNL     1     -11.258  11.932  68.022  1.00  0.00    -0.317 A  
HETATM   13  C   UNL     1     -11.184  12.362  66.672  1.00  0.00    -0.315 A  
HETATM   14  N   UNL     1     -11.307  13.687  66.313  1.00  0.00    -0.306 NA 
ENDROOT
BRANCH  14  15
HETATM   15  C   UNL     1     -11.476  14.728  67.364  1.00  0.00    -0.363 C  
BRANCH  15  16
HETATM   16  C   UNL     1     -10.180  14.913  68.152  1.00  0.00    -0.226 C  
BRANCH  16  17
HETATM   17  C   UNL     1      -9.007  15.245  67.235  1.00  0.00    -0.209 C  
BRANCH  17  18
HETATM   18  C   UNL     1      -8.131  16.380  67.774  1.00  0.00    -0.167 C  
BRANCH  18  19
HETATM   19  C   UNL     1      -6.678  16.251  67.328  1.00  0.00    -0.228 C  
BRANCH  19  20
HETATM   20  C   UNL     1      -5.711  16.001  68.488  1.00  0.00    -0.106 C  
BRANCH  20  21
HETATM   21  C   UNL     1      -5.978  14.695  69.248  1.00  0.00    -0.103 C  
BRANCH  21  22
HETATM   22  C   UNL     1      -5.664  13.447  68.419  1.00  0.00    -0.087 C  
BRANCH  22  23
HETATM   23  C   UNL     1      -6.079  12.142  69.109  1.00  0.00    -0.082 C  
BRANCH  23  24
HETATM   24  C   UNL     1      -7.484  11.707  68.690  1.00  0.00    -0.117 C  
BRANCH  24  25
HETATM   25  N   UNL     1      -7.497  10.270  68.313  1.00  0.00    -0.085 NA 
HETATM   26  C   UNL     1      -7.089   9.883  67.065  1.00  0.00    -0.089 A  
HETATM   27  C   UNL     1      -7.035   8.524  66.743  1.00  0.00    -0.073 A  
HETATM   28  C   UNL     1      -6.614  10.820  65.977  1.00  0.00    -0.113 C  
HETATM   29  C   UNL     1      -7.412   7.546  67.649  1.00  0.00    -0.104 A  
HETATM   30  N   UNL     1      -7.187   6.214  67.291  1.00  0.00    -0.074 NA 
HETATM   31  C   UNL     1      -7.768   7.949  68.947  1.00  0.00    -0.105 A  
HETATM   32  H1  UNL     1      -7.464   5.493  67.958  1.00  0.00     0.000 HD 
HETATM   33  C   UNL     1      -7.846   9.333  69.263  1.00  0.00    -0.085 A  
HETATM   34  H2  UNL     1      -6.203   6.090  67.051  1.00  0.00     0.000 HD 
HETATM   35  C   UNL     1      -8.263   9.699  70.568  1.00  0.00    -0.139 A  
HETATM   36  C   UNL     1      -8.544   8.750  71.549  1.00  0.00    -0.253 A  
HETATM   37  C   UNL     1      -8.426   7.406  71.250  1.00  0.00    -0.114 A  
HETATM   38  C   UNL     1      -8.051   7.012  69.967  1.00  0.00    -0.128 A  
ENDBRANCH  24  25
ENDBRANCH  23  24
ENDBRANCH  22  23
ENDBRANCH  21  22
ENDBRANCH  20  21
ENDBRANCH  19  20
ENDBRANCH  18  19
ENDBRANCH  17  18
ENDBRANCH  16  17
ENDBRANCH  15  16
ENDBRANCH  14  15
TORSDOF 11
ENDMDL
MODEL      311
REMARK 921   NORMALIZED FREE ENERGY PREDICTED BY IDOCK:   -4.90 KCAL/MOL
REMARK 922        TOTAL FREE ENERGY PREDICTED BY IDOCK:   -9.41 KCAL/MOL
REMARK 923 INTER-LIGAND FREE ENERGY PREDICTED BY IDOCK:   -7.42 KCAL/MOL
REMARK 924 INTRA-LIGAND FREE ENERGY PREDICTED BY IDOCK:   -1.99 KCAL/MOL
REMARK 927      BINDING AFFINITY PREDICTED BY RF-SCORE:    0.00 PKD
ROOT
HETATM    1  C   UNL     1      -6.899   8.093  69.670  1.00  0.00    -0.041 C  
HETATM    2  C   UNL     1      -8.329   8.266  70.129  1.00  0.00    -0.124 A  
HETATM    3  C   UNL     1      -8.876   9.542  70.082  1.00  0.00    -0.266 A  
HETATM    4  C   UNL     1     -10.185   9.784  70.471  1.00  0.00    -0.255 A  
HETATM    5  N   UNL     1     -10.696  11.068  70.257  1.00  0.00    -0.342 NA 
HETATM    6  C   UNL     1     -10.989   8.686  70.829  1.00  0.00    -0.286 A  
HETATM    7  H2  UNL     1     -10.586  11.316  69.273  1.00  0.00     0.000 HD 
HETATM    8  C   UNL     1     -12.367   8.829  71.114  1.00  0.00    -0.258 A  
HETATM    9  H1  UNL     1     -11.659  11.246  70.543  1.00  0.00     0.000 HD 
HETATM   10  C   UNL     1     -13.162   7.746  71.485  1.00  0.00    -0.356 A  
HETATM   11  C   UNL     1     -12.600   6.488  71.593  1.00  0.00    -0.220 A  
HETATM   12  C   UNL     1     -11.243   6.311  71.311  1.00  0.00    -0.355 A  
HETATM   13  C   UNL     1     -10.418   7.388  70.897  1.00  0.00    -0.217 A  
HETATM   14  N   UNL     1      -9.098   7.212  70.541  1.00  0.00    -0.155 NA 
ENDROOT
BRANCH  14  15
HETATM   15  C   UNL     1      -8.508   5.844  70.536  1.00  0.00    -0.128 C  
BRANCH  15  16
HETATM   16  C   UNL     1      -8.936   5.078  69.286  1.00  0.00    -0.127 C  
BRANCH  16  17
HETATM   17  C   UNL     1      -7.913   5.217  68.162  1.00  0.00    -0.091 C  
BRANCH  17  18
HETATM   18  C   UNL     1      -8.369   6.173  67.056  1.00  0.00    -0.105 C  
BRANCH  18  19
HETATM   19  C   UNL     1      -9.884   6.353  67.037  1.00  0.00    -0.194 C  
BRANCH  19  20
HETATM   20  C   UNL     1     -10.320   7.813  67.176  1.00  0.00    -0.389 C  
BRANCH  20  21
HETATM   21  C   UNL     1      -9.719   8.744  66.114  1.00  0.00    -0.320 C  
BRANCH  21  22
HETATM   22  C   UNL     1     -10.532  10.026  65.913  1.00  0.00    -0.115 C  
BRANCH  22  23
HETATM   23  C   UNL     1     -10.107  11.163  66.849  1.00  0.00    -0.250 C  
BRANCH  23  24
HETATM   24  C   UNL     1      -8.677  11.623  66.563  1.00  0.00    -0.182 C  
BRANCH  24  25
HETATM   25  N   UNL     1      -8.390  12.903  67.259  1.00  0.00    -0.186 NA 
HETATM   26  C   UNL     1      -7.436  12.954  68.241  1.00  0.00    -0.125 A  
HETATM   27  C   UNL     1      -7.120  14.176  68.840  1.00  0.00    -0.110 A  
HETATM   28  C   UNL     1      -6.616  11.776  68.716  1.00  0.00    -0.074 C  
HETATM   29  C   UNL     1      -7.769  15.349  68.486  1.00  0.00    -0.132 A  
HETATM   30  N   UNL     1      -7.287  16.542  69.032  1.00  0.00    -0.220 NA 
HETATM   31  C   UNL     1      -8.700  15.299  67.436  1.00  0.00    -0.194 A  
HETATM   32  H1  UNL     1      -7.764  17.405  68.772  1.00  0.00     0.000 HD 
HETATM   33  C   UNL     1      -9.036  14.049  66.846  1.00  0.00    -0.248 A  
HETATM   34  H2  UNL     1      -6.292  16.631  68.824  1.00  0.00     0.000 HD 
HETATM   35  C   UNL     1     -10.021  14.035  65.825  1.00  0.00    -0.319 A  
HETATM   36  C   UNL     1     -10.620  15.202  65.358  1.00  0.00    -0.410 A  
HETATM   37  C   UNL     1     -10.259  16.419  65.904  1.00  0.00    -0.379 A  
HETATM   38  C   UNL     1      -9.319  16.466  66.932  1.00  0.00    -0.244 A  
ENDBRANCH  24  25
ENDBRANCH  23  24
ENDBRANCH  22  23
ENDBRANCH  21  22
ENDBRANCH  20  21
ENDBRANCH  19  20
ENDBRANCH  18  19
ENDBRANCH  17  18
ENDBRANCH  16  17
ENDBRANCH  15  16
ENDBRANCH  14  15
TORSDOF 11
ENDMDL
MODEL      312
REMARK 921   NORMALIZED FREE ENERGY PREDICTED BY IDOCK:   -4.89 KCAL/MOL
REMARK 922        TOTAL FREE ENERGY PREDICTED BY IDOCK:   -9.39 KCAL/MOL
REMARK 923 INTER-LIGAND FREE ENERGY PREDICTED BY IDOCK:   -7.11 KCAL/MOL
REMARK 924 INTRA-LIGAND FREE ENERGY PREDICTED BY IDOCK:   -2.28 KCAL/MOL
REMARK 927      BINDING AFFINITY PREDICTED BY RF-SCORE:    0.00 PKD
ROOT
HETATM    1  C   UNL     1      -8.655   6.583  69.762  1.00  0.00    -0.136 C  
HETATM    2  C   UNL     1      -8.412   6.803  68.286  1.00  0.00    -0.125 A  
HETATM    3  C   UNL     1      -8.994   5.913  67.393  1.00  0.00    -0.108 A  
HETATM    4  C   UNL     1      -8.833   6.052  66.023  1.00  0.00    -0.153 A  
HETATM    5  N   UNL     1      -9.569   5.198  65.195  1.00  0.00    -0.362 NA 
HETATM    6  C   UNL     1      -8.140   7.179  65.543  1.00  0.00    -0.135 A  
HETATM    7  H2  UNL     1     -10.560   5.274  65.427  1.00  0.00     0.000 HD 
HETATM    8  C   UNL     1      -8.040   7.464  64.161  1.00  0.00    -0.046 A  
HETATM    9  H1  UNL     1      -9.451   5.300  64.187  1.00  0.00     0.000 HD 
HETATM   10  C   UNL     1      -7.340   8.570  63.682  1.00  0.00    -0.106 A  
HETATM   11  C   UNL     1      -6.708   9.419  64.571  1.00  0.00    -0.089 A  
HETATM   12  C   UNL     1      -6.792   9.169  65.944  1.00  0.00    -0.087 A  
HETATM   13  C   UNL     1      -7.527   8.071  66.461  1.00  0.00    -0.088 A  
HETATM   14  N   UNL     1      -7.683   7.860  67.814  1.00  0.00    -0.119 NA 
ENDROOT
BRANCH  14  15
HETATM   15  C   UNL     1      -7.110   8.832  68.787  1.00  0.00    -0.063 C  
BRANCH  15  16
HETATM   16  C   UNL     1      -8.141   9.896  69.157  1.00  0.00    -0.118 C  
BRANCH  16  17
HETATM   17  C   UNL     1      -7.820  11.240  68.510  1.00  0.00    -0.138 C  
BRANCH  17  18
HETATM   18  C   UNL     1      -6.376  11.688  68.753  1.00  0.00    -0.056 C  
BRANCH  18  19
HETATM   19  C   UNL     1      -6.208  13.198  68.616  1.00  0.00    -0.083 C  
BRANCH  19  20
HETATM   20  C   UNL     1      -7.466  13.901  68.102  1.00  0.00    -0.126 C  
BRANCH  20  21
HETATM   21  C   UNL     1      -7.926  15.071  68.982  1.00  0.00    -0.180 C  
BRANCH  21  22
HETATM   22  C   UNL     1      -9.087  15.860  68.369  1.00  0.00    -0.189 C  
BRANCH  22  23
HETATM   23  C   UNL     1     -10.214  16.150  69.367  1.00  0.00    -0.266 C  
BRANCH  23  24
HETATM   24  C   UNL     1     -11.550  15.581  68.888  1.00  0.00    -0.373 C  
BRANCH  24  25
HETATM   25  N   UNL     1     -11.844  14.293  69.566  1.00  0.00    -0.308 NA 
HETATM   26  C   UNL     1     -12.415  14.285  70.811  1.00  0.00    -0.358 A  
HETATM   27  C   UNL     1     -12.755  13.070  71.411  1.00  0.00    -0.375 A  
HETATM   28  C   UNL     1     -12.783  15.518  71.605  1.00  0.00    -0.502 C  
HETATM   29  C   UNL     1     -12.505  11.856  70.790  1.00  0.00    -0.291 A  
HETATM   30  N   UNL     1     -13.010  10.704  71.399  1.00  0.00    -0.422 NA 
HETATM   31  C   UNL     1     -11.977  11.876  69.488  1.00  0.00    -0.355 A  
HETATM   32  H1  UNL     1     -12.826   9.811  70.942  1.00  0.00     0.000 HD 
HETATM   33  C   UNL     1     -11.609  13.113  68.891  1.00  0.00    -0.311 A  
HETATM   34  H2  UNL     1     -14.015  10.809  71.540  1.00  0.00     0.000 HD 
HETATM   35  C   UNL     1     -11.030  13.086  67.597  1.00  0.00    -0.277 A  
HETATM   36  C   UNL     1     -10.861  11.899  66.886  1.00  0.00    -0.305 A  
HETATM   37  C   UNL     1     -11.260  10.703  67.452  1.00  0.00    -0.280 A  
HETATM   38  C   UNL     1     -11.802  10.692  68.736  1.00  0.00    -0.177 A  
ENDBRANCH  24  25
ENDBRANCH  23  24
ENDBRANCH  22  23
ENDBRANCH  21  22
ENDBRANCH  20  21
ENDBRANCH  19  20
ENDBRANCH  18  19
ENDBRANCH  17  18
ENDBRANCH  16  17
ENDBRANCH  15  16
ENDBRANCH  14  15
TORSDOF 11
ENDMDL
MODEL      313
REMARK 921   NORMALIZED FREE ENERGY PREDICTED BY IDOCK:   -4.87 KCAL/MOL
REMARK 922        TOTAL FREE ENERGY PREDICTED BY IDOCK:   -9.35 KCAL/MOL
REMARK 923 INTER-LIGAND FREE ENERGY PREDICTED BY IDOCK:   -6.26 KCAL/MOL
REMARK 924 INTRA-LIGAND FREE ENERGY PREDICTED BY IDOCK:   -3.09 KCAL/MOL
REMARK 927      BINDING AFFINITY PREDICTED BY RF-SCORE:    0.00 PKD
ROOT
HETATM    1  C   UNL     1      -7.643  11.900  67.423  1.00  0.00    -0.151 C  
HETATM    2  C   UNL     1      -8.940  11.674  68.168  1.00  0.00    -0.182 A  
HETATM    3  C   UNL     1     -10.056  12.392  67.758  1.00  0.00    -0.203 A  
HETATM    4  C   UNL     1     -11.287  12.233  68.378  1.00  0.00    -0.292 A  
HETATM    5  N   UNL     1     -12.386  12.886  67.811  1.00  0.00    -0.099 NA 
HETATM    6  C   UNL     1     -11.408  11.252  69.381  1.00  0.00    -0.360 A  
HETATM    7  H2  UNL     1     -12.467  12.619  66.830  1.00  0.00     0.000 HD 
HETATM    8  C   UNL     1     -12.653  10.938  69.974  1.00  0.00    -0.253 A  
HETATM    9  H1  UNL     1     -13.291  12.769  68.268  1.00  0.00     0.000 HD 
HETATM   10  C   UNL     1     -12.773   9.979  70.978  1.00  0.00    -0.455 A  
HETATM   11  C   UNL     1     -11.649   9.313  71.428  1.00  0.00    -0.437 A  
HETATM   12  C   UNL     1     -10.404   9.595  70.858  1.00  0.00    -0.334 A  
HETATM   13  C   UNL     1     -10.258  10.540  69.810  1.00  0.00    -0.123 A  
HETATM   14  N   UNL     1      -9.049  10.769  69.188  1.00  0.00    -0.140 NA 
ENDROOT
BRANCH  14  15
HETATM   15  C   UNL     1      -7.852   9.974  69.578  1.00  0.00    -0.154 C  
BRANCH  15  16
HETATM   16  C   UNL     1      -7.951   8.550  69.035  1.00  0.00    -0.113 C  
BRANCH  16  17
HETATM   17  C   UNL     1      -6.638   7.791  69.204  1.00  0.00    -0.040 C  
BRANCH  17  18
HETATM   18  C   UNL     1      -6.777   6.552  70.094  1.00  0.00    -0.049 C  
BRANCH  18  19
HETATM   19  C   UNL     1      -7.829   6.738  71.183  1.00  0.00    -0.101 C  
BRANCH  19  20
HETATM   20  C   UNL     1      -8.554   5.441  71.550  1.00  0.00    -0.131 C  
BRANCH  20  21
HETATM   21  C   UNL     1     -10.031   5.416  71.134  1.00  0.00    -0.257 C  
BRANCH  21  22
HETATM   22  C   UNL     1     -10.233   5.010  69.672  1.00  0.00    -0.306 C  
BRANCH  22  23
HETATM   23  C   UNL     1     -10.751   6.155  68.793  1.00  0.00    -0.370 C  
BRANCH  23  24
HETATM   24  C   UNL     1     -10.815   5.748  67.320  1.00  0.00    -0.197 C  
BRANCH  24  25
HETATM   25  N   UNL     1      -9.497   5.945  66.665  1.00  0.00    -0.146 NA 
HETATM   26  C   UNL     1      -8.627   4.894  66.539  1.00  0.00    -0.109 A  
HETATM   27  C   UNL     1      -7.421   5.069  65.857  1.00  0.00    -0.082 A  
HETATM   28  C   UNL     1      -8.886   3.489  67.035  1.00  0.00    -0.143 C  
HETATM   29  C   UNL     1      -7.059   6.295  65.321  1.00  0.00    -0.064 A  
HETATM   30  N   UNL     1      -5.905   6.340  64.533  1.00  0.00    -0.022 NA 
HETATM   31  C   UNL     1      -7.983   7.350  65.400  1.00  0.00    -0.125 A  
HETATM   32  H1  UNL     1      -5.639   7.242  64.138  1.00  0.00     0.000 HD 
HETATM   33  C   UNL     1      -9.199   7.175  66.116  1.00  0.00    -0.082 A  
HETATM   34  H2  UNL     1      -5.982   5.653  63.782  1.00  0.00     0.000 HD 
HETATM   35  C   UNL     1     -10.081   8.281  66.218  1.00  0.00    -0.101 A  
HETATM   36  C   UNL     1      -9.813   9.501  65.601  1.00  0.00    -0.343 A  
HETATM   37  C   UNL     1      -8.651   9.654  64.870  1.00  0.00    -0.188 A  
HETATM   38  C   UNL     1      -7.747   8.597  64.777  1.00  0.00    -0.108 A  
ENDBRANCH  24  25
ENDBRANCH  23  24
ENDBRANCH  22  23
ENDBRANCH  21  22
ENDBRANCH  20  21
ENDBRANCH  19  20
ENDBRANCH  18  19
ENDBRANCH  17  18
ENDBRANCH  16  17
ENDBRANCH  15  16
ENDBRANCH  14  15
TORSDOF 11
ENDMDL
MODEL      314
REMARK 921   NORMALIZED FREE ENERGY PREDICTED BY IDOCK:   -4.86 KCAL/MOL
REMARK 922        TOTAL FREE ENERGY PREDICTED BY IDOCK:   -9.35 KCAL/MOL
REMARK 923 INTER-LIGAND FREE ENERGY PREDICTED BY IDOCK:   -8.77 KCAL/MOL
REMARK 924 INTRA-LIGAND FREE ENERGY PREDICTED BY IDOCK:   -0.58 KCAL/MOL
REMARK 927      BINDING AFFINITY PREDICTED BY RF-SCORE:    0.00 PKD
ROOT
HETATM    1  C   UNL     1      -8.508  13.820  67.089  1.00  0.00    -0.189 C  
HETATM    2  C   UNL     1      -8.573  15.310  67.334  1.00  0.00    -0.180 A  
HETATM    3  C   UNL     1      -7.667  15.860  68.232  1.00  0.00    -0.137 A  
HETATM    4  C   UNL     1      -7.650  17.220  68.502  1.00  0.00    -0.251 A  
HETATM    5  N   UNL     1      -6.614  17.707  69.307  1.00  0.00    -0.246 NA 
HETATM    6  C   UNL     1      -8.515  18.057  67.773  1.00  0.00    -0.247 A  
HETATM    7  H2  UNL     1      -5.718  17.433  68.905  1.00  0.00     0.000 HD 
HETATM    8  C   UNL     1      -8.472  19.466  67.894  1.00  0.00    -0.348 A  
HETATM    9  H1  UNL     1      -6.602  18.708  69.505  1.00  0.00     0.000 HD 
HETATM   10  C   UNL     1      -9.339  20.296  67.185  1.00  0.00    -0.536 A  
HETATM   11  C   UNL     1     -10.283  19.741  66.341  1.00  0.00    -0.614 A  
HETATM   12  C   UNL     1     -10.347  18.353  66.193  1.00  0.00    -0.431 A  
HETATM   13  C   UNL     1      -9.455  17.486  66.875  1.00  0.00    -0.274 A  
HETATM   14  N   UNL     1      -9.457  16.122  66.677  1.00  0.00    -0.232 NA 
ENDROOT
BRANCH  14  15
HETATM   15  C   UNL     1     -10.386  15.519  65.682  1.00  0.00    -0.384 C  
BRANCH  15  16
HETATM   16  C   UNL     1     -11.715  15.151  66.339  1.00  0.00    -0.018 C  
BRANCH  16  17
HETATM   17  C   UNL     1     -11.893  13.639  66.440  1.00  0.00    -0.433 C  
BRANCH  17  18
HETATM   18  C   UNL     1     -12.101  12.971  65.078  1.00  0.00    -0.470 C  
BRANCH  18  19
HETATM   19  C   UNL     1     -10.820  12.936  64.250  1.00  0.00    -0.423 C  
BRANCH  19  20
HETATM   20  C   UNL     1     -10.045  11.624  64.391  1.00  0.00    -0.322 C  
BRANCH  20  21
HETATM   21  C   UNL     1     -10.760  10.571  65.248  1.00  0.00    -0.019 C  
BRANCH  21  22
HETATM   22  C   UNL     1      -9.823   9.862  66.229  1.00  0.00    -0.308 C  
BRANCH  22  23
HETATM   23  C   UNL     1     -10.377   8.526  66.736  1.00  0.00    -0.346 C  
BRANCH  23  24
HETATM   24  C   UNL     1      -9.259   7.517  66.999  1.00  0.00    -0.138 C  
BRANCH  24  25
HETATM   25  N   UNL     1      -9.546   6.723  68.221  1.00  0.00    -0.127 NA 
HETATM   26  C   UNL     1      -9.962   5.423  68.116  1.00  0.00    -0.158 A  
HETATM   27  C   UNL     1     -10.160   4.661  69.270  1.00  0.00    -0.170 A  
HETATM   28  C   UNL     1     -10.179   4.684  66.815  1.00  0.00    -0.226 C  
HETATM   29  C   UNL     1      -9.972   5.195  70.536  1.00  0.00    -0.234 A  
HETATM   30  N   UNL     1     -10.052   4.321  71.623  1.00  0.00    -0.175 NA 
HETATM   31  C   UNL     1      -9.484   6.509  70.633  1.00  0.00    -0.173 A  
HETATM   32  H1  UNL     1      -9.913   4.714  72.554  1.00  0.00     0.000 HD 
HETATM   33  C   UNL     1      -9.309   7.289  69.457  1.00  0.00    -0.152 A  
HETATM   34  H2  UNL     1      -9.400   3.548  71.484  1.00  0.00     0.000 HD 
HETATM   35  C   UNL     1      -8.866   8.629  69.602  1.00  0.00    -0.137 A  
HETATM   36  C   UNL     1      -8.557   9.176  70.845  1.00  0.00    -0.259 A  
HETATM   37  C   UNL     1      -8.688   8.401  71.982  1.00  0.00    -0.267 A  
HETATM   38  C   UNL     1      -9.152   7.091  71.878  1.00  0.00    -0.145 A  
ENDBRANCH  24  25
ENDBRANCH  23  24
ENDBRANCH  22  23
ENDBRANCH  21  22
ENDBRANCH  20  21
ENDBRANCH  19  20
ENDBRANCH  18  19
ENDBRANCH  17  18
ENDBRANCH  16  17
ENDBRANCH  15  16
ENDBRANCH  14  15
TORSDOF 11
ENDMDL
MODEL      315
REMARK 921   NORMALIZED FREE ENERGY PREDICTED BY IDOCK:   -4.86 KCAL/MOL
REMARK 922        TOTAL FREE ENERGY PREDICTED BY IDOCK:   -9.34 KCAL/MOL
REMARK 923 INTER-LIGAND FREE ENERGY PREDICTED BY IDOCK:   -7.90 KCAL/MOL
REMARK 924 INTRA-LIGAND FREE ENERGY PREDICTED BY IDOCK:   -1.44 KCAL/MOL
REMARK 927      BINDING AFFINITY PREDICTED BY RF-SCORE:    0.00 PKD
ROOT
HETATM    1  C   UNL     1     -11.187   9.911  70.355  1.00  0.00    -0.379 C  
HETATM    2  C   UNL     1     -10.797   8.494  70.710  1.00  0.00    -0.231 A  
HETATM    3  C   UNL     1     -10.851   8.123  72.048  1.00  0.00    -0.349 A  
HETATM    4  C   UNL     1     -10.524   6.839  72.457  1.00  0.00    -0.209 A  
HETATM    5  N   UNL     1     -10.742   6.511  73.799  1.00  0.00    -0.460 NA 
HETATM    6  C   UNL     1     -10.224   5.879  71.471  1.00  0.00    -0.254 A  
HETATM    7  H2  UNL     1     -11.714   6.704  74.039  1.00  0.00     0.000 HD 
HETATM    8  C   UNL     1     -10.005   4.519  71.792  1.00  0.00    -0.264 A  
HETATM    9  H1  UNL     1     -10.501   5.567  74.100  1.00  0.00     0.000 HD 
HETATM   10  C   UNL     1      -9.692   3.571  70.819  1.00  0.00    -0.207 A  
HETATM   11  C   UNL     1      -9.577   3.957  69.497  1.00  0.00    -0.248 A  
HETATM   12  C   UNL     1      -9.794   5.292  69.145  1.00  0.00    -0.257 A  
HETATM   13  C   UNL     1     -10.149   6.272  70.109  1.00  0.00    -0.179 A  
HETATM   14  N   UNL     1     -10.441   7.573  69.763  1.00  0.00    -0.225 NA 
ENDROOT
BRANCH  14  15
HETATM   15  C   UNL     1     -10.440   7.978  68.330  1.00  0.00    -0.161 C  
BRANCH  15  16
HETATM   16  C   UNL     1      -9.010   8.119  67.811  1.00  0.00    -0.134 C  
BRANCH  16  17
HETATM   17  C   UNL     1      -8.746   9.517  67.260  1.00  0.00    -0.132 C  
BRANCH  17  18
HETATM   18  C   UNL     1      -8.869   9.589  65.735  1.00  0.00    -0.193 C  
BRANCH  18  19
HETATM   19  C   UNL     1     -10.198  10.191  65.290  1.00  0.00    -0.261 C  
BRANCH  19  20
HETATM   20  C   UNL     1     -10.046  11.548  64.600  1.00  0.00    -0.318 C  
BRANCH  20  21
HETATM   21  C   UNL     1     -10.829  12.680  65.278  1.00  0.00    -0.319 C  
BRANCH  21  22
HETATM   22  C   UNL     1     -10.187  14.055  65.075  1.00  0.00    -0.395 C  
BRANCH  22  23
HETATM   23  C   UNL     1     -10.690  15.109  66.069  1.00  0.00    -0.333 C  
BRANCH  23  24
HETATM   24  C   UNL     1     -10.302  14.758  67.506  1.00  0.00    -0.238 C  
BRANCH  24  25
HETATM   25  N   UNL     1      -9.020  15.410  67.876  1.00  0.00    -0.172 NA 
HETATM   26  C   UNL     1      -9.012  16.699  68.340  1.00  0.00    -0.223 A  
HETATM   27  C   UNL     1      -7.811  17.280  68.755  1.00  0.00    -0.254 A  
HETATM   28  C   UNL     1     -10.238  17.567  68.511  1.00  0.00    -0.378 C  
HETATM   29  C   UNL     1      -6.608  16.594  68.685  1.00  0.00    -0.159 A  
HETATM   30  N   UNL     1      -5.486  17.201  69.256  1.00  0.00    -0.161 NA 
HETATM   31  C   UNL     1      -6.635  15.254  68.267  1.00  0.00    -0.116 A  
HETATM   32  H1  UNL     1      -4.601  16.697  69.204  1.00  0.00     0.000 HD 
HETATM   33  C   UNL     1      -7.855  14.674  67.823  1.00  0.00    -0.154 A  
HETATM   34  H2  UNL     1      -5.685  17.433  70.229  1.00  0.00     0.000 HD 
HETATM   35  C   UNL     1      -7.829  13.334  67.358  1.00  0.00    -0.159 A  
HETATM   36  C   UNL     1      -6.665  12.568  67.373  1.00  0.00    -0.147 A  
HETATM   37  C   UNL     1      -5.491  13.121  67.846  1.00  0.00    -0.117 A  
HETATM   38  C   UNL     1      -5.475  14.445  68.280  1.00  0.00    -0.114 A  
ENDBRANCH  24  25
ENDBRANCH  23  24
ENDBRANCH  22  23
ENDBRANCH  21  22
ENDBRANCH  20  21
ENDBRANCH  19  20
ENDBRANCH  18  19
ENDBRANCH  17  18
ENDBRANCH  16  17
ENDBRANCH  15  16
ENDBRANCH  14  15
TORSDOF 11
ENDMDL
MODEL      316
REMARK 921   NORMALIZED FREE ENERGY PREDICTED BY IDOCK:   -4.86 KCAL/MOL
REMARK 922        TOTAL FREE ENERGY PREDICTED BY IDOCK:   -9.33 KCAL/MOL
REMARK 923 INTER-LIGAND FREE ENERGY PREDICTED BY IDOCK:   -7.78 KCAL/MOL
REMARK 924 INTRA-LIGAND FREE ENERGY PREDICTED BY IDOCK:   -1.55 KCAL/MOL
REMARK 927      BINDING AFFINITY PREDICTED BY RF-SCORE:    0.00 PKD
ROOT
HETATM    1  C   UNL     1      -8.421   8.757  71.410  1.00  0.00    -0.245 C  
HETATM    2  C   UNL     1      -8.875   7.368  71.799  1.00  0.00    -0.115 A  
HETATM    3  C   UNL     1     -10.219   7.184  72.096  1.00  0.00    -0.207 A  
HETATM    4  C   UNL     1     -10.719   5.939  72.447  1.00  0.00    -0.232 A  
HETATM    5  N   UNL     1     -12.105   5.815  72.590  1.00  0.00    -0.511 NA 
HETATM    6  C   UNL     1      -9.849   4.833  72.405  1.00  0.00    -0.211 A  
HETATM    7  H2  UNL     1     -12.562   6.132  71.735  1.00  0.00     0.000 HD 
HETATM    8  C   UNL     1     -10.306   3.512  72.623  1.00  0.00    -0.222 A  
HETATM    9  H1  UNL     1     -12.473   4.899  72.848  1.00  0.00     0.000 HD 
HETATM   10  C   UNL     1      -9.443   2.418  72.598  1.00  0.00    -0.145 A  
HETATM   11  C   UNL     1      -8.095   2.612  72.365  1.00  0.00    -0.055 A  
HETATM   12  C   UNL     1      -7.612   3.904  72.139  1.00  0.00    -0.066 A  
HETATM   13  C   UNL     1      -8.472   5.033  72.123  1.00  0.00    -0.125 A  
HETATM   14  N   UNL     1      -8.020   6.300  71.824  1.00  0.00    -0.102 NA 
ENDROOT
BRANCH  14  15
HETATM   15  C   UNL     1      -6.593   6.510  71.453  1.00  0.00    -0.054 C  
BRANCH  15  16
HETATM   16  C   UNL     1      -6.333   6.036  70.024  1.00  0.00    -0.031 C  
BRANCH  16  17
HETATM   17  C   UNL     1      -6.503   7.168  69.016  1.00  0.00    -0.036 C  
BRANCH  17  18
HETATM   18  C   UNL     1      -7.526   6.844  67.923  1.00  0.00    -0.099 C  
BRANCH  18  19
HETATM   19  C   UNL     1      -7.913   8.075  67.109  1.00  0.00    -0.113 C  
BRANCH  19  20
HETATM   20  C   UNL     1      -9.357   8.525  67.343  1.00  0.00    -0.178 C  
BRANCH  20  21
HETATM   21  C   UNL     1      -9.481   9.801  68.186  1.00  0.00    -0.146 C  
BRANCH  21  22
HETATM   22  C   UNL     1     -10.768   9.847  69.015  1.00  0.00    -0.244 C  
BRANCH  22  23
HETATM   23  C   UNL     1     -10.967  11.178  69.748  1.00  0.00    -0.216 C  
BRANCH  23  24
HETATM   24  C   UNL     1     -12.264  11.867  69.323  1.00  0.00    -0.109 C  
BRANCH  24  25
HETATM   25  N   UNL     1     -11.991  13.243  68.837  1.00  0.00    -0.319 NA 
HETATM   26  C   UNL     1     -11.969  14.293  69.716  1.00  0.00    -0.339 A  
HETATM   27  C   UNL     1     -11.640  15.573  69.262  1.00  0.00    -0.369 A  
HETATM   28  C   UNL     1     -12.217  14.184  71.203  1.00  0.00    -0.435 C  
HETATM   29  C   UNL     1     -11.358  15.821  67.928  1.00  0.00    -0.277 A  
HETATM   30  N   UNL     1     -10.899  17.098  67.593  1.00  0.00    -0.296 NA 
HETATM   31  C   UNL     1     -11.322  14.729  67.045  1.00  0.00    -0.358 A  
HETATM   32  H1  UNL     1     -10.692  17.282  66.611  1.00  0.00     0.000 HD 
HETATM   33  C   UNL     1     -11.681  13.433  67.506  1.00  0.00    -0.366 A  
HETATM   34  H2  UNL     1     -10.079  17.321  68.157  1.00  0.00     0.000 HD 
HETATM   35  C   UNL     1     -11.684  12.367  66.570  1.00  0.00    -0.443 A  
HETATM   36  C   UNL     1     -11.300  12.546  65.243  1.00  0.00    -0.363 A  
HETATM   37  C   UNL     1     -10.910  13.799  64.809  1.00  0.00    -0.410 A  
HETATM   38  C   UNL     1     -10.928  14.875  65.695  1.00  0.00    -0.347 A  
ENDBRANCH  24  25
ENDBRANCH  23  24
ENDBRANCH  22  23
ENDBRANCH  21  22
ENDBRANCH  20  21
ENDBRANCH  19  20
ENDBRANCH  18  19
ENDBRANCH  17  18
ENDBRANCH  16  17
ENDBRANCH  15  16
ENDBRANCH  14  15
TORSDOF 11
ENDMDL
MODEL      317
REMARK 921   NORMALIZED FREE ENERGY PREDICTED BY IDOCK:   -4.85 KCAL/MOL
REMARK 922        TOTAL FREE ENERGY PREDICTED BY IDOCK:   -9.32 KCAL/MOL
REMARK 923 INTER-LIGAND FREE ENERGY PREDICTED BY IDOCK:   -7.75 KCAL/MOL
REMARK 924 INTRA-LIGAND FREE ENERGY PREDICTED BY IDOCK:   -1.57 KCAL/MOL
REMARK 927      BINDING AFFINITY PREDICTED BY RF-SCORE:    0.00 PKD
ROOT
HETATM    1  C   UNL     1     -11.699  10.987  68.962  1.00  0.00    -0.402 C  
HETATM    2  C   UNL     1     -11.439  10.127  70.178  1.00  0.00    -0.296 A  
HETATM    3  C   UNL     1     -12.511   9.848  71.016  1.00  0.00    -0.441 A  
HETATM    4  C   UNL     1     -12.361   9.055  72.144  1.00  0.00    -0.372 A  
HETATM    5  N   UNL     1     -13.517   8.709  72.851  1.00  0.00    -0.806 NA 
HETATM    6  C   UNL     1     -11.109   8.454  72.377  1.00  0.00    -0.431 A  
HETATM    7  H2  UNL     1     -14.181   8.267  72.214  1.00  0.00     0.000 HD 
HETATM    8  C   UNL     1     -10.906   7.532  73.430  1.00  0.00    -0.339 A  
HETATM    9  H1  UNL     1     -13.407   8.126  73.680  1.00  0.00     0.000 HD 
HETATM   10  C   UNL     1      -9.663   6.948  73.672  1.00  0.00    -0.266 A  
HETATM   11  C   UNL     1      -8.584   7.277  72.875  1.00  0.00    -0.148 A  
HETATM   12  C   UNL     1      -8.753   8.180  71.821  1.00  0.00    -0.199 A  
HETATM   13  C   UNL     1     -10.013   8.763  71.529  1.00  0.00    -0.300 A  
HETATM   14  N   UNL     1     -10.208   9.593  70.446  1.00  0.00    -0.272 NA 
ENDROOT
BRANCH  14  15
HETATM   15  C   UNL     1      -9.085   9.863  69.507  1.00  0.00    -0.223 C  
BRANCH  15  16
HETATM   16  C   UNL     1      -8.749   8.614  68.695  1.00  0.00    -0.138 C  
BRANCH  16  17
HETATM   17  C   UNL     1      -9.982   8.049  67.995  1.00  0.00    -0.216 C  
BRANCH  17  18
HETATM   18  C   UNL     1      -9.840   8.017  66.471  1.00  0.00    -0.289 C  
BRANCH  18  19
HETATM   19  C   UNL     1      -8.380   7.997  66.027  1.00  0.00    -0.126 C  
BRANCH  19  20
HETATM   20  C   UNL     1      -8.030   9.122  65.051  1.00  0.00    -0.120 C  
BRANCH  20  21
HETATM   21  C   UNL     1      -8.950   9.188  63.825  1.00  0.00     0.006 C  
BRANCH  21  22
HETATM   22  C   UNL     1      -9.552  10.578  63.603  1.00  0.00    -0.370 C  
BRANCH  22  23
HETATM   23  C   UNL     1      -8.923  11.658  64.491  1.00  0.00     0.371 C  
BRANCH  23  24
HETATM   24  C   UNL     1      -9.626  11.751  65.846  1.00  0.00    -0.230 C  
BRANCH  24  25
HETATM   25  N   UNL     1      -9.258  13.011  66.541  1.00  0.00    -0.219 NA 
HETATM   26  C   UNL     1     -10.052  14.121  66.422  1.00  0.00    -0.293 A  
HETATM   27  C   UNL     1      -9.738  15.279  67.137  1.00  0.00    -0.220 A  
HETATM   28  C   UNL     1     -11.321  14.195  65.604  1.00  0.00    -0.319 C  
HETATM   29  C   UNL     1      -8.619  15.351  67.951  1.00  0.00    -0.155 A  
HETATM   30  N   UNL     1      -8.466  16.497  68.738  1.00  0.00    -0.239 NA 
HETATM   31  C   UNL     1      -7.846  14.190  68.117  1.00  0.00    -0.142 A  
HETATM   32  H1  UNL     1      -7.643  16.550  69.338  1.00  0.00     0.000 HD 
HETATM   33  C   UNL     1      -8.154  13.021  67.369  1.00  0.00    -0.180 A  
HETATM   34  H2  UNL     1      -9.304  16.632  69.303  1.00  0.00     0.000 HD 
HETATM   35  C   UNL     1      -7.317  11.886  67.524  1.00  0.00    -0.132 A  
HETATM   36  C   UNL     1      -6.246  11.873  68.415  1.00  0.00    -0.050 A  
HETATM   37  C   UNL     1      -5.976  12.997  69.173  1.00  0.00    -0.086 A  
HETATM   38  C   UNL     1      -6.759  14.140  69.020  1.00  0.00    -0.107 A  
ENDBRANCH  24  25
ENDBRANCH  23  24
ENDBRANCH  22  23
ENDBRANCH  21  22
ENDBRANCH  20  21
ENDBRANCH  19  20
ENDBRANCH  18  19
ENDBRANCH  17  18
ENDBRANCH  16  17
ENDBRANCH  15  16
ENDBRANCH  14  15
TORSDOF 11
ENDMDL
MODEL      318
REMARK 921   NORMALIZED FREE ENERGY PREDICTED BY IDOCK:   -4.84 KCAL/MOL
REMARK 922        TOTAL FREE ENERGY PREDICTED BY IDOCK:   -9.31 KCAL/MOL
REMARK 923 INTER-LIGAND FREE ENERGY PREDICTED BY IDOCK:   -8.16 KCAL/MOL
REMARK 924 INTRA-LIGAND FREE ENERGY PREDICTED BY IDOCK:   -1.15 KCAL/MOL
REMARK 927      BINDING AFFINITY PREDICTED BY RF-SCORE:    0.00 PKD
ROOT
HETATM    1  C   UNL     1      -9.639   7.626  73.834  1.00  0.00    -0.188 C  
HETATM    2  C   UNL     1      -9.597   6.284  73.140  1.00  0.00    -0.150 A  
HETATM    3  C   UNL     1      -9.886   5.154  73.895  1.00  0.00    -0.175 A  
HETATM    4  C   UNL     1      -9.885   3.887  73.332  1.00  0.00    -0.117 A  
HETATM    5  N   UNL     1     -10.325   2.824  74.128  1.00  0.00    -0.140 NA 
HETATM    6  C   UNL     1      -9.676   3.772  71.944  1.00  0.00    -0.237 A  
HETATM    7  H2  UNL     1     -11.258   3.033  74.483  1.00  0.00     0.000 HD 
HETATM    8  C   UNL     1      -9.784   2.534  71.270  1.00  0.00    -0.201 A  
HETATM    9  H1  UNL     1     -10.324   1.892  73.713  1.00  0.00     0.000 HD 
HETATM   10  C   UNL     1      -9.561   2.416  69.899  1.00  0.00    -0.050 A  
HETATM   11  C   UNL     1      -9.211   3.531  69.163  1.00  0.00    -0.225 A  
HETATM   12  C   UNL     1      -9.102   4.772  69.797  1.00  0.00    -0.159 A  
HETATM   13  C   UNL     1      -9.358   4.928  71.184  1.00  0.00    -0.150 A  
HETATM   14  N   UNL     1      -9.330   6.159  71.804  1.00  0.00    -0.151 NA 
ENDROOT
BRANCH  14  15
HETATM   15  C   UNL     1      -9.073   7.387  71.003  1.00  0.00    -0.152 C  
BRANCH  15  16
HETATM   16  C   UNL     1     -10.296   7.748  70.163  1.00  0.00    -0.218 C  
BRANCH  16  17
HETATM   17  C   UNL     1     -10.962   9.029  70.659  1.00  0.00    -0.308 C  
BRANCH  17  18
HETATM   18  C   UNL     1     -12.328   8.778  71.305  1.00  0.00    -0.313 C  
BRANCH  18  19
HETATM   19  C   UNL     1     -12.643   9.790  72.403  1.00  0.00    -0.126 C  
BRANCH  19  20
HETATM   20  C   UNL     1     -13.339  11.049  71.881  1.00  0.00    -0.423 C  
BRANCH  20  21
HETATM   21  C   UNL     1     -12.374  12.177  71.495  1.00  0.00     0.038 C  
BRANCH  21  22
HETATM   22  C   UNL     1     -12.987  13.570  71.659  1.00  0.00    -0.447 C  
BRANCH  22  23
HETATM   23  C   UNL     1     -12.761  14.477  70.443  1.00  0.00    -0.378 C  
BRANCH  23  24
HETATM   24  C   UNL     1     -11.365  14.283  69.849  1.00  0.00    -0.198 C  
BRANCH  24  25
HETATM   25  N   UNL     1     -11.290  14.868  68.486  1.00  0.00    -0.283 NA 
HETATM   26  C   UNL     1     -10.929  16.178  68.318  1.00  0.00    -0.340 A  
HETATM   27  C   UNL     1     -10.790  16.701  67.030  1.00  0.00    -0.091 A  
HETATM   28  C   UNL     1     -10.593  17.136  69.438  1.00  0.00    -0.161 C  
HETATM   29  C   UNL     1     -11.036  15.933  65.903  1.00  0.00    -0.151 A  
HETATM   30  N   UNL     1     -10.731  16.495  64.660  1.00  0.00    -0.841 NA 
HETATM   31  C   UNL     1     -11.344  14.574  66.083  1.00  0.00    -0.348 A  
HETATM   32  H1  UNL     1     -10.912  15.930  63.830  1.00  0.00     0.000 HD 
HETATM   33  C   UNL     1     -11.510  14.053  67.395  1.00  0.00    -0.348 A  
HETATM   34  H2  UNL     1      -9.757  16.797  64.655  1.00  0.00     0.000 HD 
HETATM   35  C   UNL     1     -11.874  12.689  67.533  1.00  0.00    -0.396 A  
HETATM   36  C   UNL     1     -12.024  11.848  66.432  1.00  0.00     0.043 A  
HETATM   37  C   UNL     1     -11.821  12.348  65.160  1.00  0.00    -0.437 A  
HETATM   38  C   UNL     1     -11.493  13.692  64.988  1.00  0.00    -0.338 A  
ENDBRANCH  24  25
ENDBRANCH  23  24
ENDBRANCH  22  23
ENDBRANCH  21  22
ENDBRANCH  20  21
ENDBRANCH  19  20
ENDBRANCH  18  19
ENDBRANCH  17  18
ENDBRANCH  16  17
ENDBRANCH  15  16
ENDBRANCH  14  15
TORSDOF 11
ENDMDL
MODEL      319
REMARK 921   NORMALIZED FREE ENERGY PREDICTED BY IDOCK:   -4.84 KCAL/MOL
REMARK 922        TOTAL FREE ENERGY PREDICTED BY IDOCK:   -9.31 KCAL/MOL
REMARK 923 INTER-LIGAND FREE ENERGY PREDICTED BY IDOCK:   -8.26 KCAL/MOL
REMARK 924 INTRA-LIGAND FREE ENERGY PREDICTED BY IDOCK:   -1.06 KCAL/MOL
REMARK 927      BINDING AFFINITY PREDICTED BY RF-SCORE:    0.00 PKD
ROOT
HETATM    1  C   UNL     1      -8.361  13.810  66.762  1.00  0.00     0.086 C  
HETATM    2  C   UNL     1      -8.592  15.280  67.030  1.00  0.00    -0.227 A  
HETATM    3  C   UNL     1      -7.857  15.877  68.047  1.00  0.00    -0.142 A  
HETATM    4  C   UNL     1      -7.998  17.224  68.347  1.00  0.00    -0.253 A  
HETATM    5  N   UNL     1      -7.119  17.773  69.286  1.00  0.00    -0.176 NA 
HETATM    6  C   UNL     1      -8.838  18.006  67.532  1.00  0.00    -0.252 A  
HETATM    7  H2  UNL     1      -6.158  17.591  68.996  1.00  0.00     0.000 HD 
HETATM    8  C   UNL     1      -8.939  19.408  67.688  1.00  0.00    -0.357 A  
HETATM    9  H1  UNL     1      -7.223  18.763  69.507  1.00  0.00     0.000 HD 
HETATM   10  C   UNL     1      -9.783  20.182  66.893  1.00  0.00    -0.582 A  
HETATM   11  C   UNL     1     -10.560  19.575  65.924  1.00  0.00    -0.572 A  
HETATM   12  C   UNL     1     -10.478  18.192  65.739  1.00  0.00    -0.215 A  
HETATM   13  C   UNL     1      -9.603  17.384  66.510  1.00  0.00    -0.280 A  
HETATM   14  N   UNL     1      -9.456  16.033  66.283  1.00  0.00    -0.289 NA 
ENDROOT
BRANCH  14  15
HETATM   15  C   UNL     1     -10.196  15.384  65.165  1.00  0.00    -0.325 C  
BRANCH  15  16
HETATM   16  C   UNL     1     -11.574  14.918  65.630  1.00  0.00    -0.245 C  
BRANCH  16  17
HETATM   17  C   UNL     1     -11.532  13.495  66.180  1.00  0.00    -0.348 C  
BRANCH  17  18
HETATM   18  C   UNL     1     -12.320  12.501  65.322  1.00  0.00    -0.469 C  
BRANCH  18  19
HETATM   19  C   UNL     1     -11.658  12.251  63.970  1.00  0.00    -0.495 C  
BRANCH  19  20
HETATM   20  C   UNL     1     -10.208  11.776  64.088  1.00  0.00    -0.363 C  
BRANCH  20  21
HETATM   21  C   UNL     1     -10.046  10.467  64.872  1.00  0.00    -0.403 C  
BRANCH  21  22
HETATM   22  C   UNL     1      -9.233  10.639  66.159  1.00  0.00    -0.196 C  
BRANCH  22  23
HETATM   23  C   UNL     1     -10.024  10.284  67.424  1.00  0.00    -0.230 C  
BRANCH  23  24
HETATM   24  C   UNL     1      -9.125  10.260  68.661  1.00  0.00    -0.152 C  
BRANCH  24  25
HETATM   25  N   UNL     1      -9.126   8.911  69.282  1.00  0.00    -0.143 NA 
HETATM   26  C   UNL     1      -9.879   8.668  70.400  1.00  0.00    -0.183 A  
HETATM   27  C   UNL     1      -9.931   7.379  70.936  1.00  0.00    -0.184 A  
HETATM   28  C   UNL     1     -10.742   9.691  71.103  1.00  0.00    -0.365 C  
HETATM   29  C   UNL     1      -9.214   6.331  70.380  1.00  0.00    -0.154 A  
HETATM   30  N   UNL     1      -9.442   5.051  70.894  1.00  0.00    -0.154 NA 
HETATM   31  C   UNL     1      -8.495   6.574  69.199  1.00  0.00    -0.126 A  
HETATM   32  H1  UNL     1      -8.914   4.279  70.486  1.00  0.00     0.000 HD 
HETATM   33  C   UNL     1      -8.424   7.892  68.671  1.00  0.00    -0.128 A  
HETATM   34  H2  UNL     1     -10.439   4.840  70.846  1.00  0.00     0.000 HD 
HETATM   35  C   UNL     1      -7.643   8.106  67.506  1.00  0.00    -0.101 A  
HETATM   36  C   UNL     1      -6.995   7.063  66.848  1.00  0.00    -0.070 A  
HETATM   37  C   UNL     1      -7.102   5.776  67.340  1.00  0.00    -0.074 A  
HETATM   38  C   UNL     1      -7.834   5.537  68.501  1.00  0.00    -0.088 A  
ENDBRANCH  24  25
ENDBRANCH  23  24
ENDBRANCH  22  23
ENDBRANCH  21  22
ENDBRANCH  20  21
ENDBRANCH  19  20
ENDBRANCH  18  19
ENDBRANCH  17  18
ENDBRANCH  16  17
ENDBRANCH  15  16
ENDBRANCH  14  15
TORSDOF 11
ENDMDL
MODEL      320
REMARK 921   NORMALIZED FREE ENERGY PREDICTED BY IDOCK:   -4.84 KCAL/MOL
REMARK 922        TOTAL FREE ENERGY PREDICTED BY IDOCK:   -9.30 KCAL/MOL
REMARK 923 INTER-LIGAND FREE ENERGY PREDICTED BY IDOCK:   -6.97 KCAL/MOL
REMARK 924 INTRA-LIGAND FREE ENERGY PREDICTED BY IDOCK:   -2.33 KCAL/MOL
REMARK 927      BINDING AFFINITY PREDICTED BY RF-SCORE:    0.00 PKD
ROOT
HETATM    1  C   UNL     1      -8.657   6.759  69.316  1.00  0.00    -0.129 C  
HETATM    2  C   UNL     1      -8.390   6.702  67.829  1.00  0.00    -0.122 A  
HETATM    3  C   UNL     1      -8.987   5.681  67.101  1.00  0.00    -0.112 A  
HETATM    4  C   UNL     1      -8.805   5.566  65.731  1.00  0.00    -0.153 A  
HETATM    5  N   UNL     1      -9.556   4.597  65.057  1.00  0.00    -0.284 NA 
HETATM    6  C   UNL     1      -8.073   6.569  65.068  1.00  0.00    -0.127 A  
HETATM    7  H2  UNL     1     -10.546   4.741  65.255  1.00  0.00     0.000 HD 
HETATM    8  C   UNL     1      -7.948   6.597  63.660  1.00  0.00    -0.070 A  
HETATM    9  H1  UNL     1      -9.421   4.513  64.050  1.00  0.00     0.000 HD 
HETATM   10  C   UNL     1      -7.209   7.580  63.002  1.00  0.00    -0.083 A  
HETATM   11  C   UNL     1      -6.563   8.558  63.735  1.00  0.00    -0.076 A  
HETATM   12  C   UNL     1      -6.672   8.562  65.128  1.00  0.00    -0.064 A  
HETATM   13  C   UNL     1      -7.446   7.596  65.822  1.00  0.00    -0.079 A  
HETATM   14  N   UNL     1      -7.624   7.637  67.188  1.00  0.00    -0.102 NA 
ENDROOT
BRANCH  14  15
HETATM   15  C   UNL     1      -7.035   8.752  67.980  1.00  0.00    -0.078 C  
BRANCH  15  16
HETATM   16  C   UNL     1      -8.080   9.832  68.249  1.00  0.00    -0.104 C  
BRANCH  16  17
HETATM   17  C   UNL     1      -7.803  11.097  67.441  1.00  0.00    -0.121 C  
BRANCH  17  18
HETATM   18  C   UNL     1      -6.364  11.597  67.592  1.00  0.00    -0.072 C  
BRANCH  18  19
HETATM   19  C   UNL     1      -6.299  13.096  67.873  1.00  0.00    -0.139 C  
BRANCH  19  20
HETATM   20  C   UNL     1      -7.670  13.775  67.846  1.00  0.00    -0.161 C  
BRANCH  20  21
HETATM   21  C   UNL     1      -7.921  14.713  69.034  1.00  0.00    -0.122 C  
BRANCH  21  22
HETATM   22  C   UNL     1      -8.844  15.884  68.686  1.00  0.00    -0.206 C  
BRANCH  22  23
HETATM   23  C   UNL     1     -10.224  15.782  69.346  1.00  0.00    -0.262 C  
BRANCH  23  24
HETATM   24  C   UNL     1     -11.347  15.805  68.309  1.00  0.00    -0.354 C  
BRANCH  24  25
HETATM   25  N   UNL     1     -11.236  14.644  67.390  1.00  0.00    -0.329 NA 
HETATM   26  C   UNL     1     -10.819  14.826  66.098  1.00  0.00    -0.321 A  
HETATM   27  C   UNL     1     -10.647  13.720  65.262  1.00  0.00    -0.363 A  
HETATM   28  C   UNL     1     -10.454  16.158  65.484  1.00  0.00    -0.407 C  
HETATM   29  C   UNL     1     -10.914  12.431  65.696  1.00  0.00    -0.286 A  
HETATM   30  N   UNL     1     -10.575  11.379  64.840  1.00  0.00    -0.302 NA 
HETATM   31  C   UNL     1     -11.280  12.248  67.039  1.00  0.00    -0.367 A  
HETATM   32  H1  UNL     1     -10.772  10.430  65.159  1.00  0.00     0.000 HD 
HETATM   33  C   UNL     1     -11.479  13.377  67.880  1.00  0.00    -0.315 A  
HETATM   34  H2  UNL     1      -9.589  11.452  64.589  1.00  0.00     0.000 HD 
HETATM   35  C   UNL     1     -11.900  13.152  69.216  1.00  0.00    -0.377 A  
HETATM   36  C   UNL     1     -12.074  11.870  69.731  1.00  0.00    -0.321 A  
HETATM   37  C   UNL     1     -11.839  10.773  68.923  1.00  0.00    -0.287 A  
HETATM   38  C   UNL     1     -11.455  10.960  67.596  1.00  0.00    -0.281 A  
ENDBRANCH  24  25
ENDBRANCH  23  24
ENDBRANCH  22  23
ENDBRANCH  21  22
ENDBRANCH  20  21
ENDBRANCH  19  20
ENDBRANCH  18  19
ENDBRANCH  17  18
ENDBRANCH  16  17
ENDBRANCH  15  16
ENDBRANCH  14  15
TORSDOF 11
ENDMDL
MODEL      321
REMARK 921   NORMALIZED FREE ENERGY PREDICTED BY IDOCK:   -4.82 KCAL/MOL
REMARK 922        TOTAL FREE ENERGY PREDICTED BY IDOCK:   -9.27 KCAL/MOL
REMARK 923 INTER-LIGAND FREE ENERGY PREDICTED BY IDOCK:   -7.83 KCAL/MOL
REMARK 924 INTRA-LIGAND FREE ENERGY PREDICTED BY IDOCK:   -1.44 KCAL/MOL
REMARK 927      BINDING AFFINITY PREDICTED BY RF-SCORE:    0.00 PKD
ROOT
HETATM    1  C   UNL     1     -11.115  15.644  67.575  1.00  0.00    -0.289 C  
HETATM    2  C   UNL     1     -11.576  14.839  68.769  1.00  0.00    -0.320 A  
HETATM    3  C   UNL     1     -12.063  15.532  69.870  1.00  0.00    -0.378 A  
HETATM    4  C   UNL     1     -12.519  14.869  71.000  1.00  0.00    -0.330 A  
HETATM    5  N   UNL     1     -13.123  15.637  72.001  1.00  0.00    -0.444 NA 
HETATM    6  C   UNL     1     -12.569  13.463  70.974  1.00  0.00    -0.425 A  
HETATM    7  H2  UNL     1     -13.888  16.177  71.596  1.00  0.00     0.000 HD 
HETATM    8  C   UNL     1     -13.138  12.714  72.031  1.00  0.00    -0.471 A  
HETATM    9  H1  UNL     1     -13.458  15.149  72.831  1.00  0.00     0.000 HD 
HETATM   10  C   UNL     1     -13.173  11.321  72.015  1.00  0.00    -0.437 A  
HETATM   11  C   UNL     1     -12.630  10.633  70.947  1.00  0.00    -0.503 A  
HETATM   12  C   UNL     1     -12.066  11.343  69.883  1.00  0.00    -0.404 A  
HETATM   13  C   UNL     1     -12.048  12.761  69.855  1.00  0.00    -0.259 A  
HETATM   14  N   UNL     1     -11.566  13.471  68.777  1.00  0.00    -0.300 NA 
ENDROOT
BRANCH  14  15
HETATM   15  C   UNL     1     -11.087  12.748  67.567  1.00  0.00    -0.263 C  
BRANCH  15  16
HETATM   16  C   UNL     1      -9.637  12.302  67.744  1.00  0.00    -0.200 C  
BRANCH  16  17
HETATM   17  C   UNL     1      -9.057  11.745  66.447  1.00  0.00    -0.215 C  
BRANCH  17  18
HETATM   18  C   UNL     1      -9.887  10.595  65.868  1.00  0.00    -0.296 C  
BRANCH  18  19
HETATM   19  C   UNL     1      -9.705  10.453  64.360  1.00  0.00    -0.396 C  
BRANCH  19  20
HETATM   20  C   UNL     1      -8.449   9.667  63.976  1.00  0.00    -0.190 C  
BRANCH  20  21
HETATM   21  C   UNL     1      -8.005   8.650  65.036  1.00  0.00    -0.131 C  
BRANCH  21  22
HETATM   22  C   UNL     1      -8.258   7.200  64.616  1.00  0.00    -0.027 C  
BRANCH  22  23
HETATM   23  C   UNL     1      -8.080   6.199  65.763  1.00  0.00    -0.124 C  
BRANCH  23  24
HETATM   24  C   UNL     1      -7.600   6.887  67.041  1.00  0.00    -0.102 C  
BRANCH  24  25
HETATM   25  N   UNL     1      -8.214   6.257  68.238  1.00  0.00    -0.115 NA 
HETATM   26  C   UNL     1      -9.494   6.579  68.605  1.00  0.00    -0.123 A  
HETATM   27  C   UNL     1     -10.090   5.929  69.688  1.00  0.00    -0.260 A  
HETATM   28  C   UNL     1     -10.381   7.568  67.883  1.00  0.00    -0.266 C  
HETATM   29  C   UNL     1      -9.409   4.976  70.429  1.00  0.00    -0.158 A  
HETATM   30  N   UNL     1     -10.131   4.276  71.400  1.00  0.00    -0.157 NA 
HETATM   31  C   UNL     1      -8.121   4.607  70.008  1.00  0.00    -0.068 A  
HETATM   32  H1  UNL     1      -9.631   3.575  71.945  1.00  0.00     0.000 HD 
HETATM   33  C   UNL     1      -7.509   5.289  68.921  1.00  0.00    -0.074 A  
HETATM   34  H2  UNL     1     -10.949   3.845  70.967  1.00  0.00     0.000 HD 
HETATM   35  C   UNL     1      -6.186   4.923  68.561  1.00  0.00    -0.031 A  
HETATM   36  C   UNL     1      -5.501   3.894  69.204  1.00  0.00    -0.012 A  
HETATM   37  C   UNL     1      -6.116   3.205  70.232  1.00  0.00    -0.023 A  
HETATM   38  C   UNL     1      -7.403   3.561  70.632  1.00  0.00    -0.040 A  
ENDBRANCH  24  25
ENDBRANCH  23  24
ENDBRANCH  22  23
ENDBRANCH  21  22
ENDBRANCH  20  21
ENDBRANCH  19  20
ENDBRANCH  18  19
ENDBRANCH  17  18
ENDBRANCH  16  17
ENDBRANCH  15  16
ENDBRANCH  14  15
TORSDOF 11
ENDMDL
MODEL      322
REMARK 921   NORMALIZED FREE ENERGY PREDICTED BY IDOCK:   -4.82 KCAL/MOL
REMARK 922        TOTAL FREE ENERGY PREDICTED BY IDOCK:   -9.27 KCAL/MOL
REMARK 923 INTER-LIGAND FREE ENERGY PREDICTED BY IDOCK:   -6.59 KCAL/MOL
REMARK 924 INTRA-LIGAND FREE ENERGY PREDICTED BY IDOCK:   -2.67 KCAL/MOL
REMARK 927      BINDING AFFINITY PREDICTED BY RF-SCORE:    0.00 PKD
ROOT
HETATM    1  C   UNL     1      -7.112  10.196  66.549  1.00  0.00    -0.103 C  
HETATM    2  C   UNL     1      -8.379  10.397  67.349  1.00  0.00    -0.121 A  
HETATM    3  C   UNL     1      -9.467  10.973  66.706  1.00  0.00    -0.203 A  
HETATM    4  C   UNL     1     -10.671  11.179  67.363  1.00  0.00    -0.250 A  
HETATM    5  N   UNL     1     -11.754  11.632  66.603  1.00  0.00    -0.504 NA 
HETATM    6  C   UNL     1     -10.802  10.703  68.681  1.00  0.00    -0.266 A  
HETATM    7  H2  UNL     1     -11.904  10.997  65.818  1.00  0.00     0.000 HD 
HETATM    8  C   UNL     1     -12.032  10.757  69.378  1.00  0.00    -0.353 A  
HETATM    9  H1  UNL     1     -12.639  11.783  67.087  1.00  0.00     0.000 HD 
HETATM   10  C   UNL     1     -12.160  10.301  70.689  1.00  0.00    -0.433 A  
HETATM   11  C   UNL     1     -11.059   9.787  71.347  1.00  0.00    -0.317 A  
HETATM   12  C   UNL     1      -9.831   9.713  70.685  1.00  0.00    -0.268 A  
HETATM   13  C   UNL     1      -9.679  10.137  69.339  1.00  0.00    -0.229 A  
HETATM   14  N   UNL     1      -8.493   9.996  68.651  1.00  0.00    -0.113 NA 
ENDROOT
BRANCH  14  15
HETATM   15  C   UNL     1      -7.330   9.334  69.306  1.00  0.00    -0.070 C  
BRANCH  15  16
HETATM   16  C   UNL     1      -7.289   7.848  68.956  1.00  0.00    -0.088 C  
BRANCH  16  17
HETATM   17  C   UNL     1      -6.400   7.067  69.920  1.00  0.00    -0.038 C  
BRANCH  17  18
HETATM   18  C   UNL     1      -7.199   6.204  70.901  1.00  0.00    -0.074 C  
BRANCH  18  19
HETATM   19  C   UNL     1      -7.359   6.874  72.262  1.00  0.00    -0.086 C  
BRANCH  19  20
HETATM   20  C   UNL     1      -6.221   6.548  73.232  1.00  0.00    -0.063 C  
BRANCH  20  21
HETATM   21  C   UNL     1      -6.471   5.298  74.085  1.00  0.00    -0.073 C  
BRANCH  21  22
HETATM   22  C   UNL     1      -7.880   4.724  73.905  1.00  0.00    -0.101 C  
BRANCH  22  23
HETATM   23  C   UNL     1      -7.885   3.317  73.296  1.00  0.00    -0.069 C  
BRANCH  23  24
HETATM   24  C   UNL     1      -9.245   2.974  72.685  1.00  0.00    -0.089 C  
BRANCH  24  25
HETATM   25  N   UNL     1      -9.351   3.518  71.307  1.00  0.00    -0.127 NA 
HETATM   26  C   UNL     1      -8.704   2.899  70.271  1.00  0.00    -0.074 A  
HETATM   27  C   UNL     1      -8.868   3.373  68.967  1.00  0.00    -0.161 A  
HETATM   28  C   UNL     1      -7.841   1.664  70.400  1.00  0.00    -0.042 C  
HETATM   29  C   UNL     1      -9.654   4.481  68.689  1.00  0.00    -0.157 A  
HETATM   30  N   UNL     1      -9.876   4.793  67.345  1.00  0.00    -0.178 NA 
HETATM   31  C   UNL     1     -10.364   5.071  69.748  1.00  0.00    -0.286 A  
HETATM   32  H1  UNL     1     -10.454   5.608  67.140  1.00  0.00     0.000 HD 
HETATM   33  C   UNL     1     -10.174   4.601  71.076  1.00  0.00    -0.136 A  
HETATM   34  H2  UNL     1     -10.262   3.978  66.868  1.00  0.00     0.000 HD 
HETATM   35  C   UNL     1     -10.868   5.258  72.124  1.00  0.00    -0.252 A  
HETATM   36  C   UNL     1     -11.755   6.305  71.882  1.00  0.00    -0.370 A  
HETATM   37  C   UNL     1     -11.969   6.730  70.585  1.00  0.00    -0.418 A  
HETATM   38  C   UNL     1     -11.279   6.127  69.535  1.00  0.00    -0.482 A  
ENDBRANCH  24  25
ENDBRANCH  23  24
ENDBRANCH  22  23
ENDBRANCH  21  22
ENDBRANCH  20  21
ENDBRANCH  19  20
ENDBRANCH  18  19
ENDBRANCH  17  18
ENDBRANCH  16  17
ENDBRANCH  15  16
ENDBRANCH  14  15
TORSDOF 11
ENDMDL
MODEL      323
REMARK 921   NORMALIZED FREE ENERGY PREDICTED BY IDOCK:   -4.80 KCAL/MOL
REMARK 922        TOTAL FREE ENERGY PREDICTED BY IDOCK:   -9.24 KCAL/MOL
REMARK 923 INTER-LIGAND FREE ENERGY PREDICTED BY IDOCK:   -7.13 KCAL/MOL
REMARK 924 INTRA-LIGAND FREE ENERGY PREDICTED BY IDOCK:   -2.11 KCAL/MOL
REMARK 927      BINDING AFFINITY PREDICTED BY RF-SCORE:    0.00 PKD
ROOT
HETATM    1  C   UNL     1      -7.706   7.222  64.361  1.00  0.00    -0.120 C  
HETATM    2  C   UNL     1      -8.146   7.342  65.802  1.00  0.00    -0.129 A  
HETATM    3  C   UNL     1      -9.508   7.281  66.071  1.00  0.00     0.020 A  
HETATM    4  C   UNL     1      -9.994   7.368  67.367  1.00  0.00    -0.183 A  
HETATM    5  N   UNL     1     -11.363   7.155  67.561  1.00  0.00    -0.518 NA 
HETATM    6  C   UNL     1      -9.068   7.425  68.426  1.00  0.00    -0.132 A  
HETATM    7  H2  UNL     1     -11.623   6.252  67.163  1.00  0.00     0.000 HD 
HETATM    8  C   UNL     1      -9.476   7.387  69.780  1.00  0.00    -0.159 A  
HETATM    9  H1  UNL     1     -11.721   7.219  68.513  1.00  0.00     0.000 HD 
HETATM   10  C   UNL     1      -8.562   7.461  70.830  1.00  0.00    -0.137 A  
HETATM   11  C   UNL     1      -7.213   7.585  70.557  1.00  0.00    -0.064 A  
HETATM   12  C   UNL     1      -6.776   7.619  69.230  1.00  0.00    -0.044 A  
HETATM   13  C   UNL     1      -7.680   7.511  68.142  1.00  0.00    -0.120 A  
HETATM   14  N   UNL     1      -7.254   7.464  66.832  1.00  0.00    -0.086 NA 
ENDROOT
BRANCH  14  15
HETATM   15  C   UNL     1      -5.797   7.476  66.525  1.00  0.00    -0.036 C  
BRANCH  15  16
HETATM   16  C   UNL     1      -5.243   8.897  66.602  1.00  0.00    -0.038 C  
BRANCH  16  17
HETATM   17  C   UNL     1      -6.322   9.939  66.319  1.00  0.00    -0.072 C  
BRANCH  17  18
HETATM   18  C   UNL     1      -6.124  11.233  67.114  1.00  0.00    -0.091 C  
BRANCH  18  19
HETATM   19  C   UNL     1      -7.056  11.319  68.319  1.00  0.00    -0.074 C  
BRANCH  19  20
HETATM   20  C   UNL     1      -8.378  12.025  68.010  1.00  0.00    -0.162 C  
BRANCH  20  21
HETATM   21  C   UNL     1      -9.419  11.123  67.332  1.00  0.00    -0.176 C  
BRANCH  21  22
HETATM   22  C   UNL     1     -10.637  10.846  68.217  1.00  0.00    -0.223 C  
BRANCH  22  23
HETATM   23  C   UNL     1     -10.916  11.965  69.228  1.00  0.00    -0.208 C  
BRANCH  23  24
HETATM   24  C   UNL     1     -12.140  12.790  68.831  1.00  0.00    -0.135 C  
BRANCH  24  25
HETATM   25  N   UNL     1     -11.746  13.926  67.960  1.00  0.00    -0.333 NA 
HETATM   26  C   UNL     1     -11.212  15.061  68.509  1.00  0.00    -0.287 A  
HETATM   27  C   UNL     1     -10.777  16.097  67.678  1.00  0.00    -0.318 A  
HETATM   28  C   UNL     1     -10.984  15.286  69.987  1.00  0.00    -0.306 C  
HETATM   29  C   UNL     1     -10.894  16.021  66.299  1.00  0.00    -0.166 A  
HETATM   30  N   UNL     1     -10.301  17.037  65.544  1.00  0.00    -0.623 NA 
HETATM   31  C   UNL     1     -11.384  14.828  65.741  1.00  0.00    -0.336 A  
HETATM   32  H1  UNL     1     -10.387  16.981  64.529  1.00  0.00     0.000 HD 
HETATM   33  C   UNL     1     -11.849  13.788  66.591  1.00  0.00    -0.412 A  
HETATM   34  H2  UNL     1      -9.315  17.111  65.794  1.00  0.00     0.000 HD 
HETATM   35  C   UNL     1     -12.387  12.621  65.989  1.00  0.00    -0.177 A  
HETATM   36  C   UNL     1     -12.423  12.452  64.607  1.00  0.00    -0.500 A  
HETATM   37  C   UNL     1     -11.931  13.447  63.785  1.00  0.00    -0.517 A  
HETATM   38  C   UNL     1     -11.426  14.620  64.343  1.00  0.00    -0.272 A  
ENDBRANCH  24  25
ENDBRANCH  23  24
ENDBRANCH  22  23
ENDBRANCH  21  22
ENDBRANCH  20  21
ENDBRANCH  19  20
ENDBRANCH  18  19
ENDBRANCH  17  18
ENDBRANCH  16  17
ENDBRANCH  15  16
ENDBRANCH  14  15
TORSDOF 11
ENDMDL
MODEL      324
REMARK 921   NORMALIZED FREE ENERGY PREDICTED BY IDOCK:   -4.80 KCAL/MOL
REMARK 922        TOTAL FREE ENERGY PREDICTED BY IDOCK:   -9.24 KCAL/MOL
REMARK 923 INTER-LIGAND FREE ENERGY PREDICTED BY IDOCK:   -7.46 KCAL/MOL
REMARK 924 INTRA-LIGAND FREE ENERGY PREDICTED BY IDOCK:   -1.77 KCAL/MOL
REMARK 927      BINDING AFFINITY PREDICTED BY RF-SCORE:    0.00 PKD
ROOT
HETATM    1  C   UNL     1      -7.308   9.467  70.633  1.00  0.00    -0.140 C  
HETATM    2  C   UNL     1      -8.456   8.678  71.219  1.00  0.00    -0.179 A  
HETATM    3  C   UNL     1      -9.705   9.285  71.264  1.00  0.00    -0.299 A  
HETATM    4  C   UNL     1     -10.813   8.625  71.772  1.00  0.00    -0.325 A  
HETATM    5  N   UNL     1     -12.056   9.256  71.648  1.00  0.00    -0.355 NA 
HETATM    6  C   UNL     1     -10.670   7.280  72.160  1.00  0.00    -0.252 A  
HETATM    7  H2  UNL     1     -12.221   9.486  70.668  1.00  0.00     0.000 HD 
HETATM    8  C   UNL     1     -11.775   6.497  72.568  1.00  0.00    -0.203 A  
HETATM    9  H1  UNL     1     -12.870   8.771  72.022  1.00  0.00     0.000 HD 
HETATM   10  C   UNL     1     -11.633   5.169  72.968  1.00  0.00    -0.301 A  
HETATM   11  C   UNL     1     -10.380   4.587  72.983  1.00  0.00    -0.237 A  
HETATM   12  C   UNL     1      -9.268   5.332  72.579  1.00  0.00    -0.147 A  
HETATM   13  C   UNL     1      -9.387   6.673  72.133  1.00  0.00    -0.141 A  
HETATM   14  N   UNL     1      -8.310   7.391  71.659  1.00  0.00    -0.104 NA 
ENDROOT
BRANCH  14  15
HETATM   15  C   UNL     1      -6.974   6.741  71.555  1.00  0.00    -0.067 C  
BRANCH  15  16
HETATM   16  C   UNL     1      -6.993   5.636  70.501  1.00  0.00    -0.057 C  
BRANCH  16  17
HETATM   17  C   UNL     1      -6.615   6.168  69.121  1.00  0.00    -0.047 C  
BRANCH  17  18
HETATM   18  C   UNL     1      -7.632   5.794  68.039  1.00  0.00    -0.085 C  
BRANCH  18  19
HETATM   19  C   UNL     1      -9.026   6.332  68.345  1.00  0.00    -0.116 C  
BRANCH  19  20
HETATM   20  C   UNL     1      -9.294   7.704  67.722  1.00  0.00    -0.153 C  
BRANCH  20  21
HETATM   21  C   UNL     1      -8.485   7.974  66.446  1.00  0.00    -0.138 C  
BRANCH  21  22
HETATM   22  C   UNL     1      -9.272   8.764  65.396  1.00  0.00    -0.155 C  
BRANCH  22  23
HETATM   23  C   UNL     1      -8.999  10.272  65.445  1.00  0.00    -0.205 C  
BRANCH  23  24
HETATM   24  C   UNL     1      -9.696  10.931  66.636  1.00  0.00    -0.189 C  
BRANCH  24  25
HETATM   25  N   UNL     1      -9.477  12.400  66.624  1.00  0.00    -0.227 NA 
HETATM   26  C   UNL     1      -8.359  12.934  67.206  1.00  0.00    -0.185 A  
HETATM   27  C   UNL     1      -8.125  14.310  67.126  1.00  0.00    -0.154 A  
HETATM   28  C   UNL     1      -7.279  12.139  67.903  1.00  0.00    -0.102 C  
HETATM   29  C   UNL     1      -9.013  15.164  66.492  1.00  0.00    -0.291 A  
HETATM   30  N   UNL     1      -8.626  16.498  66.336  1.00  0.00    -0.284 NA 
HETATM   31  C   UNL     1     -10.124  14.600  65.843  1.00  0.00    -0.341 A  
HETATM   32  H1  UNL     1      -9.279  17.126  65.869  1.00  0.00     0.000 HD 
HETATM   33  C   UNL     1     -10.372  13.203  65.948  1.00  0.00    -0.290 A  
HETATM   34  H2  UNL     1      -7.725  16.533  65.858  1.00  0.00     0.000 HD 
HETATM   35  C   UNL     1     -11.534  12.681  65.324  1.00  0.00    -0.368 A  
HETATM   36  C   UNL     1     -12.398  13.482  64.581  1.00  0.00    -0.419 A  
HETATM   37  C   UNL     1     -12.130  14.831  64.445  1.00  0.00    -0.457 A  
HETATM   38  C   UNL     1     -11.015  15.382  65.073  1.00  0.00    -0.450 A  
ENDBRANCH  24  25
ENDBRANCH  23  24
ENDBRANCH  22  23
ENDBRANCH  21  22
ENDBRANCH  20  21
ENDBRANCH  19  20
ENDBRANCH  18  19
ENDBRANCH  17  18
ENDBRANCH  16  17
ENDBRANCH  15  16
ENDBRANCH  14  15
TORSDOF 11
ENDMDL
MODEL      325
REMARK 921   NORMALIZED FREE ENERGY PREDICTED BY IDOCK:   -4.79 KCAL/MOL
REMARK 922        TOTAL FREE ENERGY PREDICTED BY IDOCK:   -9.23 KCAL/MOL
REMARK 923 INTER-LIGAND FREE ENERGY PREDICTED BY IDOCK:   -8.05 KCAL/MOL
REMARK 924 INTRA-LIGAND FREE ENERGY PREDICTED BY IDOCK:   -1.18 KCAL/MOL
REMARK 927      BINDING AFFINITY PREDICTED BY RF-SCORE:    0.00 PKD
ROOT
HETATM    1  C   UNL     1      -5.270  16.107  67.737  1.00  0.00    -0.146 C  
HETATM    2  C   UNL     1      -6.261  17.245  67.658  1.00  0.00    -0.150 A  
HETATM    3  C   UNL     1      -5.786  18.535  67.863  1.00  0.00    -0.168 A  
HETATM    4  C   UNL     1      -6.626  19.636  67.794  1.00  0.00    -0.229 A  
HETATM    5  N   UNL     1      -6.039  20.903  67.871  1.00  0.00    -0.305 NA 
HETATM    6  C   UNL     1      -7.966  19.431  67.415  1.00  0.00    -0.299 A  
HETATM    7  H2  UNL     1      -5.318  20.985  67.155  1.00  0.00     0.000 HD 
HETATM    8  C   UNL     1      -8.856  20.509  67.197  1.00  0.00    -0.399 A  
HETATM    9  H1  UNL     1      -6.657  21.713  67.820  1.00  0.00     0.000 HD 
HETATM   10  C   UNL     1     -10.187  20.308  66.838  1.00  0.00    -0.504 A  
HETATM   11  C   UNL     1     -10.673  19.022  66.698  1.00  0.00    -0.429 A  
HETATM   12  C   UNL     1      -9.819  17.934  66.900  1.00  0.00    -0.321 A  
HETATM   13  C   UNL     1      -8.450  18.109  67.231  1.00  0.00    -0.242 A  
HETATM   14  N   UNL     1      -7.580  17.047  67.355  1.00  0.00    -0.162 NA 
ENDROOT
BRANCH  14  15
HETATM   15  C   UNL     1      -8.059  15.662  67.089  1.00  0.00    -0.215 C  
BRANCH  15  16
HETATM   16  C   UNL     1      -8.775  15.096  68.314  1.00  0.00    -0.171 C  
BRANCH  16  17
HETATM   17  C   UNL     1      -9.689  13.931  67.942  1.00  0.00    -0.231 C  
BRANCH  17  18
HETATM   18  C   UNL     1      -9.631  13.581  66.453  1.00  0.00    -0.268 C  
BRANCH  18  19
HETATM   19  C   UNL     1     -10.600  12.461  66.084  1.00  0.00    -0.283 C  
BRANCH  19  20
HETATM   20  C   UNL     1     -10.365  11.174  66.877  1.00  0.00    -0.272 C  
BRANCH  20  21
HETATM   21  C   UNL     1     -11.445  10.886  67.928  1.00  0.00    -0.344 C  
BRANCH  21  22
HETATM   22  C   UNL     1     -10.869  10.392  69.258  1.00  0.00    -0.280 C  
BRANCH  22  23
HETATM   23  C   UNL     1      -9.378  10.708  69.425  1.00  0.00    -0.082 C  
BRANCH  23  24
HETATM   24  C   UNL     1      -8.674   9.662  70.289  1.00  0.00    -0.208 C  
BRANCH  24  25
HETATM   25  N   UNL     1      -9.032   8.290  69.846  1.00  0.00    -0.139 NA 
HETATM   26  C   UNL     1      -8.530   7.793  68.672  1.00  0.00    -0.129 A  
HETATM   27  C   UNL     1      -8.813   6.477  68.299  1.00  0.00    -0.119 A  
HETATM   28  C   UNL     1      -7.613   8.543  67.734  1.00  0.00    -0.098 C  
HETATM   29  C   UNL     1      -9.617   5.657  69.074  1.00  0.00    -0.135 A  
HETATM   30  N   UNL     1      -9.725   4.315  68.697  1.00  0.00    -0.138 NA 
HETATM   31  C   UNL     1     -10.075   6.153  70.306  1.00  0.00    -0.237 A  
HETATM   32  H1  UNL     1     -10.316   3.711  69.268  1.00  0.00     0.000 HD 
HETATM   33  C   UNL     1      -9.806   7.501  70.671  1.00  0.00    -0.179 A  
HETATM   34  H2  UNL     1      -8.792   3.907  68.630  1.00  0.00     0.000 HD 
HETATM   35  C   UNL     1     -10.332   7.980  71.898  1.00  0.00    -0.284 A  
HETATM   36  C   UNL     1     -11.052   7.161  72.765  1.00  0.00    -0.339 A  
HETATM   37  C   UNL     1     -11.274   5.839  72.427  1.00  0.00    -0.343 A  
HETATM   38  C   UNL     1     -10.800   5.346  71.213  1.00  0.00    -0.201 A  
ENDBRANCH  24  25
ENDBRANCH  23  24
ENDBRANCH  22  23
ENDBRANCH  21  22
ENDBRANCH  20  21
ENDBRANCH  19  20
ENDBRANCH  18  19
ENDBRANCH  17  18
ENDBRANCH  16  17
ENDBRANCH  15  16
ENDBRANCH  14  15
TORSDOF 11
ENDMDL
MODEL      326
REMARK 921   NORMALIZED FREE ENERGY PREDICTED BY IDOCK:   -4.78 KCAL/MOL
REMARK 922        TOTAL FREE ENERGY PREDICTED BY IDOCK:   -9.21 KCAL/MOL
REMARK 923 INTER-LIGAND FREE ENERGY PREDICTED BY IDOCK:   -8.45 KCAL/MOL
REMARK 924 INTRA-LIGAND FREE ENERGY PREDICTED BY IDOCK:   -0.76 KCAL/MOL
REMARK 927      BINDING AFFINITY PREDICTED BY RF-SCORE:    0.00 PKD
ROOT
HETATM    1  C   UNL     1     -10.673   8.185  72.788  1.00  0.00    -0.391 C  
HETATM    2  C   UNL     1     -10.302   6.807  72.289  1.00  0.00    -0.196 A  
HETATM    3  C   UNL     1     -10.752   5.711  73.014  1.00  0.00    -0.290 A  
HETATM    4  C   UNL     1     -10.468   4.413  72.617  1.00  0.00    -0.182 A  
HETATM    5  N   UNL     1     -11.079   3.372  73.323  1.00  0.00    -0.167 NA 
HETATM    6  C   UNL     1      -9.788   4.221  71.399  1.00  0.00    -0.260 A  
HETATM    7  H2  UNL     1     -12.090   3.511  73.321  1.00  0.00     0.000 HD 
HETATM    8  C   UNL     1      -9.572   2.932  70.858  1.00  0.00    -0.208 A  
HETATM    9  H1  UNL     1     -10.870   2.418  73.030  1.00  0.00     0.000 HD 
HETATM   10  C   UNL     1      -8.884   2.739  69.661  1.00  0.00    -0.147 A  
HETATM   11  C   UNL     1      -8.382   3.828  68.975  1.00  0.00    -0.089 A  
HETATM   12  C   UNL     1      -8.584   5.116  69.479  1.00  0.00    -0.099 A  
HETATM   13  C   UNL     1      -9.311   5.345  70.676  1.00  0.00    -0.162 A  
HETATM   14  N   UNL     1      -9.584   6.614  71.141  1.00  0.00    -0.170 NA 
ENDROOT
BRANCH  14  15
HETATM   15  C   UNL     1      -9.154   7.801  70.351  1.00  0.00    -0.155 C  
BRANCH  15  16
HETATM   16  C   UNL     1     -10.280   8.274  69.434  1.00  0.00    -0.204 C  
BRANCH  16  17
HETATM   17  C   UNL     1     -10.184   9.770  69.149  1.00  0.00    -0.211 C  
BRANCH  17  18
HETATM   18  C   UNL     1     -11.500  10.366  68.641  1.00  0.00    -0.238 C  
BRANCH  18  19
HETATM   19  C   UNL     1     -11.674  11.823  69.060  1.00  0.00    -0.390 C  
BRANCH  19  20
HETATM   20  C   UNL     1     -11.994  12.753  67.887  1.00  0.00    -0.320 C  
BRANCH  20  21
HETATM   21  C   UNL     1     -10.761  13.444  67.289  1.00  0.00    -0.265 C  
BRANCH  21  22
HETATM   22  C   UNL     1     -11.087  14.791  66.639  1.00  0.00    -0.333 C  
BRANCH  22  23
HETATM   23  C   UNL     1      -9.911  15.775  66.666  1.00  0.00    -0.268 C  
BRANCH  23  24
HETATM   24  C   UNL     1     -10.106  16.855  67.731  1.00  0.00    -0.292 C  
BRANCH  24  25
HETATM   25  N   UNL     1      -9.146  17.970  67.527  1.00  0.00    -0.252 NA 
HETATM   26  C   UNL     1      -9.479  19.026  66.721  1.00  0.00    -0.329 A  
HETATM   27  C   UNL     1      -8.601  20.105  66.592  1.00  0.00    -0.352 A  
HETATM   28  C   UNL     1     -10.785  19.169  65.973  1.00  0.00    -0.451 C  
HETATM   29  C   UNL     1      -7.377  20.129  67.242  1.00  0.00    -0.276 A  
HETATM   30  N   UNL     1      -6.632  21.309  67.171  1.00  0.00    -0.525 NA 
HETATM   31  C   UNL     1      -7.072  19.073  68.116  1.00  0.00    -0.274 A  
HETATM   32  H1  UNL     1      -5.731  21.327  67.649  1.00  0.00     0.000 HD 
HETATM   33  C   UNL     1      -7.956  17.965  68.225  1.00  0.00    -0.291 A  
HETATM   34  H2  UNL     1      -7.202  22.089  67.498  1.00  0.00     0.000 HD 
HETATM   35  C   UNL     1      -7.585  16.893  69.077  1.00  0.00    -0.210 A  
HETATM   36  C   UNL     1      -6.418  16.922  69.837  1.00  0.00     0.010 A  
HETATM   37  C   UNL     1      -5.582  18.020  69.761  1.00  0.00    -0.230 A  
HETATM   38  C   UNL     1      -5.901  19.075  68.909  1.00  0.00    -0.227 A  
ENDBRANCH  24  25
ENDBRANCH  23  24
ENDBRANCH  22  23
ENDBRANCH  21  22
ENDBRANCH  20  21
ENDBRANCH  19  20
ENDBRANCH  18  19
ENDBRANCH  17  18
ENDBRANCH  16  17
ENDBRANCH  15  16
ENDBRANCH  14  15
TORSDOF 11
ENDMDL
MODEL      327
REMARK 921   NORMALIZED FREE ENERGY PREDICTED BY IDOCK:   -4.77 KCAL/MOL
REMARK 922        TOTAL FREE ENERGY PREDICTED BY IDOCK:   -9.19 KCAL/MOL
REMARK 923 INTER-LIGAND FREE ENERGY PREDICTED BY IDOCK:   -7.05 KCAL/MOL
REMARK 924 INTRA-LIGAND FREE ENERGY PREDICTED BY IDOCK:   -2.14 KCAL/MOL
REMARK 927      BINDING AFFINITY PREDICTED BY RF-SCORE:    0.00 PKD
ROOT
HETATM    1  C   UNL     1      -7.675  17.235  65.890  1.00  0.00    -0.064 C  
HETATM    2  C   UNL     1      -8.421  16.568  67.023  1.00  0.00    -0.197 A  
HETATM    3  C   UNL     1      -7.676  16.046  68.073  1.00  0.00    -0.140 A  
HETATM    4  C   UNL     1      -8.283  15.432  69.158  1.00  0.00    -0.243 A  
HETATM    5  N   UNL     1      -7.468  15.064  70.234  1.00  0.00    -0.153 NA 
HETATM    6  C   UNL     1      -9.690  15.429  69.223  1.00  0.00    -0.268 A  
HETATM    7  H2  UNL     1      -6.948  15.880  70.557  1.00  0.00     0.000 HD 
HETATM    8  C   UNL     1     -10.386  14.938  70.352  1.00  0.00     0.168 A  
HETATM    9  H1  UNL     1      -7.915  14.612  71.031  1.00  0.00     0.000 HD 
HETATM   10  C   UNL     1     -11.778  14.919  70.411  1.00  0.00    -0.347 A  
HETATM   11  C   UNL     1     -12.517  15.380  69.338  1.00  0.00    -0.059 A  
HETATM   12  C   UNL     1     -11.860  15.878  68.210  1.00  0.00    -0.065 A  
HETATM   13  C   UNL     1     -10.444  15.942  68.136  1.00  0.00    -0.270 A  
HETATM   14  N   UNL     1      -9.787  16.503  67.061  1.00  0.00    -0.250 NA 
ENDROOT
BRANCH  14  15
HETATM   15  C   UNL     1     -10.569  17.113  65.950  1.00  0.00    -0.215 C  
BRANCH  15  16
HETATM   16  C   UNL     1     -10.555  16.206  64.721  1.00  0.00    -0.050 C  
BRANCH  16  17
HETATM   17  C   UNL     1     -11.313  14.905  64.973  1.00  0.00    -0.398 C  
BRANCH  17  18
HETATM   18  C   UNL     1     -10.552  13.669  64.485  1.00  0.00    -0.428 C  
BRANCH  18  19
HETATM   19  C   UNL     1     -10.581  12.533  65.503  1.00  0.00    -0.304 C  
BRANCH  19  20
HETATM   20  C   UNL     1     -11.817  12.562  66.405  1.00  0.00    -0.445 C  
BRANCH  20  21
HETATM   21  C   UNL     1     -11.548  12.092  67.841  1.00  0.00    -0.413 C  
BRANCH  21  22
HETATM   22  C   UNL     1     -10.101  11.644  68.062  1.00  0.00    -0.198 C  
BRANCH  22  23
HETATM   23  C   UNL     1      -9.982  10.400  68.949  1.00  0.00    -0.208 C  
BRANCH  23  24
HETATM   24  C   UNL     1     -10.896   9.274  68.464  1.00  0.00    -0.074 C  
BRANCH  24  25
HETATM   25  N   UNL     1     -10.219   7.958  68.592  1.00  0.00    -0.202 NA 
HETATM   26  C   UNL     1      -9.326   7.548  67.638  1.00  0.00    -0.137 A  
HETATM   27  C   UNL     1      -8.639   6.342  67.803  1.00  0.00    -0.116 A  
HETATM   28  C   UNL     1      -8.952   8.336  66.404  1.00  0.00    -0.202 C  
HETATM   29  C   UNL     1      -8.857   5.525  68.901  1.00  0.00    -0.107 A  
HETATM   30  N   UNL     1      -8.022   4.414  69.054  1.00  0.00    -0.069 NA 
HETATM   31  C   UNL     1      -9.726   5.983  69.905  1.00  0.00    -0.200 A  
HETATM   32  H1  UNL     1      -8.181   3.813  69.862  1.00  0.00     0.000 HD 
HETATM   33  C   UNL     1     -10.442   7.198  69.722  1.00  0.00    -0.225 A  
HETATM   34  H2  UNL     1      -7.048   4.720  69.049  1.00  0.00     0.000 HD 
HETATM   35  C   UNL     1     -11.351   7.599  70.734  1.00  0.00    -0.296 A  
HETATM   36  C   UNL     1     -11.521   6.868  71.908  1.00  0.00    -0.308 A  
HETATM   37  C   UNL     1     -10.791   5.710  72.101  1.00  0.00    -0.300 A  
HETATM   38  C   UNL     1      -9.914   5.271  71.112  1.00  0.00    -0.265 A  
ENDBRANCH  24  25
ENDBRANCH  23  24
ENDBRANCH  22  23
ENDBRANCH  21  22
ENDBRANCH  20  21
ENDBRANCH  19  20
ENDBRANCH  18  19
ENDBRANCH  17  18
ENDBRANCH  16  17
ENDBRANCH  15  16
ENDBRANCH  14  15
TORSDOF 11
ENDMDL
MODEL      328
REMARK 921   NORMALIZED FREE ENERGY PREDICTED BY IDOCK:   -4.76 KCAL/MOL
REMARK 922        TOTAL FREE ENERGY PREDICTED BY IDOCK:   -9.17 KCAL/MOL
REMARK 923 INTER-LIGAND FREE ENERGY PREDICTED BY IDOCK:   -8.27 KCAL/MOL
REMARK 924 INTRA-LIGAND FREE ENERGY PREDICTED BY IDOCK:   -0.91 KCAL/MOL
REMARK 927      BINDING AFFINITY PREDICTED BY RF-SCORE:    0.00 PKD
ROOT
HETATM    1  C   UNL     1     -12.298  14.357  64.627  1.00  0.00    -0.435 C  
HETATM    2  C   UNL     1     -11.425  13.127  64.736  1.00  0.00    -0.323 A  
HETATM    3  C   UNL     1     -11.299  12.320  63.613  1.00  0.00    -0.547 A  
HETATM    4  C   UNL     1     -10.506  11.182  63.624  1.00  0.00    -0.376 A  
HETATM    5  N   UNL     1     -10.323  10.508  62.412  1.00  0.00    -0.577 NA 
HETATM    6  C   UNL     1      -9.748  10.907  64.778  1.00  0.00    -0.323 A  
HETATM    7  H2  UNL     1      -9.966  11.161  61.715  1.00  0.00     0.000 HD 
HETATM    8  C   UNL     1      -8.819   9.842  64.828  1.00  0.00    -0.239 A  
HETATM    9  H1  UNL     1      -9.741   9.671  62.421  1.00  0.00     0.000 HD 
HETATM   10  C   UNL     1      -8.079   9.558  65.975  1.00  0.00    -0.111 A  
HETATM   11  C   UNL     1      -8.254  10.325  67.111  1.00  0.00    -0.121 A  
HETATM   12  C   UNL     1      -9.159  11.390  67.093  1.00  0.00    -0.164 A  
HETATM   13  C   UNL     1      -9.900  11.724  65.930  1.00  0.00    -0.238 A  
HETATM   14  N   UNL     1     -10.736  12.818  65.877  1.00  0.00    -0.267 NA 
ENDROOT
BRANCH  14  15
HETATM   15  C   UNL     1     -10.845  13.725  67.053  1.00  0.00    -0.284 C  
BRANCH  15  16
HETATM   16  C   UNL     1     -12.002  13.300  67.955  1.00  0.00    -0.351 C  
BRANCH  16  17
HETATM   17  C   UNL     1     -11.511  12.877  69.337  1.00  0.00    -0.323 C  
BRANCH  17  18
HETATM   18  C   UNL     1     -11.946  11.458  69.716  1.00  0.00    -0.422 C  
BRANCH  18  19
HETATM   19  C   UNL     1     -12.602  11.403  71.092  1.00  0.00    -0.490 C  
BRANCH  19  20
HETATM   20  C   UNL     1     -13.131  10.013  71.453  1.00  0.00    -0.512 C  
BRANCH  20  21
HETATM   21  C   UNL     1     -12.029   8.993  71.771  1.00  0.00    -0.438 C  
BRANCH  21  22
HETATM   22  C   UNL     1     -12.578   7.595  72.073  1.00  0.00    -0.282 C  
BRANCH  22  23
HETATM   23  C   UNL     1     -11.482   6.572  72.391  1.00  0.00    -0.306 C  
BRANCH  23  24
HETATM   24  C   UNL     1     -10.173   6.908  71.675  1.00  0.00    -0.191 C  
BRANCH  24  25
HETATM   25  N   UNL     1      -9.789   5.814  70.747  1.00  0.00    -0.177 NA 
HETATM   26  C   UNL     1     -10.536   5.567  69.626  1.00  0.00    -0.305 A  
HETATM   27  C   UNL     1     -10.127   4.585  68.720  1.00  0.00    -0.033 A  
HETATM   28  C   UNL     1     -11.780   6.329  69.227  1.00  0.00     0.167 C  
HETATM   29  C   UNL     1      -8.989   3.824  68.937  1.00  0.00    -0.123 A  
HETATM   30  N   UNL     1      -8.579   2.969  67.910  1.00  0.00    -0.088 NA 
HETATM   31  C   UNL     1      -8.195   4.126  70.056  1.00  0.00    -0.068 A  
HETATM   32  H1  UNL     1      -7.741   2.409  68.069  1.00  0.00     0.000 HD 
HETATM   33  C   UNL     1      -8.628   5.109  70.988  1.00  0.00    -0.124 A  
HETATM   34  H2  UNL     1      -8.466   3.505  67.049  1.00  0.00     0.000 HD 
HETATM   35  C   UNL     1      -7.824   5.346  72.132  1.00  0.00    -0.106 A  
HETATM   36  C   UNL     1      -6.615   4.686  72.338  1.00  0.00    -0.042 A  
HETATM   37  C   UNL     1      -6.176   3.763  71.408  1.00  0.00    -0.015 A  
HETATM   38  C   UNL     1      -6.958   3.482  70.289  1.00  0.00    -0.034 A  
ENDBRANCH  24  25
ENDBRANCH  23  24
ENDBRANCH  22  23
ENDBRANCH  21  22
ENDBRANCH  20  21
ENDBRANCH  19  20
ENDBRANCH  18  19
ENDBRANCH  17  18
ENDBRANCH  16  17
ENDBRANCH  15  16
ENDBRANCH  14  15
TORSDOF 11
ENDMDL
MODEL      329
REMARK 921   NORMALIZED FREE ENERGY PREDICTED BY IDOCK:   -4.76 KCAL/MOL
REMARK 922        TOTAL FREE ENERGY PREDICTED BY IDOCK:   -9.17 KCAL/MOL
REMARK 923 INTER-LIGAND FREE ENERGY PREDICTED BY IDOCK:   -5.40 KCAL/MOL
REMARK 924 INTRA-LIGAND FREE ENERGY PREDICTED BY IDOCK:   -3.77 KCAL/MOL
REMARK 927      BINDING AFFINITY PREDICTED BY RF-SCORE:    0.00 PKD
ROOT
HETATM    1  C   UNL     1      -9.509   6.059  65.831  1.00  0.00    -0.004 C  
HETATM    2  C   UNL     1      -9.152   7.078  66.889  1.00  0.00    -0.140 A  
HETATM    3  C   UNL     1     -10.190   7.783  67.486  1.00  0.00    -0.301 A  
HETATM    4  C   UNL     1      -9.951   8.724  68.475  1.00  0.00    -0.182 A  
HETATM    5  N   UNL     1     -11.060   9.283  69.119  1.00  0.00    -0.440 NA 
HETATM    6  C   UNL     1      -8.631   8.888  68.937  1.00  0.00    -0.135 A  
HETATM    7  H2  UNL     1     -11.640   8.535  69.500  1.00  0.00     0.000 HD 
HETATM    8  C   UNL     1      -8.319   9.731  70.028  1.00  0.00    -0.211 A  
HETATM    9  H1  UNL     1     -10.883   9.975  69.847  1.00  0.00     0.000 HD 
HETATM   10  C   UNL     1      -7.011   9.907  70.477  1.00  0.00    -0.118 A  
HETATM   11  C   UNL     1      -5.973   9.253  69.840  1.00  0.00    -0.035 A  
HETATM   12  C   UNL     1      -6.249   8.406  68.762  1.00  0.00    -0.045 A  
HETATM   13  C   UNL     1      -7.573   8.181  68.307  1.00  0.00    -0.102 A  
HETATM   14  N   UNL     1      -7.864   7.289  67.297  1.00  0.00    -0.109 NA 
ENDROOT
BRANCH  14  15
HETATM   15  C   UNL     1      -6.772   6.486  66.680  1.00  0.00    -0.056 C  
BRANCH  15  16
HETATM   16  C   UNL     1      -6.597   5.159  67.417  1.00  0.00    -0.054 C  
BRANCH  16  17
HETATM   17  C   UNL     1      -5.917   4.113  66.538  1.00  0.00    -0.027 C  
BRANCH  17  18
HETATM   18  C   UNL     1      -6.348   2.682  66.874  1.00  0.00    -0.028 C  
BRANCH  18  19
HETATM   19  C   UNL     1      -7.862   2.504  66.812  1.00  0.00    -0.072 C  
BRANCH  19  20
HETATM   20  C   UNL     1      -8.440   1.811  68.048  1.00  0.00    -0.088 C  
BRANCH  20  21
HETATM   21  C   UNL     1      -7.688   2.131  69.346  1.00  0.00    -0.046 C  
BRANCH  21  22
HETATM   22  C   UNL     1      -8.624   2.406  70.527  1.00  0.00    -0.101 C  
BRANCH  22  23
HETATM   23  C   UNL     1      -9.706   3.445  70.211  1.00  0.00    -0.140 C  
BRANCH  23  24
HETATM   24  C   UNL     1      -9.097   4.766  69.740  1.00  0.00    -0.108 C  
BRANCH  24  25
HETATM   25  N   UNL     1      -8.908   5.692  70.886  1.00  0.00    -0.138 NA 
HETATM   26  C   UNL     1      -7.662   5.875  71.425  1.00  0.00    -0.107 A  
HETATM   27  C   UNL     1      -7.480   6.803  72.454  1.00  0.00    -0.088 A  
HETATM   28  C   UNL     1      -6.403   5.185  70.952  1.00  0.00    -0.023 C  
HETATM   29  C   UNL     1      -8.539   7.533  72.971  1.00  0.00    -0.142 A  
HETATM   30  N   UNL     1      -8.239   8.538  73.895  1.00  0.00    -0.377 NA 
HETATM   31  C   UNL     1      -9.800   7.385  72.371  1.00  0.00    -0.207 A  
HETATM   32  H1  UNL     1      -9.017   9.075  74.276  1.00  0.00     0.000 HD 
HETATM   33  C   UNL     1      -9.986   6.422  71.341  1.00  0.00    -0.184 A  
HETATM   34  H2  UNL     1      -7.555   9.177  73.488  1.00  0.00     0.000 HD 
HETATM   35  C   UNL     1     -11.288   6.266  70.798  1.00  0.00    -0.397 A  
HETATM   36  C   UNL     1     -12.360   7.055  71.208  1.00  0.00    -0.426 A  
HETATM   37  C   UNL     1     -12.165   8.020  72.178  1.00  0.00    -0.377 A  
HETATM   38  C   UNL     1     -10.907   8.176  72.756  1.00  0.00    -0.390 A  
ENDBRANCH  24  25
ENDBRANCH  23  24
ENDBRANCH  22  23
ENDBRANCH  21  22
ENDBRANCH  20  21
ENDBRANCH  19  20
ENDBRANCH  18  19
ENDBRANCH  17  18
ENDBRANCH  16  17
ENDBRANCH  15  16
ENDBRANCH  14  15
TORSDOF 11
ENDMDL
MODEL      330
REMARK 921   NORMALIZED FREE ENERGY PREDICTED BY IDOCK:   -4.75 KCAL/MOL
REMARK 922        TOTAL FREE ENERGY PREDICTED BY IDOCK:   -9.16 KCAL/MOL
REMARK 923 INTER-LIGAND FREE ENERGY PREDICTED BY IDOCK:   -7.75 KCAL/MOL
REMARK 924 INTRA-LIGAND FREE ENERGY PREDICTED BY IDOCK:   -1.41 KCAL/MOL
REMARK 927      BINDING AFFINITY PREDICTED BY RF-SCORE:    0.00 PKD
ROOT
HETATM    1  C   UNL     1      -7.826   6.894  67.042  1.00  0.00    -0.111 C  
HETATM    2  C   UNL     1      -8.619   6.770  68.324  1.00  0.00    -0.124 A  
HETATM    3  C   UNL     1      -8.890   5.492  68.797  1.00  0.00    -0.109 A  
HETATM    4  C   UNL     1      -9.597   5.290  69.973  1.00  0.00    -0.174 A  
HETATM    5  N   UNL     1      -9.701   3.979  70.449  1.00  0.00    -0.198 NA 
HETATM    6  C   UNL     1      -9.959   6.417  70.736  1.00  0.00    -0.212 A  
HETATM    7  H2  UNL     1      -8.767   3.581  70.546  1.00  0.00     0.000 HD 
HETATM    8  C   UNL     1     -10.568   6.295  72.007  1.00  0.00    -0.253 A  
HETATM    9  H1  UNL     1     -10.222   3.832  71.313  1.00  0.00     0.000 HD 
HETATM   10  C   UNL     1     -10.942   7.409  72.757  1.00  0.00    -0.387 A  
HETATM   11  C   UNL     1     -10.728   8.678  72.254  1.00  0.00    -0.383 A  
HETATM   12  C   UNL     1     -10.122   8.833  71.004  1.00  0.00    -0.301 A  
HETATM   13  C   UNL     1      -9.699   7.719  70.235  1.00  0.00    -0.179 A  
HETATM   14  N   UNL     1      -9.031   7.861  69.038  1.00  0.00    -0.145 NA 
ENDROOT
BRANCH  14  15
HETATM   15  C   UNL     1      -8.685   9.221  68.538  1.00  0.00    -0.128 C  
BRANCH  15  16
HETATM   16  C   UNL     1      -9.795   9.763  67.640  1.00  0.00    -0.202 C  
BRANCH  16  17
HETATM   17  C   UNL     1     -10.530  10.930  68.294  1.00  0.00    -0.205 C  
BRANCH  17  18
HETATM   18  C   UNL     1     -10.064  12.293  67.773  1.00  0.00    -0.202 C  
BRANCH  18  19
HETATM   19  C   UNL     1     -10.402  12.495  66.299  1.00  0.00    -0.269 C  
BRANCH  19  20
HETATM   20  C   UNL     1     -11.844  12.953  66.068  1.00  0.00    -0.485 C  
BRANCH  20  21
HETATM   21  C   UNL     1     -11.958  14.321  65.383  1.00  0.00    -0.383 C  
BRANCH  21  22
HETATM   22  C   UNL     1     -10.638  15.098  65.376  1.00  0.00    -0.410 C  
BRANCH  22  23
HETATM   23  C   UNL     1     -10.809  16.576  65.005  1.00  0.00    -0.245 C  
BRANCH  23  24
HETATM   24  C   UNL     1     -10.373  17.496  66.146  1.00  0.00    -0.329 C  
BRANCH  24  25
HETATM   25  N   UNL     1      -9.579  16.744  67.151  1.00  0.00    -0.232 NA 
HETATM   26  C   UNL     1      -8.213  16.718  67.069  1.00  0.00    -0.194 A  
HETATM   27  C   UNL     1      -7.470  16.070  68.059  1.00  0.00    -0.134 A  
HETATM   28  C   UNL     1      -7.394  17.404  65.999  1.00  0.00    -0.265 C  
HETATM   29  C   UNL     1      -8.081  15.420  69.120  1.00  0.00    -0.233 A  
HETATM   30  N   UNL     1      -7.258  14.926  70.135  1.00  0.00    -0.287 NA 
HETATM   31  C   UNL     1      -9.479  15.505  69.230  1.00  0.00    -0.263 A  
HETATM   32  H1  UNL     1      -7.707  14.449  70.916  1.00  0.00     0.000 HD 
HETATM   33  C   UNL     1     -10.233  16.144  68.208  1.00  0.00    -0.248 A  
HETATM   34  H2  UNL     1      -6.674  15.683  70.494  1.00  0.00     0.000 HD 
HETATM   35  C   UNL     1     -11.646  16.161  68.329  1.00  0.00    -0.181 A  
HETATM   36  C   UNL     1     -12.301  15.620  69.433  1.00  0.00    -0.096 A  
HETATM   37  C   UNL     1     -11.562  15.038  70.446  1.00  0.00    -0.330 A  
HETATM   38  C   UNL     1     -10.173  14.975  70.342  1.00  0.00     0.150 A  
ENDBRANCH  24  25
ENDBRANCH  23  24
ENDBRANCH  22  23
ENDBRANCH  21  22
ENDBRANCH  20  21
ENDBRANCH  19  20
ENDBRANCH  18  19
ENDBRANCH  17  18
ENDBRANCH  16  17
ENDBRANCH  15  16
ENDBRANCH  14  15
TORSDOF 11
ENDMDL
MODEL      331
REMARK 921   NORMALIZED FREE ENERGY PREDICTED BY IDOCK:   -4.73 KCAL/MOL
REMARK 922        TOTAL FREE ENERGY PREDICTED BY IDOCK:   -9.13 KCAL/MOL
REMARK 923 INTER-LIGAND FREE ENERGY PREDICTED BY IDOCK:   -7.55 KCAL/MOL
REMARK 924 INTRA-LIGAND FREE ENERGY PREDICTED BY IDOCK:   -1.58 KCAL/MOL
REMARK 927      BINDING AFFINITY PREDICTED BY RF-SCORE:    0.00 PKD
ROOT
HETATM    1  C   UNL     1      -7.802   7.599  69.564  1.00  0.00    -0.115 C  
HETATM    2  C   UNL     1      -7.778   7.710  68.057  1.00  0.00    -0.119 A  
HETATM    3  C   UNL     1      -8.395   6.705  67.323  1.00  0.00    -0.120 A  
HETATM    4  C   UNL     1      -8.431   6.738  65.937  1.00  0.00    -0.144 A  
HETATM    5  N   UNL     1      -9.193   5.763  65.285  1.00  0.00    -0.363 NA 
HETATM    6  C   UNL     1      -7.908   7.870  65.282  1.00  0.00    -0.111 A  
HETATM    7  H2  UNL     1     -10.146   5.783  65.647  1.00  0.00     0.000 HD 
HETATM    8  C   UNL     1      -8.019   8.042  63.883  1.00  0.00    -0.128 A  
HETATM    9  H1  UNL     1      -9.219   5.788  64.266  1.00  0.00     0.000 HD 
HETATM   10  C   UNL     1      -7.488   9.154  63.230  1.00  0.00    -0.097 A  
HETATM   11  C   UNL     1      -6.820  10.121  63.957  1.00  0.00    -0.102 A  
HETATM   12  C   UNL     1      -6.698   9.984  65.342  1.00  0.00    -0.115 A  
HETATM   13  C   UNL     1      -7.259   8.882  66.037  1.00  0.00    -0.089 A  
HETATM   14  N   UNL     1      -7.214   8.776  67.411  1.00  0.00    -0.080 NA 
ENDROOT
BRANCH  14  15
HETATM   15  C   UNL     1      -6.604   9.868  68.219  1.00  0.00    -0.055 C  
BRANCH  15  16
HETATM   16  C   UNL     1      -7.681  10.652  68.966  1.00  0.00    -0.130 C  
BRANCH  16  17
HETATM   17  C   UNL     1      -8.677  11.294  68.005  1.00  0.00    -0.144 C  
BRANCH  17  18
HETATM   18  C   UNL     1     -10.067  10.655  68.073  1.00  0.00    -0.181 C  
BRANCH  18  19
HETATM   19  C   UNL     1     -10.709  10.518  66.695  1.00  0.00    -0.222 C  
BRANCH  19  20
HETATM   20  C   UNL     1     -10.866  11.855  65.967  1.00  0.00    -0.342 C  
BRANCH  20  21
HETATM   21  C   UNL     1     -11.960  12.757  66.554  1.00  0.00    -0.428 C  
BRANCH  21  22
HETATM   22  C   UNL     1     -11.424  13.747  67.592  1.00  0.00    -0.354 C  
BRANCH  22  23
HETATM   23  C   UNL     1     -11.301  15.178  67.055  1.00  0.00    -0.277 C  
BRANCH  23  24
HETATM   24  C   UNL     1      -9.916  15.439  66.464  1.00  0.00    -0.268 C  
BRANCH  24  25
HETATM   25  N   UNL     1      -9.194  16.469  67.255  1.00  0.00    -0.214 NA 
HETATM   26  C   UNL     1      -8.253  16.094  68.176  1.00  0.00    -0.157 A  
HETATM   27  C   UNL     1      -7.527  17.071  68.864  1.00  0.00    -0.237 A  
HETATM   28  C   UNL     1      -7.866  14.667  68.491  1.00  0.00    -0.133 C  
HETATM   29  C   UNL     1      -7.752  18.423  68.659  1.00  0.00    -0.301 A  
HETATM   30  N   UNL     1      -6.881  19.323  69.281  1.00  0.00    -0.324 NA 
HETATM   31  C   UNL     1      -8.673  18.798  67.667  1.00  0.00    -0.300 A  
HETATM   32  H1  UNL     1      -7.046  20.318  69.131  1.00  0.00     0.000 HD 
HETATM   33  C   UNL     1      -9.427  17.802  66.988  1.00  0.00    -0.271 A  
HETATM   34  H2  UNL     1      -5.921  19.097  69.021  1.00  0.00     0.000 HD 
HETATM   35  C   UNL     1     -10.386  18.225  66.032  1.00  0.00    -0.377 A  
HETATM   36  C   UNL     1     -10.569  19.568  65.711  1.00  0.00    -0.522 A  
HETATM   37  C   UNL     1      -9.804  20.530  66.342  1.00  0.00    -0.279 A  
HETATM   38  C   UNL     1      -8.876  20.151  67.310  1.00  0.00    -0.445 A  
ENDBRANCH  24  25
ENDBRANCH  23  24
ENDBRANCH  22  23
ENDBRANCH  21  22
ENDBRANCH  20  21
ENDBRANCH  19  20
ENDBRANCH  18  19
ENDBRANCH  17  18
ENDBRANCH  16  17
ENDBRANCH  15  16
ENDBRANCH  14  15
TORSDOF 11
ENDMDL
MODEL      332
REMARK 921   NORMALIZED FREE ENERGY PREDICTED BY IDOCK:   -4.73 KCAL/MOL
REMARK 922        TOTAL FREE ENERGY PREDICTED BY IDOCK:   -9.12 KCAL/MOL
REMARK 923 INTER-LIGAND FREE ENERGY PREDICTED BY IDOCK:   -7.37 KCAL/MOL
REMARK 924 INTRA-LIGAND FREE ENERGY PREDICTED BY IDOCK:   -1.75 KCAL/MOL
REMARK 927      BINDING AFFINITY PREDICTED BY RF-SCORE:    0.00 PKD
ROOT
HETATM    1  C   UNL     1     -11.681   9.058  71.688  1.00  0.00    -0.431 C  
HETATM    2  C   UNL     1     -11.260   7.730  71.100  1.00  0.00    -0.264 A  
HETATM    3  C   UNL     1     -11.405   7.553  69.730  1.00  0.00     0.007 A  
HETATM    4  C   UNL     1     -11.030   6.371  69.109  1.00  0.00    -0.355 A  
HETATM    5  N   UNL     1     -11.077   6.331  67.711  1.00  0.00    -0.471 NA 
HETATM    6  C   UNL     1     -10.404   5.378  69.886  1.00  0.00    -0.377 A  
HETATM    7  H2  UNL     1     -10.525   7.100  67.333  1.00  0.00     0.000 HD 
HETATM    8  C   UNL     1      -9.876   4.199  69.309  1.00  0.00    -0.138 A  
HETATM    9  H1  UNL     1     -10.801   5.462  67.255  1.00  0.00     0.000 HD 
HETATM   10  C   UNL     1      -9.271   3.207  70.079  1.00  0.00    -0.221 A  
HETATM   11  C   UNL     1      -9.186   3.358  71.450  1.00  0.00    -0.193 A  
HETATM   12  C   UNL     1      -9.691   4.515  72.050  1.00  0.00    -0.229 A  
HETATM   13  C   UNL     1     -10.280   5.557  71.288  1.00  0.00    -0.222 A  
HETATM   14  N   UNL     1     -10.711   6.735  71.860  1.00  0.00    -0.221 NA 
ENDROOT
BRANCH  14  15
HETATM   15  C   UNL     1     -10.518   6.965  73.319  1.00  0.00    -0.312 C  
BRANCH  15  16
HETATM   16  C   UNL     1      -9.108   6.559  73.746  1.00  0.00    -0.152 C  
BRANCH  16  17
HETATM   17  C   UNL     1      -8.224   7.777  73.997  1.00  0.00    -0.268 C  
BRANCH  17  18
HETATM   18  C   UNL     1      -7.171   7.985  72.904  1.00  0.00    -0.127 C  
BRANCH  18  19
HETATM   19  C   UNL     1      -6.762   6.674  72.240  1.00  0.00    -0.059 C  
BRANCH  19  20
HETATM   20  C   UNL     1      -6.786   6.739  70.711  1.00  0.00    -0.054 C  
BRANCH  20  21
HETATM   21  C   UNL     1      -7.142   8.124  70.155  1.00  0.00    -0.048 C  
BRANCH  21  22
HETATM   22  C   UNL     1      -6.950   8.227  68.639  1.00  0.00    -0.068 C  
BRANCH  22  23
HETATM   23  C   UNL     1      -7.525   9.517  68.043  1.00  0.00    -0.083 C  
BRANCH  23  24
HETATM   24  C   UNL     1      -9.025   9.393  67.774  1.00  0.00    -0.122 C  
BRANCH  24  25
HETATM   25  N   UNL     1      -9.418  10.224  66.607  1.00  0.00    -0.161 NA 
HETATM   26  C   UNL     1      -9.976  11.460  66.799  1.00  0.00    -0.208 A  
HETATM   27  C   UNL     1     -10.275  12.265  65.697  1.00  0.00    -0.287 A  
HETATM   28  C   UNL     1     -10.254  12.087  68.146  1.00  0.00    -0.203 C  
HETATM   29  C   UNL     1     -10.048  11.836  64.399  1.00  0.00    -0.282 A  
HETATM   30  N   UNL     1     -10.243  12.762  63.370  1.00  0.00    -0.586 NA 
HETATM   31  C   UNL     1      -9.419  10.594  64.214  1.00  0.00    -0.321 A  
HETATM   32  H1  UNL     1     -10.076  12.447  62.415  1.00  0.00     0.000 HD 
HETATM   33  C   UNL     1      -9.138   9.767  65.336  1.00  0.00    -0.204 A  
HETATM   34  H2  UNL     1      -9.680  13.593  63.554  1.00  0.00     0.000 HD 
HETATM   35  C   UNL     1      -8.551   8.498  65.102  1.00  0.00    -0.179 A  
HETATM   36  C   UNL     1      -8.202   8.068  63.823  1.00  0.00    -0.039 A  
HETATM   37  C   UNL     1      -8.437   8.892  62.740  1.00  0.00    -0.191 A  
HETATM   38  C   UNL     1      -9.042  10.133  62.931  1.00  0.00    -0.299 A  
ENDBRANCH  24  25
ENDBRANCH  23  24
ENDBRANCH  22  23
ENDBRANCH  21  22
ENDBRANCH  20  21
ENDBRANCH  19  20
ENDBRANCH  18  19
ENDBRANCH  17  18
ENDBRANCH  16  17
ENDBRANCH  15  16
ENDBRANCH  14  15
TORSDOF 11
ENDMDL
MODEL      333
REMARK 921   NORMALIZED FREE ENERGY PREDICTED BY IDOCK:   -4.72 KCAL/MOL
REMARK 922        TOTAL FREE ENERGY PREDICTED BY IDOCK:   -9.11 KCAL/MOL
REMARK 923 INTER-LIGAND FREE ENERGY PREDICTED BY IDOCK:   -7.51 KCAL/MOL
REMARK 924 INTRA-LIGAND FREE ENERGY PREDICTED BY IDOCK:   -1.60 KCAL/MOL
REMARK 927      BINDING AFFINITY PREDICTED BY RF-SCORE:    0.00 PKD
ROOT
HETATM    1  C   UNL     1      -7.507   9.214  67.978  1.00  0.00    -0.084 C  
HETATM    2  C   UNL     1      -7.605   8.052  67.015  1.00  0.00    -0.096 A  
HETATM    3  C   UNL     1      -6.564   7.867  66.115  1.00  0.00    -0.050 A  
HETATM    4  C   UNL     1      -6.568   6.817  65.209  1.00  0.00    -0.050 A  
HETATM    5  N   UNL     1      -5.417   6.621  64.439  1.00  0.00    -0.026 NA 
HETATM    6  C   UNL     1      -7.614   5.877  65.280  1.00  0.00    -0.086 A  
HETATM    7  H2  UNL     1      -4.610   6.529  65.056  1.00  0.00     0.000 HD 
HETATM    8  C   UNL     1      -7.628   4.710  64.481  1.00  0.00    -0.073 A  
HETATM    9  H1  UNL     1      -5.421   5.849  63.772  1.00  0.00     0.000 HD 
HETATM   10  C   UNL     1      -8.671   3.787  64.539  1.00  0.00    -0.114 A  
HETATM   11  C   UNL     1      -9.737   4.008  65.390  1.00  0.00    -0.196 A  
HETATM   12  C   UNL     1      -9.750   5.148  66.198  1.00  0.00    -0.192 A  
HETATM   13  C   UNL     1      -8.686   6.087  66.187  1.00  0.00    -0.146 A  
HETATM   14  N   UNL     1      -8.652   7.172  67.035  1.00  0.00    -0.120 NA 
ENDROOT
BRANCH  14  15
HETATM   15  C   UNL     1      -9.733   7.361  68.042  1.00  0.00    -0.144 C  
BRANCH  15  16
HETATM   16  C   UNL     1      -9.455   6.529  69.293  1.00  0.00    -0.141 C  
BRANCH  16  17
HETATM   17  C   UNL     1     -10.700   5.777  69.756  1.00  0.00    -0.418 C  
BRANCH  17  18
HETATM   18  C   UNL     1     -11.783   6.705  70.315  1.00  0.00    -0.432 C  
BRANCH  18  19
HETATM   19  C   UNL     1     -11.251   7.614  71.419  1.00  0.00    -0.273 C  
BRANCH  19  20
HETATM   20  C   UNL     1     -12.128   8.845  71.661  1.00  0.00    -0.415 C  
BRANCH  20  21
HETATM   21  C   UNL     1     -11.916   9.968  70.636  1.00  0.00    -0.401 C  
BRANCH  21  22
HETATM   22  C   UNL     1     -10.458  10.101  70.188  1.00  0.00    -0.311 C  
BRANCH  22  23
HETATM   23  C   UNL     1     -10.208  11.326  69.301  1.00  0.00    -0.058 C  
BRANCH  23  24
HETATM   24  C   UNL     1     -11.470  11.741  68.545  1.00  0.00    -0.296 C  
BRANCH  24  25
HETATM   25  N   UNL     1     -11.144  12.724  67.481  1.00  0.00    -0.252 NA 
HETATM   26  C   UNL     1     -11.060  12.321  66.174  1.00  0.00    -0.311 A  
HETATM   27  C   UNL     1     -10.825  13.265  65.171  1.00  0.00    -0.323 A  
HETATM   28  C   UNL     1     -11.265  10.905  65.688  1.00  0.00     0.189 C  
HETATM   29  C   UNL     1     -10.645  14.608  65.462  1.00  0.00    -0.355 A  
HETATM   30  N   UNL     1     -10.561  15.496  64.386  1.00  0.00    -0.586 NA 
HETATM   31  C   UNL     1     -10.796  15.021  66.796  1.00  0.00    -0.318 A  
HETATM   32  H1  UNL     1     -10.429  16.484  64.600  1.00  0.00     0.000 HD 
HETATM   33  C   UNL     1     -11.010  14.055  67.817  1.00  0.00    -0.258 A  
HETATM   34  H2  UNL     1     -11.384  15.387  63.793  1.00  0.00     0.000 HD 
HETATM   35  C   UNL     1     -11.103  14.507  69.159  1.00  0.00    -0.284 A  
HETATM   36  C   UNL     1     -11.040  15.859  69.490  1.00  0.00    -0.315 A  
HETATM   37  C   UNL     1     -10.875  16.799  68.490  1.00  0.00    -0.345 A  
HETATM   38  C   UNL     1     -10.748  16.385  67.165  1.00  0.00    -0.233 A  
ENDBRANCH  24  25
ENDBRANCH  23  24
ENDBRANCH  22  23
ENDBRANCH  21  22
ENDBRANCH  20  21
ENDBRANCH  19  20
ENDBRANCH  18  19
ENDBRANCH  17  18
ENDBRANCH  16  17
ENDBRANCH  15  16
ENDBRANCH  14  15
TORSDOF 11
ENDMDL
MODEL      334
REMARK 921   NORMALIZED FREE ENERGY PREDICTED BY IDOCK:   -4.72 KCAL/MOL
REMARK 922        TOTAL FREE ENERGY PREDICTED BY IDOCK:   -9.11 KCAL/MOL
REMARK 923 INTER-LIGAND FREE ENERGY PREDICTED BY IDOCK:   -7.51 KCAL/MOL
REMARK 924 INTRA-LIGAND FREE ENERGY PREDICTED BY IDOCK:   -1.60 KCAL/MOL
REMARK 927      BINDING AFFINITY PREDICTED BY RF-SCORE:    0.00 PKD
ROOT
HETATM    1  C   UNL     1     -10.253   5.508  68.110  1.00  0.00    -0.232 C  
HETATM    2  C   UNL     1     -10.056   6.053  69.506  1.00  0.00    -0.193 A  
HETATM    3  C   UNL     1     -11.037   5.782  70.452  1.00  0.00    -0.287 A  
HETATM    4  C   UNL     1     -10.927   6.231  71.759  1.00  0.00    -0.258 A  
HETATM    5  N   UNL     1     -11.886   5.794  72.678  1.00  0.00    -0.501 NA 
HETATM    6  C   UNL     1      -9.745   6.895  72.140  1.00  0.00    -0.158 A  
HETATM    7  H2  UNL     1     -11.916   4.774  72.674  1.00  0.00     0.000 HD 
HETATM    8  C   UNL     1      -9.497   7.272  73.480  1.00  0.00    -0.268 A  
HETATM    9  H1  UNL     1     -11.805   6.125  73.639  1.00  0.00     0.000 HD 
HETATM   10  C   UNL     1      -8.334   7.943  73.857  1.00  0.00    -0.300 A  
HETATM   11  C   UNL     1      -7.390   8.268  72.902  1.00  0.00    -0.146 A  
HETATM   12  C   UNL     1      -7.601   7.903  71.569  1.00  0.00    -0.083 A  
HETATM   13  C   UNL     1      -8.757   7.188  71.163  1.00  0.00    -0.133 A  
HETATM   14  N   UNL     1      -8.939   6.755  69.867  1.00  0.00    -0.144 NA 
ENDROOT
BRANCH  14  15
HETATM   15  C   UNL     1      -7.876   6.990  68.851  1.00  0.00    -0.115 C  
BRANCH  15  16
HETATM   16  C   UNL     1      -6.912   5.807  68.796  1.00  0.00    -0.068 C  
BRANCH  16  17
HETATM   17  C   UNL     1      -6.096   5.806  67.506  1.00  0.00    -0.022 C  
BRANCH  17  18
HETATM   18  C   UNL     1      -6.643   4.835  66.456  1.00  0.00    -0.046 C  
BRANCH  18  19
HETATM   19  C   UNL     1      -7.649   5.501  65.522  1.00  0.00    -0.079 C  
BRANCH  19  20
HETATM   20  C   UNL     1      -7.030   6.594  64.647  1.00  0.00    -0.054 C  
BRANCH  20  21
HETATM   21  C   UNL     1      -7.706   7.963  64.794  1.00  0.00    -0.118 C  
BRANCH  21  22
HETATM   22  C   UNL     1      -8.941   7.926  65.699  1.00  0.00    -0.077 C  
BRANCH  22  23
HETATM   23  C   UNL     1      -9.695   9.260  65.749  1.00  0.00    -0.339 C  
BRANCH  23  24
HETATM   24  C   UNL     1      -8.838  10.410  65.216  1.00  0.00    -0.186 C  
BRANCH  24  25
HETATM   25  N   UNL     1      -9.342  11.714  65.717  1.00  0.00    -0.226 NA 
HETATM   26  C   UNL     1      -8.734  12.324  66.782  1.00  0.00    -0.175 A  
HETATM   27  C   UNL     1      -9.168  13.584  67.201  1.00  0.00    -0.236 A  
HETATM   28  C   UNL     1      -7.550  11.768  67.540  1.00  0.00    -0.135 C  
HETATM   29  C   UNL     1     -10.225  14.233  66.582  1.00  0.00    -0.272 A  
HETATM   30  N   UNL     1     -10.494  15.547  66.973  1.00  0.00    -0.298 NA 
HETATM   31  C   UNL     1     -10.802  13.629  65.452  1.00  0.00    -0.302 A  
HETATM   32  H1  UNL     1     -11.271  16.025  66.518  1.00  0.00     0.000 HD 
HETATM   33  C   UNL     1     -10.374  12.335  65.045  1.00  0.00    -0.291 A  
HETATM   34  H2  UNL     1      -9.648  16.109  66.872  1.00  0.00     0.000 HD 
HETATM   35  C   UNL     1     -11.019  11.737  63.932  1.00  0.00    -0.476 A  
HETATM   36  C   UNL     1     -12.010  12.396  63.208  1.00  0.00    -0.509 A  
HETATM   37  C   UNL     1     -12.393  13.671  63.582  1.00  0.00    -0.328 A  
HETATM   38  C   UNL     1     -11.803  14.274  64.691  1.00  0.00    -0.459 A  
ENDBRANCH  24  25
ENDBRANCH  23  24
ENDBRANCH  22  23
ENDBRANCH  21  22
ENDBRANCH  20  21
ENDBRANCH  19  20
ENDBRANCH  18  19
ENDBRANCH  17  18
ENDBRANCH  16  17
ENDBRANCH  15  16
ENDBRANCH  14  15
TORSDOF 11
ENDMDL
MODEL      335
REMARK 921   NORMALIZED FREE ENERGY PREDICTED BY IDOCK:   -4.71 KCAL/MOL
REMARK 922        TOTAL FREE ENERGY PREDICTED BY IDOCK:   -9.09 KCAL/MOL
REMARK 923 INTER-LIGAND FREE ENERGY PREDICTED BY IDOCK:   -7.98 KCAL/MOL
REMARK 924 INTRA-LIGAND FREE ENERGY PREDICTED BY IDOCK:   -1.11 KCAL/MOL
REMARK 927      BINDING AFFINITY PREDICTED BY RF-SCORE:    0.00 PKD
ROOT
HETATM    1  C   UNL     1     -10.398   7.774  68.211  1.00  0.00    -0.239 C  
HETATM    2  C   UNL     1      -9.279   6.856  68.651  1.00  0.00    -0.130 A  
HETATM    3  C   UNL     1      -8.026   7.042  68.080  1.00  0.00    -0.119 A  
HETATM    4  C   UNL     1      -6.943   6.253  68.438  1.00  0.00    -0.080 A  
HETATM    5  N   UNL     1      -5.691   6.600  67.922  1.00  0.00    -0.012 NA 
HETATM    6  C   UNL     1      -7.115   5.312  69.471  1.00  0.00    -0.060 A  
HETATM    7  H2  UNL     1      -5.489   7.573  68.153  1.00  0.00     0.000 HD 
HETATM    8  C   UNL     1      -6.034   4.558  69.984  1.00  0.00    -0.018 A  
HETATM    9  H1  UNL     1      -4.895   6.020  68.186  1.00  0.00     0.000 HD 
HETATM   10  C   UNL     1      -6.205   3.613  70.995  1.00  0.00    -0.018 A  
HETATM   11  C   UNL     1      -7.465   3.386  71.515  1.00  0.00    -0.047 A  
HETATM   12  C   UNL     1      -8.554   4.119  71.035  1.00  0.00    -0.113 A  
HETATM   13  C   UNL     1      -8.404   5.112  70.032  1.00  0.00    -0.089 A  
HETATM   14  N   UNL     1      -9.455   5.895  69.607  1.00  0.00    -0.141 NA 
ENDROOT
BRANCH  14  15
HETATM   15  C   UNL     1     -10.794   5.746  70.242  1.00  0.00    -0.303 C  
BRANCH  15  16
HETATM   16  C   UNL     1     -10.938   6.703  71.424  1.00  0.00    -0.291 C  
BRANCH  16  17
HETATM   17  C   UNL     1     -12.285   7.420  71.407  1.00  0.00    -0.374 C  
BRANCH  17  18
HETATM   18  C   UNL     1     -12.321   8.641  72.331  1.00  0.00    -0.426 C  
BRANCH  18  19
HETATM   19  C   UNL     1     -13.015   9.836  71.683  1.00  0.00    -0.517 C  
BRANCH  19  20
HETATM   20  C   UNL     1     -12.337  10.301  70.392  1.00  0.00    -0.319 C  
BRANCH  20  21
HETATM   21  C   UNL     1     -12.104  11.816  70.326  1.00  0.00    -0.426 C  
BRANCH  21  22
HETATM   22  C   UNL     1     -11.321  12.246  69.082  1.00  0.00    -0.330 C  
BRANCH  22  23
HETATM   23  C   UNL     1     -10.229  11.247  68.680  1.00  0.00    -0.214 C  
BRANCH  23  24
HETATM   24  C   UNL     1      -9.268  11.848  67.654  1.00  0.00    -0.183 C  
BRANCH  24  25
HETATM   25  N   UNL     1     -10.010  12.647  66.645  1.00  0.00    -0.237 NA 
HETATM   26  C   UNL     1     -10.833  12.025  65.745  1.00  0.00    -0.287 A  
HETATM   27  C   UNL     1     -11.583  12.788  64.847  1.00  0.00    -0.369 A  
HETATM   28  C   UNL     1     -11.063  10.533  65.666  1.00  0.00     0.369 C  
HETATM   29  C   UNL     1     -11.499  14.172  64.821  1.00  0.00    -0.383 A  
HETATM   30  N   UNL     1     -12.391  14.857  63.991  1.00  0.00    -1.021 NA 
HETATM   31  C   UNL     1     -10.701  14.804  65.789  1.00  0.00    -0.333 A  
HETATM   32  H1  UNL     1     -12.330  15.875  63.972  1.00  0.00     0.000 HD 
HETATM   33  C   UNL     1      -9.920  14.023  66.684  1.00  0.00    -0.278 A  
HETATM   34  H2  UNL     1     -13.346  14.582  64.223  1.00  0.00     0.000 HD 
HETATM   35  C   UNL     1      -9.086  14.700  67.611  1.00  0.00    -0.193 A  
HETATM   36  C   UNL     1      -9.052  16.090  67.698  1.00  0.00    -0.200 A  
HETATM   37  C   UNL     1      -9.845  16.845  66.855  1.00  0.00    -0.278 A  
HETATM   38  C   UNL     1     -10.651  16.212  65.910  1.00  0.00    -0.322 A  
ENDBRANCH  24  25
ENDBRANCH  23  24
ENDBRANCH  22  23
ENDBRANCH  21  22
ENDBRANCH  20  21
ENDBRANCH  19  20
ENDBRANCH  18  19
ENDBRANCH  17  18
ENDBRANCH  16  17
ENDBRANCH  15  16
ENDBRANCH  14  15
TORSDOF 11
ENDMDL
MODEL      336
REMARK 921   NORMALIZED FREE ENERGY PREDICTED BY IDOCK:   -4.70 KCAL/MOL
REMARK 922        TOTAL FREE ENERGY PREDICTED BY IDOCK:   -9.07 KCAL/MOL
REMARK 923 INTER-LIGAND FREE ENERGY PREDICTED BY IDOCK:   -7.07 KCAL/MOL
REMARK 924 INTRA-LIGAND FREE ENERGY PREDICTED BY IDOCK:   -2.01 KCAL/MOL
REMARK 927      BINDING AFFINITY PREDICTED BY RF-SCORE:    0.00 PKD
ROOT
HETATM    1  C   UNL     1     -10.885   5.886  68.031  1.00  0.00    -0.321 C  
HETATM    2  C   UNL     1     -10.844   6.177  69.514  1.00  0.00    -0.361 A  
HETATM    3  C   UNL     1     -12.035   6.518  70.142  1.00  0.00    -0.200 A  
HETATM    4  C   UNL     1     -12.087   6.785  71.502  1.00  0.00    -0.363 A  
HETATM    5  N   UNL     1     -13.347   6.980  72.076  1.00  0.00    -0.551 NA 
HETATM    6  C   UNL     1     -10.914   6.612  72.262  1.00  0.00    -0.278 A  
HETATM    7  H2  UNL     1     -13.940   6.176  71.869  1.00  0.00     0.000 HD 
HETATM    8  C   UNL     1     -10.910   6.739  73.670  1.00  0.00    -0.180 A  
HETATM    9  H1  UNL     1     -13.385   7.177  73.076  1.00  0.00     0.000 HD 
HETATM   10  C   UNL     1      -9.747   6.584  74.423  1.00  0.00    -0.328 A  
HETATM   11  C   UNL     1      -8.551   6.307  73.789  1.00  0.00    -0.126 A  
HETATM   12  C   UNL     1      -8.522   6.168  72.398  1.00  0.00    -0.115 A  
HETATM   13  C   UNL     1      -9.696   6.286  71.610  1.00  0.00    -0.161 A  
HETATM   14  N   UNL     1      -9.694   6.074  70.248  1.00  0.00    -0.162 NA 
ENDROOT
BRANCH  14  15
HETATM   15  C   UNL     1      -8.438   5.658  69.565  1.00  0.00    -0.110 C  
BRANCH  15  16
HETATM   16  C   UNL     1      -7.926   6.772  68.654  1.00  0.00    -0.119 C  
BRANCH  16  17
HETATM   17  C   UNL     1      -7.633   8.049  69.438  1.00  0.00    -0.102 C  
BRANCH  17  18
HETATM   18  C   UNL     1      -6.137   8.367  69.520  1.00  0.00    -0.036 C  
BRANCH  18  19
HETATM   19  C   UNL     1      -5.872   9.747  70.114  1.00  0.00    -0.047 C  
BRANCH  19  20
HETATM   20  C   UNL     1      -6.695  10.856  69.454  1.00  0.00    -0.107 C  
BRANCH  20  21
HETATM   21  C   UNL     1      -6.194  11.254  68.059  1.00  0.00    -0.049 C  
BRANCH  21  22
HETATM   22  C   UNL     1      -7.245  12.009  67.240  1.00  0.00    -0.150 C  
BRANCH  22  23
HETATM   23  C   UNL     1      -8.020  11.107  66.273  1.00  0.00    -0.125 C  
BRANCH  23  24
HETATM   24  C   UNL     1      -9.396  11.688  65.944  1.00  0.00    -0.218 C  
BRANCH  24  25
HETATM   25  N   UNL     1     -10.373  11.360  67.014  1.00  0.00    -0.215 NA 
HETATM   26  C   UNL     1     -10.730  10.058  67.244  1.00  0.00    -0.244 A  
HETATM   27  C   UNL     1     -11.593   9.751  68.299  1.00  0.00     0.445 A  
HETATM   28  C   UNL     1     -10.211   8.866  66.472  1.00  0.00    -0.319 C  
HETATM   29  C   UNL     1     -12.127  10.737  69.113  1.00  0.00    -0.156 A  
HETATM   30  N   UNL     1     -12.861  10.326  70.229  1.00  0.00    -0.564 NA 
HETATM   31  C   UNL     1     -11.706  12.062  68.910  1.00  0.00    -0.383 A  
HETATM   32  H1  UNL     1     -13.254  11.051  70.828  1.00  0.00     0.000 HD 
HETATM   33  C   UNL     1     -10.848  12.373  67.820  1.00  0.00    -0.225 A  
HETATM   34  H2  UNL     1     -12.292   9.694  70.793  1.00  0.00     0.000 HD 
HETATM   35  C   UNL     1     -10.490  13.731  67.616  1.00  0.00    -0.242 A  
HETATM   36  C   UNL     1     -10.911  14.744  68.474  1.00  0.00    -0.255 A  
HETATM   37  C   UNL     1     -11.710  14.431  69.557  1.00  0.00    -0.362 A  
HETATM   38  C   UNL     1     -12.107  13.112  69.767  1.00  0.00    -0.336 A  
ENDBRANCH  24  25
ENDBRANCH  23  24
ENDBRANCH  22  23
ENDBRANCH  21  22
ENDBRANCH  20  21
ENDBRANCH  19  20
ENDBRANCH  18  19
ENDBRANCH  17  18
ENDBRANCH  16  17
ENDBRANCH  15  16
ENDBRANCH  14  15
TORSDOF 11
ENDMDL
MODEL      337
REMARK 921   NORMALIZED FREE ENERGY PREDICTED BY IDOCK:   -4.68 KCAL/MOL
REMARK 922        TOTAL FREE ENERGY PREDICTED BY IDOCK:   -9.05 KCAL/MOL
REMARK 923 INTER-LIGAND FREE ENERGY PREDICTED BY IDOCK:   -6.82 KCAL/MOL
REMARK 924 INTRA-LIGAND FREE ENERGY PREDICTED BY IDOCK:   -2.23 KCAL/MOL
REMARK 927      BINDING AFFINITY PREDICTED BY RF-SCORE:    0.00 PKD
ROOT
HETATM    1  C   UNL     1     -10.783   7.723  70.052  1.00  0.00    -0.245 C  
HETATM    2  C   UNL     1     -10.370   6.515  69.242  1.00  0.00    -0.202 A  
HETATM    3  C   UNL     1     -10.499   6.586  67.860  1.00  0.00    -0.273 A  
HETATM    4  C   UNL     1     -10.130   5.528  67.043  1.00  0.00    -0.194 A  
HETATM    5  N   UNL     1     -10.159   5.737  65.660  1.00  0.00    -0.273 NA 
HETATM    6  C   UNL     1      -9.526   4.404  67.638  1.00  0.00    -0.204 A  
HETATM    7  H2  UNL     1      -9.593   6.554  65.431  1.00  0.00     0.000 HD 
HETATM    8  C   UNL     1      -9.004   3.339  66.867  1.00  0.00    -0.174 A  
HETATM    9  H1  UNL     1      -9.888   4.959  65.060  1.00  0.00     0.000 HD 
HETATM   10  C   UNL     1      -8.421   2.217  67.454  1.00  0.00    -0.106 A  
HETATM   11  C   UNL     1      -8.351   2.122  68.831  1.00  0.00    -0.080 A  
HETATM   12  C   UNL     1      -8.851   3.160  69.622  1.00  0.00    -0.146 A  
HETATM   13  C   UNL     1      -9.418   4.329  69.051  1.00  0.00    -0.172 A  
HETATM   14  N   UNL     1      -9.842   5.392  69.818  1.00  0.00    -0.182 NA 
ENDROOT
BRANCH  14  15
HETATM   15  C   UNL     1      -9.665   5.357  71.297  1.00  0.00    -0.162 C  
BRANCH  15  16
HETATM   16  C   UNL     1      -8.208   5.623  71.671  1.00  0.00    -0.119 C  
BRANCH  16  17
HETATM   17  C   UNL     1      -8.026   7.017  72.266  1.00  0.00    -0.092 C  
BRANCH  17  18
HETATM   18  C   UNL     1      -7.284   7.973  71.328  1.00  0.00    -0.062 C  
BRANCH  18  19
HETATM   19  C   UNL     1      -6.800   7.278  70.059  1.00  0.00    -0.055 C  
BRANCH  19  20
HETATM   20  C   UNL     1      -6.991   8.124  68.798  1.00  0.00    -0.067 C  
BRANCH  20  21
HETATM   21  C   UNL     1      -7.621   9.498  69.062  1.00  0.00    -0.075 C  
BRANCH  21  22
HETATM   22  C   UNL     1      -7.062  10.596  68.152  1.00  0.00    -0.081 C  
BRANCH  22  23
HETATM   23  C   UNL     1      -8.111  11.640  67.752  1.00  0.00    -0.139 C  
BRANCH  23  24
HETATM   24  C   UNL     1      -9.480  11.002  67.518  1.00  0.00    -0.163 C  
BRANCH  24  25
HETATM   25  N   UNL     1     -10.122  11.568  66.304  1.00  0.00    -0.219 NA 
HETATM   26  C   UNL     1     -10.967  12.640  66.409  1.00  0.00    -0.272 A  
HETATM   27  C   UNL     1     -11.509  13.213  65.256  1.00  0.00    -0.328 A  
HETATM   28  C   UNL     1     -11.338  13.330  67.703  1.00  0.00    -0.328 C  
HETATM   29  C   UNL     1     -11.237  12.706  63.995  1.00  0.00    -0.406 A  
HETATM   30  N   UNL     1     -11.705  13.430  62.894  1.00  0.00    -0.437 NA 
HETATM   31  C   UNL     1     -10.320  11.647  63.891  1.00  0.00    -0.417 A  
HETATM   32  H1  UNL     1     -11.504  13.057  61.966  1.00  0.00     0.000 HD 
HETATM   33  C   UNL     1      -9.790  11.052  65.069  1.00  0.00    -0.269 A  
HETATM   34  H2  UNL     1     -11.365  14.390  62.952  1.00  0.00     0.000 HD 
HETATM   35  C   UNL     1      -8.909   9.949  64.923  1.00  0.00    -0.223 A  
HETATM   36  C   UNL     1      -8.517   9.475  63.673  1.00  0.00    -0.197 A  
HETATM   37  C   UNL     1      -9.001  10.084  62.531  1.00  0.00    -0.285 A  
HETATM   38  C   UNL     1      -9.894  11.149  62.639  1.00  0.00    -0.166 A  
ENDBRANCH  24  25
ENDBRANCH  23  24
ENDBRANCH  22  23
ENDBRANCH  21  22
ENDBRANCH  20  21
ENDBRANCH  19  20
ENDBRANCH  18  19
ENDBRANCH  17  18
ENDBRANCH  16  17
ENDBRANCH  15  16
ENDBRANCH  14  15
TORSDOF 11
ENDMDL
MODEL      338
REMARK 921   NORMALIZED FREE ENERGY PREDICTED BY IDOCK:   -4.66 KCAL/MOL
REMARK 922        TOTAL FREE ENERGY PREDICTED BY IDOCK:   -9.01 KCAL/MOL
REMARK 923 INTER-LIGAND FREE ENERGY PREDICTED BY IDOCK:   -7.02 KCAL/MOL
REMARK 924 INTRA-LIGAND FREE ENERGY PREDICTED BY IDOCK:   -1.99 KCAL/MOL
REMARK 927      BINDING AFFINITY PREDICTED BY RF-SCORE:    0.00 PKD
ROOT
HETATM    1  C   UNL     1      -7.961   8.967  71.375  1.00  0.00    -0.096 C  
HETATM    2  C   UNL     1      -8.685   8.118  70.355  1.00  0.00    -0.136 A  
HETATM    3  C   UNL     1     -10.007   7.779  70.614  1.00  0.00    -0.186 A  
HETATM    4  C   UNL     1     -10.746   7.016  69.723  1.00  0.00    -0.241 A  
HETATM    5  N   UNL     1     -12.107   6.841  69.995  1.00  0.00    -0.638 NA 
HETATM    6  C   UNL     1     -10.157   6.667  68.493  1.00  0.00    -0.166 A  
HETATM    7  H2  UNL     1     -12.549   7.754  70.104  1.00  0.00     0.000 HD 
HETATM    8  C   UNL     1     -10.883   6.001  67.478  1.00  0.00    -0.393 A  
HETATM    9  H1  UNL     1     -12.651   6.280  69.340  1.00  0.00     0.000 HD 
HETATM   10  C   UNL     1     -10.297   5.640  66.265  1.00  0.00    -0.174 A  
HETATM   11  C   UNL     1      -8.964   5.924  66.036  1.00  0.00    -0.159 A  
HETATM   12  C   UNL     1      -8.220   6.587  67.017  1.00  0.00    -0.113 A  
HETATM   13  C   UNL     1      -8.799   6.997  68.245  1.00  0.00    -0.126 A  
HETATM   14  N   UNL     1      -8.097   7.720  69.186  1.00  0.00    -0.123 NA 
ENDROOT
BRANCH  14  15
HETATM   15  C   UNL     1      -6.696   8.138  68.904  1.00  0.00    -0.049 C  
BRANCH  15  16
HETATM   16  C   UNL     1      -6.651   9.591  68.435  1.00  0.00    -0.053 C  
BRANCH  16  17
HETATM   17  C   UNL     1      -6.997   9.714  66.954  1.00  0.00    -0.085 C  
BRANCH  17  18
HETATM   18  C   UNL     1      -7.796  10.981  66.632  1.00  0.00    -0.153 C  
BRANCH  18  19
HETATM   19  C   UNL     1      -9.263  10.856  67.032  1.00  0.00    -0.165 C  
BRANCH  19  20
HETATM   20  C   UNL     1     -10.119  10.152  65.977  1.00  0.00    -0.317 C  
BRANCH  20  21
HETATM   21  C   UNL     1      -9.796  10.570  64.536  1.00  0.00    -0.401 C  
BRANCH  21  22
HETATM   22  C   UNL     1     -10.552  11.828  64.096  1.00  0.00    -0.403 C  
BRANCH  22  23
HETATM   23  C   UNL     1      -9.825  13.128  64.460  1.00  0.00     0.006 C  
BRANCH  23  24
HETATM   24  C   UNL     1     -10.810  14.260  64.754  1.00  0.00    -0.405 C  
BRANCH  24  25
HETATM   25  N   UNL     1     -10.829  14.573  66.206  1.00  0.00    -0.311 NA 
HETATM   26  C   UNL     1     -11.702  13.926  67.038  1.00  0.00    -0.397 A  
HETATM   27  C   UNL     1     -11.664  14.173  68.413  1.00  0.00    -0.380 A  
HETATM   28  C   UNL     1     -12.704  12.881  66.602  1.00  0.00     0.832 C  
HETATM   29  C   UNL     1     -10.778  15.085  68.964  1.00  0.00    -0.239 A  
HETATM   30  N   UNL     1     -10.712  15.160  70.358  1.00  0.00    -0.486 NA 
HETATM   31  C   UNL     1      -9.844  15.697  68.111  1.00  0.00    -0.212 A  
HETATM   32  H1  UNL     1     -10.059  15.831  70.764  1.00  0.00     0.000 HD 
HETATM   33  C   UNL     1      -9.902  15.462  66.710  1.00  0.00    -0.245 A  
HETATM   34  H2  UNL     1     -10.520  14.232  70.737  1.00  0.00     0.000 HD 
HETATM   35  C   UNL     1      -8.976  16.141  65.878  1.00  0.00    -0.241 A  
HETATM   36  C   UNL     1      -7.993  16.982  66.396  1.00  0.00    -0.342 A  
HETATM   37  C   UNL     1      -7.913  17.175  67.762  1.00  0.00    -0.190 A  
HETATM   38  C   UNL     1      -8.828  16.548  68.605  1.00  0.00    -0.237 A  
ENDBRANCH  24  25
ENDBRANCH  23  24
ENDBRANCH  22  23
ENDBRANCH  21  22
ENDBRANCH  20  21
ENDBRANCH  19  20
ENDBRANCH  18  19
ENDBRANCH  17  18
ENDBRANCH  16  17
ENDBRANCH  15  16
ENDBRANCH  14  15
TORSDOF 11
ENDMDL
MODEL      339
REMARK 921   NORMALIZED FREE ENERGY PREDICTED BY IDOCK:   -4.66 KCAL/MOL
REMARK 922        TOTAL FREE ENERGY PREDICTED BY IDOCK:   -9.01 KCAL/MOL
REMARK 923 INTER-LIGAND FREE ENERGY PREDICTED BY IDOCK:   -6.62 KCAL/MOL
REMARK 924 INTRA-LIGAND FREE ENERGY PREDICTED BY IDOCK:   -2.39 KCAL/MOL
REMARK 927      BINDING AFFINITY PREDICTED BY RF-SCORE:    0.00 PKD
ROOT
HETATM    1  C   UNL     1     -11.074   6.368  68.440  1.00  0.00    -0.374 C  
HETATM    2  C   UNL     1     -10.486   5.730  69.677  1.00  0.00    -0.293 A  
HETATM    3  C   UNL     1      -9.325   4.980  69.531  1.00  0.00    -0.184 A  
HETATM    4  C   UNL     1      -8.713   4.374  70.617  1.00  0.00    -0.090 A  
HETATM    5  N   UNL     1      -7.474   3.760  70.403  1.00  0.00    -0.041 NA 
HETATM    6  C   UNL     1      -9.241   4.611  71.900  1.00  0.00    -0.175 A  
HETATM    7  H2  UNL     1      -6.831   4.434  69.988  1.00  0.00     0.000 HD 
HETATM    8  C   UNL     1      -8.605   4.137  73.071  1.00  0.00    -0.100 A  
HETATM    9  H1  UNL     1      -7.025   3.314  71.202  1.00  0.00     0.000 HD 
HETATM   10  C   UNL     1      -9.136   4.357  74.342  1.00  0.00    -0.109 A  
HETATM   11  C   UNL     1     -10.324   5.048  74.478  1.00  0.00    -0.315 A  
HETATM   12  C   UNL     1     -10.975   5.536  73.342  1.00  0.00    -0.324 A  
HETATM   13  C   UNL     1     -10.440   5.358  72.039  1.00  0.00    -0.221 A  
HETATM   14  N   UNL     1     -11.032   5.902  70.919  1.00  0.00    -0.279 NA 
ENDROOT
BRANCH  14  15
HETATM   15  C   UNL     1     -12.247   6.751  71.061  1.00  0.00    -0.352 C  
BRANCH  15  16
HETATM   16  C   UNL     1     -11.876   8.141  71.574  1.00  0.00    -0.332 C  
BRANCH  16  17
HETATM   17  C   UNL     1     -12.834   9.208  71.050  1.00  0.00    -0.158 C  
BRANCH  17  18
HETATM   18  C   UNL     1     -12.506  10.610  71.572  1.00  0.00    -0.471 C  
BRANCH  18  19
HETATM   19  C   UNL     1     -12.655  11.678  70.492  1.00  0.00    -0.264 C  
BRANCH  19  20
HETATM   20  C   UNL     1     -11.315  12.155  69.927  1.00  0.00    -0.109 C  
BRANCH  20  21
HETATM   21  C   UNL     1     -11.386  12.608  68.462  1.00  0.00    -0.333 C  
BRANCH  21  22
HETATM   22  C   UNL     1     -11.908  11.516  67.524  1.00  0.00    -0.157 C  
BRANCH  22  23
HETATM   23  C   UNL     1     -10.984  10.295  67.444  1.00  0.00    -0.317 C  
BRANCH  23  24
HETATM   24  C   UNL     1      -9.511  10.701  67.488  1.00  0.00    -0.153 C  
BRANCH  24  25
HETATM   25  N   UNL     1      -8.640   9.502  67.581  1.00  0.00    -0.122 NA 
HETATM   26  C   UNL     1      -8.326   8.973  68.805  1.00  0.00    -0.122 A  
HETATM   27  C   UNL     1      -7.566   7.803  68.881  1.00  0.00    -0.101 A  
HETATM   28  C   UNL     1      -8.793   9.523  70.133  1.00  0.00    -0.266 C  
HETATM   29  C   UNL     1      -7.091   7.168  67.744  1.00  0.00    -0.085 A  
HETATM   30  N   UNL     1      -6.466   5.929  67.911  1.00  0.00    -0.045 NA 
HETATM   31  C   UNL     1      -7.470   7.682  66.493  1.00  0.00    -0.092 A  
HETATM   32  H1  UNL     1      -6.117   5.462  67.075  1.00  0.00     0.000 HD 
HETATM   33  C   UNL     1      -8.222   8.886  66.420  1.00  0.00    -0.115 A  
HETATM   34  H2  UNL     1      -7.094   5.299  68.411  1.00  0.00     0.000 HD 
HETATM   35  C   UNL     1      -8.538   9.401  65.136  1.00  0.00    -0.188 A  
HETATM   36  C   UNL     1      -8.179   8.739  63.964  1.00  0.00    -0.161 A  
HETATM   37  C   UNL     1      -7.485   7.546  64.040  1.00  0.00    -0.103 A  
HETATM   38  C   UNL     1      -7.130   7.030  65.285  1.00  0.00    -0.068 A  
ENDBRANCH  24  25
ENDBRANCH  23  24
ENDBRANCH  22  23
ENDBRANCH  21  22
ENDBRANCH  20  21
ENDBRANCH  19  20
ENDBRANCH  18  19
ENDBRANCH  17  18
ENDBRANCH  16  17
ENDBRANCH  15  16
ENDBRANCH  14  15
TORSDOF 11
ENDMDL
MODEL      340
REMARK 921   NORMALIZED FREE ENERGY PREDICTED BY IDOCK:   -4.66 KCAL/MOL
REMARK 922        TOTAL FREE ENERGY PREDICTED BY IDOCK:   -9.01 KCAL/MOL
REMARK 923 INTER-LIGAND FREE ENERGY PREDICTED BY IDOCK:   -8.02 KCAL/MOL
REMARK 924 INTRA-LIGAND FREE ENERGY PREDICTED BY IDOCK:   -0.99 KCAL/MOL
REMARK 927      BINDING AFFINITY PREDICTED BY RF-SCORE:    0.00 PKD
ROOT
HETATM    1  C   UNL     1      -8.576   6.403  70.133  1.00  0.00    -0.135 C  
HETATM    2  C   UNL     1      -8.504   6.909  68.710  1.00  0.00    -0.121 A  
HETATM    3  C   UNL     1      -8.898   6.046  67.695  1.00  0.00    -0.106 A  
HETATM    4  C   UNL     1      -8.876   6.436  66.364  1.00  0.00    -0.141 A  
HETATM    5  N   UNL     1      -9.422   5.557  65.423  1.00  0.00    -0.365 NA 
HETATM    6  C   UNL     1      -8.535   7.769  66.064  1.00  0.00    -0.146 A  
HETATM    7  H2  UNL     1     -10.379   5.328  65.691  1.00  0.00     0.000 HD 
HETATM    8  C   UNL     1      -8.611   8.283  64.749  1.00  0.00    -0.047 A  
HETATM    9  H1  UNL     1      -9.406   5.845  64.444  1.00  0.00     0.000 HD 
HETATM   10  C   UNL     1      -8.258   9.598  64.447  1.00  0.00    -0.157 A  
HETATM   11  C   UNL     1      -7.806  10.434  65.450  1.00  0.00    -0.143 A  
HETATM   12  C   UNL     1      -7.725   9.959  66.762  1.00  0.00    -0.099 A  
HETATM   13  C   UNL     1      -8.112   8.637  67.104  1.00  0.00    -0.100 A  
HETATM   14  N   UNL     1      -8.110   8.183  68.406  1.00  0.00    -0.126 NA 
ENDROOT
BRANCH  14  15
HETATM   15  C   UNL     1      -7.742   9.107  69.514  1.00  0.00    -0.080 C  
BRANCH  15  16
HETATM   16  C   UNL     1      -8.856   9.170  70.556  1.00  0.00    -0.263 C  
BRANCH  16  17
HETATM   17  C   UNL     1     -10.095   9.878  70.014  1.00  0.00    -0.308 C  
BRANCH  17  18
HETATM   18  C   UNL     1     -11.321   9.708  70.916  1.00  0.00    -0.431 C  
BRANCH  18  19
HETATM   19  C   UNL     1     -12.498  10.563  70.457  1.00  0.00    -0.433 C  
BRANCH  19  20
HETATM   20  C   UNL     1     -12.071  11.893  69.834  1.00  0.00    -0.344 C  
BRANCH  20  21
HETATM   21  C   UNL     1     -12.296  13.107  70.746  1.00  0.00    -0.404 C  
BRANCH  21  22
HETATM   22  C   UNL     1     -11.373  14.283  70.414  1.00  0.00    -0.096 C  
BRANCH  22  23
HETATM   23  C   UNL     1     -12.041  15.343  69.529  1.00  0.00    -0.332 C  
BRANCH  23  24
HETATM   24  C   UNL     1     -11.644  15.182  68.062  1.00  0.00    -0.328 C  
BRANCH  24  25
HETATM   25  N   UNL     1     -10.190  15.426  67.883  1.00  0.00    -0.237 NA 
HETATM   26  C   UNL     1      -9.362  14.405  67.499  1.00  0.00    -0.198 A  
HETATM   27  C   UNL     1      -8.009  14.659  67.262  1.00  0.00    -0.223 A  
HETATM   28  C   UNL     1      -9.803  12.982  67.237  1.00  0.00    -0.227 C  
HETATM   29  C   UNL     1      -7.466  15.923  67.432  1.00  0.00    -0.186 A  
HETATM   30  N   UNL     1      -6.140  16.114  67.033  1.00  0.00    -0.329 NA 
HETATM   31  C   UNL     1      -8.333  16.977  67.764  1.00  0.00    -0.199 A  
HETATM   32  H1  UNL     1      -5.739  17.044  67.157  1.00  0.00     0.000 HD 
HETATM   33  C   UNL     1      -9.704  16.709  68.028  1.00  0.00    -0.241 A  
HETATM   34  H2  UNL     1      -6.036  15.831  66.058  1.00  0.00     0.000 HD 
HETATM   35  C   UNL     1     -10.535  17.792  68.414  1.00  0.00    -0.351 A  
HETATM   36  C   UNL     1     -10.060  19.099  68.489  1.00  0.00    -0.499 A  
HETATM   37  C   UNL     1      -8.737  19.362  68.190  1.00  0.00    -0.370 A  
HETATM   38  C   UNL     1      -7.885  18.316  67.840  1.00  0.00    -0.255 A  
ENDBRANCH  24  25
ENDBRANCH  23  24
ENDBRANCH  22  23
ENDBRANCH  21  22
ENDBRANCH  20  21
ENDBRANCH  19  20
ENDBRANCH  18  19
ENDBRANCH  17  18
ENDBRANCH  16  17
ENDBRANCH  15  16
ENDBRANCH  14  15
TORSDOF 11
ENDMDL
MODEL      341
REMARK 921   NORMALIZED FREE ENERGY PREDICTED BY IDOCK:   -4.66 KCAL/MOL
REMARK 922        TOTAL FREE ENERGY PREDICTED BY IDOCK:   -9.01 KCAL/MOL
REMARK 923 INTER-LIGAND FREE ENERGY PREDICTED BY IDOCK:   -7.86 KCAL/MOL
REMARK 924 INTRA-LIGAND FREE ENERGY PREDICTED BY IDOCK:   -1.14 KCAL/MOL
REMARK 927      BINDING AFFINITY PREDICTED BY RF-SCORE:    0.00 PKD
ROOT
HETATM    1  C   UNL     1     -12.099  12.055  68.867  1.00  0.00    -0.201 C  
HETATM    2  C   UNL     1     -12.024  10.788  69.687  1.00  0.00    -0.313 A  
HETATM    3  C   UNL     1     -12.846  10.688  70.803  1.00  0.00    -0.439 A  
HETATM    4  C   UNL     1     -12.850   9.554  71.601  1.00  0.00    -0.393 A  
HETATM    5  N   UNL     1     -13.808   9.480  72.617  1.00  0.00    -0.713 NA 
HETATM    6  C   UNL     1     -12.066   8.454  71.202  1.00  0.00    -0.275 A  
HETATM    7  H2  UNL     1     -14.736   9.612  72.216  1.00  0.00     0.000 HD 
HETATM    8  C   UNL     1     -12.110   7.216  71.885  1.00  0.00    -0.357 A  
HETATM    9  H1  UNL     1     -13.810   8.646  73.203  1.00  0.00     0.000 HD 
HETATM   10  C   UNL     1     -11.323   6.132  71.502  1.00  0.00    -0.340 A  
HETATM   11  C   UNL     1     -10.459   6.255  70.431  1.00  0.00    -0.277 A  
HETATM   12  C   UNL     1     -10.397   7.463  69.729  1.00  0.00    -0.226 A  
HETATM   13  C   UNL     1     -11.212   8.572  70.074  1.00  0.00    -0.086 A  
HETATM   14  N   UNL     1     -11.216   9.740  69.342  1.00  0.00    -0.167 NA 
ENDROOT
BRANCH  14  15
HETATM   15  C   UNL     1     -10.381   9.847  68.114  1.00  0.00    -0.195 C  
BRANCH  15  16
HETATM   16  C   UNL     1      -9.505  11.098  68.167  1.00  0.00    -0.180 C  
BRANCH  16  17
HETATM   17  C   UNL     1      -9.311  11.708  66.781  1.00  0.00    -0.193 C  
BRANCH  17  18
HETATM   18  C   UNL     1     -10.010  10.910  65.676  1.00  0.00    -0.305 C  
BRANCH  18  19
HETATM   19  C   UNL     1     -10.599  11.813  64.596  1.00  0.00    -0.359 C  
BRANCH  19  20
HETATM   20  C   UNL     1     -10.087  13.253  64.668  1.00  0.00    -0.249 C  
BRANCH  20  21
HETATM   21  C   UNL     1     -11.191  14.292  64.912  1.00  0.00    -0.381 C  
BRANCH  21  22
HETATM   22  C   UNL     1     -10.705  15.733  64.733  1.00  0.00    -0.282 C  
BRANCH  22  23
HETATM   23  C   UNL     1     -11.384  16.722  65.687  1.00  0.00     0.561 C  
BRANCH  23  24
HETATM   24  C   UNL     1     -10.360  17.569  66.443  1.00  0.00    -0.334 C  
BRANCH  24  25
HETATM   25  N   UNL     1      -9.524  16.716  67.325  1.00  0.00    -0.230 NA 
HETATM   26  C   UNL     1      -8.169  16.652  67.138  1.00  0.00    -0.179 A  
HETATM   27  C   UNL     1      -7.381  15.905  68.018  1.00  0.00    -0.140 A  
HETATM   28  C   UNL     1      -7.405  17.391  66.063  1.00  0.00    -0.265 C  
HETATM   29  C   UNL     1      -7.938  15.195  69.070  1.00  0.00    -0.188 A  
HETATM   30  N   UNL     1      -7.062  14.597  69.981  1.00  0.00    -0.375 NA 
HETATM   31  C   UNL     1      -9.320  15.318  69.293  1.00  0.00    -0.239 A  
HETATM   32  H1  UNL     1      -7.472  14.076  70.756  1.00  0.00     0.000 HD 
HETATM   33  C   UNL     1     -10.121  16.058  68.381  1.00  0.00    -0.229 A  
HETATM   34  H2  UNL     1      -6.425  15.304  70.350  1.00  0.00     0.000 HD 
HETATM   35  C   UNL     1     -11.520  16.112  68.611  1.00  0.00    -0.340 A  
HETATM   36  C   UNL     1     -12.112  15.509  69.717  1.00  0.00    -0.372 A  
HETATM   37  C   UNL     1     -11.324  14.826  70.624  1.00  0.00    -0.234 A  
HETATM   38  C   UNL     1      -9.951  14.726  70.411  1.00  0.00     0.628 A  
ENDBRANCH  24  25
ENDBRANCH  23  24
ENDBRANCH  22  23
ENDBRANCH  21  22
ENDBRANCH  20  21
ENDBRANCH  19  20
ENDBRANCH  18  19
ENDBRANCH  17  18
ENDBRANCH  16  17
ENDBRANCH  15  16
ENDBRANCH  14  15
TORSDOF 11
ENDMDL
MODEL      342
REMARK 921   NORMALIZED FREE ENERGY PREDICTED BY IDOCK:   -4.66 KCAL/MOL
REMARK 922        TOTAL FREE ENERGY PREDICTED BY IDOCK:   -9.01 KCAL/MOL
REMARK 923 INTER-LIGAND FREE ENERGY PREDICTED BY IDOCK:   -6.78 KCAL/MOL
REMARK 924 INTRA-LIGAND FREE ENERGY PREDICTED BY IDOCK:   -2.22 KCAL/MOL
REMARK 927      BINDING AFFINITY PREDICTED BY RF-SCORE:    0.00 PKD
ROOT
HETATM    1  C   UNL     1     -10.426   8.457  67.685  1.00  0.00    -0.307 C  
HETATM    2  C   UNL     1      -9.977   7.791  68.967  1.00  0.00    -0.182 A  
HETATM    3  C   UNL     1      -8.861   6.966  68.913  1.00  0.00    -0.129 A  
HETATM    4  C   UNL     1      -8.376   6.329  70.045  1.00  0.00    -0.129 A  
HETATM    5  N   UNL     1      -7.168   5.634  69.929  1.00  0.00    -0.067 NA 
HETATM    6  C   UNL     1      -8.984   6.612  71.283  1.00  0.00    -0.144 A  
HETATM    7  H2  UNL     1      -6.452   6.261  69.562  1.00  0.00     0.000 HD 
HETATM    8  C   UNL     1      -8.473   6.107  72.501  1.00  0.00    -0.118 A  
HETATM    9  H1  UNL     1      -6.811   5.166  70.762  1.00  0.00     0.000 HD 
HETATM   10  C   UNL     1      -9.083   6.371  73.726  1.00  0.00    -0.143 A  
HETATM   11  C   UNL     1     -10.231   7.141  73.768  1.00  0.00    -0.395 A  
HETATM   12  C   UNL     1     -10.758   7.661  72.583  1.00  0.00    -0.377 A  
HETATM   13  C   UNL     1     -10.138   7.437  71.326  1.00  0.00    -0.188 A  
HETATM   14  N   UNL     1     -10.605   8.009  70.163  1.00  0.00    -0.233 NA 
ENDROOT
BRANCH  14  15
HETATM   15  C   UNL     1     -11.768   8.938  70.207  1.00  0.00     0.045 C  
BRANCH  15  16
HETATM   16  C   UNL     1     -11.308  10.365  70.496  1.00  0.00    -0.424 C  
BRANCH  16  17
HETATM   17  C   UNL     1     -11.937  11.366  69.531  1.00  0.00    -0.409 C  
BRANCH  17  18
HETATM   18  C   UNL     1     -12.381  12.660  70.220  1.00  0.00    -0.269 C  
BRANCH  18  19
HETATM   19  C   UNL     1     -12.155  13.888  69.344  1.00  0.00    -0.384 C  
BRANCH  19  20
HETATM   20  C   UNL     1     -10.999  14.768  69.825  1.00  0.00    -0.261 C  
BRANCH  20  21
HETATM   21  C   UNL     1     -10.350  15.602  68.712  1.00  0.00    -0.218 C  
BRANCH  21  22
HETATM   22  C   UNL     1      -9.837  14.749  67.549  1.00  0.00    -0.218 C  
BRANCH  22  23
HETATM   23  C   UNL     1      -8.513  14.041  67.857  1.00  0.00    -0.170 C  
BRANCH  23  24
HETATM   24  C   UNL     1      -8.729  12.566  68.197  1.00  0.00    -0.190 C  
BRANCH  24  25
HETATM   25  N   UNL     1      -7.870  11.702  67.348  1.00  0.00    -0.139 NA 
HETATM   26  C   UNL     1      -6.616  11.351  67.770  1.00  0.00    -0.069 A  
HETATM   27  C   UNL     1      -5.842  10.479  67.000  1.00  0.00    -0.052 A  
HETATM   28  C   UNL     1      -5.985  11.788  69.073  1.00  0.00    -0.061 C  
HETATM   29  C   UNL     1      -6.300   9.972  65.794  1.00  0.00    -0.094 A  
HETATM   30  N   UNL     1      -5.521   8.996  65.166  1.00  0.00    -0.042 NA 
HETATM   31  C   UNL     1      -7.612  10.286  65.400  1.00  0.00    -0.146 A  
HETATM   32  H1  UNL     1      -5.858   8.623  64.279  1.00  0.00     0.000 HD 
HETATM   33  C   UNL     1      -8.386  11.194  66.173  1.00  0.00    -0.144 A  
HETATM   34  H2  UNL     1      -5.358   8.226  65.815  1.00  0.00     0.000 HD 
HETATM   35  C   UNL     1      -9.685  11.527  65.712  1.00  0.00    -0.263 A  
HETATM   36  C   UNL     1     -10.232  10.957  64.565  1.00  0.00    -0.422 A  
HETATM   37  C   UNL     1      -9.493  10.043  63.839  1.00  0.00    -0.280 A  
HETATM   38  C   UNL     1      -8.200   9.718  64.246  1.00  0.00    -0.160 A  
ENDBRANCH  24  25
ENDBRANCH  23  24
ENDBRANCH  22  23
ENDBRANCH  21  22
ENDBRANCH  20  21
ENDBRANCH  19  20
ENDBRANCH  18  19
ENDBRANCH  17  18
ENDBRANCH  16  17
ENDBRANCH  15  16
ENDBRANCH  14  15
TORSDOF 11
ENDMDL
MODEL      343
REMARK 921   NORMALIZED FREE ENERGY PREDICTED BY IDOCK:   -4.63 KCAL/MOL
REMARK 922        TOTAL FREE ENERGY PREDICTED BY IDOCK:   -8.95 KCAL/MOL
REMARK 923 INTER-LIGAND FREE ENERGY PREDICTED BY IDOCK:   -8.14 KCAL/MOL
REMARK 924 INTRA-LIGAND FREE ENERGY PREDICTED BY IDOCK:   -0.81 KCAL/MOL
REMARK 927      BINDING AFFINITY PREDICTED BY RF-SCORE:    0.00 PKD
ROOT
HETATM    1  C   UNL     1      -5.467  15.832  68.268  1.00  0.00    -0.112 C  
HETATM    2  C   UNL     1      -6.424  16.986  68.073  1.00  0.00    -0.145 A  
HETATM    3  C   UNL     1      -5.982  18.259  68.411  1.00  0.00    -0.184 A  
HETATM    4  C   UNL     1      -6.792  19.373  68.249  1.00  0.00    -0.274 A  
HETATM    5  N   UNL     1      -6.220  20.628  68.479  1.00  0.00    -0.327 NA 
HETATM    6  C   UNL     1      -8.051  19.201  67.642  1.00  0.00    -0.299 A  
HETATM    7  H2  UNL     1      -5.388  20.730  67.898  1.00  0.00     0.000 HD 
HETATM    8  C   UNL     1      -8.884  20.299  67.324  1.00  0.00    -0.454 A  
HETATM    9  H1  UNL     1      -6.816  21.447  68.360  1.00  0.00     0.000 HD 
HETATM   10  C   UNL     1     -10.138  20.130  66.738  1.00  0.00    -0.591 A  
HETATM   11  C   UNL     1     -10.600  18.857  66.462  1.00  0.00    -0.462 A  
HETATM   12  C   UNL     1      -9.798  17.752  66.758  1.00  0.00    -0.320 A  
HETATM   13  C   UNL     1      -8.504  17.895  67.321  1.00  0.00    -0.236 A  
HETATM   14  N   UNL     1      -7.674  16.818  67.544  1.00  0.00    -0.164 NA 
ENDROOT
BRANCH  14  15
HETATM   15  C   UNL     1      -8.109  15.451  67.142  1.00  0.00    -0.217 C  
BRANCH  15  16
HETATM   16  C   UNL     1      -8.856  14.765  68.285  1.00  0.00    -0.179 C  
BRANCH  16  17
HETATM   17  C   UNL     1      -9.585  13.512  67.808  1.00  0.00    -0.219 C  
BRANCH  17  18
HETATM   18  C   UNL     1      -8.915  12.858  66.596  1.00  0.00    -0.141 C  
BRANCH  18  19
HETATM   19  C   UNL     1      -9.663  11.615  66.123  1.00  0.00    -0.253 C  
BRANCH  19  20
HETATM   20  C   UNL     1      -9.519  10.426  67.075  1.00  0.00    -0.189 C  
BRANCH  20  21
HETATM   21  C   UNL     1      -8.531   9.357  66.588  1.00  0.00    -0.130 C  
BRANCH  21  22
HETATM   22  C   UNL     1      -9.157   7.963  66.495  1.00  0.00    -0.209 C  
BRANCH  22  23
HETATM   23  C   UNL     1     -10.534   7.873  67.163  1.00  0.00    -0.414 C  
BRANCH  23  24
HETATM   24  C   UNL     1     -11.089   6.449  67.118  1.00  0.00    -0.341 C  
BRANCH  24  25
HETATM   25  N   UNL     1     -10.452   5.606  68.162  1.00  0.00    -0.205 NA 
HETATM   26  C   UNL     1     -10.667   5.873  69.488  1.00  0.00    -0.343 A  
HETATM   27  C   UNL     1     -10.124   5.031  70.462  1.00  0.00    -0.323 A  
HETATM   28  C   UNL     1     -11.521   7.002  70.018  1.00  0.00    -0.262 C  
HETATM   29  C   UNL     1      -9.342   3.938  70.126  1.00  0.00    -0.171 A  
HETATM   30  N   UNL     1      -8.965   3.073  71.157  1.00  0.00    -0.091 NA 
HETATM   31  C   UNL     1      -9.179   3.635  68.764  1.00  0.00    -0.222 A  
HETATM   32  H1  UNL     1      -8.389   2.268  70.910  1.00  0.00     0.000 HD 
HETATM   33  C   UNL     1      -9.712   4.507  67.776  1.00  0.00    -0.145 A  
HETATM   34  H2  UNL     1      -9.798   2.752  71.651  1.00  0.00     0.000 HD 
HETATM   35  C   UNL     1      -9.479   4.195  66.412  1.00  0.00    -0.199 A  
HETATM   36  C   UNL     1      -8.795   3.047  66.021  1.00  0.00    -0.142 A  
HETATM   37  C   UNL     1      -8.315   2.179  66.984  1.00  0.00    -0.088 A  
HETATM   38  C   UNL     1      -8.498   2.473  68.334  1.00  0.00    -0.093 A  
ENDBRANCH  24  25
ENDBRANCH  23  24
ENDBRANCH  22  23
ENDBRANCH  21  22
ENDBRANCH  20  21
ENDBRANCH  19  20
ENDBRANCH  18  19
ENDBRANCH  17  18
ENDBRANCH  16  17
ENDBRANCH  15  16
ENDBRANCH  14  15
TORSDOF 11
ENDMDL
MODEL      344
REMARK 921   NORMALIZED FREE ENERGY PREDICTED BY IDOCK:   -4.63 KCAL/MOL
REMARK 922        TOTAL FREE ENERGY PREDICTED BY IDOCK:   -8.95 KCAL/MOL
REMARK 923 INTER-LIGAND FREE ENERGY PREDICTED BY IDOCK:   -7.30 KCAL/MOL
REMARK 924 INTRA-LIGAND FREE ENERGY PREDICTED BY IDOCK:   -1.65 KCAL/MOL
REMARK 927      BINDING AFFINITY PREDICTED BY RF-SCORE:    0.00 PKD
ROOT
HETATM    1  C   UNL     1     -11.131   7.838  70.845  1.00  0.00    -0.270 C  
HETATM    2  C   UNL     1     -10.260   6.783  70.202  1.00  0.00    -0.195 A  
HETATM    3  C   UNL     1     -10.412   5.469  70.626  1.00  0.00    -0.342 A  
HETATM    4  C   UNL     1      -9.663   4.439  70.076  1.00  0.00    -0.216 A  
HETATM    5  N   UNL     1      -9.981   3.132  70.459  1.00  0.00     0.116 NA 
HETATM    6  C   UNL     1      -8.802   4.738  69.003  1.00  0.00    -0.121 A  
HETATM    7  H2  UNL     1     -10.970   2.960  70.282  1.00  0.00     0.000 HD 
HETATM    8  C   UNL     1      -8.100   3.730  68.304  1.00  0.00    -0.078 A  
HETATM    9  H1  UNL     1      -9.430   2.375  70.055  1.00  0.00     0.000 HD 
HETATM   10  C   UNL     1      -7.234   4.025  67.252  1.00  0.00    -0.068 A  
HETATM   11  C   UNL     1      -7.037   5.340  66.875  1.00  0.00    -0.066 A  
HETATM   12  C   UNL     1      -7.721   6.360  67.541  1.00  0.00    -0.101 A  
HETATM   13  C   UNL     1      -8.634   6.087  68.591  1.00  0.00    -0.112 A  
HETATM   14  N   UNL     1      -9.373   7.077  69.202  1.00  0.00    -0.141 NA 
ENDROOT
BRANCH  14  15
HETATM   15  C   UNL     1      -9.262   8.484  68.728  1.00  0.00    -0.142 C  
BRANCH  15  16
HETATM   16  C   UNL     1      -8.341   9.290  69.643  1.00  0.00    -0.140 C  
BRANCH  16  17
HETATM   17  C   UNL     1      -6.918   9.352  69.095  1.00  0.00    -0.058 C  
BRANCH  17  18
HETATM   18  C   UNL     1      -6.826  10.097  67.760  1.00  0.00    -0.075 C  
BRANCH  18  19
HETATM   19  C   UNL     1      -6.080   9.293  66.700  1.00  0.00    -0.064 C  
BRANCH  19  20
HETATM   20  C   UNL     1      -6.729   9.372  65.316  1.00  0.00    -0.079 C  
BRANCH  20  21
HETATM   21  C   UNL     1      -7.941   8.446  65.145  1.00  0.00    -0.136 C  
BRANCH  21  22
HETATM   22  C   UNL     1      -9.266   9.208  65.050  1.00  0.00    -0.180 C  
BRANCH  22  23
HETATM   23  C   UNL     1      -9.135  10.694  65.404  1.00  0.00    -0.214 C  
BRANCH  23  24
HETATM   24  C   UNL     1     -10.454  11.267  65.924  1.00  0.00    -0.259 C  
BRANCH  24  25
HETATM   25  N   UNL     1     -10.671  12.640  65.402  1.00  0.00    -0.274 NA 
HETATM   26  C   UNL     1     -11.351  12.831  64.229  1.00  0.00    -0.367 A  
HETATM   27  C   UNL     1     -11.614  14.129  63.782  1.00  0.00     0.142 A  
HETATM   28  C   UNL     1     -11.921  11.728  63.367  1.00  0.00    -0.443 C  
HETATM   29  C   UNL     1     -11.178  15.242  64.484  1.00  0.00    -0.280 A  
HETATM   30  N   UNL     1     -11.612  16.495  64.039  1.00  0.00    -1.544 NA 
HETATM   31  C   UNL     1     -10.537  15.038  65.716  1.00  0.00    -0.351 A  
HETATM   32  H1  UNL     1     -11.292  17.314  64.555  1.00  0.00     0.000 HD 
HETATM   33  C   UNL     1     -10.249  13.717  66.155  1.00  0.00    -0.304 A  
HETATM   34  H2  UNL     1     -12.631  16.503  63.993  1.00  0.00     0.000 HD 
HETATM   35  C   UNL     1      -9.552  13.555  67.380  1.00  0.00    -0.227 A  
HETATM   36  C   UNL     1      -9.192  14.640  68.176  1.00  0.00    -0.192 A  
HETATM   37  C   UNL     1      -9.511  15.921  67.766  1.00  0.00    -0.216 A  
HETATM   38  C   UNL     1     -10.167  16.117  66.552  1.00  0.00    -0.304 A  
ENDBRANCH  24  25
ENDBRANCH  23  24
ENDBRANCH  22  23
ENDBRANCH  21  22
ENDBRANCH  20  21
ENDBRANCH  19  20
ENDBRANCH  18  19
ENDBRANCH  17  18
ENDBRANCH  16  17
ENDBRANCH  15  16
ENDBRANCH  14  15
TORSDOF 11
ENDMDL
MODEL      345
REMARK 921   NORMALIZED FREE ENERGY PREDICTED BY IDOCK:   -4.62 KCAL/MOL
REMARK 922        TOTAL FREE ENERGY PREDICTED BY IDOCK:   -8.94 KCAL/MOL
REMARK 923 INTER-LIGAND FREE ENERGY PREDICTED BY IDOCK:   -6.63 KCAL/MOL
REMARK 924 INTRA-LIGAND FREE ENERGY PREDICTED BY IDOCK:   -2.31 KCAL/MOL
REMARK 927      BINDING AFFINITY PREDICTED BY RF-SCORE:    0.00 PKD
ROOT
HETATM    1  C   UNL     1      -6.917   8.100  69.687  1.00  0.00    -0.049 C  
HETATM    2  C   UNL     1      -8.329   8.268  70.203  1.00  0.00    -0.124 A  
HETATM    3  C   UNL     1      -8.884   9.541  70.169  1.00  0.00    -0.266 A  
HETATM    4  C   UNL     1     -10.177   9.778  70.610  1.00  0.00    -0.220 A  
HETATM    5  N   UNL     1     -10.705  11.058  70.408  1.00  0.00    -0.227 NA 
HETATM    6  C   UNL     1     -10.960   8.678  71.008  1.00  0.00    -0.314 A  
HETATM    7  H2  UNL     1     -10.637  11.299  69.419  1.00  0.00     0.000 HD 
HETATM    8  C   UNL     1     -12.326   8.815  71.348  1.00  0.00    -0.353 A  
HETATM    9  H1  UNL     1     -11.656  11.232  70.732  1.00  0.00     0.000 HD 
HETATM   10  C   UNL     1     -13.098   7.730  71.759  1.00  0.00    -0.353 A  
HETATM   11  C   UNL     1     -12.525   6.476  71.852  1.00  0.00    -0.291 A  
HETATM   12  C   UNL     1     -11.179   6.305  71.516  1.00  0.00    -0.344 A  
HETATM   13  C   UNL     1     -10.378   7.384  71.062  1.00  0.00    -0.195 A  
HETATM   14  N   UNL     1      -9.073   7.213  70.654  1.00  0.00    -0.157 NA 
ENDROOT
BRANCH  14  15
HETATM   15  C   UNL     1      -8.476   5.849  70.633  1.00  0.00    -0.129 C  
BRANCH  15  16
HETATM   16  C   UNL     1      -8.932   5.079  69.395  1.00  0.00    -0.125 C  
BRANCH  16  17
HETATM   17  C   UNL     1      -7.909   5.175  68.266  1.00  0.00    -0.087 C  
BRANCH  17  18
HETATM   18  C   UNL     1      -8.330   6.150  67.163  1.00  0.00    -0.105 C  
BRANCH  18  19
HETATM   19  C   UNL     1      -9.840   6.361  67.122  1.00  0.00    -0.182 C  
BRANCH  19  20
HETATM   20  C   UNL     1     -10.251   7.821  67.324  1.00  0.00    -0.343 C  
BRANCH  20  21
HETATM   21  C   UNL     1      -9.888   8.737  66.148  1.00  0.00    -0.297 C  
BRANCH  21  22
HETATM   22  C   UNL     1     -10.750  10.001  66.085  1.00  0.00     0.023 C  
BRANCH  22  23
HETATM   23  C   UNL     1     -10.197  11.151  66.935  1.00  0.00    -0.260 C  
BRANCH  23  24
HETATM   24  C   UNL     1      -8.830  11.615  66.433  1.00  0.00    -0.182 C  
BRANCH  24  25
HETATM   25  N   UNL     1      -8.461  12.917  67.046  1.00  0.00    -0.176 NA 
HETATM   26  C   UNL     1      -9.092  14.066  66.650  1.00  0.00    -0.200 A  
HETATM   27  C   UNL     1      -8.791  15.276  67.282  1.00  0.00    -0.212 A  
HETATM   28  C   UNL     1     -10.171  14.145  65.594  1.00  0.00    -0.357 C  
HETATM   29  C   UNL     1      -7.843  15.354  68.290  1.00  0.00    -0.123 A  
HETATM   30  N   UNL     1      -7.714  16.574  68.961  1.00  0.00    -0.234 NA 
HETATM   31  C   UNL     1      -7.248  14.162  68.732  1.00  0.00    -0.120 A  
HETATM   32  H1  UNL     1      -7.017  16.632  69.703  1.00  0.00     0.000 HD 
HETATM   33  C   UNL     1      -7.537  12.937  68.070  1.00  0.00    -0.137 A  
HETATM   34  H2  UNL     1      -8.623  16.854  69.330  1.00  0.00     0.000 HD 
HETATM   35  C   UNL     1      -6.874  11.764  68.512  1.00  0.00    -0.075 A  
HETATM   36  C   UNL     1      -5.997  11.772  69.594  1.00  0.00    -0.112 A  
HETATM   37  C   UNL     1      -5.750  12.957  70.262  1.00  0.00    -0.162 A  
HETATM   38  C   UNL     1      -6.361  14.134  69.833  1.00  0.00    -0.141 A  
ENDBRANCH  24  25
ENDBRANCH  23  24
ENDBRANCH  22  23
ENDBRANCH  21  22
ENDBRANCH  20  21
ENDBRANCH  19  20
ENDBRANCH  18  19
ENDBRANCH  17  18
ENDBRANCH  16  17
ENDBRANCH  15  16
ENDBRANCH  14  15
TORSDOF 11
ENDMDL
MODEL      346
REMARK 921   NORMALIZED FREE ENERGY PREDICTED BY IDOCK:   -4.59 KCAL/MOL
REMARK 922        TOTAL FREE ENERGY PREDICTED BY IDOCK:   -8.90 KCAL/MOL
REMARK 923 INTER-LIGAND FREE ENERGY PREDICTED BY IDOCK:   -7.20 KCAL/MOL
REMARK 924 INTRA-LIGAND FREE ENERGY PREDICTED BY IDOCK:   -1.70 KCAL/MOL
REMARK 927      BINDING AFFINITY PREDICTED BY RF-SCORE:    0.00 PKD
ROOT
HETATM    1  C   UNL     1      -7.982   7.008  64.971  1.00  0.00    -0.129 C  
HETATM    2  C   UNL     1      -8.360   6.875  66.429  1.00  0.00    -0.125 A  
HETATM    3  C   UNL     1      -9.709   6.930  66.757  1.00  0.00    -0.232 A  
HETATM    4  C   UNL     1     -10.141   6.802  68.068  1.00  0.00    -0.159 A  
HETATM    5  N   UNL     1     -11.519   6.726  68.291  1.00  0.00    -0.505 NA 
HETATM    6  C   UNL     1      -9.185   6.517  69.062  1.00  0.00    -0.130 A  
HETATM    7  H2  UNL     1     -11.910   5.967  67.733  1.00  0.00     0.000 HD 
HETATM    8  C   UNL     1      -9.554   6.245  70.400  1.00  0.00    -0.183 A  
HETATM    9  H1  UNL     1     -11.837   6.632  69.256  1.00  0.00     0.000 HD 
HETATM   10  C   UNL     1      -8.608   5.980  71.389  1.00  0.00    -0.129 A  
HETATM   11  C   UNL     1      -7.263   5.989  71.071  1.00  0.00    -0.074 A  
HETATM   12  C   UNL     1      -6.865   6.247  69.757  1.00  0.00    -0.065 A  
HETATM   13  C   UNL     1      -7.806   6.486  68.723  1.00  0.00    -0.110 A  
HETATM   14  N   UNL     1      -7.430   6.664  67.409  1.00  0.00    -0.094 NA 
ENDROOT
BRANCH  14  15
HETATM   15  C   UNL     1      -5.994   6.558  67.029  1.00  0.00    -0.024 C  
BRANCH  15  16
HETATM   16  C   UNL     1      -5.237   7.824  67.424  1.00  0.00    -0.031 C  
BRANCH  16  17
HETATM   17  C   UNL     1      -6.079   9.077  67.198  1.00  0.00    -0.058 C  
BRANCH  17  18
HETATM   18  C   UNL     1      -6.175   9.962  68.444  1.00  0.00    -0.050 C  
BRANCH  18  19
HETATM   19  C   UNL     1      -7.518   9.818  69.153  1.00  0.00    -0.082 C  
BRANCH  19  20
HETATM   20  C   UNL     1      -8.399  11.064  69.037  1.00  0.00    -0.089 C  
BRANCH  20  21
HETATM   21  C   UNL     1      -7.829  12.142  68.106  1.00  0.00    -0.147 C  
BRANCH  21  22
HETATM   22  C   UNL     1      -8.687  12.369  66.858  1.00  0.00    -0.191 C  
BRANCH  22  23
HETATM   23  C   UNL     1     -10.047  11.663  66.923  1.00  0.00    -0.238 C  
BRANCH  23  24
HETATM   24  C   UNL     1     -11.187  12.601  66.528  1.00  0.00    -0.296 C  
BRANCH  24  25
HETATM   25  N   UNL     1     -11.399  13.637  67.571  1.00  0.00    -0.294 NA 
HETATM   26  C   UNL     1     -11.883  13.284  68.803  1.00  0.00    -0.334 A  
HETATM   27  C   UNL     1     -12.011  14.252  69.802  1.00  0.00    -0.394 A  
HETATM   28  C   UNL     1     -12.250  11.878  69.221  1.00  0.00    -0.169 C  
HETATM   29  C   UNL     1     -11.685  15.580  69.575  1.00  0.00    -0.365 A  
HETATM   30  N   UNL     1     -11.707  16.446  70.671  1.00  0.00    -0.495 NA 
HETATM   31  C   UNL     1     -11.130  15.921  68.330  1.00  0.00    -0.345 A  
HETATM   32  H1  UNL     1     -11.467  17.423  70.504  1.00  0.00     0.000 HD 
HETATM   33  C   UNL     1     -11.026  14.938  67.308  1.00  0.00    -0.323 A  
HETATM   34  H2  UNL     1     -11.107  16.074  71.408  1.00  0.00     0.000 HD 
HETATM   35  C   UNL     1     -10.510  15.336  66.047  1.00  0.00    -0.328 A  
HETATM   36  C   UNL     1     -10.065  16.633  65.805  1.00  0.00    -0.301 A  
HETATM   37  C   UNL     1     -10.129  17.575  66.815  1.00  0.00    -0.320 A  
HETATM   38  C   UNL     1     -10.660  17.226  68.055  1.00  0.00    -0.394 A  
ENDBRANCH  24  25
ENDBRANCH  23  24
ENDBRANCH  22  23
ENDBRANCH  21  22
ENDBRANCH  20  21
ENDBRANCH  19  20
ENDBRANCH  18  19
ENDBRANCH  17  18
ENDBRANCH  16  17
ENDBRANCH  15  16
ENDBRANCH  14  15
TORSDOF 11
ENDMDL
MODEL      347
REMARK 921   NORMALIZED FREE ENERGY PREDICTED BY IDOCK:   -4.58 KCAL/MOL
REMARK 922        TOTAL FREE ENERGY PREDICTED BY IDOCK:   -8.87 KCAL/MOL
REMARK 923 INTER-LIGAND FREE ENERGY PREDICTED BY IDOCK:   -7.25 KCAL/MOL
REMARK 924 INTRA-LIGAND FREE ENERGY PREDICTED BY IDOCK:   -1.62 KCAL/MOL
REMARK 927      BINDING AFFINITY PREDICTED BY RF-SCORE:    0.00 PKD
ROOT
HETATM    1  C   UNL     1      -7.869  17.021  66.018  1.00  0.00    -0.167 C  
HETATM    2  C   UNL     1      -8.592  16.419  67.202  1.00  0.00    -0.181 A  
HETATM    3  C   UNL     1      -7.824  15.920  68.246  1.00  0.00    -0.138 A  
HETATM    4  C   UNL     1      -8.408  15.364  69.374  1.00  0.00    -0.250 A  
HETATM    5  N   UNL     1      -7.566  15.018  70.435  1.00  0.00    -0.021 NA 
HETATM    6  C   UNL     1      -9.811  15.400  69.486  1.00  0.00    -0.262 A  
HETATM    7  H2  UNL     1      -7.015  15.832  70.708  1.00  0.00     0.000 HD 
HETATM    8  C   UNL     1     -10.479  14.972  70.657  1.00  0.00     0.117 A  
HETATM    9  H1  UNL     1      -7.996  14.609  71.265  1.00  0.00     0.000 HD 
HETATM   10  C   UNL     1     -11.869  14.992  70.764  1.00  0.00    -0.372 A  
HETATM   11  C   UNL     1     -12.633  15.429  69.699  1.00  0.00    -0.071 A  
HETATM   12  C   UNL     1     -12.003  15.865  68.530  1.00  0.00    -0.051 A  
HETATM   13  C   UNL     1     -10.590  15.890  68.405  1.00  0.00    -0.266 A  
HETATM   14  N   UNL     1      -9.957  16.391  67.288  1.00  0.00    -0.253 NA 
ENDROOT
BRANCH  14  15
HETATM   15  C   UNL     1     -10.761  16.977  66.180  1.00  0.00    -0.099 C  
BRANCH  15  16
HETATM   16  C   UNL     1     -10.858  16.000  65.010  1.00  0.00    -0.421 C  
BRANCH  16  17
HETATM   17  C   UNL     1     -11.847  14.874  65.297  1.00  0.00    -0.217 C  
BRANCH  17  18
HETATM   18  C   UNL     1     -11.163  13.519  65.504  1.00  0.00    -0.304 C  
BRANCH  18  19
HETATM   19  C   UNL     1     -11.660  12.807  66.758  1.00  0.00    -0.431 C  
BRANCH  19  20
HETATM   20  C   UNL     1     -10.529  12.376  67.696  1.00  0.00    -0.229 C  
BRANCH  20  21
HETATM   21  C   UNL     1     -10.139  10.898  67.559  1.00  0.00    -0.214 C  
BRANCH  21  22
HETATM   22  C   UNL     1     -11.087   9.958  68.309  1.00  0.00    -0.207 C  
BRANCH  22  23
HETATM   23  C   UNL     1     -10.518   8.545  68.490  1.00  0.00    -0.205 C  
BRANCH  23  24
HETATM   24  C   UNL     1      -9.569   8.470  69.686  1.00  0.00    -0.170 C  
BRANCH  24  25
HETATM   25  N   UNL     1     -10.096   7.539  70.715  1.00  0.00    -0.193 NA 
HETATM   26  C   UNL     1     -10.944   7.997  71.688  1.00  0.00    -0.239 A  
HETATM   27  C   UNL     1     -11.494   7.100  72.609  1.00  0.00    -0.274 A  
HETATM   28  C   UNL     1     -11.411   9.428  71.830  1.00  0.00    -0.387 C  
HETATM   29  C   UNL     1     -11.181   5.750  72.585  1.00  0.00    -0.301 A  
HETATM   30  N   UNL     1     -11.888   4.909  73.449  1.00  0.00    -0.387 NA 
HETATM   31  C   UNL     1     -10.361   5.279  71.546  1.00  0.00    -0.287 A  
HETATM   32  H1  UNL     1     -11.658   3.915  73.432  1.00  0.00     0.000 HD 
HETATM   33  C   UNL     1      -9.784   6.198  70.627  1.00  0.00    -0.174 A  
HETATM   34  H2  UNL     1     -12.889   5.026  73.291  1.00  0.00     0.000 HD 
HETATM   35  C   UNL     1      -8.918   5.688  69.626  1.00  0.00    -0.135 A  
HETATM   36  C   UNL     1      -8.662   4.326  69.492  1.00  0.00    -0.121 A  
HETATM   37  C   UNL     1      -9.258   3.432  70.361  1.00  0.00    -0.221 A  
HETATM   38  C   UNL     1     -10.088   3.902  71.377  1.00  0.00    -0.124 A  
ENDBRANCH  24  25
ENDBRANCH  23  24
ENDBRANCH  22  23
ENDBRANCH  21  22
ENDBRANCH  20  21
ENDBRANCH  19  20
ENDBRANCH  18  19
ENDBRANCH  17  18
ENDBRANCH  16  17
ENDBRANCH  15  16
ENDBRANCH  14  15
TORSDOF 11
ENDMDL
MODEL      348
REMARK 921   NORMALIZED FREE ENERGY PREDICTED BY IDOCK:   -4.57 KCAL/MOL
REMARK 922        TOTAL FREE ENERGY PREDICTED BY IDOCK:   -8.86 KCAL/MOL
REMARK 923 INTER-LIGAND FREE ENERGY PREDICTED BY IDOCK:   -7.12 KCAL/MOL
REMARK 924 INTRA-LIGAND FREE ENERGY PREDICTED BY IDOCK:   -1.74 KCAL/MOL
REMARK 927      BINDING AFFINITY PREDICTED BY RF-SCORE:    0.00 PKD
ROOT
HETATM    1  C   UNL     1      -7.252   8.822  69.533  1.00  0.00    -0.059 C  
HETATM    2  C   UNL     1      -7.908   7.841  68.588  1.00  0.00    -0.120 A  
HETATM    3  C   UNL     1      -8.264   8.296  67.325  1.00  0.00    -0.120 A  
HETATM    4  C   UNL     1      -8.857   7.456  66.394  1.00  0.00    -0.156 A  
HETATM    5  N   UNL     1      -9.052   7.957  65.102  1.00  0.00    -0.329 NA 
HETATM    6  C   UNL     1      -9.006   6.095  66.721  1.00  0.00    -0.125 A  
HETATM    7  H2  UNL     1      -8.162   8.294  64.734  1.00  0.00     0.000 HD 
HETATM    8  C   UNL     1      -9.482   5.148  65.784  1.00  0.00    -0.153 A  
HETATM    9  H1  UNL     1      -9.487   7.340  64.418  1.00  0.00     0.000 HD 
HETATM   10  C   UNL     1      -9.647   3.803  66.111  1.00  0.00    -0.171 A  
HETATM   11  C   UNL     1      -9.351   3.367  67.389  1.00  0.00    -0.243 A  
HETATM   12  C   UNL     1      -8.872   4.276  68.336  1.00  0.00    -0.135 A  
HETATM   13  C   UNL     1      -8.662   5.643  68.022  1.00  0.00    -0.099 A  
HETATM   14  N   UNL     1      -8.116   6.531  68.924  1.00  0.00    -0.114 NA 
ENDROOT
BRANCH  14  15
HETATM   15  C   UNL     1      -7.680   6.052  70.265  1.00  0.00    -0.097 C  
BRANCH  15  16
HETATM   16  C   UNL     1      -8.870   5.514  71.057  1.00  0.00    -0.148 C  
BRANCH  16  17
HETATM   17  C   UNL     1      -9.770   6.641  71.555  1.00  0.00    -0.172 C  
BRANCH  17  18
HETATM   18  C   UNL     1     -11.020   6.831  70.691  1.00  0.00    -0.313 C  
BRANCH  18  19
HETATM   19  C   UNL     1     -10.976   8.126  69.887  1.00  0.00    -0.168 C  
BRANCH  19  20
HETATM   20  C   UNL     1     -11.749   9.272  70.544  1.00  0.00    -0.225 C  
BRANCH  20  21
HETATM   21  C   UNL     1     -11.441  10.651  69.947  1.00  0.00    -0.393 C  
BRANCH  21  22
HETATM   22  C   UNL     1     -10.449  10.590  68.782  1.00  0.00    -0.216 C  
BRANCH  22  23
HETATM   23  C   UNL     1     -11.113  10.779  67.413  1.00  0.00    -0.363 C  
BRANCH  23  24
HETATM   24  C   UNL     1     -10.133  11.348  66.386  1.00  0.00    -0.218 C  
BRANCH  24  25
HETATM   25  N   UNL     1     -10.176  12.833  66.389  1.00  0.00    -0.249 NA 
HETATM   26  C   UNL     1     -11.250  13.491  65.851  1.00  0.00    -0.300 A  
HETATM   27  C   UNL     1     -11.316  14.885  65.923  1.00  0.00    -0.306 A  
HETATM   28  C   UNL     1     -12.448  12.824  65.215  1.00  0.00    -0.528 C  
HETATM   29  C   UNL     1     -10.304  15.633  66.504  1.00  0.00    -0.291 A  
HETATM   30  N   UNL     1     -10.524  17.005  66.660  1.00  0.00    -0.288 NA 
HETATM   31  C   UNL     1      -9.238  14.947  67.108  1.00  0.00    -0.231 A  
HETATM   32  H1  UNL     1      -9.780  17.555  67.088  1.00  0.00     0.000 HD 
HETATM   33  C   UNL     1      -9.162  13.530  67.011  1.00  0.00    -0.246 A  
HETATM   34  H2  UNL     1     -11.391  17.151  67.178  1.00  0.00     0.000 HD 
HETATM   35  C   UNL     1      -8.041  12.879  67.589  1.00  0.00    -0.167 A  
HETATM   36  C   UNL     1      -7.055  13.578  68.281  1.00  0.00    -0.110 A  
HETATM   37  C   UNL     1      -7.155  14.950  68.410  1.00  0.00    -0.113 A  
HETATM   38  C   UNL     1      -8.226  15.624  67.826  1.00  0.00    -0.155 A  
ENDBRANCH  24  25
ENDBRANCH  23  24
ENDBRANCH  22  23
ENDBRANCH  21  22
ENDBRANCH  20  21
ENDBRANCH  19  20
ENDBRANCH  18  19
ENDBRANCH  17  18
ENDBRANCH  16  17
ENDBRANCH  15  16
ENDBRANCH  14  15
TORSDOF 11
ENDMDL
MODEL      349
REMARK 921   NORMALIZED FREE ENERGY PREDICTED BY IDOCK:   -4.55 KCAL/MOL
REMARK 922        TOTAL FREE ENERGY PREDICTED BY IDOCK:   -8.83 KCAL/MOL
REMARK 923 INTER-LIGAND FREE ENERGY PREDICTED BY IDOCK:   -6.59 KCAL/MOL
REMARK 924 INTRA-LIGAND FREE ENERGY PREDICTED BY IDOCK:   -2.24 KCAL/MOL
REMARK 927      BINDING AFFINITY PREDICTED BY RF-SCORE:    0.00 PKD
ROOT
HETATM    1  C   UNL     1      -5.891   7.956  70.843  1.00  0.00    -0.034 C  
HETATM    2  C   UNL     1      -6.653   6.685  70.545  1.00  0.00    -0.052 A  
HETATM    3  C   UNL     1      -6.358   6.014  69.365  1.00  0.00    -0.041 A  
HETATM    4  C   UNL     1      -7.001   4.833  69.024  1.00  0.00    -0.052 A  
HETATM    5  N   UNL     1      -6.543   4.151  67.891  1.00  0.00    -0.042 NA 
HETATM    6  C   UNL     1      -7.899   4.269  69.950  1.00  0.00    -0.052 A  
HETATM    7  H2  UNL     1      -5.543   3.975  67.985  1.00  0.00     0.000 HD 
HETATM    8  C   UNL     1      -8.498   3.006  69.737  1.00  0.00    -0.097 A  
HETATM    9  H1  UNL     1      -7.016   3.283  67.641  1.00  0.00     0.000 HD 
HETATM   10  C   UNL     1      -9.400   2.454  70.645  1.00  0.00    -0.209 A  
HETATM   11  C   UNL     1      -9.739   3.153  71.787  1.00  0.00    -0.234 A  
HETATM   12  C   UNL     1      -9.160   4.401  72.031  1.00  0.00    -0.159 A  
HETATM   13  C   UNL     1      -8.212   4.972  71.142  1.00  0.00    -0.114 A  
HETATM   14  N   UNL     1      -7.576   6.165  71.411  1.00  0.00    -0.097 NA 
ENDROOT
BRANCH  14  15
HETATM   15  C   UNL     1      -7.839   6.874  72.694  1.00  0.00    -0.098 C  
BRANCH  15  16
HETATM   16  C   UNL     1      -8.936   7.921  72.515  1.00  0.00    -0.231 C  
BRANCH  16  17
HETATM   17  C   UNL     1     -10.159   7.606  73.372  1.00  0.00    -0.379 C  
BRANCH  17  18
HETATM   18  C   UNL     1     -11.438   7.440  72.545  1.00  0.00    -0.346 C  
BRANCH  18  19
HETATM   19  C   UNL     1     -11.290   7.998  71.133  1.00  0.00    -0.292 C  
BRANCH  19  20
HETATM   20  C   UNL     1     -11.215   6.911  70.059  1.00  0.00    -0.347 C  
BRANCH  20  21
HETATM   21  C   UNL     1     -10.058   7.097  69.068  1.00  0.00    -0.183 C  
BRANCH  21  22
HETATM   22  C   UNL     1     -10.533   7.382  67.641  1.00  0.00    -0.310 C  
BRANCH  22  23
HETATM   23  C   UNL     1     -10.992   8.831  67.436  1.00  0.00     0.094 C  
BRANCH  23  24
HETATM   24  C   UNL     1      -9.829   9.814  67.571  1.00  0.00    -0.167 C  
BRANCH  24  25
HETATM   25  N   UNL     1      -9.420  10.328  66.239  1.00  0.00    -0.170 NA 
HETATM   26  C   UNL     1      -8.369   9.755  65.574  1.00  0.00    -0.136 A  
HETATM   27  C   UNL     1      -8.037  10.196  64.290  1.00  0.00    -0.159 A  
HETATM   28  C   UNL     1      -7.538   8.603  66.091  1.00  0.00    -0.093 C  
HETATM   29  C   UNL     1      -8.729  11.226  63.673  1.00  0.00     0.230 A  
HETATM   30  N   UNL     1      -8.421  11.501  62.337  1.00  0.00    -0.605 NA 
HETATM   31  C   UNL     1      -9.844  11.765  64.336  1.00  0.00    -0.227 A  
HETATM   32  H1  UNL     1      -8.930  12.259  61.883  1.00  0.00     0.000 HD 
HETATM   33  C   UNL     1     -10.163  11.331  65.652  1.00  0.00    -0.253 A  
HETATM   34  H2  UNL     1      -8.522  10.649  61.785  1.00  0.00     0.000 HD 
HETATM   35  C   UNL     1     -11.264  11.938  66.308  1.00  0.00    -0.392 A  
HETATM   36  C   UNL     1     -12.059  12.899  65.686  1.00  0.00    -0.511 A  
HETATM   37  C   UNL     1     -11.771  13.287  64.392  1.00  0.00    -0.433 A  
HETATM   38  C   UNL     1     -10.676  12.734  63.730  1.00  0.00    -0.397 A  
ENDBRANCH  24  25
ENDBRANCH  23  24
ENDBRANCH  22  23
ENDBRANCH  21  22
ENDBRANCH  20  21
ENDBRANCH  19  20
ENDBRANCH  18  19
ENDBRANCH  17  18
ENDBRANCH  16  17
ENDBRANCH  15  16
ENDBRANCH  14  15
TORSDOF 11
ENDMDL
MODEL      350
REMARK 921   NORMALIZED FREE ENERGY PREDICTED BY IDOCK:   -4.54 KCAL/MOL
REMARK 922        TOTAL FREE ENERGY PREDICTED BY IDOCK:   -8.81 KCAL/MOL
REMARK 923 INTER-LIGAND FREE ENERGY PREDICTED BY IDOCK:   -7.63 KCAL/MOL
REMARK 924 INTRA-LIGAND FREE ENERGY PREDICTED BY IDOCK:   -1.18 KCAL/MOL
REMARK 927      BINDING AFFINITY PREDICTED BY RF-SCORE:    0.00 PKD
ROOT
HETATM    1  C   UNL     1      -9.447   2.875  67.875  1.00  0.00    -0.203 C  
HETATM    2  C   UNL     1      -9.054   3.692  66.665  1.00  0.00    -0.162 A  
HETATM    3  C   UNL     1      -9.016   3.050  65.434  1.00  0.00    -0.143 A  
HETATM    4  C   UNL     1      -8.679   3.730  64.273  1.00  0.00    -0.107 A  
HETATM    5  N   UNL     1      -8.804   3.043  63.061  1.00  0.00    -0.092 NA 
HETATM    6  C   UNL     1      -8.465   5.119  64.350  1.00  0.00    -0.138 A  
HETATM    7  H2  UNL     1      -9.754   2.680  62.975  1.00  0.00     0.000 HD 
HETATM    8  C   UNL     1      -8.244   5.908  63.197  1.00  0.00    -0.064 A  
HETATM    9  H1  UNL     1      -8.556   3.543  62.207  1.00  0.00     0.000 HD 
HETATM   10  C   UNL     1      -8.016   7.281  63.273  1.00  0.00    -0.074 A  
HETATM   11  C   UNL     1      -7.991   7.905  64.505  1.00  0.00    -0.140 A  
HETATM   12  C   UNL     1      -8.213   7.156  65.664  1.00  0.00    -0.138 A  
HETATM   13  C   UNL     1      -8.483   5.764  65.615  1.00  0.00    -0.149 A  
HETATM   14  N   UNL     1      -8.781   5.030  66.743  1.00  0.00    -0.109 NA 
ENDROOT
BRANCH  14  15
HETATM   15  C   UNL     1      -8.877   5.709  68.065  1.00  0.00    -0.105 C  
BRANCH  15  16
HETATM   16  C   UNL     1     -10.174   6.510  68.166  1.00  0.00    -0.194 C  
BRANCH  16  17
HETATM   17  C   UNL     1     -10.177   7.424  69.388  1.00  0.00    -0.201 C  
BRANCH  17  18
HETATM   18  C   UNL     1     -10.403   8.896  69.029  1.00  0.00    -0.226 C  
BRANCH  18  19
HETATM   19  C   UNL     1     -10.009   9.207  67.588  1.00  0.00    -0.245 C  
BRANCH  19  20
HETATM   20  C   UNL     1     -11.020  10.099  66.865  1.00  0.00    -0.106 C  
BRANCH  20  21
HETATM   21  C   UNL     1     -10.380  11.111  65.905  1.00  0.00    -0.314 C  
BRANCH  21  22
HETATM   22  C   UNL     1     -11.405  12.034  65.240  1.00  0.00    -0.366 C  
BRANCH  22  23
HETATM   23  C   UNL     1     -11.487  13.418  65.896  1.00  0.00    -0.344 C  
BRANCH  23  24
HETATM   24  C   UNL     1     -10.309  13.663  66.840  1.00  0.00    -0.262 C  
BRANCH  24  25
HETATM   25  N   UNL     1     -10.739  14.462  68.016  1.00  0.00    -0.239 NA 
HETATM   26  C   UNL     1     -11.354  13.851  69.076  1.00  0.00    -0.283 A  
HETATM   27  C   UNL     1     -11.689  14.597  70.209  1.00  0.00    -0.355 A  
HETATM   28  C   UNL     1     -11.662  12.374  69.166  1.00  0.00    -0.376 C  
HETATM   29  C   UNL     1     -11.440  15.958  70.284  1.00  0.00    -0.366 A  
HETATM   30  N   UNL     1     -11.675  16.591  71.508  1.00  0.00    -0.634 NA 
HETATM   31  C   UNL     1     -10.753  16.564  69.219  1.00  0.00    -0.331 A  
HETATM   32  H1  UNL     1     -11.492  17.593  71.563  1.00  0.00     0.000 HD 
HETATM   33  C   UNL     1     -10.436  15.808  68.058  1.00  0.00    -0.270 A  
HETATM   34  H2  UNL     1     -11.152  16.112  72.241  1.00  0.00     0.000 HD 
HETATM   35  C   UNL     1      -9.790  16.470  66.983  1.00  0.00    -0.259 A  
HETATM   36  C   UNL     1      -9.420  17.811  67.055  1.00  0.00    -0.271 A  
HETATM   37  C   UNL     1      -9.691  18.532  68.202  1.00  0.00    -0.367 A  
HETATM   38  C   UNL     1     -10.354  17.920  69.264  1.00  0.00    -0.001 A  
ENDBRANCH  24  25
ENDBRANCH  23  24
ENDBRANCH  22  23
ENDBRANCH  21  22
ENDBRANCH  20  21
ENDBRANCH  19  20
ENDBRANCH  18  19
ENDBRANCH  17  18
ENDBRANCH  16  17
ENDBRANCH  15  16
ENDBRANCH  14  15
TORSDOF 11
ENDMDL
MODEL      351
REMARK 921   NORMALIZED FREE ENERGY PREDICTED BY IDOCK:   -4.53 KCAL/MOL
REMARK 922        TOTAL FREE ENERGY PREDICTED BY IDOCK:   -8.80 KCAL/MOL
REMARK 923 INTER-LIGAND FREE ENERGY PREDICTED BY IDOCK:   -7.86 KCAL/MOL
REMARK 924 INTRA-LIGAND FREE ENERGY PREDICTED BY IDOCK:   -0.94 KCAL/MOL
REMARK 927      BINDING AFFINITY PREDICTED BY RF-SCORE:    0.00 PKD
ROOT
HETATM    1  C   UNL     1      -8.602   8.017  73.888  1.00  0.00    -0.324 C  
HETATM    2  C   UNL     1      -9.303   7.454  72.672  1.00  0.00    -0.150 A  
HETATM    3  C   UNL     1     -10.692   7.481  72.654  1.00  0.00    -0.354 A  
HETATM    4  C   UNL     1     -11.412   6.998  71.572  1.00  0.00    -0.271 A  
HETATM    5  N   UNL     1     -12.797   7.194  71.576  1.00  0.00    -0.386 NA 
HETATM    6  C   UNL     1     -10.701   6.562  70.437  1.00  0.00    -0.306 A  
HETATM    7  H2  UNL     1     -12.997   8.187  71.697  1.00  0.00     0.000 HD 
HETATM    8  C   UNL     1     -11.357   6.176  69.246  1.00  0.00    -0.361 A  
HETATM    9  H1  UNL     1     -13.326   6.839  70.780  1.00  0.00     0.000 HD 
HETATM   10  C   UNL     1     -10.655   5.728  68.127  1.00  0.00    -0.286 A  
HETATM   11  C   UNL     1      -9.277   5.643  68.171  1.00  0.00    -0.114 A  
HETATM   12  C   UNL     1      -8.597   6.024  69.332  1.00  0.00    -0.122 A  
HETATM   13  C   UNL     1      -9.282   6.516  70.472  1.00  0.00    -0.155 A  
HETATM   14  N   UNL     1      -8.619   6.968  71.592  1.00  0.00    -0.116 NA 
ENDROOT
BRANCH  14  15
HETATM   15  C   UNL     1      -7.130   6.996  71.611  1.00  0.00    -0.070 C  
BRANCH  15  16
HETATM   16  C   UNL     1      -6.614   8.410  71.352  1.00  0.00    -0.060 C  
BRANCH  16  17
HETATM   17  C   UNL     1      -6.768   8.805  69.885  1.00  0.00    -0.045 C  
BRANCH  17  18
HETATM   18  C   UNL     1      -7.613  10.068  69.695  1.00  0.00    -0.147 C  
BRANCH  18  19
HETATM   19  C   UNL     1      -9.087   9.748  69.465  1.00  0.00    -0.227 C  
BRANCH  19  20
HETATM   20  C   UNL     1      -9.562  10.074  68.047  1.00  0.00    -0.154 C  
BRANCH  20  21
HETATM   21  C   UNL     1      -9.754  11.574  67.787  1.00  0.00    -0.180 C  
BRANCH  21  22
HETATM   22  C   UNL     1      -8.449  12.369  67.883  1.00  0.00    -0.166 C  
BRANCH  22  23
HETATM   23  C   UNL     1      -8.656  13.817  68.345  1.00  0.00    -0.156 C  
BRANCH  23  24
HETATM   24  C   UNL     1      -8.412  14.810  67.208  1.00  0.00    -0.214 C  
BRANCH  24  25
HETATM   25  N   UNL     1      -8.900  16.162  67.581  1.00  0.00    -0.185 NA 
HETATM   26  C   UNL     1     -10.244  16.424  67.614  1.00  0.00    -0.272 A  
HETATM   27  C   UNL     1     -10.697  17.677  68.036  1.00  0.00    -0.333 A  
HETATM   28  C   UNL     1     -11.330  15.427  67.282  1.00  0.00    -0.220 C  
HETATM   29  C   UNL     1      -9.817  18.684  68.400  1.00  0.00    -0.384 A  
HETATM   30  N   UNL     1     -10.362  19.850  68.945  1.00  0.00    -0.586 NA 
HETATM   31  C   UNL     1      -8.444  18.387  68.423  1.00  0.00    -0.345 A  
HETATM   32  H1  UNL     1      -9.715  20.592  69.213  1.00  0.00     0.000 HD 
HETATM   33  C   UNL     1      -7.986  17.120  67.970  1.00  0.00    -0.212 A  
HETATM   34  H2  UNL     1     -10.946  19.608  69.745  1.00  0.00     0.000 HD 
HETATM   35  C   UNL     1      -6.588  16.878  67.958  1.00  0.00    -0.151 A  
HETATM   36  C   UNL     1      -5.671  17.819  68.420  1.00  0.00    -0.160 A  
HETATM   37  C   UNL     1      -6.123  19.034  68.900  1.00  0.00    -0.251 A  
HETATM   38  C   UNL     1      -7.488  19.315  68.895  1.00  0.00    -0.397 A  
ENDBRANCH  24  25
ENDBRANCH  23  24
ENDBRANCH  22  23
ENDBRANCH  21  22
ENDBRANCH  20  21
ENDBRANCH  19  20
ENDBRANCH  18  19
ENDBRANCH  17  18
ENDBRANCH  16  17
ENDBRANCH  15  16
ENDBRANCH  14  15
TORSDOF 11
ENDMDL
MODEL      352
REMARK 921   NORMALIZED FREE ENERGY PREDICTED BY IDOCK:   -4.51 KCAL/MOL
REMARK 922        TOTAL FREE ENERGY PREDICTED BY IDOCK:   -8.76 KCAL/MOL
REMARK 923 INTER-LIGAND FREE ENERGY PREDICTED BY IDOCK:   -6.37 KCAL/MOL
REMARK 924 INTRA-LIGAND FREE ENERGY PREDICTED BY IDOCK:   -2.39 KCAL/MOL
REMARK 927      BINDING AFFINITY PREDICTED BY RF-SCORE:    0.00 PKD
ROOT
HETATM    1  C   UNL     1      -7.901   9.592  71.063  1.00  0.00     0.258 C  
HETATM    2  C   UNL     1      -8.583   9.681  69.716  1.00  0.00    -0.199 A  
HETATM    3  C   UNL     1      -9.948   9.937  69.697  1.00  0.00    -0.255 A  
HETATM    4  C   UNL     1     -10.647  10.048  68.504  1.00  0.00    -0.215 A  
HETATM    5  N   UNL     1     -11.986  10.447  68.573  1.00  0.00    -0.759 NA 
HETATM    6  C   UNL     1      -9.923   9.990  67.298  1.00  0.00    -0.245 A  
HETATM    7  H2  UNL     1     -12.048  11.328  69.083  1.00  0.00     0.000 HD 
HETATM    8  C   UNL     1     -10.537  10.220  66.045  1.00  0.00    -0.111 A  
HETATM    9  H1  UNL     1     -12.499  10.529  67.696  1.00  0.00     0.000 HD 
HETATM   10  C   UNL     1      -9.826  10.147  64.848  1.00  0.00    -0.390 A  
HETATM   11  C   UNL     1      -8.481   9.829  64.868  1.00  0.00    -0.165 A  
HETATM   12  C   UNL     1      -7.843   9.601  66.090  1.00  0.00    -0.101 A  
HETATM   13  C   UNL     1      -8.533   9.704  67.325  1.00  0.00    -0.132 A  
HETATM   14  N   UNL     1      -7.897   9.559  68.539  1.00  0.00    -0.085 NA 
ENDROOT
BRANCH  14  15
HETATM   15  C   UNL     1      -6.425   9.336  68.583  1.00  0.00    -0.053 C  
BRANCH  15  16
HETATM   16  C   UNL     1      -5.681  10.665  68.690  1.00  0.00    -0.040 C  
BRANCH  16  17
HETATM   17  C   UNL     1      -6.314  11.737  67.807  1.00  0.00    -0.067 C  
BRANCH  17  18
HETATM   18  C   UNL     1      -6.956  12.870  68.613  1.00  0.00    -0.101 C  
BRANCH  18  19
HETATM   19  C   UNL     1      -8.130  13.509  67.877  1.00  0.00    -0.165 C  
BRANCH  19  20
HETATM   20  C   UNL     1      -7.719  14.695  67.002  1.00  0.00     0.006 C  
BRANCH  20  21
HETATM   21  C   UNL     1      -6.689  15.624  67.659  1.00  0.00    -0.204 C  
BRANCH  21  22
HETATM   22  C   UNL     1      -7.185  17.067  67.793  1.00  0.00    -0.165 C  
BRANCH  22  23
HETATM   23  C   UNL     1      -8.153  17.266  68.965  1.00  0.00    -0.102 C  
BRANCH  23  24
HETATM   24  C   UNL     1      -9.491  17.840  68.498  1.00  0.00    -0.304 C  
BRANCH  24  25
HETATM   25  N   UNL     1     -10.365  16.763  67.965  1.00  0.00    -0.302 NA 
HETATM   26  C   UNL     1     -10.552  16.634  66.615  1.00  0.00    -0.203 A  
HETATM   27  C   UNL     1     -11.316  15.575  66.118  1.00  0.00    -0.010 A  
HETATM   28  C   UNL     1      -9.936  17.529  65.564  1.00  0.00     0.245 C  
HETATM   29  C   UNL     1     -11.921  14.656  66.961  1.00  0.00    -0.276 A  
HETATM   30  N   UNL     1     -12.543  13.552  66.371  1.00  0.00    -0.278 NA 
HETATM   31  C   UNL     1     -11.672  14.759  68.339  1.00  0.00    -0.343 A  
HETATM   32  H1  UNL     1     -12.988  12.875  66.991  1.00  0.00     0.000 HD 
HETATM   33  C   UNL     1     -10.915  15.852  68.843  1.00  0.00    -0.290 A  
HETATM   34  H2  UNL     1     -11.874  13.069  65.770  1.00  0.00     0.000 HD 
HETATM   35  C   UNL     1     -10.731  15.950  70.246  1.00  0.00    -0.313 A  
HETATM   36  C   UNL     1     -11.225  14.989  71.125  1.00  0.00    -0.267 A  
HETATM   37  C   UNL     1     -11.924  13.905  70.629  1.00  0.00    -0.364 A  
HETATM   38  C   UNL     1     -12.150  13.796  69.258  1.00  0.00    -0.374 A  
ENDBRANCH  24  25
ENDBRANCH  23  24
ENDBRANCH  22  23
ENDBRANCH  21  22
ENDBRANCH  20  21
ENDBRANCH  19  20
ENDBRANCH  18  19
ENDBRANCH  17  18
ENDBRANCH  16  17
ENDBRANCH  15  16
ENDBRANCH  14  15
TORSDOF 11
ENDMDL
MODEL      353
REMARK 921   NORMALIZED FREE ENERGY PREDICTED BY IDOCK:   -4.50 KCAL/MOL
REMARK 922        TOTAL FREE ENERGY PREDICTED BY IDOCK:   -8.75 KCAL/MOL
REMARK 923 INTER-LIGAND FREE ENERGY PREDICTED BY IDOCK:   -6.81 KCAL/MOL
REMARK 924 INTRA-LIGAND FREE ENERGY PREDICTED BY IDOCK:   -1.94 KCAL/MOL
REMARK 927      BINDING AFFINITY PREDICTED BY RF-SCORE:    0.00 PKD
ROOT
HETATM    1  C   UNL     1      -9.870   8.414  72.605  1.00  0.00    -0.329 C  
HETATM    2  C   UNL     1      -9.783   6.959  72.201  1.00  0.00    -0.148 A  
HETATM    3  C   UNL     1     -10.357   6.017  73.045  1.00  0.00    -0.224 A  
HETATM    4  C   UNL     1     -10.334   4.664  72.742  1.00  0.00    -0.189 A  
HETATM    5  N   UNL     1     -11.057   3.802  73.572  1.00  0.00    -0.242 NA 
HETATM    6  C   UNL     1      -9.795   4.266  71.503  1.00  0.00    -0.260 A  
HETATM    7  H2  UNL     1     -12.025   4.118  73.625  1.00  0.00     0.000 HD 
HETATM    8  C   UNL     1      -9.848   2.924  71.061  1.00  0.00    -0.062 A  
HETATM    9  H1  UNL     1     -11.040   2.807  73.349  1.00  0.00     0.000 HD 
HETATM   10  C   UNL     1      -9.300   2.525  69.842  1.00  0.00    -0.182 A  
HETATM   11  C   UNL     1      -8.674   3.455  69.035  1.00  0.00    -0.142 A  
HETATM   12  C   UNL     1      -8.610   4.791  69.440  1.00  0.00    -0.099 A  
HETATM   13  C   UNL     1      -9.189   5.232  70.657  1.00  0.00    -0.148 A  
HETATM   14  N   UNL     1      -9.202   6.559  71.029  1.00  0.00    -0.160 NA 
ENDROOT
BRANCH  14  15
HETATM   15  C   UNL     1      -8.638   7.591  70.116  1.00  0.00    -0.141 C  
BRANCH  15  16
HETATM   16  C   UNL     1      -7.137   7.754  70.349  1.00  0.00    -0.050 C  
BRANCH  16  17
HETATM   17  C   UNL     1      -6.718   9.221  70.309  1.00  0.00    -0.066 C  
BRANCH  17  18
HETATM   18  C   UNL     1      -7.635  10.079  69.434  1.00  0.00    -0.123 C  
BRANCH  18  19
HETATM   19  C   UNL     1      -7.149  11.521  69.327  1.00  0.00    -0.077 C  
BRANCH  19  20
HETATM   20  C   UNL     1      -6.576  11.865  67.950  1.00  0.00    -0.075 C  
BRANCH  20  21
HETATM   21  C   UNL     1      -7.338  12.980  67.222  1.00  0.00    -0.067 C  
BRANCH  21  22
HETATM   22  C   UNL     1      -7.874  14.056  68.172  1.00  0.00    -0.144 C  
BRANCH  22  23
HETATM   23  C   UNL     1      -9.144  14.741  67.652  1.00  0.00    -0.185 C  
BRANCH  23  24
HETATM   24  C   UNL     1     -10.059  13.755  66.926  1.00  0.00    -0.260 C  
BRANCH  24  25
HETATM   25  N   UNL     1     -10.666  12.799  67.887  1.00  0.00    -0.215 NA 
HETATM   26  C   UNL     1     -11.402  13.260  68.945  1.00  0.00    -0.288 A  
HETATM   27  C   UNL     1     -12.030  12.353  69.803  1.00  0.00    -0.359 A  
HETATM   28  C   UNL     1     -11.663  14.718  69.252  1.00  0.00    -0.347 C  
HETATM   29  C   UNL     1     -11.906  10.983  69.630  1.00  0.00    -0.342 A  
HETATM   30  N   UNL     1     -12.685  10.157  70.445  1.00  0.00    -0.544 NA 
HETATM   31  C   UNL     1     -11.202  10.520  68.507  1.00  0.00    -0.332 A  
HETATM   32  H1  UNL     1     -12.594   9.149  70.318  1.00  0.00     0.000 HD 
HETATM   33  C   UNL     1     -10.544  11.445  67.651  1.00  0.00    -0.202 A  
HETATM   34  H2  UNL     1     -13.666  10.421  70.354  1.00  0.00     0.000 HD 
HETATM   35  C   UNL     1      -9.797  10.933  66.559  1.00  0.00    -0.245 A  
HETATM   36  C   UNL     1      -9.735   9.570  66.279  1.00  0.00    -0.310 A  
HETATM   37  C   UNL     1     -10.412   8.677  67.088  1.00  0.00    -0.360 A  
HETATM   38  C   UNL     1     -11.127   9.144  68.188  1.00  0.00     0.106 A  
ENDBRANCH  24  25
ENDBRANCH  23  24
ENDBRANCH  22  23
ENDBRANCH  21  22
ENDBRANCH  20  21
ENDBRANCH  19  20
ENDBRANCH  18  19
ENDBRANCH  17  18
ENDBRANCH  16  17
ENDBRANCH  15  16
ENDBRANCH  14  15
TORSDOF 11
ENDMDL
MODEL      354
REMARK 921   NORMALIZED FREE ENERGY PREDICTED BY IDOCK:   -4.50 KCAL/MOL
REMARK 922        TOTAL FREE ENERGY PREDICTED BY IDOCK:   -8.75 KCAL/MOL
REMARK 923 INTER-LIGAND FREE ENERGY PREDICTED BY IDOCK:   -5.89 KCAL/MOL
REMARK 924 INTRA-LIGAND FREE ENERGY PREDICTED BY IDOCK:   -2.85 KCAL/MOL
REMARK 927      BINDING AFFINITY PREDICTED BY RF-SCORE:    0.00 PKD
ROOT
HETATM    1  C   UNL     1     -10.641   6.943  73.826  1.00  0.00    -0.333 C  
HETATM    2  C   UNL     1     -10.806   7.909  72.675  1.00  0.00    -0.364 A  
HETATM    3  C   UNL     1     -12.056   8.486  72.486  1.00  0.00    -0.395 A  
HETATM    4  C   UNL     1     -12.288   9.392  71.463  1.00  0.00    -0.370 A  
HETATM    5  N   UNL     1     -13.532  10.031  71.434  1.00  0.00    -0.321 NA 
HETATM    6  C   UNL     1     -11.199   9.795  70.667  1.00  0.00    -0.402 A  
HETATM    7  H2  UNL     1     -13.699  10.486  72.331  1.00  0.00     0.000 HD 
HETATM    8  C   UNL     1     -11.321  10.808  69.688  1.00  0.00    -0.362 A  
HETATM    9  H1  UNL     1     -13.703  10.697  70.681  1.00  0.00     0.000 HD 
HETATM   10  C   UNL     1     -10.248  11.196  68.887  1.00  0.00    -0.209 A  
HETATM   11  C   UNL     1      -9.022  10.575  69.034  1.00  0.00    -0.183 A  
HETATM   12  C   UNL     1      -8.866   9.575  69.998  1.00  0.00    -0.246 A  
HETATM   13  C   UNL     1      -9.931   9.184  70.851  1.00  0.00    -0.288 A  
HETATM   14  N   UNL     1      -9.767   8.255  71.856  1.00  0.00    -0.207 NA 
ENDROOT
BRANCH  14  15
HETATM   15  C   UNL     1      -8.424   7.663  72.107  1.00  0.00    -0.114 C  
BRANCH  15  16
HETATM   16  C   UNL     1      -8.438   6.160  71.836  1.00  0.00    -0.129 C  
BRANCH  16  17
HETATM   17  C   UNL     1      -8.392   5.857  70.341  1.00  0.00    -0.123 C  
BRANCH  17  18
HETATM   18  C   UNL     1      -9.711   5.293  69.806  1.00  0.00    -0.257 C  
BRANCH  18  19
HETATM   19  C   UNL     1      -9.595   4.824  68.359  1.00  0.00    -0.210 C  
BRANCH  19  20
HETATM   20  C   UNL     1      -9.423   3.309  68.227  1.00  0.00    -0.214 C  
BRANCH  20  21
HETATM   21  C   UNL     1      -8.301   2.734  69.101  1.00  0.00    -0.086 C  
BRANCH  21  22
HETATM   22  C   UNL     1      -7.042   2.383  68.302  1.00  0.00    -0.047 C  
BRANCH  22  23
HETATM   23  C   UNL     1      -7.253   2.444  66.784  1.00  0.00    -0.056 C  
BRANCH  23  24
HETATM   24  C   UNL     1      -6.261   3.396  66.116  1.00  0.00    -0.028 C  
BRANCH  24  25
HETATM   25  N   UNL     1      -6.877   4.731  65.906  1.00  0.00    -0.060 NA 
HETATM   26  C   UNL     1      -7.810   4.911  64.920  1.00  0.00    -0.089 A  
HETATM   27  C   UNL     1      -8.437   6.152  64.776  1.00  0.00    -0.007 A  
HETATM   28  C   UNL     1      -8.289   3.836  63.972  1.00  0.00    -0.091 C  
HETATM   29  C   UNL     1      -8.121   7.226  65.593  1.00  0.00    -0.133 A  
HETATM   30  N   UNL     1      -8.901   8.380  65.471  1.00  0.00    -0.291 NA 
HETATM   31  C   UNL     1      -7.210   7.015  66.641  1.00  0.00    -0.083 A  
HETATM   32  H1  UNL     1      -8.669   9.171  66.072  1.00  0.00     0.000 HD 
HETATM   33  C   UNL     1      -6.555   5.759  66.768  1.00  0.00    -0.056 A  
HETATM   34  H2  UNL     1      -9.884   8.138  65.598  1.00  0.00     0.000 HD 
HETATM   35  C   UNL     1      -5.602   5.604  67.807  1.00  0.00    -0.012 A  
HETATM   36  C   UNL     1      -5.332   6.619  68.722  1.00  0.00    -0.016 A  
HETATM   37  C   UNL     1      -6.002   7.823  68.621  1.00  0.00    -0.035 A  
HETATM   38  C   UNL     1      -6.921   8.020  67.592  1.00  0.00    -0.075 A  
ENDBRANCH  24  25
ENDBRANCH  23  24
ENDBRANCH  22  23
ENDBRANCH  21  22
ENDBRANCH  20  21
ENDBRANCH  19  20
ENDBRANCH  18  19
ENDBRANCH  17  18
ENDBRANCH  16  17
ENDBRANCH  15  16
ENDBRANCH  14  15
TORSDOF 11
ENDMDL
MODEL      355
REMARK 921   NORMALIZED FREE ENERGY PREDICTED BY IDOCK:   -4.50 KCAL/MOL
REMARK 922        TOTAL FREE ENERGY PREDICTED BY IDOCK:   -8.74 KCAL/MOL
REMARK 923 INTER-LIGAND FREE ENERGY PREDICTED BY IDOCK:   -7.17 KCAL/MOL
REMARK 924 INTRA-LIGAND FREE ENERGY PREDICTED BY IDOCK:   -1.57 KCAL/MOL
REMARK 927      BINDING AFFINITY PREDICTED BY RF-SCORE:    0.00 PKD
ROOT
HETATM    1  C   UNL     1      -7.438   6.240  67.876  1.00  0.00    -0.093 C  
HETATM    2  C   UNL     1      -8.257   6.049  69.132  1.00  0.00    -0.111 A  
HETATM    3  C   UNL     1      -8.714   4.769  69.420  1.00  0.00    -0.107 A  
HETATM    4  C   UNL     1      -9.459   4.505  70.559  1.00  0.00    -0.176 A  
HETATM    5  N   UNL     1      -9.757   3.168  70.843  1.00  0.00    -0.152 NA 
HETATM    6  C   UNL     1      -9.666   5.551  71.479  1.00  0.00    -0.201 A  
HETATM    7  H2  UNL     1      -8.891   2.630  70.875  1.00  0.00     0.000 HD 
HETATM    8  C   UNL     1     -10.303   5.337  72.724  1.00  0.00    -0.239 A  
HETATM    9  H1  UNL     1     -10.304   2.975  71.681  1.00  0.00     0.000 HD 
HETATM   10  C   UNL     1     -10.524   6.374  73.629  1.00  0.00    -0.311 A  
HETATM   11  C   UNL     1     -10.124   7.658  73.312  1.00  0.00    -0.393 A  
HETATM   12  C   UNL     1      -9.485   7.902  72.092  1.00  0.00    -0.234 A  
HETATM   13  C   UNL     1      -9.216   6.860  71.167  1.00  0.00    -0.154 A  
HETATM   14  N   UNL     1      -8.518   7.075  69.999  1.00  0.00    -0.138 NA 
ENDROOT
BRANCH  14  15
HETATM   15  C   UNL     1      -7.975   8.428  69.697  1.00  0.00    -0.106 C  
BRANCH  15  16
HETATM   16  C   UNL     1      -8.822   9.124  68.634  1.00  0.00    -0.133 C  
BRANCH  16  17
HETATM   17  C   UNL     1      -9.820  10.096  69.257  1.00  0.00    -0.235 C  
BRANCH  17  18
HETATM   18  C   UNL     1      -9.607  11.542  68.800  1.00  0.00    -0.112 C  
BRANCH  18  19
HETATM   19  C   UNL     1      -8.138  11.952  68.843  1.00  0.00     0.066 C  
BRANCH  19  20
HETATM   20  C   UNL     1      -7.506  12.078  67.455  1.00  0.00    -0.140 C  
BRANCH  20  21
HETATM   21  C   UNL     1      -6.555  13.274  67.312  1.00  0.00     0.090 C  
BRANCH  21  22
HETATM   22  C   UNL     1      -7.119  14.561  67.922  1.00  0.00    -0.168 C  
BRANCH  22  23
HETATM   23  C   UNL     1      -6.916  15.791  67.030  1.00  0.00    -0.128 C  
BRANCH  23  24
HETATM   24  C   UNL     1      -8.214  16.198  66.330  1.00  0.00    -0.301 C  
BRANCH  24  25
HETATM   25  N   UNL     1      -9.376  16.018  67.237  1.00  0.00    -0.209 NA 
HETATM   26  C   UNL     1      -9.632  16.937  68.220  1.00  0.00    -0.258 A  
HETATM   27  C   UNL     1     -10.768  16.799  69.021  1.00  0.00    -0.331 A  
HETATM   28  C   UNL     1      -8.801  18.170  68.492  1.00  0.00    -0.312 C  
HETATM   29  C   UNL     1     -11.641  15.733  68.869  1.00  0.00    -0.394 A  
HETATM   30  N   UNL     1     -12.823  15.756  69.614  1.00  0.00    -0.476 NA 
HETATM   31  C   UNL     1     -11.406  14.831  67.818  1.00  0.00    -0.344 A  
HETATM   32  H1  UNL     1     -13.466  14.972  69.502  1.00  0.00     0.000 HD 
HETATM   33  C   UNL     1     -10.235  14.960  67.021  1.00  0.00    -0.256 A  
HETATM   34  H2  UNL     1     -13.321  16.627  69.431  1.00  0.00     0.000 HD 
HETATM   35  C   UNL     1     -10.007  13.997  66.005  1.00  0.00    -0.331 A  
HETATM   36  C   UNL     1     -10.912  12.972  65.740  1.00  0.00    -0.299 A  
HETATM   37  C   UNL     1     -12.070  12.875  66.489  1.00  0.00    -0.375 A  
HETATM   38  C   UNL     1     -12.309  13.785  67.516  1.00  0.00    -0.110 A  
ENDBRANCH  24  25
ENDBRANCH  23  24
ENDBRANCH  22  23
ENDBRANCH  21  22
ENDBRANCH  20  21
ENDBRANCH  19  20
ENDBRANCH  18  19
ENDBRANCH  17  18
ENDBRANCH  16  17
ENDBRANCH  15  16
ENDBRANCH  14  15
TORSDOF 11
ENDMDL
MODEL      356
REMARK 921   NORMALIZED FREE ENERGY PREDICTED BY IDOCK:   -4.49 KCAL/MOL
REMARK 922        TOTAL FREE ENERGY PREDICTED BY IDOCK:   -8.73 KCAL/MOL
REMARK 923 INTER-LIGAND FREE ENERGY PREDICTED BY IDOCK:   -6.55 KCAL/MOL
REMARK 924 INTRA-LIGAND FREE ENERGY PREDICTED BY IDOCK:   -2.18 KCAL/MOL
REMARK 927      BINDING AFFINITY PREDICTED BY RF-SCORE:    0.00 PKD
ROOT
HETATM    1  C   UNL     1     -12.996   7.291  71.220  1.00  0.00    -0.377 C  
HETATM    2  C   UNL     1     -11.819   6.932  72.099  1.00  0.00    -0.281 A  
HETATM    3  C   UNL     1     -11.784   5.655  72.645  1.00  0.00    -0.256 A  
HETATM    4  C   UNL     1     -10.733   5.241  73.450  1.00  0.00    -0.281 A  
HETATM    5  N   UNL     1     -10.707   3.898  73.840  1.00  0.00    -0.216 NA 
HETATM    6  C   UNL     1      -9.643   6.114  73.629  1.00  0.00    -0.156 A  
HETATM    7  H2  UNL     1     -10.750   3.305  73.011  1.00  0.00     0.000 HD 
HETATM    8  C   UNL     1      -8.477   5.724  74.327  1.00  0.00    -0.112 A  
HETATM    9  H1  UNL     1      -9.934   3.594  74.432  1.00  0.00     0.000 HD 
HETATM   10  C   UNL     1      -7.404   6.592  74.519  1.00  0.00    -0.102 A  
HETATM   11  C   UNL     1      -7.470   7.883  74.029  1.00  0.00    -0.198 A  
HETATM   12  C   UNL     1      -8.606   8.298  73.328  1.00  0.00    -0.273 A  
HETATM   13  C   UNL     1      -9.698   7.425  73.087  1.00  0.00    -0.231 A  
HETATM   14  N   UNL     1     -10.787   7.800  72.331  1.00  0.00    -0.276 NA 
ENDROOT
BRANCH  14  15
HETATM   15  C   UNL     1     -10.821   9.145  71.693  1.00  0.00    -0.372 C  
BRANCH  15  16
HETATM   16  C   UNL     1     -10.027   9.143  70.389  1.00  0.00    -0.263 C  
BRANCH  16  17
HETATM   17  C   UNL     1     -10.892   9.559  69.202  1.00  0.00    -0.194 C  
BRANCH  17  18
HETATM   18  C   UNL     1     -10.506   8.845  67.904  1.00  0.00    -0.281 C  
BRANCH  18  19
HETATM   19  C   UNL     1     -10.183   7.371  68.129  1.00  0.00    -0.223 C  
BRANCH  19  20
HETATM   20  C   UNL     1      -8.903   6.918  67.423  1.00  0.00    -0.118 C  
BRANCH  20  21
HETATM   21  C   UNL     1      -7.615   7.396  68.108  1.00  0.00    -0.114 C  
BRANCH  21  22
HETATM   22  C   UNL     1      -6.724   8.235  67.188  1.00  0.00    -0.063 C  
BRANCH  22  23
HETATM   23  C   UNL     1      -7.353   8.497  65.814  1.00  0.00    -0.080 C  
BRANCH  23  24
HETATM   24  C   UNL     1      -7.004   9.892  65.294  1.00  0.00    -0.122 C  
BRANCH  24  25
HETATM   25  N   UNL     1      -7.924  10.909  65.865  1.00  0.00    -0.140 NA 
HETATM   26  C   UNL     1      -9.209  11.012  65.402  1.00  0.00    -0.210 A  
HETATM   27  C   UNL     1     -10.089  11.921  65.994  1.00  0.00    -0.261 A  
HETATM   28  C   UNL     1      -9.808  10.159  64.307  1.00  0.00    -0.270 C  
HETATM   29  C   UNL     1      -9.690  12.752  67.029  1.00  0.00    -0.224 A  
HETATM   30  N   UNL     1     -10.675  13.523  67.654  1.00  0.00    -0.246 NA 
HETATM   31  C   UNL     1      -8.391  12.595  67.539  1.00  0.00    -0.177 A  
HETATM   32  H1  UNL     1     -10.382  14.134  68.416  1.00  0.00     0.000 HD 
HETATM   33  C   UNL     1      -7.490  11.687  66.918  1.00  0.00    -0.131 A  
HETATM   34  H2  UNL     1     -11.424  12.912  67.981  1.00  0.00     0.000 HD 
HETATM   35  C   UNL     1      -6.170  11.598  67.429  1.00  0.00    -0.101 A  
HETATM   36  C   UNL     1      -5.755  12.331  68.539  1.00  0.00    -0.053 A  
HETATM   37  C   UNL     1      -6.646  13.181  69.166  1.00  0.00    -0.104 A  
HETATM   38  C   UNL     1      -7.941  13.316  68.670  1.00  0.00    -0.042 A  
ENDBRANCH  24  25
ENDBRANCH  23  24
ENDBRANCH  22  23
ENDBRANCH  21  22
ENDBRANCH  20  21
ENDBRANCH  19  20
ENDBRANCH  18  19
ENDBRANCH  17  18
ENDBRANCH  16  17
ENDBRANCH  15  16
ENDBRANCH  14  15
TORSDOF 11
ENDMDL
MODEL      357
REMARK 921   NORMALIZED FREE ENERGY PREDICTED BY IDOCK:   -4.48 KCAL/MOL
REMARK 922        TOTAL FREE ENERGY PREDICTED BY IDOCK:   -8.72 KCAL/MOL
REMARK 923 INTER-LIGAND FREE ENERGY PREDICTED BY IDOCK:   -7.56 KCAL/MOL
REMARK 924 INTRA-LIGAND FREE ENERGY PREDICTED BY IDOCK:   -1.16 KCAL/MOL
REMARK 927      BINDING AFFINITY PREDICTED BY RF-SCORE:    0.00 PKD
ROOT
HETATM    1  C   UNL     1      -9.466   5.738  65.915  1.00  0.00    -0.059 C  
HETATM    2  C   UNL     1      -9.963   6.454  67.151  1.00  0.00    -0.155 A  
HETATM    3  C   UNL     1     -10.226   5.690  68.281  1.00  0.00    -0.239 A  
HETATM    4  C   UNL     1     -10.670   6.270  69.459  1.00  0.00    -0.303 A  
HETATM    5  N   UNL     1     -10.774   5.448  70.587  1.00  0.00    -0.230 NA 
HETATM    6  C   UNL     1     -10.761   7.674  69.521  1.00  0.00    -0.211 A  
HETATM    7  H2  UNL     1      -9.877   4.991  70.753  1.00  0.00     0.000 HD 
HETATM    8  C   UNL     1     -11.082   8.352  70.720  1.00  0.00    -0.286 A  
HETATM    9  H1  UNL     1     -11.101   5.875  71.453  1.00  0.00     0.000 HD 
HETATM   10  C   UNL     1     -11.188   9.740  70.779  1.00  0.00    -0.419 A  
HETATM   11  C   UNL     1     -10.988  10.493  69.637  1.00  0.00    -0.333 A  
HETATM   12  C   UNL     1     -10.662   9.854  68.437  1.00  0.00    -0.271 A  
HETATM   13  C   UNL     1     -10.513   8.446  68.355  1.00  0.00    -0.164 A  
HETATM   14  N   UNL     1     -10.116   7.813  67.197  1.00  0.00    -0.229 NA 
ENDROOT
BRANCH  14  15
HETATM   15  C   UNL     1      -9.779   8.618  65.990  1.00  0.00    -0.168 C  
BRANCH  15  16
HETATM   16  C   UNL     1      -8.267   8.670  65.783  1.00  0.00    -0.126 C  
BRANCH  16  17
HETATM   17  C   UNL     1      -7.582   9.527  66.843  1.00  0.00    -0.095 C  
BRANCH  17  18
HETATM   18  C   UNL     1      -7.159  10.902  66.316  1.00  0.00    -0.119 C  
BRANCH  18  19
HETATM   19  C   UNL     1      -5.707  11.227  66.651  1.00  0.00    -0.130 C  
BRANCH  19  20
HETATM   20  C   UNL     1      -5.546  12.530  67.438  1.00  0.00    -0.112 C  
BRANCH  20  21
HETATM   21  C   UNL     1      -6.598  12.723  68.539  1.00  0.00    -0.086 C  
BRANCH  21  22
HETATM   22  C   UNL     1      -7.391  14.023  68.385  1.00  0.00    -0.113 C  
BRANCH  22  23
HETATM   23  C   UNL     1      -8.762  13.820  67.729  1.00  0.00    -0.182 C  
BRANCH  23  24
HETATM   24  C   UNL     1      -8.943  14.727  66.512  1.00  0.00    -0.233 C  
BRANCH  24  25
HETATM   25  N   UNL     1      -9.388  16.082  66.929  1.00  0.00    -0.219 NA 
HETATM   26  C   UNL     1     -10.596  16.248  67.551  1.00  0.00    -0.310 A  
HETATM   27  C   UNL     1     -10.975  17.514  68.005  1.00  0.00    -0.138 A  
HETATM   28  C   UNL     1     -11.574  15.137  67.859  1.00  0.00    -0.326 C  
HETATM   29  C   UNL     1     -10.167  18.625  67.820  1.00  0.00    -0.386 A  
HETATM   30  N   UNL     1     -10.560  19.818  68.434  1.00  0.00    -0.447 NA 
HETATM   31  C   UNL     1      -8.903  18.435  67.239  1.00  0.00    -0.261 A  
HETATM   32  H1  UNL     1      -9.966  20.636  68.299  1.00  0.00     0.000 HD 
HETATM   33  C   UNL     1      -8.532  17.150  66.755  1.00  0.00    -0.235 A  
HETATM   34  H2  UNL     1     -10.688  19.657  69.434  1.00  0.00     0.000 HD 
HETATM   35  C   UNL     1      -7.268  17.011  66.126  1.00  0.00    -0.189 A  
HETATM   36  C   UNL     1      -6.375  18.074  66.016  1.00  0.00    -0.288 A  
HETATM   37  C   UNL     1      -6.721  19.311  66.526  1.00  0.00    -0.202 A  
HETATM   38  C   UNL     1      -7.969  19.490  67.121  1.00  0.00    -0.298 A  
ENDBRANCH  24  25
ENDBRANCH  23  24
ENDBRANCH  22  23
ENDBRANCH  21  22
ENDBRANCH  20  21
ENDBRANCH  19  20
ENDBRANCH  18  19
ENDBRANCH  17  18
ENDBRANCH  16  17
ENDBRANCH  15  16
ENDBRANCH  14  15
TORSDOF 11
ENDMDL
MODEL      358
REMARK 921   NORMALIZED FREE ENERGY PREDICTED BY IDOCK:   -4.47 KCAL/MOL
REMARK 922        TOTAL FREE ENERGY PREDICTED BY IDOCK:   -8.70 KCAL/MOL
REMARK 923 INTER-LIGAND FREE ENERGY PREDICTED BY IDOCK:   -8.09 KCAL/MOL
REMARK 924 INTRA-LIGAND FREE ENERGY PREDICTED BY IDOCK:   -0.61 KCAL/MOL
REMARK 927      BINDING AFFINITY PREDICTED BY RF-SCORE:    0.00 PKD
ROOT
HETATM    1  C   UNL     1     -12.263  13.569  68.835  1.00  0.00    -0.194 C  
HETATM    2  C   UNL     1     -11.980  13.066  67.438  1.00  0.00    -0.316 A  
HETATM    3  C   UNL     1     -12.455  13.817  66.370  1.00  0.00    -0.404 A  
HETATM    4  C   UNL     1     -12.227  13.434  65.057  1.00  0.00    -0.424 A  
HETATM    5  N   UNL     1     -12.616  14.320  64.047  1.00  0.00    -0.787 NA 
HETATM    6  C   UNL     1     -11.416  12.307  64.821  1.00  0.00    -0.382 A  
HETATM    7  H2  UNL     1     -12.183  15.229  64.212  1.00  0.00     0.000 HD 
HETATM    8  C   UNL     1     -11.029  11.923  63.516  1.00  0.00    -0.505 A  
HETATM    9  H1  UNL     1     -12.448  14.038  63.081  1.00  0.00     0.000 HD 
HETATM   10  C   UNL     1     -10.240  10.799  63.279  1.00  0.00    -0.243 A  
HETATM   11  C   UNL     1      -9.823  10.018  64.340  1.00  0.00    -0.203 A  
HETATM   12  C   UNL     1     -10.182  10.373  65.643  1.00  0.00    -0.308 A  
HETATM   13  C   UNL     1     -10.955  11.532  65.917  1.00  0.00    -0.243 A  
HETATM   14  N   UNL     1     -11.248  11.935  67.201  1.00  0.00    -0.299 NA 
ENDROOT
BRANCH  14  15
HETATM   15  C   UNL     1     -10.706  11.172  68.360  1.00  0.00    -0.198 C  
BRANCH  15  16
HETATM   16  C   UNL     1     -11.121   9.705  68.281  1.00  0.00    -0.102 C  
BRANCH  16  17
HETATM   17  C   UNL     1      -9.928   8.771  68.463  1.00  0.00    -0.200 C  
BRANCH  17  18
HETATM   18  C   UNL     1      -8.691   9.486  69.015  1.00  0.00    -0.142 C  
BRANCH  18  19
HETATM   19  C   UNL     1      -7.409   9.050  68.312  1.00  0.00    -0.082 C  
BRANCH  19  20
HETATM   20  C   UNL     1      -6.766  10.165  67.484  1.00  0.00    -0.072 C  
BRANCH  20  21
HETATM   21  C   UNL     1      -6.567  11.476  68.257  1.00  0.00    -0.061 C  
BRANCH  21  22
HETATM   22  C   UNL     1      -7.702  12.479  68.035  1.00  0.00    -0.140 C  
BRANCH  22  23
HETATM   23  C   UNL     1      -7.242  13.770  67.349  1.00  0.00    -0.107 C  
BRANCH  23  24
HETATM   24  C   UNL     1      -6.612  14.743  68.345  1.00  0.00    -0.101 C  
BRANCH  24  25
HETATM   25  N   UNL     1      -7.203  16.098  68.199  1.00  0.00    -0.131 NA 
HETATM   26  C   UNL     1      -6.543  17.064  67.489  1.00  0.00    -0.146 A  
HETATM   27  C   UNL     1      -7.139  18.313  67.294  1.00  0.00    -0.210 A  
HETATM   28  C   UNL     1      -5.201  16.882  66.815  1.00  0.00    -0.125 C  
HETATM   29  C   UNL     1      -8.381  18.617  67.828  1.00  0.00    -0.267 A  
HETATM   30  N   UNL     1      -8.960  19.835  67.461  1.00  0.00    -0.316 NA 
HETATM   31  C   UNL     1      -9.079  17.601  68.501  1.00  0.00    -0.279 A  
HETATM   32  H1  UNL     1      -9.875  20.059  67.853  1.00  0.00     0.000 HD 
HETATM   33  C   UNL     1      -8.459  16.340  68.718  1.00  0.00    -0.240 A  
HETATM   34  H2  UNL     1      -9.007  19.894  66.443  1.00  0.00     0.000 HD 
HETATM   35  C   UNL     1      -9.176  15.358  69.449  1.00  0.00    -0.268 A  
HETATM   36  C   UNL     1     -10.472  15.578  69.909  1.00  0.00    -0.323 A  
HETATM   37  C   UNL     1     -11.088  16.789  69.658  1.00  0.00    -0.036 A  
HETATM   38  C   UNL     1     -10.399  17.787  68.972  1.00  0.00    -0.234 A  
ENDBRANCH  24  25
ENDBRANCH  23  24
ENDBRANCH  22  23
ENDBRANCH  21  22
ENDBRANCH  20  21
ENDBRANCH  19  20
ENDBRANCH  18  19
ENDBRANCH  17  18
ENDBRANCH  16  17
ENDBRANCH  15  16
ENDBRANCH  14  15
TORSDOF 11
ENDMDL
MODEL      359
REMARK 921   NORMALIZED FREE ENERGY PREDICTED BY IDOCK:   -4.47 KCAL/MOL
REMARK 922        TOTAL FREE ENERGY PREDICTED BY IDOCK:   -8.70 KCAL/MOL
REMARK 923 INTER-LIGAND FREE ENERGY PREDICTED BY IDOCK:   -7.28 KCAL/MOL
REMARK 924 INTRA-LIGAND FREE ENERGY PREDICTED BY IDOCK:   -1.42 KCAL/MOL
REMARK 927      BINDING AFFINITY PREDICTED BY RF-SCORE:    0.00 PKD
ROOT
HETATM    1  C   UNL     1     -11.025  16.430  70.060  1.00  0.00    -0.322 C  
HETATM    2  C   UNL     1     -11.032  15.989  68.614  1.00  0.00    -0.323 A  
HETATM    3  C   UNL     1     -10.211  16.670  67.724  1.00  0.00    -0.292 A  
HETATM    4  C   UNL     1     -10.147  16.320  66.384  1.00  0.00    -0.305 A  
HETATM    5  N   UNL     1      -9.191  16.963  65.591  1.00  0.00    -0.466 NA 
HETATM    6  C   UNL     1     -10.866  15.188  65.954  1.00  0.00    -0.342 A  
HETATM    7  H2  UNL     1      -8.270  16.847  66.013  1.00  0.00     0.000 HD 
HETATM    8  C   UNL     1     -10.756  14.687  64.636  1.00  0.00    -0.309 A  
HETATM    9  H1  UNL     1      -9.145  16.706  64.605  1.00  0.00     0.000 HD 
HETATM   10  C   UNL     1     -11.480  13.577  64.204  1.00  0.00    -0.394 A  
HETATM   11  C   UNL     1     -12.344  12.941  65.074  1.00  0.00    -0.541 A  
HETATM   12  C   UNL     1     -12.471  13.406  66.386  1.00  0.00    -0.297 A  
HETATM   13  C   UNL     1     -11.721  14.512  66.863  1.00  0.00    -0.382 A  
HETATM   14  N   UNL     1     -11.779  14.931  68.175  1.00  0.00    -0.332 NA 
ENDROOT
BRANCH  14  15
HETATM   15  C   UNL     1     -12.614  14.182  69.156  1.00  0.00     0.254 C  
BRANCH  15  16
HETATM   16  C   UNL     1     -11.748  13.245  69.995  1.00  0.00    -0.295 C  
BRANCH  16  17
HETATM   17  C   UNL     1     -11.697  11.841  69.399  1.00  0.00    -0.405 C  
BRANCH  17  18
HETATM   18  C   UNL     1     -10.413  11.575  68.609  1.00  0.00    -0.224 C  
BRANCH  18  19
HETATM   19  C   UNL     1      -9.982  10.113  68.680  1.00  0.00    -0.181 C  
BRANCH  19  20
HETATM   20  C   UNL     1      -8.720   9.816  67.867  1.00  0.00    -0.125 C  
BRANCH  20  21
HETATM   21  C   UNL     1      -8.901   8.705  66.824  1.00  0.00    -0.152 C  
BRANCH  21  22
HETATM   22  C   UNL     1      -7.601   7.958  66.515  1.00  0.00    -0.092 C  
BRANCH  22  23
HETATM   23  C   UNL     1      -7.691   6.451  66.785  1.00  0.00    -0.100 C  
BRANCH  23  24
HETATM   24  C   UNL     1      -7.081   6.085  68.139  1.00  0.00    -0.078 C  
BRANCH  24  25
HETATM   25  N   UNL     1      -7.864   5.006  68.792  1.00  0.00    -0.078 NA 
HETATM   26  C   UNL     1      -7.549   3.693  68.564  1.00  0.00    -0.053 A  
HETATM   27  C   UNL     1      -8.243   2.685  69.238  1.00  0.00    -0.071 A  
HETATM   28  C   UNL     1      -6.435   3.211  67.662  1.00  0.00    -0.037 C  
HETATM   29  C   UNL     1      -9.272   2.975  70.120  1.00  0.00    -0.144 A  
HETATM   30  N   UNL     1      -9.810   1.915  70.856  1.00  0.00    -0.061 NA 
HETATM   31  C   UNL     1      -9.547   4.325  70.395  1.00  0.00    -0.265 A  
HETATM   32  H1  UNL     1     -10.567   2.128  71.505  1.00  0.00     0.000 HD 
HETATM   33  C   UNL     1      -8.855   5.347  69.689  1.00  0.00    -0.109 A  
HETATM   34  H2  UNL     1      -9.060   1.438  71.358  1.00  0.00     0.000 HD 
HETATM   35  C   UNL     1      -9.200   6.696  69.956  1.00  0.00    -0.158 A  
HETATM   36  C   UNL     1     -10.149   7.042  70.916  1.00  0.00    -0.204 A  
HETATM   37  C   UNL     1     -10.788   6.047  71.631  1.00  0.00    -0.314 A  
HETATM   38  C   UNL     1     -10.497   4.710  71.369  1.00  0.00    -0.083 A  
ENDBRANCH  24  25
ENDBRANCH  23  24
ENDBRANCH  22  23
ENDBRANCH  21  22
ENDBRANCH  20  21
ENDBRANCH  19  20
ENDBRANCH  18  19
ENDBRANCH  17  18
ENDBRANCH  16  17
ENDBRANCH  15  16
ENDBRANCH  14  15
TORSDOF 11
ENDMDL
MODEL      360
REMARK 921   NORMALIZED FREE ENERGY PREDICTED BY IDOCK:   -4.46 KCAL/MOL
REMARK 922        TOTAL FREE ENERGY PREDICTED BY IDOCK:   -8.68 KCAL/MOL
REMARK 923 INTER-LIGAND FREE ENERGY PREDICTED BY IDOCK:   -5.75 KCAL/MOL
REMARK 924 INTRA-LIGAND FREE ENERGY PREDICTED BY IDOCK:   -2.93 KCAL/MOL
REMARK 927      BINDING AFFINITY PREDICTED BY RF-SCORE:    0.00 PKD
ROOT
HETATM    1  C   UNL     1     -11.510   6.858  69.898  1.00  0.00    -0.294 C  
HETATM    2  C   UNL     1     -10.569   7.796  69.177  1.00  0.00    -0.183 A  
HETATM    3  C   UNL     1      -9.883   8.736  69.936  1.00  0.00    -0.189 A  
HETATM    4  C   UNL     1      -8.990   9.624  69.354  1.00  0.00    -0.181 A  
HETATM    5  N   UNL     1      -8.239  10.438  70.208  1.00  0.00    -0.346 NA 
HETATM    6  C   UNL     1      -8.717   9.492  67.980  1.00  0.00    -0.120 A  
HETATM    7  H2  UNL     1      -7.742   9.854  70.881  1.00  0.00     0.000 HD 
HETATM    8  C   UNL     1      -7.727  10.271  67.335  1.00  0.00    -0.095 A  
HETATM    9  H1  UNL     1      -7.582  11.091  69.780  1.00  0.00     0.000 HD 
HETATM   10  C   UNL     1      -7.466  10.154  65.971  1.00  0.00    -0.118 A  
HETATM   11  C   UNL     1      -8.195   9.263  65.207  1.00  0.00    -0.136 A  
HETATM   12  C   UNL     1      -9.176   8.473  65.815  1.00  0.00    -0.210 A  
HETATM   13  C   UNL     1      -9.438   8.545  67.207  1.00  0.00    -0.157 A  
HETATM   14  N   UNL     1     -10.347   7.717  67.829  1.00  0.00    -0.207 NA 
ENDROOT
BRANCH  14  15
HETATM   15  C   UNL     1     -11.055   6.668  67.043  1.00  0.00    -0.325 C  
BRANCH  15  16
HETATM   16  C   UNL     1     -10.358   5.318  67.197  1.00  0.00    -0.268 C  
BRANCH  16  17
HETATM   17  C   UNL     1      -9.585   4.937  65.937  1.00  0.00    -0.185 C  
BRANCH  17  18
HETATM   18  C   UNL     1      -8.998   3.524  66.004  1.00  0.00    -0.140 C  
BRANCH  18  19
HETATM   19  C   UNL     1      -9.328   2.822  67.318  1.00  0.00    -0.157 C  
BRANCH  19  20
HETATM   20  C   UNL     1      -8.086   2.402  68.107  1.00  0.00    -0.067 C  
BRANCH  20  21
HETATM   21  C   UNL     1      -6.787   3.051  67.610  1.00  0.00    -0.049 C  
BRANCH  21  22
HETATM   22  C   UNL     1      -6.092   3.894  68.683  1.00  0.00    -0.031 C  
BRANCH  22  23
HETATM   23  C   UNL     1      -6.951   4.107  69.935  1.00  0.00    -0.042 C  
BRANCH  23  24
HETATM   24  C   UNL     1      -7.843   5.342  69.801  1.00  0.00    -0.081 C  
BRANCH  24  25
HETATM   25  N   UNL     1      -7.813   6.147  71.049  1.00  0.00    -0.112 NA 
HETATM   26  C   UNL     1      -6.922   7.178  71.182  1.00  0.00    -0.061 A  
HETATM   27  C   UNL     1      -6.949   7.977  72.328  1.00  0.00    -0.089 A  
HETATM   28  C   UNL     1      -5.910   7.591  70.137  1.00  0.00    -0.024 C  
HETATM   29  C   UNL     1      -7.843   7.737  73.360  1.00  0.00    -0.142 A  
HETATM   30  N   UNL     1      -7.895   8.672  74.399  1.00  0.00    -0.388 NA 
HETATM   31  C   UNL     1      -8.794   6.718  73.189  1.00  0.00    -0.138 A  
HETATM   32  H1  UNL     1      -8.553   8.496  75.158  1.00  0.00     0.000 HD 
HETATM   33  C   UNL     1      -8.747   5.892  72.032  1.00  0.00    -0.137 A  
HETATM   34  H2  UNL     1      -8.070   9.599  74.010  1.00  0.00     0.000 HD 
HETATM   35  C   UNL     1      -9.691   4.840  71.922  1.00  0.00    -0.219 A  
HETATM   36  C   UNL     1     -10.680   4.629  72.880  1.00  0.00    -0.295 A  
HETATM   37  C   UNL     1     -10.750   5.460  73.982  1.00  0.00    -0.253 A  
HETATM   38  C   UNL     1      -9.817   6.484  74.137  1.00  0.00    -0.318 A  
ENDBRANCH  24  25
ENDBRANCH  23  24
ENDBRANCH  22  23
ENDBRANCH  21  22
ENDBRANCH  20  21
ENDBRANCH  19  20
ENDBRANCH  18  19
ENDBRANCH  17  18
ENDBRANCH  16  17
ENDBRANCH  15  16
ENDBRANCH  14  15
TORSDOF 11
ENDMDL
MODEL      361
REMARK 921   NORMALIZED FREE ENERGY PREDICTED BY IDOCK:   -4.46 KCAL/MOL
REMARK 922        TOTAL FREE ENERGY PREDICTED BY IDOCK:   -8.68 KCAL/MOL
REMARK 923 INTER-LIGAND FREE ENERGY PREDICTED BY IDOCK:   -6.32 KCAL/MOL
REMARK 924 INTRA-LIGAND FREE ENERGY PREDICTED BY IDOCK:   -2.36 KCAL/MOL
REMARK 927      BINDING AFFINITY PREDICTED BY RF-SCORE:    0.00 PKD
ROOT
HETATM    1  C   UNL     1      -7.668   8.829  70.963  1.00  0.00    -0.137 C  
HETATM    2  C   UNL     1      -7.887   8.570  69.490  1.00  0.00    -0.097 A  
HETATM    3  C   UNL     1      -8.720   7.517  69.133  1.00  0.00    -0.136 A  
HETATM    4  C   UNL     1      -8.984   7.221  67.804  1.00  0.00    -0.126 A  
HETATM    5  N   UNL     1      -9.943   6.237  67.539  1.00  0.00    -0.125 NA 
HETATM    6  C   UNL     1      -8.464   8.075  66.813  1.00  0.00    -0.128 A  
HETATM    7  H2  UNL     1     -10.815   6.481  68.010  1.00  0.00     0.000 HD 
HETATM    8  C   UNL     1      -8.790   7.920  65.446  1.00  0.00    -0.020 A  
HETATM    9  H1  UNL     1     -10.137   6.020  66.562  1.00  0.00     0.000 HD 
HETATM   10  C   UNL     1      -8.263   8.754  64.461  1.00  0.00    -0.168 A  
HETATM   11  C   UNL     1      -7.384   9.761  64.813  1.00  0.00    -0.130 A  
HETATM   12  C   UNL     1      -7.047   9.945  66.157  1.00  0.00    -0.103 A  
HETATM   13  C   UNL     1      -7.595   9.134  67.184  1.00  0.00    -0.091 A  
HETATM   14  N   UNL     1      -7.331   9.356  68.518  1.00  0.00    -0.079 NA 
ENDROOT
BRANCH  14  15
HETATM   15  C   UNL     1      -6.482  10.511  68.924  1.00  0.00    -0.048 C  
BRANCH  15  16
HETATM   16  C   UNL     1      -7.333  11.604  69.568  1.00  0.00     0.184 C  
BRANCH  16  17
HETATM   17  C   UNL     1      -8.104  12.406  68.523  1.00  0.00    -0.096 C  
BRANCH  17  18
HETATM   18  C   UNL     1      -9.615  12.160  68.579  1.00  0.00    -0.137 C  
BRANCH  18  19
HETATM   19  C   UNL     1     -10.207  11.881  67.201  1.00  0.00    -0.230 C  
BRANCH  19  20
HETATM   20  C   UNL     1      -9.572  12.721  66.090  1.00  0.00    -0.214 C  
BRANCH  20  21
HETATM   21  C   UNL     1     -10.572  13.601  65.329  1.00  0.00    -0.354 C  
BRANCH  21  22
HETATM   22  C   UNL     1     -10.714  15.002  65.931  1.00  0.00    -0.337 C  
BRANCH  22  23
HETATM   23  C   UNL     1      -9.440  15.491  66.629  1.00  0.00    -0.281 C  
BRANCH  23  24
HETATM   24  C   UNL     1      -9.751  16.141  67.977  1.00  0.00    -0.229 C  
BRANCH  24  25
HETATM   25  N   UNL     1      -8.823  17.270  68.242  1.00  0.00    -0.250 NA 
HETATM   26  C   UNL     1      -9.176  18.547  67.897  1.00  0.00    -0.290 A  
HETATM   27  C   UNL     1      -8.329  19.612  68.215  1.00  0.00    -0.354 A  
HETATM   28  C   UNL     1     -10.476  18.938  67.231  1.00  0.00    -0.510 C  
HETATM   29  C   UNL     1      -7.114  19.410  68.852  1.00  0.00    -0.358 A  
HETATM   30  N   UNL     1      -6.403  20.543  69.259  1.00  0.00    -0.259 NA 
HETATM   31  C   UNL     1      -6.789  18.106  69.259  1.00  0.00    -0.192 A  
HETATM   32  H1  UNL     1      -5.510  20.395  69.728  1.00  0.00     0.000 HD 
HETATM   33  C   UNL     1      -7.642  17.022  68.911  1.00  0.00    -0.233 A  
HETATM   34  H2  UNL     1      -7.001  21.123  69.848  1.00  0.00     0.000 HD 
HETATM   35  C   UNL     1      -7.251  15.713  69.293  1.00  0.00    -0.198 A  
HETATM   36  C   UNL     1      -6.095  15.472  70.033  1.00  0.00    -0.148 A  
HETATM   37  C   UNL     1      -5.291  16.533  70.406  1.00  0.00    -0.200 A  
HETATM   38  C   UNL     1      -5.630  17.828  70.018  1.00  0.00    -0.246 A  
ENDBRANCH  24  25
ENDBRANCH  23  24
ENDBRANCH  22  23
ENDBRANCH  21  22
ENDBRANCH  20  21
ENDBRANCH  19  20
ENDBRANCH  18  19
ENDBRANCH  17  18
ENDBRANCH  16  17
ENDBRANCH  15  16
ENDBRANCH  14  15
TORSDOF 11
ENDMDL
MODEL      362
REMARK 921   NORMALIZED FREE ENERGY PREDICTED BY IDOCK:   -4.46 KCAL/MOL
REMARK 922        TOTAL FREE ENERGY PREDICTED BY IDOCK:   -8.67 KCAL/MOL
REMARK 923 INTER-LIGAND FREE ENERGY PREDICTED BY IDOCK:   -8.20 KCAL/MOL
REMARK 924 INTRA-LIGAND FREE ENERGY PREDICTED BY IDOCK:   -0.47 KCAL/MOL
REMARK 927      BINDING AFFINITY PREDICTED BY RF-SCORE:    0.00 PKD
ROOT
HETATM    1  C   UNL     1      -5.850   8.517  72.668  1.00  0.00    -0.072 C  
HETATM    2  C   UNL     1      -6.425   7.227  72.128  1.00  0.00    -0.047 A  
HETATM    3  C   UNL     1      -5.822   6.037  72.513  1.00  0.00    -0.037 A  
HETATM    4  C   UNL     1      -6.296   4.810  72.075  1.00  0.00    -0.030 A  
HETATM    5  N   UNL     1      -5.720   3.659  72.624  1.00  0.00    -0.007 NA 
HETATM    6  C   UNL     1      -7.471   4.786  71.300  1.00  0.00    -0.076 A  
HETATM    7  H2  UNL     1      -5.786   3.702  73.641  1.00  0.00     0.000 HD 
HETATM    8  C   UNL     1      -8.093   3.574  70.919  1.00  0.00    -0.071 A  
HETATM    9  H1  UNL     1      -6.069   2.757  72.301  1.00  0.00     0.000 HD 
HETATM   10  C   UNL     1      -9.247   3.548  70.138  1.00  0.00    -0.224 A  
HETATM   11  C   UNL     1      -9.808   4.733  69.703  1.00  0.00    -0.292 A  
HETATM   12  C   UNL     1      -9.222   5.949  70.067  1.00  0.00    -0.164 A  
HETATM   13  C   UNL     1      -8.068   6.007  70.891  1.00  0.00    -0.121 A  
HETATM   14  N   UNL     1      -7.528   7.200  71.320  1.00  0.00    -0.079 NA 
ENDROOT
BRANCH  14  15
HETATM   15  C   UNL     1      -8.190   8.485  70.961  1.00  0.00    -0.140 C  
BRANCH  15  16
HETATM   16  C   UNL     1      -9.426   8.716  71.828  1.00  0.00    -0.354 C  
BRANCH  16  17
HETATM   17  C   UNL     1     -10.436   9.627  71.137  1.00  0.00    -0.281 C  
BRANCH  17  18
HETATM   18  C   UNL     1     -11.878   9.129  71.274  1.00  0.00    -0.396 C  
BRANCH  18  19
HETATM   19  C   UNL     1     -12.895  10.259  71.139  1.00  0.00    -0.504 C  
BRANCH  19  20
HETATM   20  C   UNL     1     -12.315  11.518  70.491  1.00  0.00    -0.432 C  
BRANCH  20  21
HETATM   21  C   UNL     1     -12.110  11.398  68.975  1.00  0.00    -0.316 C  
BRANCH  21  22
HETATM   22  C   UNL     1     -11.211  12.499  68.404  1.00  0.00    -0.313 C  
BRANCH  22  23
HETATM   23  C   UNL     1      -9.731  12.103  68.350  1.00  0.00    -0.193 C  
BRANCH  23  24
HETATM   24  C   UNL     1      -9.147  12.302  66.951  1.00  0.00    -0.208 C  
BRANCH  24  25
HETATM   25  N   UNL     1      -9.603  13.592  66.372  1.00  0.00    -0.273 NA 
HETATM   26  C   UNL     1     -10.412  13.603  65.267  1.00  0.00    -0.351 A  
HETATM   27  C   UNL     1     -10.896  14.817  64.772  1.00  0.00    -0.395 A  
HETATM   28  C   UNL     1     -10.902  12.372  64.538  1.00  0.00    -0.358 C  
HETATM   29  C   UNL     1     -10.555  16.027  65.355  1.00  0.00    -0.408 A  
HETATM   30  N   UNL     1     -11.200  17.174  64.883  1.00  0.00    -0.689 NA 
HETATM   31  C   UNL     1      -9.777  16.003  66.524  1.00  0.00    -0.284 A  
HETATM   32  H1  UNL     1     -10.950  18.065  65.312  1.00  0.00     0.000 HD 
HETATM   33  C   UNL     1      -9.266  14.768  67.010  1.00  0.00    -0.233 A  
HETATM   34  H2  UNL     1     -12.210  17.043  64.944  1.00  0.00     0.000 HD 
HETATM   35  C   UNL     1      -8.440  14.792  68.162  1.00  0.00    -0.149 A  
HETATM   36  C   UNL     1      -8.161  15.972  68.848  1.00  0.00    -0.218 A  
HETATM   37  C   UNL     1      -8.694  17.165  68.398  1.00  0.00    -0.246 A  
HETATM   38  C   UNL     1      -9.483  17.180  67.250  1.00  0.00    -0.245 A  
ENDBRANCH  24  25
ENDBRANCH  23  24
ENDBRANCH  22  23
ENDBRANCH  21  22
ENDBRANCH  20  21
ENDBRANCH  19  20
ENDBRANCH  18  19
ENDBRANCH  17  18
ENDBRANCH  16  17
ENDBRANCH  15  16
ENDBRANCH  14  15
TORSDOF 11
ENDMDL
MODEL      363
REMARK 921   NORMALIZED FREE ENERGY PREDICTED BY IDOCK:   -4.45 KCAL/MOL
REMARK 922        TOTAL FREE ENERGY PREDICTED BY IDOCK:   -8.67 KCAL/MOL
REMARK 923 INTER-LIGAND FREE ENERGY PREDICTED BY IDOCK:   -7.56 KCAL/MOL
REMARK 924 INTRA-LIGAND FREE ENERGY PREDICTED BY IDOCK:   -1.11 KCAL/MOL
REMARK 927      BINDING AFFINITY PREDICTED BY RF-SCORE:    0.00 PKD
ROOT
HETATM    1  C   UNL     1      -9.636   8.726  72.127  1.00  0.00    -0.325 C  
HETATM    2  C   UNL     1      -9.326   7.307  72.544  1.00  0.00    -0.143 A  
HETATM    3  C   UNL     1      -8.107   7.064  73.163  1.00  0.00    -0.115 A  
HETATM    4  C   UNL     1      -7.751   5.793  73.590  1.00  0.00    -0.101 A  
HETATM    5  N   UNL     1      -6.571   5.665  74.329  1.00  0.00    -0.074 NA 
HETATM    6  C   UNL     1      -8.698   4.758  73.468  1.00  0.00    -0.104 A  
HETATM    7  H2  UNL     1      -6.607   6.292  75.133  1.00  0.00     0.000 HD 
HETATM    8  C   UNL     1      -8.466   3.466  73.993  1.00  0.00    -0.081 A  
HETATM    9  H1  UNL     1      -6.310   4.731  74.642  1.00  0.00     0.000 HD 
HETATM   10  C   UNL     1      -9.395   2.435  73.858  1.00  0.00    -0.095 A  
HETATM   11  C   UNL     1     -10.580   2.663  73.186  1.00  0.00    -0.260 A  
HETATM   12  C   UNL     1     -10.844   3.932  72.661  1.00  0.00    -0.049 A  
HETATM   13  C   UNL     1      -9.932   5.009  72.813  1.00  0.00    -0.163 A  
HETATM   14  N   UNL     1     -10.216   6.282  72.369  1.00  0.00    -0.185 NA 
ENDROOT
BRANCH  14  15
HETATM   15  C   UNL     1     -11.538   6.574  71.749  1.00  0.00    -0.312 C  
BRANCH  15  16
HETATM   16  C   UNL     1     -11.567   6.104  70.296  1.00  0.00    -0.266 C  
BRANCH  16  17
HETATM   17  C   UNL     1     -10.211   6.284  69.619  1.00  0.00    -0.233 C  
BRANCH  17  18
HETATM   18  C   UNL     1     -10.167   7.500  68.689  1.00  0.00    -0.210 C  
BRANCH  18  19
HETATM   19  C   UNL     1     -10.561   7.147  67.258  1.00  0.00    -0.398 C  
BRANCH  19  20
HETATM   20  C   UNL     1      -9.443   7.403  66.244  1.00  0.00    -0.144 C  
BRANCH  20  21
HETATM   21  C   UNL     1      -8.477   8.521  66.656  1.00  0.00    -0.116 C  
BRANCH  21  22
HETATM   22  C   UNL     1      -8.801   9.865  65.996  1.00  0.00    -0.166 C  
BRANCH  22  23
HETATM   23  C   UNL     1      -9.227  10.943  66.998  1.00  0.00    -0.165 C  
BRANCH  23  24
HETATM   24  C   UNL     1     -10.518  11.638  66.562  1.00  0.00    -0.239 C  
BRANCH  24  25
HETATM   25  N   UNL     1     -11.001  12.558  67.623  1.00  0.00    -0.233 NA 
HETATM   26  C   UNL     1     -11.540  12.055  68.777  1.00  0.00    -0.311 A  
HETATM   27  C   UNL     1     -11.925  12.925  69.801  1.00  0.00    -0.365 A  
HETATM   28  C   UNL     1     -11.707  10.585  69.089  1.00  0.00    -0.261 C  
HETATM   29  C   UNL     1     -11.804  14.300  69.671  1.00  0.00    -0.318 A  
HETATM   30  N   UNL     1     -12.078  15.081  70.797  1.00  0.00    -0.296 NA 
HETATM   31  C   UNL     1     -11.193  14.804  68.510  1.00  0.00    -0.291 A  
HETATM   32  H1  UNL     1     -11.989  16.092  70.702  1.00  0.00     0.000 HD 
HETATM   33  C   UNL     1     -10.825  13.917  67.461  1.00  0.00    -0.266 A  
HETATM   34  H2  UNL     1     -11.501  14.764  71.576  1.00  0.00     0.000 HD 
HETATM   35  C   UNL     1     -10.261  14.470  66.284  1.00  0.00    -0.306 A  
HETATM   36  C   UNL     1     -10.016  15.835  66.151  1.00  0.00    -0.334 A  
HETATM   37  C   UNL     1     -10.336  16.689  67.190  1.00  0.00    -0.300 A  
HETATM   38  C   UNL     1     -10.922  16.182  68.348  1.00  0.00    -0.341 A  
ENDBRANCH  24  25
ENDBRANCH  23  24
ENDBRANCH  22  23
ENDBRANCH  21  22
ENDBRANCH  20  21
ENDBRANCH  19  20
ENDBRANCH  18  19
ENDBRANCH  17  18
ENDBRANCH  16  17
ENDBRANCH  15  16
ENDBRANCH  14  15
TORSDOF 11
ENDMDL
MODEL      364
REMARK 921   NORMALIZED FREE ENERGY PREDICTED BY IDOCK:   -4.44 KCAL/MOL
REMARK 922        TOTAL FREE ENERGY PREDICTED BY IDOCK:   -8.66 KCAL/MOL
REMARK 923 INTER-LIGAND FREE ENERGY PREDICTED BY IDOCK:   -7.61 KCAL/MOL
REMARK 924 INTRA-LIGAND FREE ENERGY PREDICTED BY IDOCK:   -1.05 KCAL/MOL
REMARK 927      BINDING AFFINITY PREDICTED BY RF-SCORE:    0.00 PKD
ROOT
HETATM    1  C   UNL     1     -10.890  18.920  67.480  1.00  0.00    -0.440 C  
HETATM    2  C   UNL     1      -9.534  18.269  67.325  1.00  0.00    -0.264 A  
HETATM    3  C   UNL     1      -8.736  18.676  66.263  1.00  0.00    -0.229 A  
HETATM    4  C   UNL     1      -7.474  18.140  66.058  1.00  0.00    -0.228 A  
HETATM    5  N   UNL     1      -6.685  18.708  65.052  1.00  0.00    -0.490 NA 
HETATM    6  C   UNL     1      -6.970  17.235  67.011  1.00  0.00    -0.223 A  
HETATM    7  H2  UNL     1      -6.603  19.712  65.214  1.00  0.00     0.000 HD 
HETATM    8  C   UNL     1      -5.646  16.741  66.947  1.00  0.00    -0.152 A  
HETATM    9  H1  UNL     1      -5.757  18.314  64.902  1.00  0.00     0.000 HD 
HETATM   10  C   UNL     1      -5.150  15.831  67.880  1.00  0.00    -0.137 A  
HETATM   11  C   UNL     1      -5.967  15.380  68.899  1.00  0.00    -0.101 A  
HETATM   12  C   UNL     1      -7.279  15.854  68.994  1.00  0.00    -0.177 A  
HETATM   13  C   UNL     1      -7.799  16.806  68.080  1.00  0.00    -0.182 A  
HETATM   14  N   UNL     1      -9.063  17.339  68.211  1.00  0.00    -0.254 NA 
ENDROOT
BRANCH  14  15
HETATM   15  C   UNL     1      -9.913  16.954  69.372  1.00  0.00    -0.113 C  
BRANCH  15  16
HETATM   16  C   UNL     1     -10.554  15.587  69.140  1.00  0.00    -0.234 C  
BRANCH  16  17
HETATM   17  C   UNL     1     -12.073  15.688  69.035  1.00  0.00    -0.227 C  
BRANCH  17  18
HETATM   18  C   UNL     1     -12.785  15.331  70.343  1.00  0.00    -0.400 C  
BRANCH  18  19
HETATM   19  C   UNL     1     -11.805  15.070  71.483  1.00  0.00    -0.429 C  
BRANCH  19  20
HETATM   20  C   UNL     1     -12.448  14.373  72.684  1.00  0.00    -0.282 C  
BRANCH  20  21
HETATM   21  C   UNL     1     -13.962  14.169  72.545  1.00  0.00    -0.536 C  
BRANCH  21  22
HETATM   22  C   UNL     1     -14.331  12.779  72.017  1.00  0.00     0.590 C  
BRANCH  22  23
HETATM   23  C   UNL     1     -13.224  11.739  72.227  1.00  0.00    -0.146 C  
BRANCH  23  24
HETATM   24  C   UNL     1     -13.103  10.797  71.030  1.00  0.00    -0.248 C  
BRANCH  24  25
HETATM   25  N   UNL     1     -12.224   9.645  71.357  1.00  0.00    -0.358 NA 
HETATM   26  C   UNL     1     -12.704   8.604  72.106  1.00  0.00    -0.392 A  
HETATM   27  C   UNL     1     -11.894   7.491  72.347  1.00  0.00    -0.305 A  
HETATM   28  C   UNL     1     -14.104   8.512  72.668  1.00  0.00    -0.222 C  
HETATM   29  C   UNL     1     -10.595   7.419  71.870  1.00  0.00    -0.203 A  
HETATM   30  N   UNL     1      -9.912   6.211  72.036  1.00  0.00    -0.172 NA 
HETATM   31  C   UNL     1     -10.133   8.462  71.050  1.00  0.00    -0.242 A  
HETATM   32  H1  UNL     1      -8.956   6.158  71.685  1.00  0.00     0.000 HD 
HETATM   33  C   UNL     1     -10.951   9.604  70.828  1.00  0.00    -0.327 A  
HETATM   34  H2  UNL     1     -10.462   5.454  71.630  1.00  0.00     0.000 HD 
HETATM   35  C   UNL     1     -10.426  10.660  70.039  1.00  0.00    -0.063 A  
HETATM   36  C   UNL     1      -9.169  10.585  69.444  1.00  0.00    -0.128 A  
HETATM   37  C   UNL     1      -8.394   9.456  69.628  1.00  0.00    -0.147 A  
HETATM   38  C   UNL     1      -8.866   8.414  70.424  1.00  0.00    -0.149 A  
ENDBRANCH  24  25
ENDBRANCH  23  24
ENDBRANCH  22  23
ENDBRANCH  21  22
ENDBRANCH  20  21
ENDBRANCH  19  20
ENDBRANCH  18  19
ENDBRANCH  17  18
ENDBRANCH  16  17
ENDBRANCH  15  16
ENDBRANCH  14  15
TORSDOF 11
ENDMDL
MODEL      365
REMARK 921   NORMALIZED FREE ENERGY PREDICTED BY IDOCK:   -4.44 KCAL/MOL
REMARK 922        TOTAL FREE ENERGY PREDICTED BY IDOCK:   -8.65 KCAL/MOL
REMARK 923 INTER-LIGAND FREE ENERGY PREDICTED BY IDOCK:   -8.08 KCAL/MOL
REMARK 924 INTRA-LIGAND FREE ENERGY PREDICTED BY IDOCK:   -0.57 KCAL/MOL
REMARK 927      BINDING AFFINITY PREDICTED BY RF-SCORE:    0.00 PKD
ROOT
HETATM    1  C   UNL     1     -10.621  17.066  69.919  1.00  0.00     0.087 C  
HETATM    2  C   UNL     1     -10.642  16.414  68.555  1.00  0.00    -0.304 A  
HETATM    3  C   UNL     1      -9.689  16.819  67.628  1.00  0.00    -0.251 A  
HETATM    4  C   UNL     1      -9.630  16.260  66.360  1.00  0.00    -0.291 A  
HETATM    5  N   UNL     1      -8.554  16.623  65.543  1.00  0.00    -0.030 NA 
HETATM    6  C   UNL     1     -10.502  15.197  66.057  1.00  0.00    -0.330 A  
HETATM    7  H2  UNL     1      -7.680  16.436  66.034  1.00  0.00     0.000 HD 
HETATM    8  C   UNL     1     -10.422  14.488  64.836  1.00  0.00    -0.435 A  
HETATM    9  H1  UNL     1      -8.511  16.212  64.611  1.00  0.00     0.000 HD 
HETATM   10  C   UNL     1     -11.294  13.447  64.526  1.00  0.00    -0.391 A  
HETATM   11  C   UNL     1     -12.282  13.089  65.425  1.00  0.00    -0.520 A  
HETATM   12  C   UNL     1     -12.384  13.765  66.644  1.00  0.00    -0.403 A  
HETATM   13  C   UNL     1     -11.488  14.805  67.001  1.00  0.00    -0.353 A  
HETATM   14  N   UNL     1     -11.529  15.425  68.231  1.00  0.00    -0.345 NA 
ENDROOT
BRANCH  14  15
HETATM   15  C   UNL     1     -12.509  14.971  69.257  1.00  0.00     0.018 C  
BRANCH  15  16
HETATM   16  C   UNL     1     -11.797  14.612  70.560  1.00  0.00    -0.367 C  
BRANCH  16  17
HETATM   17  C   UNL     1     -12.056  13.163  70.962  1.00  0.00    -0.114 C  
BRANCH  17  18
HETATM   18  C   UNL     1     -11.474  12.156  69.966  1.00  0.00    -0.156 C  
BRANCH  18  19
HETATM   19  C   UNL     1     -12.119  10.779  70.093  1.00  0.00    -0.427 C  
BRANCH  19  20
HETATM   20  C   UNL     1     -11.841  10.104  71.438  1.00  0.00    -0.414 C  
BRANCH  20  21
HETATM   21  C   UNL     1     -10.421   9.535  71.565  1.00  0.00    -0.168 C  
BRANCH  21  22
HETATM   22  C   UNL     1     -10.383   8.177  72.271  1.00  0.00    -0.361 C  
BRANCH  22  23
HETATM   23  C   UNL     1     -10.150   7.003  71.312  1.00  0.00    -0.199 C  
BRANCH  23  24
HETATM   24  C   UNL     1     -10.860   7.219  69.976  1.00  0.00    -0.253 C  
BRANCH  24  25
HETATM   25  N   UNL     1      -9.936   6.955  68.843  1.00  0.00    -0.154 NA 
HETATM   26  C   UNL     1      -9.207   5.796  68.806  1.00  0.00    -0.118 A  
HETATM   27  C   UNL     1      -8.396   5.521  67.702  1.00  0.00    -0.100 A  
HETATM   28  C   UNL     1      -9.245   4.713  69.860  1.00  0.00    -0.188 C  
HETATM   29  C   UNL     1      -8.283   6.408  66.643  1.00  0.00    -0.111 A  
HETATM   30  N   UNL     1      -7.565   5.985  65.520  1.00  0.00    -0.082 NA 
HETATM   31  C   UNL     1      -9.082   7.564  66.660  1.00  0.00    -0.189 A  
HETATM   32  H1  UNL     1      -7.482   6.637  64.741  1.00  0.00     0.000 HD 
HETATM   33  C   UNL     1      -9.886   7.852  67.796  1.00  0.00    -0.163 A  
HETATM   34  H2  UNL     1      -7.955   5.105  65.183  1.00  0.00     0.000 HD 
HETATM   35  C   UNL     1     -10.636   9.056  67.798  1.00  0.00    -0.278 A  
HETATM   36  C   UNL     1     -10.642   9.925  66.709  1.00  0.00    -0.214 A  
HETATM   37  C   UNL     1      -9.892   9.620  65.589  1.00  0.00    -0.369 A  
HETATM   38  C   UNL     1      -9.119   8.462  65.568  1.00  0.00    -0.108 A  
ENDBRANCH  24  25
ENDBRANCH  23  24
ENDBRANCH  22  23
ENDBRANCH  21  22
ENDBRANCH  20  21
ENDBRANCH  19  20
ENDBRANCH  18  19
ENDBRANCH  17  18
ENDBRANCH  16  17
ENDBRANCH  15  16
ENDBRANCH  14  15
TORSDOF 11
ENDMDL
MODEL      366
REMARK 921   NORMALIZED FREE ENERGY PREDICTED BY IDOCK:   -4.44 KCAL/MOL
REMARK 922        TOTAL FREE ENERGY PREDICTED BY IDOCK:   -8.64 KCAL/MOL
REMARK 923 INTER-LIGAND FREE ENERGY PREDICTED BY IDOCK:   -7.18 KCAL/MOL
REMARK 924 INTRA-LIGAND FREE ENERGY PREDICTED BY IDOCK:   -1.46 KCAL/MOL
REMARK 927      BINDING AFFINITY PREDICTED BY RF-SCORE:    0.00 PKD
ROOT
HETATM    1  C   UNL     1     -10.432   7.496  69.655  1.00  0.00    -0.235 C  
HETATM    2  C   UNL     1      -9.516   6.442  69.076  1.00  0.00    -0.129 A  
HETATM    3  C   UNL     1      -9.729   5.121  69.451  1.00  0.00    -0.248 A  
HETATM    4  C   UNL     1      -8.944   4.092  68.954  1.00  0.00    -0.116 A  
HETATM    5  N   UNL     1      -9.317   2.782  69.271  1.00  0.00    -0.139 NA 
HETATM    6  C   UNL     1      -7.976   4.401  67.980  1.00  0.00    -0.080 A  
HETATM    7  H2  UNL     1     -10.287   2.631  68.992  1.00  0.00     0.000 HD 
HETATM    8  C   UNL     1      -7.222   3.396  67.329  1.00  0.00    -0.059 A  
HETATM    9  H1  UNL     1      -8.740   2.025  68.906  1.00  0.00     0.000 HD 
HETATM   10  C   UNL     1      -6.251   3.701  66.376  1.00  0.00    -0.032 A  
HETATM   11  C   UNL     1      -5.997   5.020  66.053  1.00  0.00    -0.023 A  
HETATM   12  C   UNL     1      -6.730   6.037  66.672  1.00  0.00    -0.061 A  
HETATM   13  C   UNL     1      -7.748   5.755  67.620  1.00  0.00    -0.097 A  
HETATM   14  N   UNL     1      -8.529   6.743  68.178  1.00  0.00    -0.121 NA 
ENDROOT
BRANCH  14  15
HETATM   15  C   UNL     1      -8.351   8.159  67.751  1.00  0.00    -0.128 C  
BRANCH  15  16
HETATM   16  C   UNL     1      -9.402   8.545  66.712  1.00  0.00    -0.232 C  
BRANCH  16  17
HETATM   17  C   UNL     1      -9.084   9.889  66.063  1.00  0.00    -0.195 C  
BRANCH  17  18
HETATM   18  C   UNL     1      -8.071   9.775  64.920  1.00  0.00    -0.140 C  
BRANCH  18  19
HETATM   19  C   UNL     1      -8.641  10.261  63.592  1.00  0.00    -0.196 C  
BRANCH  19  20
HETATM   20  C   UNL     1     -10.154  10.489  63.631  1.00  0.00    -0.219 C  
BRANCH  20  21
HETATM   21  C   UNL     1     -10.570  11.942  63.364  1.00  0.00    -0.485 C  
BRANCH  21  22
HETATM   22  C   UNL     1     -11.733  12.403  64.246  1.00  0.00    -0.452 C  
BRANCH  22  23
HETATM   23  C   UNL     1     -11.711  13.908  64.538  1.00  0.00    -0.430 C  
BRANCH  23  24
HETATM   24  C   UNL     1     -12.063  14.203  65.997  1.00  0.00    -0.432 C  
BRANCH  24  25
HETATM   25  N   UNL     1     -10.876  14.016  66.870  1.00  0.00    -0.288 NA 
HETATM   26  C   UNL     1     -10.751  12.882  67.628  1.00  0.00    -0.223 A  
HETATM   27  C   UNL     1      -9.597  12.680  68.390  1.00  0.00    -0.173 A  
HETATM   28  C   UNL     1     -11.756  11.754  67.674  1.00  0.00    -0.320 C  
HETATM   29  C   UNL     1      -8.575  13.616  68.425  1.00  0.00    -0.151 A  
HETATM   30  N   UNL     1      -7.401  13.264  69.097  1.00  0.00    -0.305 NA 
HETATM   31  C   UNL     1      -8.683  14.745  67.596  1.00  0.00    -0.183 A  
HETATM   32  H1  UNL     1      -6.648  13.952  69.123  1.00  0.00     0.000 HD 
HETATM   33  C   UNL     1      -9.869  14.959  66.841  1.00  0.00    -0.240 A  
HETATM   34  H2  UNL     1      -7.043  12.388  68.716  1.00  0.00     0.000 HD 
HETATM   35  C   UNL     1      -9.961  16.138  66.059  1.00  0.00    -0.373 A  
HETATM   36  C   UNL     1      -8.914  17.053  65.973  1.00  0.00    -0.168 A  
HETATM   37  C   UNL     1      -7.746  16.820  66.675  1.00  0.00    -0.308 A  
HETATM   38  C   UNL     1      -7.636  15.687  67.479  1.00  0.00    -0.200 A  
ENDBRANCH  24  25
ENDBRANCH  23  24
ENDBRANCH  22  23
ENDBRANCH  21  22
ENDBRANCH  20  21
ENDBRANCH  19  20
ENDBRANCH  18  19
ENDBRANCH  17  18
ENDBRANCH  16  17
ENDBRANCH  15  16
ENDBRANCH  14  15
TORSDOF 11
ENDMDL
MODEL      367
REMARK 921   NORMALIZED FREE ENERGY PREDICTED BY IDOCK:   -4.41 KCAL/MOL
REMARK 922        TOTAL FREE ENERGY PREDICTED BY IDOCK:   -8.60 KCAL/MOL
REMARK 923 INTER-LIGAND FREE ENERGY PREDICTED BY IDOCK:   -7.71 KCAL/MOL
REMARK 924 INTRA-LIGAND FREE ENERGY PREDICTED BY IDOCK:   -0.89 KCAL/MOL
REMARK 927      BINDING AFFINITY PREDICTED BY RF-SCORE:    0.00 PKD
ROOT
HETATM    1  C   UNL     1      -9.290   8.644  71.927  1.00  0.00    -0.357 C  
HETATM    2  C   UNL     1      -9.262   7.245  72.499  1.00  0.00    -0.139 A  
HETATM    3  C   UNL     1      -8.125   6.850  73.193  1.00  0.00    -0.116 A  
HETATM    4  C   UNL     1      -8.025   5.589  73.761  1.00  0.00    -0.108 A  
HETATM    5  N   UNL     1      -6.909   5.326  74.561  1.00  0.00    -0.076 NA 
HETATM    6  C   UNL     1      -9.146   4.739  73.703  1.00  0.00    -0.109 A  
HETATM    7  H2  UNL     1      -6.846   6.032  75.295  1.00  0.00     0.000 HD 
HETATM    8  C   UNL     1      -9.174   3.490  74.365  1.00  0.00    -0.105 A  
HETATM    9  H1  UNL     1      -6.835   4.399  74.979  1.00  0.00     0.000 HD 
HETATM   10  C   UNL     1     -10.276   2.640  74.295  1.00  0.00    -0.186 A  
HETATM   11  C   UNL     1     -11.381   3.009  73.551  1.00  0.00    -0.249 A  
HETATM   12  C   UNL     1     -11.388   4.240  72.889  1.00  0.00    -0.056 A  
HETATM   13  C   UNL     1     -10.295   5.141  72.972  1.00  0.00    -0.193 A  
HETATM   14  N   UNL     1     -10.324   6.389  72.389  1.00  0.00    -0.187 NA 
ENDROOT
BRANCH  14  15
HETATM   15  C   UNL     1     -11.552   6.851  71.685  1.00  0.00    -0.287 C  
BRANCH  15  16
HETATM   16  C   UNL     1     -11.714   6.124  70.351  1.00  0.00    -0.140 C  
BRANCH  16  17
HETATM   17  C   UNL     1     -10.493   6.314  69.455  1.00  0.00    -0.298 C  
BRANCH  17  18
HETATM   18  C   UNL     1     -10.526   7.632  68.676  1.00  0.00    -0.203 C  
BRANCH  18  19
HETATM   19  C   UNL     1     -10.686   7.413  67.175  1.00  0.00    -0.400 C  
BRANCH  19  20
HETATM   20  C   UNL     1      -9.601   8.103  66.345  1.00  0.00    -0.286 C  
BRANCH  20  21
HETATM   21  C   UNL     1      -8.993   9.338  67.024  1.00  0.00    -0.142 C  
BRANCH  21  22
HETATM   22  C   UNL     1      -9.665  10.646  66.595  1.00  0.00    -0.225 C  
BRANCH  22  23
HETATM   23  C   UNL     1      -9.122  11.874  67.335  1.00  0.00    -0.178 C  
BRANCH  23  24
HETATM   24  C   UNL     1     -10.252  12.777  67.832  1.00  0.00    -0.229 C  
BRANCH  24  25
HETATM   25  N   UNL     1     -10.282  14.049  67.065  1.00  0.00    -0.259 NA 
HETATM   26  C   UNL     1     -11.177  14.215  66.043  1.00  0.00    -0.319 A  
HETATM   27  C   UNL     1     -11.248  15.441  65.375  1.00  0.00    -0.272 A  
HETATM   28  C   UNL     1     -12.179  13.178  65.589  1.00  0.00    -0.521 C  
HETATM   29  C   UNL     1     -10.412  16.497  65.701  1.00  0.00    -0.324 A  
HETATM   30  N   UNL     1     -10.652  17.726  65.080  1.00  0.00    -0.446 NA 
HETATM   31  C   UNL     1      -9.541  16.338  66.792  1.00  0.00    -0.254 A  
HETATM   32  H1  UNL     1     -10.037  18.503  65.320  1.00  0.00     0.000 HD 
HETATM   33  C   UNL     1      -9.454  15.082  67.452  1.00  0.00    -0.201 A  
HETATM   34  H2  UNL     1     -11.622  18.001  65.242  1.00  0.00     0.000 HD 
HETATM   35  C   UNL     1      -8.523  14.947  68.514  1.00  0.00    -0.163 A  
HETATM   36  C   UNL     1      -7.740  16.013  68.952  1.00  0.00    -0.196 A  
HETATM   37  C   UNL     1      -7.858  17.244  68.335  1.00  0.00    -0.254 A  
HETATM   38  C   UNL     1      -8.739  17.402  67.267  1.00  0.00    -0.232 A  
ENDBRANCH  24  25
ENDBRANCH  23  24
ENDBRANCH  22  23
ENDBRANCH  21  22
ENDBRANCH  20  21
ENDBRANCH  19  20
ENDBRANCH  18  19
ENDBRANCH  17  18
ENDBRANCH  16  17
ENDBRANCH  15  16
ENDBRANCH  14  15
TORSDOF 11
ENDMDL
MODEL      368
REMARK 921   NORMALIZED FREE ENERGY PREDICTED BY IDOCK:   -4.39 KCAL/MOL
REMARK 922        TOTAL FREE ENERGY PREDICTED BY IDOCK:   -8.56 KCAL/MOL
REMARK 923 INTER-LIGAND FREE ENERGY PREDICTED BY IDOCK:   -6.25 KCAL/MOL
REMARK 924 INTRA-LIGAND FREE ENERGY PREDICTED BY IDOCK:   -2.31 KCAL/MOL
REMARK 927      BINDING AFFINITY PREDICTED BY RF-SCORE:    0.00 PKD
ROOT
HETATM    1  C   UNL     1     -12.491  14.969  68.080  1.00  0.00     0.523 C  
HETATM    2  C   UNL     1     -11.096  15.552  68.123  1.00  0.00    -0.325 A  
HETATM    3  C   UNL     1     -10.968  16.908  68.398  1.00  0.00    -0.296 A  
HETATM    4  C   UNL     1      -9.724  17.517  68.470  1.00  0.00    -0.319 A  
HETATM    5  N   UNL     1      -9.680  18.850  68.891  1.00  0.00    -0.384 NA 
HETATM    6  C   UNL     1      -8.577  16.711  68.352  1.00  0.00    -0.221 A  
HETATM    7  H2  UNL     1     -10.149  18.934  69.793  1.00  0.00     0.000 HD 
HETATM    8  C   UNL     1      -7.274  17.229  68.540  1.00  0.00    -0.224 A  
HETATM    9  H1  UNL     1      -8.766  19.298  68.944  1.00  0.00     0.000 HD 
HETATM   10  C   UNL     1      -6.136  16.436  68.407  1.00  0.00    -0.119 A  
HETATM   11  C   UNL     1      -6.265  15.102  68.070  1.00  0.00    -0.159 A  
HETATM   12  C   UNL     1      -7.539  14.556  67.884  1.00  0.00    -0.153 A  
HETATM   13  C   UNL     1      -8.716  15.331  68.048  1.00  0.00    -0.160 A  
HETATM   14  N   UNL     1      -9.977  14.786  67.943  1.00  0.00    -0.212 NA 
ENDROOT
BRANCH  14  15
HETATM   15  C   UNL     1     -10.136  13.325  67.700  1.00  0.00    -0.229 C  
BRANCH  15  16
HETATM   16  C   UNL     1     -10.386  12.585  69.012  1.00  0.00     0.030 C  
BRANCH  16  17
HETATM   17  C   UNL     1     -11.019  11.216  68.774  1.00  0.00    -0.268 C  
BRANCH  17  18
HETATM   18  C   UNL     1     -12.189  10.928  69.720  1.00  0.00    -0.381 C  
BRANCH  18  19
HETATM   19  C   UNL     1     -11.723  10.387  71.068  1.00  0.00    -0.430 C  
BRANCH  19  20
HETATM   20  C   UNL     1     -12.063   8.909  71.275  1.00  0.00    -0.360 C  
BRANCH  20  21
HETATM   21  C   UNL     1     -10.877   7.962  71.048  1.00  0.00    -0.253 C  
BRANCH  21  22
HETATM   22  C   UNL     1     -11.065   7.048  69.833  1.00  0.00    -0.301 C  
BRANCH  22  23
HETATM   23  C   UNL     1     -10.365   7.567  68.572  1.00  0.00    -0.224 C  
BRANCH  23  24
HETATM   24  C   UNL     1      -8.844   7.474  68.695  1.00  0.00    -0.127 C  
BRANCH  24  25
HETATM   25  N   UNL     1      -8.192   8.616  68.004  1.00  0.00    -0.115 NA 
HETATM   26  C   UNL     1      -7.816   9.726  68.713  1.00  0.00    -0.082 A  
HETATM   27  C   UNL     1      -7.138  10.764  68.069  1.00  0.00    -0.081 A  
HETATM   28  C   UNL     1      -8.018   9.916  70.199  1.00  0.00    -0.181 C  
HETATM   29  C   UNL     1      -6.855  10.718  66.712  1.00  0.00    -0.115 A  
HETATM   30  N   UNL     1      -6.049  11.731  66.186  1.00  0.00    -0.461 NA 
HETATM   31  C   UNL     1      -7.188   9.550  66.007  1.00  0.00    -0.093 A  
HETATM   32  H1  UNL     1      -5.840  11.697  65.189  1.00  0.00     0.000 HD 
HETATM   33  C   UNL     1      -7.900   8.506  66.660  1.00  0.00    -0.090 A  
HETATM   34  H2  UNL     1      -5.175  11.774  66.711  1.00  0.00     0.000 HD 
HETATM   35  C   UNL     1      -8.265   7.366  65.899  1.00  0.00    -0.134 A  
HETATM   36  C   UNL     1      -7.906   7.224  64.560  1.00  0.00    -0.121 A  
HETATM   37  C   UNL     1      -7.177   8.221  63.941  1.00  0.00    -0.094 A  
HETATM   38  C   UNL     1      -6.830   9.369  64.651  1.00  0.00    -0.096 A  
ENDBRANCH  24  25
ENDBRANCH  23  24
ENDBRANCH  22  23
ENDBRANCH  21  22
ENDBRANCH  20  21
ENDBRANCH  19  20
ENDBRANCH  18  19
ENDBRANCH  17  18
ENDBRANCH  16  17
ENDBRANCH  15  16
ENDBRANCH  14  15
TORSDOF 11
ENDMDL
MODEL      369
REMARK 921   NORMALIZED FREE ENERGY PREDICTED BY IDOCK:   -4.38 KCAL/MOL
REMARK 922        TOTAL FREE ENERGY PREDICTED BY IDOCK:   -8.56 KCAL/MOL
REMARK 923 INTER-LIGAND FREE ENERGY PREDICTED BY IDOCK:   -8.81 KCAL/MOL
REMARK 924 INTRA-LIGAND FREE ENERGY PREDICTED BY IDOCK:    0.25 KCAL/MOL
REMARK 927      BINDING AFFINITY PREDICTED BY RF-SCORE:    0.00 PKD
ROOT
HETATM    1  C   UNL     1     -12.215  13.929  65.129  1.00  0.00    -0.443 C  
HETATM    2  C   UNL     1     -11.259  12.762  65.027  1.00  0.00    -0.298 A  
HETATM    3  C   UNL     1     -11.177  12.095  63.811  1.00  0.00    -0.509 A  
HETATM    4  C   UNL     1     -10.315  11.024  63.630  1.00  0.00    -0.352 A  
HETATM    5  N   UNL     1     -10.192  10.504  62.337  1.00  0.00    -0.696 NA 
HETATM    6  C   UNL     1      -9.446  10.680  64.683  1.00  0.00    -0.308 A  
HETATM    7  H2  UNL     1      -9.936  11.254  61.695  1.00  0.00     0.000 HD 
HETATM    8  C   UNL     1      -8.450   9.686  64.537  1.00  0.00    -0.186 A  
HETATM    9  H1  UNL     1      -9.558   9.716  62.204  1.00  0.00     0.000 HD 
HETATM   10  C   UNL     1      -7.600   9.332  65.584  1.00  0.00    -0.094 A  
HETATM   11  C   UNL     1      -7.728   9.954  66.811  1.00  0.00    -0.099 A  
HETATM   12  C   UNL     1      -8.698  10.945  66.986  1.00  0.00    -0.141 A  
HETATM   13  C   UNL     1      -9.553  11.350  65.930  1.00  0.00    -0.227 A  
HETATM   14  N   UNL     1     -10.459  12.380  66.068  1.00  0.00    -0.248 NA 
ENDROOT
BRANCH  14  15
HETATM   15  C   UNL     1     -10.527  13.141  67.347  1.00  0.00    -0.242 C  
BRANCH  15  16
HETATM   16  C   UNL     1     -11.843  12.861  68.070  1.00  0.00    -0.390 C  
BRANCH  16  17
HETATM   17  C   UNL     1     -11.642  12.744  69.578  1.00  0.00    -0.342 C  
BRANCH  17  18
HETATM   18  C   UNL     1     -12.080  11.386  70.133  1.00  0.00    -0.439 C  
BRANCH  18  19
HETATM   19  C   UNL     1     -12.901  11.521  71.412  1.00  0.00    -0.489 C  
BRANCH  19  20
HETATM   20  C   UNL     1     -13.069  10.199  72.165  1.00  0.00    -0.463 C  
BRANCH  20  21
HETATM   21  C   UNL     1     -12.006   9.148  71.817  1.00  0.00    -0.449 C  
BRANCH  21  22
HETATM   22  C   UNL     1     -12.523   7.712  71.941  1.00  0.00    -0.338 C  
BRANCH  22  23
HETATM   23  C   UNL     1     -11.498   6.661  71.501  1.00  0.00    -0.343 C  
BRANCH  23  24
HETATM   24  C   UNL     1     -10.074   7.217  71.531  1.00  0.00    -0.186 C  
BRANCH  24  25
HETATM   25  N   UNL     1      -9.081   6.113  71.548  1.00  0.00    -0.143 NA 
HETATM   26  C   UNL     1      -7.855   6.280  70.962  1.00  0.00    -0.111 A  
HETATM   27  C   UNL     1      -6.900   5.264  71.045  1.00  0.00    -0.048 A  
HETATM   28  C   UNL     1      -7.395   7.536  70.256  1.00  0.00    -0.076 C  
HETATM   29  C   UNL     1      -7.168   4.065  71.688  1.00  0.00    -0.053 A  
HETATM   30  N   UNL     1      -6.108   3.168  71.847  1.00  0.00    -0.013 NA 
HETATM   31  C   UNL     1      -8.404   3.926  72.340  1.00  0.00    -0.094 A  
HETATM   32  H1  UNL     1      -6.304   2.286  72.320  1.00  0.00     0.000 HD 
HETATM   33  C   UNL     1      -9.382   4.953  72.231  1.00  0.00    -0.138 A  
HETATM   34  H2  UNL     1      -5.336   3.638  72.320  1.00  0.00     0.000 HD 
HETATM   35  C   UNL     1     -10.637   4.750  72.860  1.00  0.00    -0.278 A  
HETATM   36  C   UNL     1     -10.914   3.610  73.611  1.00  0.00    -0.333 A  
HETATM   37  C   UNL     1      -9.946   2.634  73.750  1.00  0.00    -0.160 A  
HETATM   38  C   UNL     1      -8.713   2.787  73.118  1.00  0.00    -0.080 A  
ENDBRANCH  24  25
ENDBRANCH  23  24
ENDBRANCH  22  23
ENDBRANCH  21  22
ENDBRANCH  20  21
ENDBRANCH  19  20
ENDBRANCH  18  19
ENDBRANCH  17  18
ENDBRANCH  16  17
ENDBRANCH  15  16
ENDBRANCH  14  15
TORSDOF 11
ENDMDL
MODEL      370
REMARK 921   NORMALIZED FREE ENERGY PREDICTED BY IDOCK:   -4.38 KCAL/MOL
REMARK 922        TOTAL FREE ENERGY PREDICTED BY IDOCK:   -8.55 KCAL/MOL
REMARK 923 INTER-LIGAND FREE ENERGY PREDICTED BY IDOCK:   -6.77 KCAL/MOL
REMARK 924 INTRA-LIGAND FREE ENERGY PREDICTED BY IDOCK:   -1.78 KCAL/MOL
REMARK 927      BINDING AFFINITY PREDICTED BY RF-SCORE:    0.00 PKD
ROOT
HETATM    1  C   UNL     1      -5.764   7.693  71.200  1.00  0.00    -0.035 C  
HETATM    2  C   UNL     1      -6.780   6.601  71.451  1.00  0.00    -0.058 A  
HETATM    3  C   UNL     1      -6.452   5.309  71.062  1.00  0.00    -0.034 A  
HETATM    4  C   UNL     1      -7.320   4.248  71.269  1.00  0.00    -0.051 A  
HETATM    5  N   UNL     1      -6.853   2.962  70.977  1.00  0.00    -0.032 NA 
HETATM    6  C   UNL     1      -8.514   4.490  71.975  1.00  0.00    -0.116 A  
HETATM    7  H2  UNL     1      -5.987   2.794  71.489  1.00  0.00     0.000 HD 
HETATM    8  C   UNL     1      -9.393   3.444  72.341  1.00  0.00    -0.165 A  
HETATM    9  H1  UNL     1      -7.492   2.182  71.130  1.00  0.00     0.000 HD 
HETATM   10  C   UNL     1     -10.583   3.683  73.026  1.00  0.00    -0.252 A  
HETATM   11  C   UNL     1     -10.936   4.978  73.356  1.00  0.00    -0.393 A  
HETATM   12  C   UNL     1     -10.087   6.034  73.015  1.00  0.00    -0.195 A  
HETATM   13  C   UNL     1      -8.853   5.817  72.350  1.00  0.00    -0.131 A  
HETATM   14  N   UNL     1      -7.971   6.841  72.079  1.00  0.00    -0.097 NA 
ENDROOT
BRANCH  14  15
HETATM   15  C   UNL     1      -8.280   8.225  72.534  1.00  0.00    -0.164 C  
BRANCH  15  16
HETATM   16  C   UNL     1      -8.729   9.091  71.358  1.00  0.00    -0.198 C  
BRANCH  16  17
HETATM   17  C   UNL     1     -10.237   9.006  71.140  1.00  0.00    -0.363 C  
BRANCH  17  18
HETATM   18  C   UNL     1     -10.610   8.610  69.708  1.00  0.00    -0.224 C  
BRANCH  18  19
HETATM   19  C   UNL     1      -9.427   8.718  68.751  1.00  0.00    -0.142 C  
BRANCH  19  20
HETATM   20  C   UNL     1      -9.599   7.881  67.482  1.00  0.00    -0.190 C  
BRANCH  20  21
HETATM   21  C   UNL     1      -8.287   7.297  66.941  1.00  0.00    -0.118 C  
BRANCH  21  22
HETATM   22  C   UNL     1      -7.810   7.986  65.659  1.00  0.00    -0.104 C  
BRANCH  22  23
HETATM   23  C   UNL     1      -8.872   8.897  65.032  1.00  0.00    -0.183 C  
BRANCH  23  24
HETATM   24  C   UNL     1      -8.289  10.254  64.640  1.00  0.00    -0.169 C  
BRANCH  24  25
HETATM   25  N   UNL     1      -8.858  11.334  65.487  1.00  0.00    -0.142 NA 
HETATM   26  C   UNL     1      -8.215  11.722  66.632  1.00  0.00    -0.117 A  
HETATM   27  C   UNL     1      -8.718  12.786  67.384  1.00  0.00    -0.196 A  
HETATM   28  C   UNL     1      -6.926  11.123  67.149  1.00  0.00    -0.112 C  
HETATM   29  C   UNL     1      -9.877  13.452  67.018  1.00  0.00    -0.250 A  
HETATM   30  N   UNL     1     -10.223  14.593  67.747  1.00  0.00    -0.228 NA 
HETATM   31  C   UNL     1     -10.495  13.090  65.810  1.00  0.00    -0.292 A  
HETATM   32  H1  UNL     1     -11.076  15.084  67.478  1.00  0.00     0.000 HD 
HETATM   33  C   UNL     1      -9.994  11.990  65.060  1.00  0.00    -0.233 A  
HETATM   34  H2  UNL     1      -9.441  15.249  67.740  1.00  0.00     0.000 HD 
HETATM   35  C   UNL     1     -10.679  11.621  63.874  1.00  0.00    -0.459 A  
HETATM   36  C   UNL     1     -11.782  12.330  63.405  1.00  0.00    -0.542 A  
HETATM   37  C   UNL     1     -12.240  13.425  64.114  1.00  0.00    -0.457 A  
HETATM   38  C   UNL     1     -11.610  13.794  65.301  1.00  0.00    -0.330 A  
ENDBRANCH  24  25
ENDBRANCH  23  24
ENDBRANCH  22  23
ENDBRANCH  21  22
ENDBRANCH  20  21
ENDBRANCH  19  20
ENDBRANCH  18  19
ENDBRANCH  17  18
ENDBRANCH  16  17
ENDBRANCH  15  16
ENDBRANCH  14  15
TORSDOF 11
ENDMDL
MODEL      371
REMARK 921   NORMALIZED FREE ENERGY PREDICTED BY IDOCK:   -4.34 KCAL/MOL
REMARK 922        TOTAL FREE ENERGY PREDICTED BY IDOCK:   -8.49 KCAL/MOL
REMARK 923 INTER-LIGAND FREE ENERGY PREDICTED BY IDOCK:   -6.06 KCAL/MOL
REMARK 924 INTRA-LIGAND FREE ENERGY PREDICTED BY IDOCK:   -2.43 KCAL/MOL
REMARK 927      BINDING AFFINITY PREDICTED BY RF-SCORE:    0.00 PKD
ROOT
HETATM    1  C   UNL     1     -11.274   6.585  68.543  1.00  0.00    -0.287 C  
HETATM    2  C   UNL     1     -10.559   6.024  69.752  1.00  0.00    -0.289 A  
HETATM    3  C   UNL     1      -9.441   5.230  69.533  1.00  0.00    -0.192 A  
HETATM    4  C   UNL     1      -8.719   4.689  70.586  1.00  0.00    -0.099 A  
HETATM    5  N   UNL     1      -7.529   4.021  70.280  1.00  0.00    -0.045 NA 
HETATM    6  C   UNL     1      -9.088   5.040  71.899  1.00  0.00    -0.157 A  
HETATM    7  H2  UNL     1      -6.924   4.641  69.741  1.00  0.00     0.000 HD 
HETATM    8  C   UNL     1      -8.330   4.637  73.023  1.00  0.00    -0.100 A  
HETATM    9  H1  UNL     1      -6.998   3.624  71.055  1.00  0.00     0.000 HD 
HETATM   10  C   UNL     1      -8.703   4.970  74.324  1.00  0.00    -0.113 A  
HETATM   11  C   UNL     1      -9.851   5.707  74.541  1.00  0.00    -0.246 A  
HETATM   12  C   UNL     1     -10.619   6.127  73.452  1.00  0.00    -0.288 A  
HETATM   13  C   UNL     1     -10.245   5.833  72.115  1.00  0.00    -0.199 A  
HETATM   14  N   UNL     1     -10.951   6.308  71.031  1.00  0.00    -0.269 NA 
ENDROOT
BRANCH  14  15
HETATM   15  C   UNL     1     -12.122   7.204  71.243  1.00  0.00    -0.348 C  
BRANCH  15  16
HETATM   16  C   UNL     1     -11.663   8.632  71.531  1.00  0.00    -0.369 C  
BRANCH  16  17
HETATM   17  C   UNL     1     -12.774   9.644  71.264  1.00  0.00    -0.443 C  
BRANCH  17  18
HETATM   18  C   UNL     1     -12.839  10.748  72.323  1.00  0.00     0.031 C  
BRANCH  18  19
HETATM   19  C   UNL     1     -13.313  12.078  71.744  1.00  0.00    -0.338 C  
BRANCH  19  20
HETATM   20  C   UNL     1     -12.163  13.011  71.357  1.00  0.00     0.083 C  
BRANCH  20  21
HETATM   21  C   UNL     1     -12.457  13.880  70.127  1.00  0.00    -0.355 C  
BRANCH  21  22
HETATM   22  C   UNL     1     -12.465  13.082  68.820  1.00  0.00     0.377 C  
BRANCH  22  23
HETATM   23  C   UNL     1     -11.121  12.410  68.515  1.00  0.00    -0.296 C  
BRANCH  23  24
HETATM   24  C   UNL     1     -11.309  10.975  68.022  1.00  0.00    -0.306 C  
BRANCH  24  25
HETATM   25  N   UNL     1     -10.080  10.488  67.346  1.00  0.00    -0.188 NA 
HETATM   26  C   UNL     1      -9.875  10.749  66.017  1.00  0.00    -0.235 A  
HETATM   27  C   UNL     1      -8.683  10.350  65.407  1.00  0.00    -0.193 A  
HETATM   28  C   UNL     1     -10.829  11.511  65.126  1.00  0.00    -0.326 C  
HETATM   29  C   UNL     1      -7.701   9.667  66.106  1.00  0.00    -0.102 A  
HETATM   30  N   UNL     1      -6.485   9.438  65.454  1.00  0.00    -0.068 NA 
HETATM   31  C   UNL     1      -7.891   9.459  67.482  1.00  0.00    -0.099 A  
HETATM   32  H1  UNL     1      -5.762   8.935  65.968  1.00  0.00     0.000 HD 
HETATM   33  C   UNL     1      -9.116   9.843  68.094  1.00  0.00    -0.121 A  
HETATM   34  H2  UNL     1      -6.108  10.326  65.123  1.00  0.00     0.000 HD 
HETATM   35  C   UNL     1      -9.290   9.567  69.474  1.00  0.00    -0.199 A  
HETATM   36  C   UNL     1      -8.287   8.983  70.245  1.00  0.00    -0.167 A  
HETATM   37  C   UNL     1      -7.082   8.650  69.656  1.00  0.00    -0.055 A  
HETATM   38  C   UNL     1      -6.890   8.878  68.294  1.00  0.00    -0.065 A  
ENDBRANCH  24  25
ENDBRANCH  23  24
ENDBRANCH  22  23
ENDBRANCH  21  22
ENDBRANCH  20  21
ENDBRANCH  19  20
ENDBRANCH  18  19
ENDBRANCH  17  18
ENDBRANCH  16  17
ENDBRANCH  15  16
ENDBRANCH  14  15
TORSDOF 11
ENDMDL
MODEL      372
REMARK 921   NORMALIZED FREE ENERGY PREDICTED BY IDOCK:   -4.33 KCAL/MOL
REMARK 922        TOTAL FREE ENERGY PREDICTED BY IDOCK:   -8.47 KCAL/MOL
REMARK 923 INTER-LIGAND FREE ENERGY PREDICTED BY IDOCK:   -7.92 KCAL/MOL
REMARK 924 INTRA-LIGAND FREE ENERGY PREDICTED BY IDOCK:   -0.56 KCAL/MOL
REMARK 927      BINDING AFFINITY PREDICTED BY RF-SCORE:    0.00 PKD
ROOT
HETATM    1  C   UNL     1     -11.857  13.422  68.512  1.00  0.00    -0.401 C  
HETATM    2  C   UNL     1     -11.805  12.056  69.158  1.00  0.00    -0.311 A  
HETATM    3  C   UNL     1     -10.908  11.129  68.644  1.00  0.00    -0.251 A  
HETATM    4  C   UNL     1     -10.788   9.859  69.189  1.00  0.00    -0.221 A  
HETATM    5  N   UNL     1      -9.763   9.041  68.702  1.00  0.00    -0.157 NA 
HETATM    6  C   UNL     1     -11.531   9.554  70.344  1.00  0.00    -0.297 A  
HETATM    7  H2  UNL     1      -8.872   9.530  68.788  1.00  0.00     0.000 HD 
HETATM    8  C   UNL     1     -11.373   8.331  71.036  1.00  0.00    -0.299 A  
HETATM    9  H1  UNL     1      -9.675   8.107  69.103  1.00  0.00     0.000 HD 
HETATM   10  C   UNL     1     -12.120   8.021  72.171  1.00  0.00    -0.391 A  
HETATM   11  C   UNL     1     -13.057   8.920  72.642  1.00  0.00    -0.349 A  
HETATM   12  C   UNL     1     -13.234  10.141  71.986  1.00  0.00    -0.534 A  
HETATM   13  C   UNL     1     -12.463  10.499  70.850  1.00  0.00    -0.390 A  
HETATM   14  N   UNL     1     -12.573  11.731  70.242  1.00  0.00    -0.117 NA 
ENDROOT
BRANCH  14  15
HETATM   15  C   UNL     1     -13.492  12.758  70.809  1.00  0.00     0.838 C  
BRANCH  15  16
HETATM   16  C   UNL     1     -13.357  12.820  72.329  1.00  0.00    -0.563 C  
BRANCH  16  17
HETATM   17  C   UNL     1     -12.211  13.733  72.755  1.00  0.00     0.527 C  
BRANCH  17  18
HETATM   18  C   UNL     1     -12.691  15.103  73.245  1.00  0.00    -0.628 C  
BRANCH  18  19
HETATM   19  C   UNL     1     -12.096  16.249  72.432  1.00  0.00    -0.598 C  
BRANCH  19  20
HETATM   20  C   UNL     1     -11.929  15.913  70.949  1.00  0.00    -0.432 C  
BRANCH  20  21
HETATM   21  C   UNL     1     -11.002  16.876  70.195  1.00  0.00     0.192 C  
BRANCH  21  22
HETATM   22  C   UNL     1     -10.461  16.286  68.889  1.00  0.00    -0.273 C  
BRANCH  22  23
HETATM   23  C   UNL     1      -9.228  17.025  68.358  1.00  0.00    -0.259 C  
BRANCH  23  24
HETATM   24  C   UNL     1      -9.060  16.829  66.851  1.00  0.00    -0.229 C  
BRANCH  24  25
HETATM   25  N   UNL     1      -9.154  15.390  66.497  1.00  0.00    -0.277 NA 
HETATM   26  C   UNL     1      -8.274  14.490  67.034  1.00  0.00    -0.135 A  
HETATM   27  C   UNL     1      -8.414  13.128  66.753  1.00  0.00     0.001 A  
HETATM   28  C   UNL     1      -7.154  14.835  67.990  1.00  0.00    -0.147 C  
HETATM   29  C   UNL     1      -9.413  12.657  65.915  1.00  0.00    -0.089 A  
HETATM   30  N   UNL     1      -9.565  11.272  65.808  1.00  0.00    -0.219 NA 
HETATM   31  C   UNL     1     -10.349  13.579  65.419  1.00  0.00    -0.329 A  
HETATM   32  H1  UNL     1     -10.300  10.925  65.192  1.00  0.00     0.000 HD 
HETATM   33  C   UNL     1     -10.188  14.966  65.687  1.00  0.00    -0.358 A  
HETATM   34  H2  UNL     1      -9.691  10.873  66.739  1.00  0.00     0.000 HD 
HETATM   35  C   UNL     1     -11.125  15.870  65.123  1.00  0.00    -0.319 A  
HETATM   36  C   UNL     1     -12.210  15.435  64.366  1.00  0.00    -0.161 A  
HETATM   37  C   UNL     1     -12.387  14.083  64.144  1.00  0.00    -0.374 A  
HETATM   38  C   UNL     1     -11.467  13.170  64.656  1.00  0.00    -0.368 A  
ENDBRANCH  24  25
ENDBRANCH  23  24
ENDBRANCH  22  23
ENDBRANCH  21  22
ENDBRANCH  20  21
ENDBRANCH  19  20
ENDBRANCH  18  19
ENDBRANCH  17  18
ENDBRANCH  16  17
ENDBRANCH  15  16
ENDBRANCH  14  15
TORSDOF 11
ENDMDL
MODEL      373
REMARK 921   NORMALIZED FREE ENERGY PREDICTED BY IDOCK:   -4.33 KCAL/MOL
REMARK 922        TOTAL FREE ENERGY PREDICTED BY IDOCK:   -8.47 KCAL/MOL
REMARK 923 INTER-LIGAND FREE ENERGY PREDICTED BY IDOCK:   -7.46 KCAL/MOL
REMARK 924 INTRA-LIGAND FREE ENERGY PREDICTED BY IDOCK:   -1.02 KCAL/MOL
REMARK 927      BINDING AFFINITY PREDICTED BY RF-SCORE:    0.00 PKD
ROOT
HETATM    1  C   UNL     1      -8.167  13.979  67.132  1.00  0.00    -0.146 C  
HETATM    2  C   UNL     1      -8.365  15.460  67.365  1.00  0.00    -0.183 A  
HETATM    3  C   UNL     1      -7.648  16.056  68.395  1.00  0.00    -0.145 A  
HETATM    4  C   UNL     1      -7.761  17.412  68.666  1.00  0.00    -0.273 A  
HETATM    5  N   UNL     1      -6.899  17.954  69.624  1.00  0.00    -0.033 NA 
HETATM    6  C   UNL     1      -8.552  18.201  67.809  1.00  0.00    -0.258 A  
HETATM    7  H2  UNL     1      -5.935  17.741  69.370  1.00  0.00     0.000 HD 
HETATM    8  C   UNL     1      -8.619  19.608  67.936  1.00  0.00    -0.360 A  
HETATM    9  H1  UNL     1      -6.983  18.951  69.823  1.00  0.00     0.000 HD 
HETATM   10  C   UNL     1      -9.414  20.389  67.099  1.00  0.00    -0.567 A  
HETATM   11  C   UNL     1     -10.175  19.785  66.116  1.00  0.00    -0.618 A  
HETATM   12  C   UNL     1     -10.126  18.397  65.959  1.00  0.00    -0.293 A  
HETATM   13  C   UNL     1      -9.299  17.581  66.773  1.00  0.00    -0.265 A  
HETATM   14  N   UNL     1      -9.183  16.221  66.576  1.00  0.00    -0.246 NA 
ENDROOT
BRANCH  14  15
HETATM   15  C   UNL     1      -9.903  15.572  65.446  1.00  0.00    -0.256 C  
BRANCH  15  16
HETATM   16  C   UNL     1     -11.345  15.257  65.836  1.00  0.00    -0.172 C  
BRANCH  16  17
HETATM   17  C   UNL     1     -11.556  13.761  66.052  1.00  0.00    -0.361 C  
BRANCH  17  18
HETATM   18  C   UNL     1     -12.603  13.164  65.106  1.00  0.00    -0.525 C  
BRANCH  18  19
HETATM   19  C   UNL     1     -12.161  13.220  63.647  1.00  0.00    -0.551 C  
BRANCH  19  20
HETATM   20  C   UNL     1     -11.258  12.051  63.245  1.00  0.00    -0.403 C  
BRANCH  20  21
HETATM   21  C   UNL     1     -10.842  11.156  64.420  1.00  0.00    -0.340 C  
BRANCH  21  22
HETATM   22  C   UNL     1      -9.325  10.971  64.522  1.00  0.00    -0.227 C  
BRANCH  22  23
HETATM   23  C   UNL     1      -8.877  10.391  65.868  1.00  0.00    -0.179 C  
BRANCH  23  24
HETATM   24  C   UNL     1      -7.412   9.954  65.832  1.00  0.00    -0.108 C  
BRANCH  24  25
HETATM   25  N   UNL     1      -7.299   8.529  65.431  1.00  0.00    -0.083 NA 
HETATM   26  C   UNL     1      -6.939   8.200  64.152  1.00  0.00    -0.070 A  
HETATM   27  C   UNL     1      -6.764   6.858  63.802  1.00  0.00    -0.043 A  
HETATM   28  C   UNL     1      -6.640   9.193  63.052  1.00  0.00    -0.090 C  
HETATM   29  C   UNL     1      -6.974   5.836  64.714  1.00  0.00    -0.052 A  
HETATM   30  N   UNL     1      -6.636   4.539  64.318  1.00  0.00    -0.042 NA 
HETATM   31  C   UNL     1      -7.282   6.184  66.039  1.00  0.00    -0.075 A  
HETATM   32  H1  UNL     1      -6.790   3.786  64.989  1.00  0.00     0.000 HD 
HETATM   33  C   UNL     1      -7.483   7.549  66.385  1.00  0.00    -0.084 A  
HETATM   34  H2  UNL     1      -5.663   4.522  64.011  1.00  0.00     0.000 HD 
HETATM   35  C   UNL     1      -7.846   7.855  67.722  1.00  0.00    -0.123 A  
HETATM   36  C   UNL     1      -7.960   6.871  68.701  1.00  0.00    -0.120 A  
HETATM   37  C   UNL     1      -7.722   5.550  68.372  1.00  0.00    -0.085 A  
HETATM   38  C   UNL     1      -7.395   5.212  67.060  1.00  0.00    -0.082 A  
ENDBRANCH  24  25
ENDBRANCH  23  24
ENDBRANCH  22  23
ENDBRANCH  21  22
ENDBRANCH  20  21
ENDBRANCH  19  20
ENDBRANCH  18  19
ENDBRANCH  17  18
ENDBRANCH  16  17
ENDBRANCH  15  16
ENDBRANCH  14  15
TORSDOF 11
ENDMDL
MODEL      374
REMARK 921   NORMALIZED FREE ENERGY PREDICTED BY IDOCK:   -4.33 KCAL/MOL
REMARK 922        TOTAL FREE ENERGY PREDICTED BY IDOCK:   -8.47 KCAL/MOL
REMARK 923 INTER-LIGAND FREE ENERGY PREDICTED BY IDOCK:   -6.69 KCAL/MOL
REMARK 924 INTRA-LIGAND FREE ENERGY PREDICTED BY IDOCK:   -1.78 KCAL/MOL
REMARK 927      BINDING AFFINITY PREDICTED BY RF-SCORE:    0.00 PKD
ROOT
HETATM    1  C   UNL     1     -12.463  13.982  67.286  1.00  0.00    -0.026 C  
HETATM    2  C   UNL     1     -11.046  14.507  67.341  1.00  0.00    -0.314 A  
HETATM    3  C   UNL     1     -10.866  15.884  67.379  1.00  0.00    -0.291 A  
HETATM    4  C   UNL     1      -9.600  16.448  67.445  1.00  0.00    -0.231 A  
HETATM    5  N   UNL     1      -9.517  17.832  67.624  1.00  0.00    -0.253 NA 
HETATM    6  C   UNL     1      -8.492  15.588  67.569  1.00  0.00    -0.188 A  
HETATM    7  H2  UNL     1     -10.047  18.097  68.454  1.00  0.00     0.000 HD 
HETATM    8  C   UNL     1      -7.182  16.081  67.770  1.00  0.00    -0.161 A  
HETATM    9  H1  UNL     1      -8.586  18.246  67.673  1.00  0.00     0.000 HD 
HETATM   10  C   UNL     1      -6.081  15.232  67.877  1.00  0.00    -0.169 A  
HETATM   11  C   UNL     1      -6.256  13.865  67.774  1.00  0.00    -0.155 A  
HETATM   12  C   UNL     1      -7.539  13.346  67.582  1.00  0.00    -0.177 A  
HETATM   13  C   UNL     1      -8.682  14.183  67.505  1.00  0.00    -0.204 A  
HETATM   14  N   UNL     1      -9.960  13.678  67.395  1.00  0.00    -0.231 NA 
ENDROOT
BRANCH  14  15
HETATM   15  C   UNL     1     -10.178  12.205  67.404  1.00  0.00    -0.198 C  
BRANCH  15  16
HETATM   16  C   UNL     1     -10.449  11.709  68.823  1.00  0.00    -0.226 C  
BRANCH  16  17
HETATM   17  C   UNL     1     -11.582  10.687  68.855  1.00  0.00    -0.320 C  
BRANCH  17  18
HETATM   18  C   UNL     1     -12.311  10.649  70.202  1.00  0.00    -0.370 C  
BRANCH  18  19
HETATM   19  C   UNL     1     -11.453  10.041  71.307  1.00  0.00    -0.390 C  
BRANCH  19  20
HETATM   20  C   UNL     1     -11.748   8.560  71.554  1.00  0.00    -0.354 C  
BRANCH  20  21
HETATM   21  C   UNL     1     -10.729   7.608  70.914  1.00  0.00    -0.243 C  
BRANCH  21  22
HETATM   22  C   UNL     1     -11.349   6.691  69.857  1.00  0.00    -0.422 C  
BRANCH  22  23
HETATM   23  C   UNL     1     -10.774   6.911  68.453  1.00  0.00    -0.259 C  
BRANCH  23  24
HETATM   24  C   UNL     1      -9.336   6.401  68.348  1.00  0.00    -0.121 C  
BRANCH  24  25
HETATM   25  N   UNL     1      -8.749   6.755  67.030  1.00  0.00    -0.113 NA 
HETATM   26  C   UNL     1      -8.131   7.964  66.855  1.00  0.00    -0.115 A  
HETATM   27  C   UNL     1      -7.518   8.260  65.634  1.00  0.00    -0.081 A  
HETATM   28  C   UNL     1      -7.989   9.029  67.918  1.00  0.00    -0.102 C  
HETATM   29  C   UNL     1      -7.540   7.367  64.574  1.00  0.00    -0.110 A  
HETATM   30  N   UNL     1      -6.779   7.687  63.446  1.00  0.00    -0.058 NA 
HETATM   31  C   UNL     1      -8.121   6.106  64.783  1.00  0.00    -0.132 A  
HETATM   32  H1  UNL     1      -6.795   7.031  62.665  1.00  0.00     0.000 HD 
HETATM   33  C   UNL     1      -8.766   5.819  66.018  1.00  0.00    -0.146 A  
HETATM   34  H2  UNL     1      -5.812   7.852  63.727  1.00  0.00     0.000 HD 
HETATM   35  C   UNL     1      -9.388   4.553  66.169  1.00  0.00    -0.156 A  
HETATM   36  C   UNL     1      -9.340   3.580  65.173  1.00  0.00    -0.156 A  
HETATM   37  C   UNL     1      -8.676   3.848  63.991  1.00  0.00    -0.108 A  
HETATM   38  C   UNL     1      -8.083   5.094  63.797  1.00  0.00    -0.115 A  
ENDBRANCH  24  25
ENDBRANCH  23  24
ENDBRANCH  22  23
ENDBRANCH  21  22
ENDBRANCH  20  21
ENDBRANCH  19  20
ENDBRANCH  18  19
ENDBRANCH  17  18
ENDBRANCH  16  17
ENDBRANCH  15  16
ENDBRANCH  14  15
TORSDOF 11
ENDMDL
MODEL      375
REMARK 921   NORMALIZED FREE ENERGY PREDICTED BY IDOCK:   -4.31 KCAL/MOL
REMARK 922        TOTAL FREE ENERGY PREDICTED BY IDOCK:   -8.44 KCAL/MOL
REMARK 923 INTER-LIGAND FREE ENERGY PREDICTED BY IDOCK:   -7.05 KCAL/MOL
REMARK 924 INTRA-LIGAND FREE ENERGY PREDICTED BY IDOCK:   -1.39 KCAL/MOL
REMARK 927      BINDING AFFINITY PREDICTED BY RF-SCORE:    0.00 PKD
ROOT
HETATM    1  C   UNL     1      -9.781  15.684  69.658  1.00  0.00    -0.276 C  
HETATM    2  C   UNL     1      -9.295  16.927  68.949  1.00  0.00    -0.229 A  
HETATM    3  C   UNL     1     -10.241  17.724  68.317  1.00  0.00    -0.382 A  
HETATM    4  C   UNL     1      -9.881  18.890  67.657  1.00  0.00    -0.331 A  
HETATM    5  N   UNL     1     -10.910  19.703  67.172  1.00  0.00    -0.465 NA 
HETATM    6  C   UNL     1      -8.537  19.306  67.720  1.00  0.00    -0.341 A  
HETATM    7  H2  UNL     1     -11.547  19.932  67.935  1.00  0.00     0.000 HD 
HETATM    8  C   UNL     1      -8.111  20.544  67.185  1.00  0.00    -0.358 A  
HETATM    9  H1  UNL     1     -10.645  20.560  66.686  1.00  0.00     0.000 HD 
HETATM   10  C   UNL     1      -6.778  20.950  67.232  1.00  0.00    -0.414 A  
HETATM   11  C   UNL     1      -5.830  20.125  67.806  1.00  0.00    -0.224 A  
HETATM   12  C   UNL     1      -6.219  18.898  68.350  1.00  0.00    -0.236 A  
HETATM   13  C   UNL     1      -7.573  18.474  68.348  1.00  0.00    -0.292 A  
HETATM   14  N   UNL     1      -7.980  17.304  68.951  1.00  0.00    -0.235 NA 
ENDROOT
BRANCH  14  15
HETATM   15  C   UNL     1      -6.991  16.461  69.678  1.00  0.00    -0.064 C  
BRANCH  15  16
HETATM   16  C   UNL     1      -7.150  14.991  69.295  1.00  0.00    -0.170 C  
BRANCH  16  17
HETATM   17  C   UNL     1      -5.955  14.487  68.490  1.00  0.00    -0.093 C  
BRANCH  17  18
HETATM   18  C   UNL     1      -6.280  13.242  67.659  1.00  0.00    -0.153 C  
BRANCH  18  19
HETATM   19  C   UNL     1      -7.637  12.645  68.019  1.00  0.00    -0.132 C  
BRANCH  19  20
HETATM   20  C   UNL     1      -8.729  12.971  66.997  1.00  0.00    -0.195 C  
BRANCH  20  21
HETATM   21  C   UNL     1     -10.148  12.638  67.478  1.00  0.00    -0.212 C  
BRANCH  21  22
HETATM   22  C   UNL     1     -10.234  11.286  68.193  1.00  0.00    -0.196 C  
BRANCH  22  23
HETATM   23  C   UNL     1     -11.037  10.240  67.412  1.00  0.00    -0.261 C  
BRANCH  23  24
HETATM   24  C   UNL     1     -10.187   9.014  67.075  1.00  0.00    -0.266 C  
BRANCH  24  25
HETATM   25  N   UNL     1      -8.910   9.423  66.437  1.00  0.00    -0.141 NA 
HETATM   26  C   UNL     1      -8.916  10.015  65.202  1.00  0.00    -0.192 A  
HETATM   27  C   UNL     1      -7.718  10.462  64.640  1.00  0.00    -0.063 A  
HETATM   28  C   UNL     1     -10.154  10.298  64.381  1.00  0.00    -0.242 C  
HETATM   29  C   UNL     1      -6.504  10.298  65.289  1.00  0.00    -0.122 A  
HETATM   30  N   UNL     1      -5.381  10.905  64.719  1.00  0.00    -0.392 NA 
HETATM   31  C   UNL     1      -6.514   9.748  66.581  1.00  0.00    -0.070 A  
HETATM   32  H1  UNL     1      -4.488  10.785  65.197  1.00  0.00     0.000 HD 
HETATM   33  C   UNL     1      -7.732   9.271  67.139  1.00  0.00    -0.095 A  
HETATM   34  H2  UNL     1      -5.563  11.900  64.592  1.00  0.00     0.000 HD 
HETATM   35  C   UNL     1      -7.691   8.673  68.424  1.00  0.00    -0.100 A  
HETATM   36  C   UNL     1      -6.513   8.586  69.163  1.00  0.00    -0.043 A  
HETATM   37  C   UNL     1      -5.339   9.089  68.636  1.00  0.00    -0.034 A  
HETATM   38  C   UNL     1      -5.339   9.654  67.362  1.00  0.00    -0.036 A  
ENDBRANCH  24  25
ENDBRANCH  23  24
ENDBRANCH  22  23
ENDBRANCH  21  22
ENDBRANCH  20  21
ENDBRANCH  19  20
ENDBRANCH  18  19
ENDBRANCH  17  18
ENDBRANCH  16  17
ENDBRANCH  15  16
ENDBRANCH  14  15
TORSDOF 11
ENDMDL
MODEL      376
REMARK 921   NORMALIZED FREE ENERGY PREDICTED BY IDOCK:   -4.31 KCAL/MOL
REMARK 922        TOTAL FREE ENERGY PREDICTED BY IDOCK:   -8.44 KCAL/MOL
REMARK 923 INTER-LIGAND FREE ENERGY PREDICTED BY IDOCK:   -7.56 KCAL/MOL
REMARK 924 INTRA-LIGAND FREE ENERGY PREDICTED BY IDOCK:   -0.88 KCAL/MOL
REMARK 927      BINDING AFFINITY PREDICTED BY RF-SCORE:    0.00 PKD
ROOT
HETATM    1  C   UNL     1     -12.585  15.595  64.202  1.00  0.00     0.448 C  
HETATM    2  C   UNL     1     -11.971  14.224  64.373  1.00  0.00    -0.456 A  
HETATM    3  C   UNL     1     -12.411  13.207  63.535  1.00  0.00    -0.478 A  
HETATM    4  C   UNL     1     -11.890  11.925  63.616  1.00  0.00    -0.473 A  
HETATM    5  N   UNL     1     -12.285  11.002  62.642  1.00  0.00     0.080 NA 
HETATM    6  C   UNL     1     -10.827  11.691  64.510  1.00  0.00    -0.383 A  
HETATM    7  H2  UNL     1     -12.093  11.386  61.717  1.00  0.00     0.000 HD 
HETATM    8  C   UNL     1     -10.155  10.448  64.564  1.00  0.00    -0.365 A  
HETATM    9  H1  UNL     1     -11.902  10.059  62.702  1.00  0.00     0.000 HD 
HETATM   10  C   UNL     1      -9.114  10.209  65.460  1.00  0.00    -0.216 A  
HETATM   11  C   UNL     1      -8.722  11.203  66.337  1.00  0.00    -0.177 A  
HETATM   12  C   UNL     1      -9.362  12.445  66.305  1.00  0.00    -0.189 A  
HETATM   13  C   UNL     1     -10.400  12.728  65.380  1.00  0.00    -0.293 A  
HETATM   14  N   UNL     1     -10.984  13.973  65.286  1.00  0.00    -0.318 NA 
ENDROOT
BRANCH  14  15
HETATM   15  C   UNL     1     -10.492  15.089  66.140  1.00  0.00    -0.305 C  
BRANCH  15  16
HETATM   16  C   UNL     1      -9.323  15.807  65.467  1.00  0.00    -0.056 C  
BRANCH  16  17
HETATM   17  C   UNL     1      -9.189  17.246  65.958  1.00  0.00    -0.121 C  
BRANCH  17  18
HETATM   18  C   UNL     1     -10.476  18.059  65.779  1.00  0.00    -0.202 C  
BRANCH  18  19
HETATM   19  C   UNL     1     -10.239  19.558  65.935  1.00  0.00    -0.508 C  
BRANCH  19  20
HETATM   20  C   UNL     1     -10.443  20.055  67.368  1.00  0.00    -0.490 C  
BRANCH  20  21
HETATM   21  C   UNL     1      -9.251  19.783  68.295  1.00  0.00    -0.388 C  
BRANCH  21  22
HETATM   22  C   UNL     1      -9.641  19.016  69.561  1.00  0.00     0.110 C  
BRANCH  22  23
HETATM   23  C   UNL     1     -10.192  17.615  69.272  1.00  0.00    -0.147 C  
BRANCH  23  24
HETATM   24  C   UNL     1     -10.729  16.949  70.540  1.00  0.00     0.502 C  
BRANCH  24  25
HETATM   25  N   UNL     1     -10.989  15.506  70.304  1.00  0.00    -0.311 NA 
HETATM   26  C   UNL     1     -10.097  14.754  69.587  1.00  0.00     0.011 A  
HETATM   27  C   UNL     1     -10.313  13.382  69.432  1.00  0.00     0.349 A  
HETATM   28  C   UNL     1      -8.818  15.276  68.974  1.00  0.00    -0.226 C  
HETATM   29  C   UNL     1     -11.429  12.756  69.964  1.00  0.00    -0.006 A  
HETATM   30  N   UNL     1     -11.486  11.362  69.883  1.00  0.00    -0.400 NA 
HETATM   31  C   UNL     1     -12.305  13.522  70.750  1.00  0.00    -0.440 A  
HETATM   32  H1  UNL     1     -12.307  10.900  70.274  1.00  0.00     0.000 HD 
HETATM   33  C   UNL     1     -12.096  14.922  70.885  1.00  0.00    -0.317 A  
HETATM   34  H2  UNL     1     -10.645  10.964  70.302  1.00  0.00     0.000 HD 
HETATM   35  C   UNL     1     -13.034  15.669  71.643  1.00  0.00    -0.551 A  
HETATM   36  C   UNL     1     -14.110  15.066  72.290  1.00  0.00    -0.612 A  
HETATM   37  C   UNL     1     -14.286  13.699  72.192  1.00  0.00    -0.481 A  
HETATM   38  C   UNL     1     -13.401  12.940  71.428  1.00  0.00    -0.153 A  
ENDBRANCH  24  25
ENDBRANCH  23  24
ENDBRANCH  22  23
ENDBRANCH  21  22
ENDBRANCH  20  21
ENDBRANCH  19  20
ENDBRANCH  18  19
ENDBRANCH  17  18
ENDBRANCH  16  17
ENDBRANCH  15  16
ENDBRANCH  14  15
TORSDOF 11
ENDMDL
MODEL      377
REMARK 921   NORMALIZED FREE ENERGY PREDICTED BY IDOCK:   -4.31 KCAL/MOL
REMARK 922        TOTAL FREE ENERGY PREDICTED BY IDOCK:   -8.44 KCAL/MOL
REMARK 923 INTER-LIGAND FREE ENERGY PREDICTED BY IDOCK:   -7.43 KCAL/MOL
REMARK 924 INTRA-LIGAND FREE ENERGY PREDICTED BY IDOCK:   -1.00 KCAL/MOL
REMARK 927      BINDING AFFINITY PREDICTED BY RF-SCORE:    0.00 PKD
ROOT
HETATM    1  C   UNL     1      -5.866   8.723  65.892  1.00  0.00    -0.051 C  
HETATM    2  C   UNL     1      -6.772   7.547  65.606  1.00  0.00    -0.045 A  
HETATM    3  C   UNL     1      -6.260   6.504  64.844  1.00  0.00    -0.038 A  
HETATM    4  C   UNL     1      -7.020   5.382  64.549  1.00  0.00    -0.049 A  
HETATM    5  N   UNL     1      -6.382   4.321  63.900  1.00  0.00    -0.029 NA 
HETATM    6  C   UNL     1      -8.302   5.275  65.120  1.00  0.00    -0.145 A  
HETATM    7  H2  UNL     1      -5.562   4.040  64.439  1.00  0.00     0.000 HD 
HETATM    8  C   UNL     1      -9.091   4.110  64.975  1.00  0.00    -0.143 A  
HETATM    9  H1  UNL     1      -6.941   3.496  63.682  1.00  0.00     0.000 HD 
HETATM   10  C   UNL     1     -10.368   4.008  65.525  1.00  0.00    -0.060 A  
HETATM   11  C   UNL     1     -10.899   5.072  66.229  1.00  0.00    -0.150 A  
HETATM   12  C   UNL     1     -10.142   6.235  66.396  1.00  0.00    -0.097 A  
HETATM   13  C   UNL     1      -8.827   6.354  65.878  1.00  0.00    -0.131 A  
HETATM   14  N   UNL     1      -8.043   7.465  66.104  1.00  0.00    -0.111 NA 
ENDROOT
BRANCH  14  15
HETATM   15  C   UNL     1      -8.554   8.571  66.960  1.00  0.00    -0.121 C  
BRANCH  15  16
HETATM   16  C   UNL     1      -7.987   8.464  68.374  1.00  0.00    -0.118 C  
BRANCH  16  17
HETATM   17  C   UNL     1      -8.683   7.369  69.178  1.00  0.00    -0.136 C  
BRANCH  17  18
HETATM   18  C   UNL     1      -9.962   7.856  69.865  1.00  0.00    -0.192 C  
BRANCH  18  19
HETATM   19  C   UNL     1      -9.905   9.343  70.204  1.00  0.00    -0.272 C  
BRANCH  19  20
HETATM   20  C   UNL     1     -11.021   9.789  71.152  1.00  0.00    -0.386 C  
BRANCH  20  21
HETATM   21  C   UNL     1     -12.343  10.113  70.445  1.00  0.00    -0.268 C  
BRANCH  21  22
HETATM   22  C   UNL     1     -12.201  11.210  69.385  1.00  0.00    -0.329 C  
BRANCH  22  23
HETATM   23  C   UNL     1     -11.671  12.532  69.952  1.00  0.00    -0.327 C  
BRANCH  23  24
HETATM   24  C   UNL     1     -12.578  13.706  69.582  1.00  0.00     0.063 C  
BRANCH  24  25
HETATM   25  N   UNL     1     -11.782  14.827  69.020  1.00  0.00    -0.299 NA 
HETATM   26  C   UNL     1     -11.259  15.784  69.848  1.00  0.00    -0.334 A  
HETATM   27  C   UNL     1     -10.451  16.793  69.319  1.00  0.00    -0.331 A  
HETATM   28  C   UNL     1     -11.430  15.819  71.350  1.00  0.00    -0.496 C  
HETATM   29  C   UNL     1     -10.181  16.873  67.962  1.00  0.00    -0.310 A  
HETATM   30  N   UNL     1      -9.248  17.827  67.545  1.00  0.00    -0.243 NA 
HETATM   31  C   UNL     1     -10.668  15.853  67.129  1.00  0.00    -0.301 A  
HETATM   32  H1  UNL     1      -9.049  17.886  66.547  1.00  0.00     0.000 HD 
HETATM   33  C   UNL     1     -11.511  14.841  67.667  1.00  0.00    -0.347 A  
HETATM   34  H2  UNL     1      -8.375  17.691  68.055  1.00  0.00     0.000 HD 
HETATM   35  C   UNL     1     -12.027  13.859  66.783  1.00  0.00    -0.472 A  
HETATM   36  C   UNL     1     -11.693  13.833  65.430  1.00  0.00    -0.346 A  
HETATM   37  C   UNL     1     -10.840  14.793  64.920  1.00  0.00    -0.433 A  
HETATM   38  C   UNL     1     -10.341  15.791  65.755  1.00  0.00    -0.390 A  
ENDBRANCH  24  25
ENDBRANCH  23  24
ENDBRANCH  22  23
ENDBRANCH  21  22
ENDBRANCH  20  21
ENDBRANCH  19  20
ENDBRANCH  18  19
ENDBRANCH  17  18
ENDBRANCH  16  17
ENDBRANCH  15  16
ENDBRANCH  14  15
TORSDOF 11
ENDMDL
MODEL      378
REMARK 921   NORMALIZED FREE ENERGY PREDICTED BY IDOCK:   -4.30 KCAL/MOL
REMARK 922        TOTAL FREE ENERGY PREDICTED BY IDOCK:   -8.42 KCAL/MOL
REMARK 923 INTER-LIGAND FREE ENERGY PREDICTED BY IDOCK:   -6.52 KCAL/MOL
REMARK 924 INTRA-LIGAND FREE ENERGY PREDICTED BY IDOCK:   -1.90 KCAL/MOL
REMARK 927      BINDING AFFINITY PREDICTED BY RF-SCORE:    0.00 PKD
ROOT
HETATM    1  C   UNL     1     -12.896   7.257  70.982  1.00  0.00    -0.259 C  
HETATM    2  C   UNL     1     -11.483   7.655  71.344  1.00  0.00    -0.264 A  
HETATM    3  C   UNL     1     -11.106   7.566  72.678  1.00  0.00    -0.398 A  
HETATM    4  C   UNL     1      -9.824   7.897  73.091  1.00  0.00    -0.290 A  
HETATM    5  N   UNL     1      -9.488   7.643  74.425  1.00  0.00    -0.311 NA 
HETATM    6  C   UNL     1      -8.873   8.239  72.111  1.00  0.00    -0.265 A  
HETATM    7  H2  UNL     1      -9.667   6.661  74.636  1.00  0.00     0.000 HD 
HETATM    8  C   UNL     1      -7.515   8.467  72.433  1.00  0.00    -0.129 A  
HETATM    9  H1  UNL     1      -8.546   7.887  74.729  1.00  0.00     0.000 HD 
HETATM   10  C   UNL     1      -6.575   8.822  71.466  1.00  0.00    -0.080 A  
HETATM   11  C   UNL     1      -6.968   8.971  70.150  1.00  0.00    -0.047 A  
HETATM   12  C   UNL     1      -8.302   8.747  69.797  1.00  0.00    -0.127 A  
HETATM   13  C   UNL     1      -9.272   8.351  70.753  1.00  0.00    -0.159 A  
HETATM   14  N   UNL     1     -10.572   8.052  70.404  1.00  0.00    -0.220 NA 
ENDROOT
BRANCH  14  15
HETATM   15  C   UNL     1     -10.983   8.091  68.973  1.00  0.00     0.114 C  
BRANCH  15  16
HETATM   16  C   UNL     1     -10.393   6.906  68.211  1.00  0.00    -0.220 C  
BRANCH  16  17
HETATM   17  C   UNL     1     -10.183   7.235  66.735  1.00  0.00    -0.305 C  
BRANCH  17  18
HETATM   18  C   UNL     1      -8.737   7.623  66.412  1.00  0.00    -0.166 C  
BRANCH  18  19
HETATM   19  C   UNL     1      -8.654   8.893  65.570  1.00  0.00    -0.191 C  
BRANCH  19  20
HETATM   20  C   UNL     1      -8.535  10.167  66.410  1.00  0.00    -0.133 C  
BRANCH  20  21
HETATM   21  C   UNL     1      -9.841  10.967  66.512  1.00  0.00    -0.245 C  
BRANCH  21  22
HETATM   22  C   UNL     1     -10.007  11.668  67.863  1.00  0.00    -0.190 C  
BRANCH  22  23
HETATM   23  C   UNL     1     -10.214  13.182  67.736  1.00  0.00    -0.231 C  
BRANCH  23  24
HETATM   24  C   UNL     1      -9.217  13.806  66.759  1.00  0.00    -0.244 C  
BRANCH  24  25
HETATM   25  N   UNL     1      -8.633  15.047  67.329  1.00  0.00    -0.192 NA 
HETATM   26  C   UNL     1      -9.204  16.263  67.060  1.00  0.00    -0.214 A  
HETATM   27  C   UNL     1      -8.693  17.417  67.658  1.00  0.00    -0.221 A  
HETATM   28  C   UNL     1     -10.422  16.476  66.190  1.00  0.00    -0.301 C  
HETATM   29  C   UNL     1      -7.595  17.374  68.504  1.00  0.00    -0.254 A  
HETATM   30  N   UNL     1      -7.246  18.553  69.167  1.00  0.00    -0.230 NA 
HETATM   31  C   UNL     1      -7.056  16.117  68.823  1.00  0.00    -0.155 A  
HETATM   32  H1  UNL     1      -6.438  18.522  69.790  1.00  0.00     0.000 HD 
HETATM   33  C   UNL     1      -7.563  14.948  68.194  1.00  0.00    -0.113 A  
HETATM   34  H2  UNL     1      -8.054  18.904  69.682  1.00  0.00     0.000 HD 
HETATM   35  C   UNL     1      -6.955  13.704  68.503  1.00  0.00    -0.104 A  
HETATM   36  C   UNL     1      -5.923  13.595  69.432  1.00  0.00    -0.099 A  
HETATM   37  C   UNL     1      -5.462  14.728  70.074  1.00  0.00    -0.108 A  
HETATM   38  C   UNL     1      -6.015  15.971  69.768  1.00  0.00    -0.168 A  
ENDBRANCH  24  25
ENDBRANCH  23  24
ENDBRANCH  22  23
ENDBRANCH  21  22
ENDBRANCH  20  21
ENDBRANCH  19  20
ENDBRANCH  18  19
ENDBRANCH  17  18
ENDBRANCH  16  17
ENDBRANCH  15  16
ENDBRANCH  14  15
TORSDOF 11
ENDMDL
MODEL      379
REMARK 921   NORMALIZED FREE ENERGY PREDICTED BY IDOCK:   -4.30 KCAL/MOL
REMARK 922        TOTAL FREE ENERGY PREDICTED BY IDOCK:   -8.42 KCAL/MOL
REMARK 923 INTER-LIGAND FREE ENERGY PREDICTED BY IDOCK:   -7.12 KCAL/MOL
REMARK 924 INTRA-LIGAND FREE ENERGY PREDICTED BY IDOCK:   -1.30 KCAL/MOL
REMARK 927      BINDING AFFINITY PREDICTED BY RF-SCORE:    0.00 PKD
ROOT
HETATM    1  C   UNL     1     -10.347  10.111  66.451  1.00  0.00    -0.258 C  
HETATM    2  C   UNL     1      -9.714   8.738  66.448  1.00  0.00    -0.265 A  
HETATM    3  C   UNL     1     -10.430   7.692  67.017  1.00  0.00    -0.419 A  
HETATM    4  C   UNL     1      -9.928   6.400  67.042  1.00  0.00    -0.163 A  
HETATM    5  N   UNL     1     -10.773   5.386  67.504  1.00  0.00    -0.169 NA 
HETATM    6  C   UNL     1      -8.707   6.145  66.389  1.00  0.00    -0.138 A  
HETATM    7  H2  UNL     1     -11.641   5.400  66.968  1.00  0.00     0.000 HD 
HETATM    8  C   UNL     1      -8.188   4.835  66.256  1.00  0.00    -0.107 A  
HETATM    9  H1  UNL     1     -10.404   4.436  67.522  1.00  0.00     0.000 HD 
HETATM   10  C   UNL     1      -6.972   4.582  65.625  1.00  0.00    -0.062 A  
HETATM   11  C   UNL     1      -6.232   5.633  65.116  1.00  0.00    -0.030 A  
HETATM   12  C   UNL     1      -6.719   6.938  65.224  1.00  0.00    -0.051 A  
HETATM   13  C   UNL     1      -7.970   7.222  65.830  1.00  0.00    -0.122 A  
HETATM   14  N   UNL     1      -8.497   8.495  65.872  1.00  0.00    -0.143 NA 
ENDROOT
BRANCH  14  15
HETATM   15  C   UNL     1      -7.769   9.620  65.223  1.00  0.00    -0.115 C  
BRANCH  15  16
HETATM   16  C   UNL     1      -6.897  10.355  66.239  1.00  0.00    -0.117 C  
BRANCH  16  17
HETATM   17  C   UNL     1      -6.745   9.557  67.531  1.00  0.00    -0.067 C  
BRANCH  17  18
HETATM   18  C   UNL     1      -7.567  10.134  68.687  1.00  0.00    -0.086 C  
BRANCH  18  19
HETATM   19  C   UNL     1      -7.892  11.611  68.485  1.00  0.00    -0.140 C  
BRANCH  19  20
HETATM   20  C   UNL     1      -7.026  12.542  69.336  1.00  0.00     0.098 C  
BRANCH  20  21
HETATM   21  C   UNL     1      -6.165  13.512  68.515  1.00  0.00    -0.090 C  
BRANCH  21  22
HETATM   22  C   UNL     1      -6.992  14.401  67.582  1.00  0.00    -0.203 C  
BRANCH  22  23
HETATM   23  C   UNL     1      -7.042  15.866  68.031  1.00  0.00    -0.141 C  
BRANCH  23  24
HETATM   24  C   UNL     1      -8.444  16.266  68.491  1.00  0.00    -0.206 C  
BRANCH  24  25
HETATM   25  N   UNL     1      -9.399  16.227  67.355  1.00  0.00    -0.219 NA 
HETATM   26  C   UNL     1      -9.312  17.153  66.350  1.00  0.00    -0.262 A  
HETATM   27  C   UNL     1     -10.167  17.065  65.248  1.00  0.00     0.141 A  
HETATM   28  C   UNL     1      -8.297  18.271  66.285  1.00  0.00    -0.230 C  
HETATM   29  C   UNL     1     -11.132  16.073  65.153  1.00  0.00    -0.283 A  
HETATM   30  N   UNL     1     -11.842  15.977  63.953  1.00  0.00    -1.338 NA 
HETATM   31  C   UNL     1     -11.172  15.092  66.157  1.00  0.00    -0.307 A  
HETATM   32  H1  UNL     1     -12.551  15.248  63.883  1.00  0.00     0.000 HD 
HETATM   33  C   UNL     1     -10.317  15.199  67.288  1.00  0.00    -0.261 A  
HETATM   34  H2  UNL     1     -11.184  15.883  63.178  1.00  0.00     0.000 HD 
HETATM   35  C   UNL     1     -10.427  14.217  68.306  1.00  0.00    -0.249 A  
HETATM   36  C   UNL     1     -11.303  13.139  68.203  1.00  0.00    -0.328 A  
HETATM   37  C   UNL     1     -12.102  13.015  67.082  1.00  0.00    -0.325 A  
HETATM   38  C   UNL     1     -12.042  13.980  66.079  1.00  0.00    -0.461 A  
ENDBRANCH  24  25
ENDBRANCH  23  24
ENDBRANCH  22  23
ENDBRANCH  21  22
ENDBRANCH  20  21
ENDBRANCH  19  20
ENDBRANCH  18  19
ENDBRANCH  17  18
ENDBRANCH  16  17
ENDBRANCH  15  16
ENDBRANCH  14  15
TORSDOF 11
ENDMDL
MODEL      380
REMARK 921   NORMALIZED FREE ENERGY PREDICTED BY IDOCK:   -4.28 KCAL/MOL
REMARK 922        TOTAL FREE ENERGY PREDICTED BY IDOCK:   -8.39 KCAL/MOL
REMARK 923 INTER-LIGAND FREE ENERGY PREDICTED BY IDOCK:   -7.21 KCAL/MOL
REMARK 924 INTRA-LIGAND FREE ENERGY PREDICTED BY IDOCK:   -1.19 KCAL/MOL
REMARK 927      BINDING AFFINITY PREDICTED BY RF-SCORE:    0.00 PKD
ROOT
HETATM    1  C   UNL     1     -13.439  13.526  72.563  1.00  0.00    -0.660 C  
HETATM    2  C   UNL     1     -12.704  13.847  71.281  1.00  0.00    -0.367 A  
HETATM    3  C   UNL     1     -12.251  15.147  71.102  1.00  0.00    -0.392 A  
HETATM    4  C   UNL     1     -11.555  15.521  69.962  1.00  0.00    -0.341 A  
HETATM    5  N   UNL     1     -11.014  16.810  69.928  1.00  0.00    -0.401 NA 
HETATM    6  C   UNL     1     -11.230  14.526  69.021  1.00  0.00    -0.289 A  
HETATM    7  H2  UNL     1     -10.419  16.948  70.745  1.00  0.00     0.000 HD 
HETATM    8  C   UNL     1     -10.415  14.796  67.897  1.00  0.00    -0.246 A  
HETATM    9  H1  UNL     1     -10.502  17.085  69.089  1.00  0.00     0.000 HD 
HETATM   10  C   UNL     1     -10.105  13.815  66.956  1.00  0.00    -0.256 A  
HETATM   11  C   UNL     1     -10.610  12.538  67.104  1.00  0.00    -0.247 A  
HETATM   12  C   UNL     1     -11.413  12.236  68.208  1.00  0.00    -0.367 A  
HETATM   13  C   UNL     1     -11.716  13.204  69.200  1.00  0.00    -0.325 A  
HETATM   14  N   UNL     1     -12.441  12.898  70.332  1.00  0.00    -0.228 NA 
ENDROOT
BRANCH  14  15
HETATM   15  C   UNL     1     -12.891  11.498  70.567  1.00  0.00    -0.010 C  
BRANCH  15  16
HETATM   16  C   UNL     1     -11.718  10.620  70.997  1.00  0.00    -0.329 C  
BRANCH  16  17
HETATM   17  C   UNL     1     -12.193   9.304  71.606  1.00  0.00    -0.445 C  
BRANCH  17  18
HETATM   18  C   UNL     1     -11.068   8.275  71.754  1.00  0.00    -0.342 C  
BRANCH  18  19
HETATM   19  C   UNL     1     -10.925   7.778  73.189  1.00  0.00    -0.372 C  
BRANCH  19  20
HETATM   20  C   UNL     1      -9.469   7.555  73.608  1.00  0.00    -0.338 C  
BRANCH  20  21
HETATM   21  C   UNL     1      -8.590   6.962  72.499  1.00  0.00    -0.130 C  
BRANCH  21  22
HETATM   22  C   UNL     1      -7.449   7.893  72.079  1.00  0.00    -0.091 C  
BRANCH  22  23
HETATM   23  C   UNL     1      -6.491   7.256  71.065  1.00  0.00    -0.043 C  
BRANCH  23  24
HETATM   24  C   UNL     1      -5.502   8.280  70.506  1.00  0.00    -0.025 C  
BRANCH  24  25
HETATM   25  N   UNL     1      -6.059   8.940  69.297  1.00  0.00    -0.041 NA 
HETATM   26  C   UNL     1      -6.288  10.290  69.294  1.00  0.00    -0.047 A  
HETATM   27  C   UNL     1      -6.743  10.914  68.130  1.00  0.00    -0.063 A  
HETATM   28  C   UNL     1      -6.027  11.217  70.459  1.00  0.00    -0.112 C  
HETATM   29  C   UNL     1      -7.000  10.197  66.972  1.00  0.00    -0.088 A  
HETATM   30  N   UNL     1      -7.311  10.923  65.819  1.00  0.00    -0.338 NA 
HETATM   31  C   UNL     1      -6.702   8.824  66.965  1.00  0.00    -0.066 A  
HETATM   32  H1  UNL     1      -7.500  10.396  64.967  1.00  0.00     0.000 HD 
HETATM   33  C   UNL     1      -6.263   8.188  68.159  1.00  0.00    -0.050 A  
HETATM   34  H2  UNL     1      -6.572  11.602  65.638  1.00  0.00     0.000 HD 
HETATM   35  C   UNL     1      -6.026   6.790  68.124  1.00  0.00    -0.031 A  
HETATM   36  C   UNL     1      -6.162   6.045  66.955  1.00  0.00    -0.026 A  
HETATM   37  C   UNL     1      -6.547   6.675  65.787  1.00  0.00    -0.047 A  
HETATM   38  C   UNL     1      -6.820   8.041  65.794  1.00  0.00    -0.056 A  
ENDBRANCH  24  25
ENDBRANCH  23  24
ENDBRANCH  22  23
ENDBRANCH  21  22
ENDBRANCH  20  21
ENDBRANCH  19  20
ENDBRANCH  18  19
ENDBRANCH  17  18
ENDBRANCH  16  17
ENDBRANCH  15  16
ENDBRANCH  14  15
TORSDOF 11
ENDMDL
MODEL      381
REMARK 921   NORMALIZED FREE ENERGY PREDICTED BY IDOCK:   -4.28 KCAL/MOL
REMARK 922        TOTAL FREE ENERGY PREDICTED BY IDOCK:   -8.39 KCAL/MOL
REMARK 923 INTER-LIGAND FREE ENERGY PREDICTED BY IDOCK:   -7.67 KCAL/MOL
REMARK 924 INTRA-LIGAND FREE ENERGY PREDICTED BY IDOCK:   -0.72 KCAL/MOL
REMARK 927      BINDING AFFINITY PREDICTED BY RF-SCORE:    0.00 PKD
ROOT
HETATM    1  C   UNL     1     -10.371   6.541  74.279  1.00  0.00    -0.309 C  
HETATM    2  C   UNL     1     -10.183   5.248  73.517  1.00  0.00    -0.202 A  
HETATM    3  C   UNL     1     -10.861   4.124  73.972  1.00  0.00    -0.292 A  
HETATM    4  C   UNL     1     -10.755   2.903  73.323  1.00  0.00    -0.175 A  
HETATM    5  N   UNL     1     -11.581   1.863  73.762  1.00  0.00    -0.194 NA 
HETATM    6  C   UNL     1     -10.016   2.845  72.126  1.00  0.00    -0.235 A  
HETATM    7  H2  UNL     1     -12.552   2.172  73.742  1.00  0.00     0.000 HD 
HETATM    8  C   UNL     1      -9.963   1.673  71.335  1.00  0.00    -0.159 A  
HETATM    9  H1  UNL     1     -11.503   0.965  73.284  1.00  0.00     0.000 HD 
HETATM   10  C   UNL     1      -9.218   1.608  70.159  1.00  0.00    -0.165 A  
HETATM   11  C   UNL     1      -8.494   2.709  69.744  1.00  0.00    -0.095 A  
HETATM   12  C   UNL     1      -8.530   3.885  70.499  1.00  0.00    -0.099 A  
HETATM   13  C   UNL     1      -9.307   3.991  71.681  1.00  0.00    -0.135 A  
HETATM   14  N   UNL     1      -9.413   5.168  72.390  1.00  0.00    -0.143 NA 
ENDROOT
BRANCH  14  15
HETATM   15  C   UNL     1      -8.736   6.398  71.891  1.00  0.00    -0.134 C  
BRANCH  15  16
HETATM   16  C   UNL     1      -9.256   6.774  70.506  1.00  0.00    -0.156 C  
BRANCH  16  17
HETATM   17  C   UNL     1     -10.231   7.947  70.571  1.00  0.00    -0.198 C  
BRANCH  17  18
HETATM   18  C   UNL     1     -11.665   7.512  70.887  1.00  0.00    -0.307 C  
BRANCH  18  19
HETATM   19  C   UNL     1     -12.292   8.350  71.997  1.00  0.00    -0.413 C  
BRANCH  19  20
HETATM   20  C   UNL     1     -12.980   9.616  71.481  1.00  0.00    -0.486 C  
BRANCH  20  21
HETATM   21  C   UNL     1     -12.005  10.731  71.078  1.00  0.00    -0.409 C  
BRANCH  21  22
HETATM   22  C   UNL     1     -12.658  11.810  70.210  1.00  0.00    -0.131 C  
BRANCH  22  23
HETATM   23  C   UNL     1     -12.357  11.647  68.715  1.00  0.00     0.179 C  
BRANCH  23  24
HETATM   24  C   UNL     1     -10.958  11.077  68.483  1.00  0.00    -0.228 C  
BRANCH  24  25
HETATM   25  N   UNL     1     -10.564  11.221  67.058  1.00  0.00    -0.234 NA 
HETATM   26  C   UNL     1     -10.679  12.433  66.431  1.00  0.00    -0.247 A  
HETATM   27  C   UNL     1     -10.239  12.578  65.113  1.00  0.00    -0.299 A  
HETATM   28  C   UNL     1     -11.203  13.697  67.074  1.00  0.00    -0.328 C  
HETATM   29  C   UNL     1      -9.708  11.513  64.402  1.00  0.00    -0.200 A  
HETATM   30  N   UNL     1      -9.162  11.785  63.144  1.00  0.00    -0.640 NA 
HETATM   31  C   UNL     1      -9.535  10.291  65.072  1.00  0.00    -0.314 A  
HETATM   32  H1  UNL     1      -8.770  11.002  62.621  1.00  0.00     0.000 HD 
HETATM   33  C   UNL     1     -10.007  10.141  66.405  1.00  0.00    -0.234 A  
HETATM   34  H2  UNL     1      -8.455  12.516  63.234  1.00  0.00     0.000 HD 
HETATM   35  C   UNL     1      -9.863   8.875  67.028  1.00  0.00    -0.277 A  
HETATM   36  C   UNL     1      -9.234   7.805  66.394  1.00  0.00    -0.229 A  
HETATM   37  C   UNL     1      -8.738   7.967  65.114  1.00  0.00    -0.015 A  
HETATM   38  C   UNL     1      -8.893   9.189  64.461  1.00  0.00    -0.165 A  
ENDBRANCH  24  25
ENDBRANCH  23  24
ENDBRANCH  22  23
ENDBRANCH  21  22
ENDBRANCH  20  21
ENDBRANCH  19  20
ENDBRANCH  18  19
ENDBRANCH  17  18
ENDBRANCH  16  17
ENDBRANCH  15  16
ENDBRANCH  14  15
TORSDOF 11
ENDMDL
MODEL      382
REMARK 921   NORMALIZED FREE ENERGY PREDICTED BY IDOCK:   -4.28 KCAL/MOL
REMARK 922        TOTAL FREE ENERGY PREDICTED BY IDOCK:   -8.39 KCAL/MOL
REMARK 923 INTER-LIGAND FREE ENERGY PREDICTED BY IDOCK:   -7.19 KCAL/MOL
REMARK 924 INTRA-LIGAND FREE ENERGY PREDICTED BY IDOCK:   -1.20 KCAL/MOL
REMARK 927      BINDING AFFINITY PREDICTED BY RF-SCORE:    0.00 PKD
ROOT
HETATM    1  C   UNL     1      -7.372   5.534  68.192  1.00  0.00    -0.073 C  
HETATM    2  C   UNL     1      -7.675   4.990  66.815  1.00  0.00    -0.092 A  
HETATM    3  C   UNL     1      -6.604   4.593  66.024  1.00  0.00    -0.045 A  
HETATM    4  C   UNL     1      -6.796   4.069  64.754  1.00  0.00    -0.049 A  
HETATM    5  N   UNL     1      -5.675   3.565  64.086  1.00  0.00    -0.013 NA 
HETATM    6  C   UNL     1      -8.115   3.856  64.312  1.00  0.00    -0.090 A  
HETATM    7  H2  UNL     1      -5.219   2.867  64.673  1.00  0.00     0.000 HD 
HETATM    8  C   UNL     1      -8.398   3.209  63.086  1.00  0.00    -0.085 A  
HETATM    9  H1  UNL     1      -5.816   3.180  63.153  1.00  0.00     0.000 HD 
HETATM   10  C   UNL     1      -9.703   3.012  62.639  1.00  0.00    -0.092 A  
HETATM   11  C   UNL     1     -10.765   3.465  63.398  1.00  0.00    -0.241 A  
HETATM   12  C   UNL     1     -10.520   4.102  64.618  1.00  0.00    -0.189 A  
HETATM   13  C   UNL     1      -9.204   4.285  65.115  1.00  0.00    -0.151 A  
HETATM   14  N   UNL     1      -8.954   4.840  66.352  1.00  0.00    -0.112 NA 
ENDROOT
BRANCH  14  15
HETATM   15  C   UNL     1     -10.089   5.224  67.236  1.00  0.00    -0.195 C  
BRANCH  15  16
HETATM   16  C   UNL     1     -10.642   6.591  66.838  1.00  0.00    -0.376 C  
BRANCH  16  17
HETATM   17  C   UNL     1     -10.418   7.629  67.935  1.00  0.00    -0.270 C  
BRANCH  17  18
HETATM   18  C   UNL     1      -9.218   8.539  67.657  1.00  0.00    -0.147 C  
BRANCH  18  19
HETATM   19  C   UNL     1      -9.519  10.003  67.962  1.00  0.00    -0.150 C  
BRANCH  19  20
HETATM   20  C   UNL     1     -10.973  10.391  67.681  1.00  0.00    -0.374 C  
BRANCH  20  21
HETATM   21  C   UNL     1     -11.127  11.488  66.619  1.00  0.00    -0.355 C  
BRANCH  21  22
HETATM   22  C   UNL     1     -11.793  12.756  67.162  1.00  0.00    -0.415 C  
BRANCH  22  23
HETATM   23  C   UNL     1     -11.017  14.036  66.831  1.00  0.00    -0.301 C  
BRANCH  23  24
HETATM   24  C   UNL     1     -10.517  14.733  68.096  1.00  0.00    -0.239 C  
BRANCH  24  25
HETATM   25  N   UNL     1      -9.289  15.519  67.810  1.00  0.00    -0.195 NA 
HETATM   26  C   UNL     1      -8.069  14.898  67.769  1.00  0.00    -0.152 A  
HETATM   27  C   UNL     1      -6.929  15.629  67.428  1.00  0.00    -0.234 A  
HETATM   28  C   UNL     1      -7.837  13.423  68.008  1.00  0.00    -0.148 C  
HETATM   29  C   UNL     1      -6.990  16.987  67.153  1.00  0.00    -0.179 A  
HETATM   30  N   UNL     1      -5.827  17.603  66.681  1.00  0.00    -0.163 NA 
HETATM   31  C   UNL     1      -8.253  17.601  67.136  1.00  0.00    -0.229 A  
HETATM   32  H1  UNL     1      -5.872  18.601  66.479  1.00  0.00     0.000 HD 
HETATM   33  C   UNL     1      -9.407  16.859  67.508  1.00  0.00    -0.232 A  
HETATM   34  H2  UNL     1      -5.494  17.106  65.854  1.00  0.00     0.000 HD 
HETATM   35  C   UNL     1     -10.657  17.531  67.530  1.00  0.00    -0.333 A  
HETATM   36  C   UNL     1     -10.786  18.866  67.154  1.00  0.00    -0.506 A  
HETATM   37  C   UNL     1      -9.668  19.572  66.752  1.00  0.00    -0.464 A  
HETATM   38  C   UNL     1      -8.420  18.951  66.750  1.00  0.00    -0.304 A  
ENDBRANCH  24  25
ENDBRANCH  23  24
ENDBRANCH  22  23
ENDBRANCH  21  22
ENDBRANCH  20  21
ENDBRANCH  19  20
ENDBRANCH  18  19
ENDBRANCH  17  18
ENDBRANCH  16  17
ENDBRANCH  15  16
ENDBRANCH  14  15
TORSDOF 11
ENDMDL
MODEL      383
REMARK 921   NORMALIZED FREE ENERGY PREDICTED BY IDOCK:   -4.28 KCAL/MOL
REMARK 922        TOTAL FREE ENERGY PREDICTED BY IDOCK:   -8.38 KCAL/MOL
REMARK 923 INTER-LIGAND FREE ENERGY PREDICTED BY IDOCK:   -7.35 KCAL/MOL
REMARK 924 INTRA-LIGAND FREE ENERGY PREDICTED BY IDOCK:   -1.03 KCAL/MOL
REMARK 927      BINDING AFFINITY PREDICTED BY RF-SCORE:    0.00 PKD
ROOT
HETATM    1  C   UNL     1      -9.452   3.482  67.165  1.00  0.00    -0.219 C  
HETATM    2  C   UNL     1      -8.994   4.784  66.548  1.00  0.00    -0.112 A  
HETATM    3  C   UNL     1      -7.903   4.745  65.688  1.00  0.00    -0.095 A  
HETATM    4  C   UNL     1      -7.429   5.892  65.068  1.00  0.00    -0.080 A  
HETATM    5  N   UNL     1      -6.420   5.740  64.111  1.00  0.00    -0.032 NA 
HETATM    6  C   UNL     1      -8.138   7.094  65.254  1.00  0.00    -0.134 A  
HETATM    7  H2  UNL     1      -6.727   5.076  63.401  1.00  0.00     0.000 HD 
HETATM    8  C   UNL     1      -7.798   8.278  64.560  1.00  0.00    -0.130 A  
HETATM    9  H1  UNL     1      -6.071   6.583  63.656  1.00  0.00     0.000 HD 
HETATM   10  C   UNL     1      -8.488   9.474  64.754  1.00  0.00    -0.170 A  
HETATM   11  C   UNL     1      -9.532   9.523  65.658  1.00  0.00    -0.326 A  
HETATM   12  C   UNL     1      -9.898   8.369  66.356  1.00  0.00    -0.310 A  
HETATM   13  C   UNL     1      -9.237   7.130  66.152  1.00  0.00    -0.082 A  
HETATM   14  N   UNL     1      -9.639   5.969  66.775  1.00  0.00    -0.144 NA 
ENDROOT
BRANCH  14  15
HETATM   15  C   UNL     1     -10.837   5.978  67.660  1.00  0.00    -0.295 C  
BRANCH  15  16
HETATM   16  C   UNL     1     -10.548   6.747  68.948  1.00  0.00    -0.257 C  
BRANCH  16  17
HETATM   17  C   UNL     1     -10.197   5.806  70.098  1.00  0.00    -0.301 C  
BRANCH  17  18
HETATM   18  C   UNL     1      -9.866   6.550  71.395  1.00  0.00    -0.191 C  
BRANCH  18  19
HETATM   19  C   UNL     1     -10.745   7.780  71.597  1.00  0.00    -0.257 C  
BRANCH  19  20
HETATM   20  C   UNL     1      -9.952   9.088  71.638  1.00  0.00    -0.383 C  
BRANCH  20  21
HETATM   21  C   UNL     1      -9.622   9.659  70.252  1.00  0.00    -0.307 C  
BRANCH  21  22
HETATM   22  C   UNL     1     -10.858  10.177  69.511  1.00  0.00    -0.289 C  
BRANCH  22  23
HETATM   23  C   UNL     1     -10.681  11.597  68.961  1.00  0.00    -0.217 C  
BRANCH  23  24
HETATM   24  C   UNL     1      -9.717  11.625  67.775  1.00  0.00    -0.173 C  
BRANCH  24  25
HETATM   25  N   UNL     1      -9.151  12.986  67.592  1.00  0.00    -0.187 NA 
HETATM   26  C   UNL     1      -7.921  13.295  68.110  1.00  0.00    -0.150 A  
HETATM   27  C   UNL     1      -7.364  14.554  67.871  1.00  0.00    -0.166 A  
HETATM   28  C   UNL     1      -7.047  12.345  68.896  1.00  0.00    -0.078 C  
HETATM   29  C   UNL     1      -8.037  15.521  67.141  1.00  0.00    -0.216 A  
HETATM   30  N   UNL     1      -7.343  16.695  66.832  1.00  0.00    -0.201 NA 
HETATM   31  C   UNL     1      -9.269  15.175  66.561  1.00  0.00    -0.318 A  
HETATM   32  H1  UNL     1      -7.838  17.407  66.295  1.00  0.00     0.000 HD 
HETATM   33  C   UNL     1      -9.843  13.902  66.827  1.00  0.00    -0.274 A  
HETATM   34  H2  UNL     1      -6.474  16.457  66.355  1.00  0.00     0.000 HD 
HETATM   35  C   UNL     1     -11.114  13.611  66.266  1.00  0.00    -0.304 A  
HETATM   36  C   UNL     1     -11.779  14.508  65.434  1.00  0.00    -0.354 A  
HETATM   37  C   UNL     1     -11.197  15.727  65.144  1.00  0.00    -0.252 A  
HETATM   38  C   UNL     1      -9.965  16.058  65.705  1.00  0.00    -0.346 A  
ENDBRANCH  24  25
ENDBRANCH  23  24
ENDBRANCH  22  23
ENDBRANCH  21  22
ENDBRANCH  20  21
ENDBRANCH  19  20
ENDBRANCH  18  19
ENDBRANCH  17  18
ENDBRANCH  16  17
ENDBRANCH  15  16
ENDBRANCH  14  15
TORSDOF 11
ENDMDL
MODEL      384
REMARK 921   NORMALIZED FREE ENERGY PREDICTED BY IDOCK:   -4.27 KCAL/MOL
REMARK 922        TOTAL FREE ENERGY PREDICTED BY IDOCK:   -8.37 KCAL/MOL
REMARK 923 INTER-LIGAND FREE ENERGY PREDICTED BY IDOCK:   -6.30 KCAL/MOL
REMARK 924 INTRA-LIGAND FREE ENERGY PREDICTED BY IDOCK:   -2.07 KCAL/MOL
REMARK 927      BINDING AFFINITY PREDICTED BY RF-SCORE:    0.00 PKD
ROOT
HETATM    1  C   UNL     1      -9.588   3.581  68.348  1.00  0.00    -0.154 C  
HETATM    2  C   UNL     1      -8.689   4.210  67.308  1.00  0.00    -0.107 A  
HETATM    3  C   UNL     1      -7.517   3.543  66.975  1.00  0.00    -0.075 A  
HETATM    4  C   UNL     1      -6.645   4.045  66.020  1.00  0.00    -0.041 A  
HETATM    5  N   UNL     1      -5.564   3.241  65.645  1.00  0.00    -0.017 NA 
HETATM    6  C   UNL     1      -7.019   5.206  65.318  1.00  0.00    -0.062 A  
HETATM    7  H2  UNL     1      -5.910   2.331  65.340  1.00  0.00     0.000 HD 
HETATM    8  C   UNL     1      -6.250   5.711  64.243  1.00  0.00    -0.025 A  
HETATM    9  H1  UNL     1      -4.923   3.610  64.943  1.00  0.00     0.000 HD 
HETATM   10  C   UNL     1      -6.610   6.870  63.558  1.00  0.00    -0.043 A  
HETATM   11  C   UNL     1      -7.743   7.566  63.934  1.00  0.00    -0.125 A  
HETATM   12  C   UNL     1      -8.528   7.090  64.988  1.00  0.00     0.018 A  
HETATM   13  C   UNL     1      -8.206   5.895  65.680  1.00  0.00    -0.134 A  
HETATM   14  N   UNL     1      -9.015   5.374  66.668  1.00  0.00    -0.114 NA 
ENDROOT
BRANCH  14  15
HETATM   15  C   UNL     1     -10.301   6.046  67.004  1.00  0.00    -0.240 C  
BRANCH  15  16
HETATM   16  C   UNL     1     -10.100   7.062  68.126  1.00  0.00    -0.193 C  
BRANCH  16  17
HETATM   17  C   UNL     1     -10.916   6.700  69.365  1.00  0.00    -0.361 C  
BRANCH  17  18
HETATM   18  C   UNL     1     -10.653   7.639  70.546  1.00  0.00    -0.229 C  
BRANCH  18  19
HETATM   19  C   UNL     1     -11.932   8.297  71.057  1.00  0.00    -0.260 C  
BRANCH  19  20
HETATM   20  C   UNL     1     -11.755   9.779  71.394  1.00  0.00    -0.475 C  
BRANCH  20  21
HETATM   21  C   UNL     1     -10.995  10.573  70.322  1.00  0.00    -0.306 C  
BRANCH  21  22
HETATM   22  C   UNL     1     -11.721  10.603  68.974  1.00  0.00    -0.305 C  
BRANCH  22  23
HETATM   23  C   UNL     1     -12.014  12.023  68.477  1.00  0.00    -0.273 C  
BRANCH  23  24
HETATM   24  C   UNL     1     -10.748  12.715  67.971  1.00  0.00    -0.226 C  
BRANCH  24  25
HETATM   25  N   UNL     1     -10.327  12.145  66.666  1.00  0.00    -0.206 NA 
HETATM   26  C   UNL     1     -11.099  12.333  65.551  1.00  0.00    -0.307 A  
HETATM   27  C   UNL     1     -10.660  11.856  64.313  1.00  0.00    -0.381 A  
HETATM   28  C   UNL     1     -12.407  13.090  65.519  1.00  0.00    -0.527 C  
HETATM   29  C   UNL     1      -9.464  11.167  64.182  1.00  0.00    -0.208 A  
HETATM   30  N   UNL     1      -9.037  10.857  62.887  1.00  0.00    -0.283 NA 
HETATM   31  C   UNL     1      -8.649  11.035  65.318  1.00  0.00    -0.048 A  
HETATM   32  H1  UNL     1      -8.158  10.351  62.790  1.00  0.00     0.000 HD 
HETATM   33  C   UNL     1      -9.111  11.499  66.580  1.00  0.00    -0.194 A  
HETATM   34  H2  UNL     1      -8.997  11.712  62.331  1.00  0.00     0.000 HD 
HETATM   35  C   UNL     1      -8.281  11.297  67.712  1.00  0.00    -0.120 A  
HETATM   36  C   UNL     1      -7.021  10.710  67.612  1.00  0.00    -0.079 A  
HETATM   37  C   UNL     1      -6.558  10.299  66.376  1.00  0.00    -0.092 A  
HETATM   38  C   UNL     1      -7.362  10.452  65.249  1.00  0.00    -0.108 A  
ENDBRANCH  24  25
ENDBRANCH  23  24
ENDBRANCH  22  23
ENDBRANCH  21  22
ENDBRANCH  20  21
ENDBRANCH  19  20
ENDBRANCH  18  19
ENDBRANCH  17  18
ENDBRANCH  16  17
ENDBRANCH  15  16
ENDBRANCH  14  15
TORSDOF 11
ENDMDL
MODEL      385
REMARK 921   NORMALIZED FREE ENERGY PREDICTED BY IDOCK:   -4.26 KCAL/MOL
REMARK 922        TOTAL FREE ENERGY PREDICTED BY IDOCK:   -8.35 KCAL/MOL
REMARK 923 INTER-LIGAND FREE ENERGY PREDICTED BY IDOCK:   -6.59 KCAL/MOL
REMARK 924 INTRA-LIGAND FREE ENERGY PREDICTED BY IDOCK:   -1.76 KCAL/MOL
REMARK 927      BINDING AFFINITY PREDICTED BY RF-SCORE:    0.00 PKD
ROOT
HETATM    1  C   UNL     1     -12.640  15.648  64.640  1.00  0.00     0.485 C  
HETATM    2  C   UNL     1     -12.043  14.261  64.567  1.00  0.00    -0.480 A  
HETATM    3  C   UNL     1     -12.657  13.334  63.735  1.00  0.00    -0.216 A  
HETATM    4  C   UNL     1     -12.165  12.045  63.599  1.00  0.00    -0.538 A  
HETATM    5  N   UNL     1     -12.759  11.223  62.635  1.00  0.00    -0.357 NA 
HETATM    6  C   UNL     1     -10.963  11.716  64.253  1.00  0.00    -0.418 A  
HETATM    7  H2  UNL     1     -12.731  11.692  61.729  1.00  0.00     0.000 HD 
HETATM    8  C   UNL     1     -10.325  10.468  64.066  1.00  0.00    -0.127 A  
HETATM    9  H1  UNL     1     -12.397  10.275  62.535  1.00  0.00     0.000 HD 
HETATM   10  C   UNL     1      -9.144  10.134  64.726  1.00  0.00    -0.262 A  
HETATM   11  C   UNL     1      -8.569  11.036  65.602  1.00  0.00    -0.131 A  
HETATM   12  C   UNL     1      -9.170  12.281  65.804  1.00  0.00     0.026 A  
HETATM   13  C   UNL     1     -10.353  12.661  65.120  1.00  0.00    -0.292 A  
HETATM   14  N   UNL     1     -10.910  13.915  65.252  1.00  0.00    -0.316 NA 
ENDROOT
BRANCH  14  15
HETATM   15  C   UNL     1     -10.239  14.940  66.098  1.00  0.00    -0.300 C  
BRANCH  15  16
HETATM   16  C   UNL     1      -9.791  16.129  65.250  1.00  0.00     0.110 C  
BRANCH  16  17
HETATM   17  C   UNL     1      -9.445  17.338  66.115  1.00  0.00    -0.204 C  
BRANCH  17  18
HETATM   18  C   UNL     1     -10.635  18.280  66.324  1.00  0.00    -0.320 C  
BRANCH  18  19
HETATM   19  C   UNL     1     -10.267  19.740  66.077  1.00  0.00    -0.600 C  
BRANCH  19  20
HETATM   20  C   UNL     1      -9.544  20.389  67.260  1.00  0.00    -0.592 C  
BRANCH  20  21
HETATM   21  C   UNL     1      -8.031  20.540  67.055  1.00  0.00    -0.333 C  
BRANCH  21  22
HETATM   22  C   UNL     1      -7.211  19.931  68.196  1.00  0.00    -0.330 C  
BRANCH  22  23
HETATM   23  C   UNL     1      -7.124  18.401  68.128  1.00  0.00    -0.256 C  
BRANCH  23  24
HETATM   24  C   UNL     1      -7.585  17.754  69.434  1.00  0.00     0.197 C  
BRANCH  24  25
HETATM   25  N   UNL     1      -7.764  16.290  69.258  1.00  0.00    -0.225 NA 
HETATM   26  C   UNL     1      -6.674  15.480  69.075  1.00  0.00    -0.131 A  
HETATM   27  C   UNL     1      -6.845  14.097  68.984  1.00  0.00    -0.110 A  
HETATM   28  C   UNL     1      -5.240  15.955  69.022  1.00  0.00    -0.100 C  
HETATM   29  C   UNL     1      -8.100  13.513  69.045  1.00  0.00     0.245 A  
HETATM   30  N   UNL     1      -8.161  12.117  69.090  1.00  0.00    -0.318 NA 
HETATM   31  C   UNL     1      -9.205  14.343  69.296  1.00  0.00     0.174 A  
HETATM   32  H1  UNL     1      -9.084  11.687  69.136  1.00  0.00     0.000 HD 
HETATM   33  C   UNL     1      -9.030  15.753  69.364  1.00  0.00    -0.247 A  
HETATM   34  H2  UNL     1      -7.594  11.779  69.869  1.00  0.00     0.000 HD 
HETATM   35  C   UNL     1     -10.179  16.561  69.564  1.00  0.00    -0.217 A  
HETATM   36  C   UNL     1     -11.447  16.013  69.744  1.00  0.00    -0.318 A  
HETATM   37  C   UNL     1     -11.606  14.640  69.720  1.00  0.00    -0.341 A  
HETATM   38  C   UNL     1     -10.503  13.819  69.492  1.00  0.00     0.251 A  
ENDBRANCH  24  25
ENDBRANCH  23  24
ENDBRANCH  22  23
ENDBRANCH  21  22
ENDBRANCH  20  21
ENDBRANCH  19  20
ENDBRANCH  18  19
ENDBRANCH  17  18
ENDBRANCH  16  17
ENDBRANCH  15  16
ENDBRANCH  14  15
TORSDOF 11
ENDMDL
MODEL      386
REMARK 921   NORMALIZED FREE ENERGY PREDICTED BY IDOCK:   -4.26 KCAL/MOL
REMARK 922        TOTAL FREE ENERGY PREDICTED BY IDOCK:   -8.35 KCAL/MOL
REMARK 923 INTER-LIGAND FREE ENERGY PREDICTED BY IDOCK:   -7.91 KCAL/MOL
REMARK 924 INTRA-LIGAND FREE ENERGY PREDICTED BY IDOCK:   -0.43 KCAL/MOL
REMARK 927      BINDING AFFINITY PREDICTED BY RF-SCORE:    0.00 PKD
ROOT
HETATM    1  C   UNL     1     -11.155   6.029  67.555  1.00  0.00    -0.228 C  
HETATM    2  C   UNL     1     -10.246   5.483  66.477  1.00  0.00    -0.228 A  
HETATM    3  C   UNL     1     -10.834   4.822  65.406  1.00  0.00    -0.043 A  
HETATM    4  C   UNL     1     -10.073   4.305  64.369  1.00  0.00    -0.072 A  
HETATM    5  N   UNL     1     -10.755   3.783  63.264  1.00  0.00    -0.279 NA 
HETATM    6  C   UNL     1      -8.686   4.547  64.372  1.00  0.00    -0.149 A  
HETATM    7  H2  UNL     1     -11.391   4.490  62.895  1.00  0.00     0.000 HD 
HETATM    8  C   UNL     1      -7.857   4.167  63.291  1.00  0.00    -0.074 A  
HETATM    9  H1  UNL     1     -10.195   3.403  62.501  1.00  0.00     0.000 HD 
HETATM   10  C   UNL     1      -6.482   4.390  63.300  1.00  0.00    -0.026 A  
HETATM   11  C   UNL     1      -5.891   4.991  64.395  1.00  0.00    -0.017 A  
HETATM   12  C   UNL     1      -6.683   5.385  65.477  1.00  0.00    -0.041 A  
HETATM   13  C   UNL     1      -8.090   5.202  65.481  1.00  0.00    -0.117 A  
HETATM   14  N   UNL     1      -8.889   5.657  66.507  1.00  0.00    -0.120 NA 
ENDROOT
BRANCH  14  15
HETATM   15  C   UNL     1      -8.285   6.413  67.639  1.00  0.00    -0.118 C  
BRANCH  15  16
HETATM   16  C   UNL     1      -7.937   5.472  68.791  1.00  0.00    -0.095 C  
BRANCH  16  17
HETATM   17  C   UNL     1      -7.767   6.229  70.105  1.00  0.00    -0.098 C  
BRANCH  17  18
HETATM   18  C   UNL     1      -8.733   5.755  71.194  1.00  0.00    -0.135 C  
BRANCH  18  19
HETATM   19  C   UNL     1      -8.819   6.738  72.358  1.00  0.00    -0.136 C  
BRANCH  19  20
HETATM   20  C   UNL     1      -9.832   7.862  72.125  1.00  0.00    -0.264 C  
BRANCH  20  21
HETATM   21  C   UNL     1      -9.198   9.181  71.662  1.00  0.00    -0.088 C  
BRANCH  21  22
HETATM   22  C   UNL     1      -9.810   9.714  70.363  1.00  0.00    -0.315 C  
BRANCH  22  23
HETATM   23  C   UNL     1     -11.342   9.760  70.391  1.00  0.00    -0.362 C  
BRANCH  23  24
HETATM   24  C   UNL     1     -11.886  10.907  69.540  1.00  0.00    -0.332 C  
BRANCH  24  25
HETATM   25  N   UNL     1     -12.385  12.008  70.403  1.00  0.00    -0.274 NA 
HETATM   26  C   UNL     1     -13.067  11.724  71.556  1.00  0.00    -0.287 A  
HETATM   27  C   UNL     1     -13.470  12.764  72.398  1.00  0.00    -0.512 A  
HETATM   28  C   UNL     1     -13.387  10.334  72.054  1.00  0.00    -0.466 C  
HETATM   29  C   UNL     1     -13.220  14.091  72.087  1.00  0.00    -0.435 A  
HETATM   30  N   UNL     1     -13.529  15.050  73.056  1.00  0.00    -0.469 NA 
HETATM   31  C   UNL     1     -12.466  14.370  70.936  1.00  0.00    -0.424 A  
HETATM   32  H1  UNL     1     -13.346  16.027  72.827  1.00  0.00     0.000 HD 
HETATM   33  C   UNL     1     -12.080  13.311  70.068  1.00  0.00    -0.315 A  
HETATM   34  H2  UNL     1     -13.055  14.814  73.928  1.00  0.00     0.000 HD 
HETATM   35  C   UNL     1     -11.365  13.640  68.887  1.00  0.00    -0.332 A  
HETATM   36  C   UNL     1     -10.994  14.949  68.587  1.00  0.00    -0.263 A  
HETATM   37  C   UNL     1     -11.334  15.970  69.455  1.00  0.00    -0.355 A  
HETATM   38  C   UNL     1     -12.064  15.685  70.607  1.00  0.00    -0.443 A  
ENDBRANCH  24  25
ENDBRANCH  23  24
ENDBRANCH  22  23
ENDBRANCH  21  22
ENDBRANCH  20  21
ENDBRANCH  19  20
ENDBRANCH  18  19
ENDBRANCH  17  18
ENDBRANCH  16  17
ENDBRANCH  15  16
ENDBRANCH  14  15
TORSDOF 11
ENDMDL
MODEL      387
REMARK 921   NORMALIZED FREE ENERGY PREDICTED BY IDOCK:   -4.22 KCAL/MOL
REMARK 922        TOTAL FREE ENERGY PREDICTED BY IDOCK:   -8.29 KCAL/MOL
REMARK 923 INTER-LIGAND FREE ENERGY PREDICTED BY IDOCK:   -8.68 KCAL/MOL
REMARK 924 INTRA-LIGAND FREE ENERGY PREDICTED BY IDOCK:    0.38 KCAL/MOL
REMARK 927      BINDING AFFINITY PREDICTED BY RF-SCORE:    0.00 PKD
ROOT
HETATM    1  C   UNL     1      -8.293  11.221  67.047  1.00  0.00    -0.153 C  
HETATM    2  C   UNL     1      -8.251  10.284  65.861  1.00  0.00    -0.148 A  
HETATM    3  C   UNL     1      -9.054  10.585  64.768  1.00  0.00    -0.242 A  
HETATM    4  C   UNL     1      -9.064   9.786  63.634  1.00  0.00    -0.232 A  
HETATM    5  N   UNL     1      -9.792  10.239  62.529  1.00  0.00    -0.701 NA 
HETATM    6  C   UNL     1      -8.164   8.705  63.571  1.00  0.00    -0.150 A  
HETATM    7  H2  UNL     1      -9.476  11.176  62.278  1.00  0.00     0.000 HD 
HETATM    8  C   UNL     1      -8.019   7.919  62.404  1.00  0.00    -0.153 A  
HETATM    9  H1  UNL     1      -9.799   9.652  61.696  1.00  0.00     0.000 HD 
HETATM   10  C   UNL     1      -7.141   6.838  62.346  1.00  0.00    -0.049 A  
HETATM   11  C   UNL     1      -6.390   6.503  63.456  1.00  0.00    -0.034 A  
HETATM   12  C   UNL     1      -6.505   7.264  64.623  1.00  0.00    -0.037 A  
HETATM   13  C   UNL     1      -7.364   8.390  64.701  1.00  0.00    -0.093 A  
HETATM   14  N   UNL     1      -7.427   9.194  65.819  1.00  0.00    -0.090 NA 
ENDROOT
BRANCH  14  15
HETATM   15  C   UNL     1      -6.536   8.918  66.980  1.00  0.00    -0.061 C  
BRANCH  15  16
HETATM   16  C   UNL     1      -7.017   7.688  67.748  1.00  0.00    -0.077 C  
BRANCH  16  17
HETATM   17  C   UNL     1      -8.507   7.770  68.065  1.00  0.00    -0.123 C  
BRANCH  17  18
HETATM   18  C   UNL     1      -9.143   6.396  68.299  1.00  0.00    -0.114 C  
BRANCH  18  19
HETATM   19  C   UNL     1     -10.654   6.483  68.490  1.00  0.00    -0.291 C  
BRANCH  19  20
HETATM   20  C   UNL     1     -11.122   5.951  69.847  1.00  0.00    -0.417 C  
BRANCH  20  21
HETATM   21  C   UNL     1     -11.654   7.039  70.789  1.00  0.00    -0.381 C  
BRANCH  21  22
HETATM   22  C   UNL     1     -11.096   8.430  70.472  1.00  0.00    -0.267 C  
BRANCH  22  23
HETATM   23  C   UNL     1     -12.189   9.481  70.244  1.00  0.00     0.097 C  
BRANCH  23  24
HETATM   24  C   UNL     1     -11.603  10.802  69.745  1.00  0.00    -0.317 C  
BRANCH  24  25
HETATM   25  N   UNL     1     -12.251  11.952  70.424  1.00  0.00    -0.338 NA 
HETATM   26  C   UNL     1     -13.009  11.751  71.547  1.00  0.00    -0.341 A  
HETATM   27  C   UNL     1     -13.555  12.845  72.222  1.00  0.00    -0.611 A  
HETATM   28  C   UNL     1     -13.272  10.406  72.187  1.00  0.00    -0.418 C  
HETATM   29  C   UNL     1     -13.375  14.143  71.770  1.00  0.00    -0.380 A  
HETATM   30  N   UNL     1     -13.833  15.181  72.587  1.00  0.00    -0.481 NA 
HETATM   31  C   UNL     1     -12.545  14.346  70.655  1.00  0.00    -0.424 A  
HETATM   32  H1  UNL     1     -13.701  16.136  72.255  1.00  0.00     0.000 HD 
HETATM   33  C   UNL     1     -12.012  13.228  69.956  1.00  0.00    -0.329 A  
HETATM   34  H2  UNL     1     -13.421  15.087  73.515  1.00  0.00     0.000 HD 
HETATM   35  C   UNL     1     -11.222  13.473  68.804  1.00  0.00    -0.311 A  
HETATM   36  C   UNL     1     -10.920  14.764  68.374  1.00  0.00    -0.259 A  
HETATM   37  C   UNL     1     -11.405  15.848  69.081  1.00  0.00    -0.366 A  
HETATM   38  C   UNL     1     -12.211  15.642  70.199  1.00  0.00    -0.387 A  
ENDBRANCH  24  25
ENDBRANCH  23  24
ENDBRANCH  22  23
ENDBRANCH  21  22
ENDBRANCH  20  21
ENDBRANCH  19  20
ENDBRANCH  18  19
ENDBRANCH  17  18
ENDBRANCH  16  17
ENDBRANCH  15  16
ENDBRANCH  14  15
TORSDOF 11
ENDMDL
MODEL      388
REMARK 921   NORMALIZED FREE ENERGY PREDICTED BY IDOCK:   -4.22 KCAL/MOL
REMARK 922        TOTAL FREE ENERGY PREDICTED BY IDOCK:   -8.29 KCAL/MOL
REMARK 923 INTER-LIGAND FREE ENERGY PREDICTED BY IDOCK:   -5.38 KCAL/MOL
REMARK 924 INTRA-LIGAND FREE ENERGY PREDICTED BY IDOCK:   -2.91 KCAL/MOL
REMARK 927      BINDING AFFINITY PREDICTED BY RF-SCORE:    0.00 PKD
ROOT
HETATM    1  C   UNL     1      -7.439   7.669  74.095  1.00  0.00    -0.161 C  
HETATM    2  C   UNL     1      -7.957   6.288  73.763  1.00  0.00    -0.099 A  
HETATM    3  C   UNL     1      -7.031   5.258  73.652  1.00  0.00    -0.081 A  
HETATM    4  C   UNL     1      -7.424   3.959  73.365  1.00  0.00    -0.070 A  
HETATM    5  N   UNL     1      -6.445   2.961  73.412  1.00  0.00    -0.020 NA 
HETATM    6  C   UNL     1      -8.802   3.681  73.281  1.00  0.00    -0.091 A  
HETATM    7  H2  UNL     1      -5.988   2.981  74.323  1.00  0.00     0.000 HD 
HETATM    8  C   UNL     1      -9.291   2.364  73.119  1.00  0.00    -0.113 A  
HETATM    9  H1  UNL     1      -6.734   2.007  73.201  1.00  0.00     0.000 HD 
HETATM   10  C   UNL     1     -10.654   2.088  73.019  1.00  0.00    -0.237 A  
HETATM   11  C   UNL     1     -11.568   3.123  73.066  1.00  0.00     0.233 A  
HETATM   12  C   UNL     1     -11.118   4.436  73.232  1.00  0.00    -0.368 A  
HETATM   13  C   UNL     1      -9.740   4.743  73.372  1.00  0.00    -0.136 A  
HETATM   14  N   UNL     1      -9.291   6.023  73.615  1.00  0.00    -0.134 NA 
ENDROOT
BRANCH  14  15
HETATM   15  C   UNL     1     -10.269   7.132  73.789  1.00  0.00    -0.352 C  
BRANCH  15  16
HETATM   16  C   UNL     1     -10.575   7.795  72.448  1.00  0.00    -0.336 C  
BRANCH  16  17
HETATM   17  C   UNL     1     -12.062   7.725  72.111  1.00  0.00    -0.346 C  
BRANCH  17  18
HETATM   18  C   UNL     1     -12.331   7.149  70.718  1.00  0.00    -0.273 C  
BRANCH  18  19
HETATM   19  C   UNL     1     -11.046   6.735  70.006  1.00  0.00    -0.366 C  
BRANCH  19  20
HETATM   20  C   UNL     1     -11.278   6.261  68.569  1.00  0.00    -0.305 C  
BRANCH  20  21
HETATM   21  C   UNL     1     -10.467   5.016  68.188  1.00  0.00    -0.018 C  
BRANCH  21  22
HETATM   22  C   UNL     1      -9.769   5.150  66.831  1.00  0.00    -0.175 C  
BRANCH  22  23
HETATM   23  C   UNL     1      -9.946   6.533  66.195  1.00  0.00     0.111 C  
BRANCH  23  24
HETATM   24  C   UNL     1      -8.611   7.268  66.065  1.00  0.00    -0.151 C  
BRANCH  24  25
HETATM   25  N   UNL     1      -8.654   8.564  66.789  1.00  0.00    -0.112 NA 
HETATM   26  C   UNL     1      -9.147   9.682  66.171  1.00  0.00    -0.161 A  
HETATM   27  C   UNL     1      -9.252  10.880  66.882  1.00  0.00    -0.175 A  
HETATM   28  C   UNL     1      -9.666   9.731  64.752  1.00  0.00    -0.213 C  
HETATM   29  C   UNL     1      -8.842  10.980  68.202  1.00  0.00    -0.141 A  
HETATM   30  N   UNL     1      -9.119  12.174  68.875  1.00  0.00    -0.378 NA 
HETATM   31  C   UNL     1      -8.398   9.815  68.848  1.00  0.00    -0.120 A  
HETATM   32  H1  UNL     1      -8.818  12.249  69.846  1.00  0.00     0.000 HD 
HETATM   33  C   UNL     1      -8.269   8.604  68.113  1.00  0.00    -0.115 A  
HETATM   34  H2  UNL     1     -10.118  12.371  68.816  1.00  0.00     0.000 HD 
HETATM   35  C   UNL     1      -7.765   7.462  68.788  1.00  0.00    -0.119 A  
HETATM   36  C   UNL     1      -7.445   7.484  70.143  1.00  0.00    -0.086 A  
HETATM   37  C   UNL     1      -7.612   8.652  70.864  1.00  0.00    -0.093 A  
HETATM   38  C   UNL     1      -8.074   9.800  70.224  1.00  0.00    -0.181 A  
ENDBRANCH  24  25
ENDBRANCH  23  24
ENDBRANCH  22  23
ENDBRANCH  21  22
ENDBRANCH  20  21
ENDBRANCH  19  20
ENDBRANCH  18  19
ENDBRANCH  17  18
ENDBRANCH  16  17
ENDBRANCH  15  16
ENDBRANCH  14  15
TORSDOF 11
ENDMDL
MODEL      389
REMARK 921   NORMALIZED FREE ENERGY PREDICTED BY IDOCK:   -4.21 KCAL/MOL
REMARK 922        TOTAL FREE ENERGY PREDICTED BY IDOCK:   -8.27 KCAL/MOL
REMARK 923 INTER-LIGAND FREE ENERGY PREDICTED BY IDOCK:   -6.63 KCAL/MOL
REMARK 924 INTRA-LIGAND FREE ENERGY PREDICTED BY IDOCK:   -1.63 KCAL/MOL
REMARK 927      BINDING AFFINITY PREDICTED BY RF-SCORE:    0.00 PKD
ROOT
HETATM    1  C   UNL     1      -8.197   6.969  64.932  1.00  0.00    -0.076 C  
HETATM    2  C   UNL     1      -8.530   6.508  66.333  1.00  0.00    -0.124 A  
HETATM    3  C   UNL     1      -9.835   6.676  66.778  1.00  0.00    -0.227 A  
HETATM    4  C   UNL     1     -10.226   6.267  68.044  1.00  0.00    -0.172 A  
HETATM    5  N   UNL     1     -11.588   6.344  68.357  1.00  0.00    -0.442 NA 
HETATM    6  C   UNL     1      -9.291   5.584  68.845  1.00  0.00    -0.154 A  
HETATM    7  H2  UNL     1     -12.124   5.831  67.657  1.00  0.00     0.000 HD 
HETATM    8  C   UNL     1      -9.644   5.022  70.094  1.00  0.00    -0.257 A  
HETATM    9  H1  UNL     1     -11.875   6.043  69.288  1.00  0.00     0.000 HD 
HETATM   10  C   UNL     1      -8.715   4.360  70.896  1.00  0.00    -0.126 A  
HETATM   11  C   UNL     1      -7.403   4.250  70.478  1.00  0.00    -0.048 A  
HETATM   12  C   UNL     1      -7.023   4.789  69.245  1.00  0.00    -0.051 A  
HETATM   13  C   UNL     1      -7.954   5.437  68.393  1.00  0.00    -0.088 A  
HETATM   14  N   UNL     1      -7.608   5.902  67.142  1.00  0.00    -0.094 NA 
ENDROOT
BRANCH  14  15
HETATM   15  C   UNL     1      -6.228   5.686  66.626  1.00  0.00    -0.031 C  
BRANCH  15  16
HETATM   16  C   UNL     1      -5.284   6.772  67.140  1.00  0.00    -0.009 C  
BRANCH  16  17
HETATM   17  C   UNL     1      -6.018   8.089  67.376  1.00  0.00    -0.050 C  
BRANCH  17  18
HETATM   18  C   UNL     1      -5.975   8.540  68.839  1.00  0.00    -0.044 C  
BRANCH  18  19
HETATM   19  C   UNL     1      -7.360   8.884  69.379  1.00  0.00    -0.075 C  
BRANCH  19  20
HETATM   20  C   UNL     1      -7.608  10.390  69.490  1.00  0.00    -0.158 C  
BRANCH  20  21
HETATM   21  C   UNL     1      -6.709  11.236  68.578  1.00  0.00    -0.063 C  
BRANCH  21  22
HETATM   22  C   UNL     1      -7.425  11.717  67.313  1.00  0.00    -0.151 C  
BRANCH  22  23
HETATM   23  C   UNL     1      -8.658  10.877  66.960  1.00  0.00    -0.136 C  
BRANCH  23  24
HETATM   24  C   UNL     1      -9.758  11.731  66.328  1.00  0.00    -0.222 C  
BRANCH  24  25
HETATM   25  N   UNL     1     -10.338  12.662  67.329  1.00  0.00    -0.224 NA 
HETATM   26  C   UNL     1     -10.334  14.012  67.097  1.00  0.00    -0.265 A  
HETATM   27  C   UNL     1     -10.946  14.876  68.009  1.00  0.00    -0.282 A  
HETATM   28  C   UNL     1      -9.758  14.680  65.869  1.00  0.00    -0.341 C  
HETATM   29  C   UNL     1     -11.542  14.405  69.169  1.00  0.00    -0.307 A  
HETATM   30  N   UNL     1     -12.254  15.323  69.946  1.00  0.00    -0.440 NA 
HETATM   31  C   UNL     1     -11.598  13.016  69.368  1.00  0.00    -0.360 A  
HETATM   32  H1  UNL     1     -12.693  14.978  70.800  1.00  0.00     0.000 HD 
HETATM   33  C   UNL     1     -10.952  12.143  68.450  1.00  0.00    -0.235 A  
HETATM   34  H2  UNL     1     -12.959  15.781  69.367  1.00  0.00     0.000 HD 
HETATM   35  C   UNL     1     -10.985  10.749  68.715  1.00  0.00    -0.295 A  
HETATM   36  C   UNL     1     -11.667  10.220  69.809  1.00  0.00    -0.261 A  
HETATM   37  C   UNL     1     -12.330  11.069  70.674  1.00  0.00    -0.480 A  
HETATM   38  C   UNL     1     -12.290  12.446  70.461  1.00  0.00    -0.346 A  
ENDBRANCH  24  25
ENDBRANCH  23  24
ENDBRANCH  22  23
ENDBRANCH  21  22
ENDBRANCH  20  21
ENDBRANCH  19  20
ENDBRANCH  18  19
ENDBRANCH  17  18
ENDBRANCH  16  17
ENDBRANCH  15  16
ENDBRANCH  14  15
TORSDOF 11
ENDMDL
MODEL      390
REMARK 921   NORMALIZED FREE ENERGY PREDICTED BY IDOCK:   -4.21 KCAL/MOL
REMARK 922        TOTAL FREE ENERGY PREDICTED BY IDOCK:   -8.26 KCAL/MOL
REMARK 923 INTER-LIGAND FREE ENERGY PREDICTED BY IDOCK:   -7.17 KCAL/MOL
REMARK 924 INTRA-LIGAND FREE ENERGY PREDICTED BY IDOCK:   -1.10 KCAL/MOL
REMARK 927      BINDING AFFINITY PREDICTED BY RF-SCORE:    0.00 PKD
ROOT
HETATM    1  C   UNL     1     -12.279   6.609  71.526  1.00  0.00    -0.391 C  
HETATM    2  C   UNL     1     -10.805   6.914  71.672  1.00  0.00    -0.226 A  
HETATM    3  C   UNL     1     -10.371   7.455  72.875  1.00  0.00    -0.328 A  
HETATM    4  C   UNL     1      -9.034   7.749  73.096  1.00  0.00    -0.213 A  
HETATM    5  N   UNL     1      -8.665   8.156  74.383  1.00  0.00    -0.364 NA 
HETATM    6  C   UNL     1      -8.100   7.400  72.103  1.00  0.00    -0.107 A  
HETATM    7  H2  UNL     1      -8.971   7.456  75.058  1.00  0.00     0.000 HD 
HETATM    8  C   UNL     1      -6.707   7.548  72.300  1.00  0.00    -0.055 A  
HETATM    9  H1  UNL     1      -7.681   8.373  74.545  1.00  0.00     0.000 HD 
HETATM   10  C   UNL     1      -5.781   7.218  71.311  1.00  0.00    -0.035 A  
HETATM   11  C   UNL     1      -6.221   6.740  70.091  1.00  0.00    -0.035 A  
HETATM   12  C   UNL     1      -7.591   6.576  69.867  1.00  0.00    -0.100 A  
HETATM   13  C   UNL     1      -8.554   6.870  70.867  1.00  0.00    -0.136 A  
HETATM   14  N   UNL     1      -9.900   6.638  70.684  1.00  0.00    -0.183 NA 
ENDROOT
BRANCH  14  15
HETATM   15  C   UNL     1     -10.380   6.011  69.421  1.00  0.00    -0.236 C  
BRANCH  15  16
HETATM   16  C   UNL     1      -9.946   4.549  69.346  1.00  0.00    -0.212 C  
BRANCH  16  17
HETATM   17  C   UNL     1      -9.777   4.085  67.902  1.00  0.00    -0.148 C  
BRANCH  17  18
HETATM   18  C   UNL     1      -8.316   3.812  67.532  1.00  0.00    -0.097 C  
BRANCH  18  19
HETATM   19  C   UNL     1      -7.916   4.487  66.223  1.00  0.00    -0.103 C  
BRANCH  19  20
HETATM   20  C   UNL     1      -7.674   5.991  66.369  1.00  0.00    -0.102 C  
BRANCH  20  21
HETATM   21  C   UNL     1      -8.907   6.850  66.060  1.00  0.00    -0.154 C  
BRANCH  21  22
HETATM   22  C   UNL     1      -8.910   8.184  66.813  1.00  0.00    -0.156 C  
BRANCH  22  23
HETATM   23  C   UNL     1      -9.910   9.197  66.244  1.00  0.00    -0.359 C  
BRANCH  23  24
HETATM   24  C   UNL     1      -9.239  10.536  65.936  1.00  0.00    -0.179 C  
BRANCH  24  25
HETATM   25  N   UNL     1      -9.981  11.653  66.576  1.00  0.00    -0.199 NA 
HETATM   26  C   UNL     1     -10.312  12.765  65.849  1.00  0.00    -0.283 A  
HETATM   27  C   UNL     1     -11.073  13.778  66.438  1.00  0.00    -0.309 A  
HETATM   28  C   UNL     1      -9.970  12.984  64.392  1.00  0.00    -0.131 C  
HETATM   29  C   UNL     1     -11.485  13.704  67.759  1.00  0.00    -0.318 A  
HETATM   30  N   UNL     1     -12.362  14.692  68.217  1.00  0.00    -0.593 NA 
HETATM   31  C   UNL     1     -11.196  12.533  68.477  1.00  0.00    -0.322 A  
HETATM   32  H1  UNL     1     -12.666  14.638  69.189  1.00  0.00     0.000 HD 
HETATM   33  C   UNL     1     -10.400  11.515  67.883  1.00  0.00    -0.183 A  
HETATM   34  H2  UNL     1     -13.181  14.724  67.610  1.00  0.00     0.000 HD 
HETATM   35  C   UNL     1     -10.085  10.371  68.661  1.00  0.00    -0.188 A  
HETATM   36  C   UNL     1     -10.570  10.200  69.955  1.00  0.00    -0.338 A  
HETATM   37  C   UNL     1     -11.378  11.172  70.514  1.00  0.00    -0.015 A  
HETATM   38  C   UNL     1     -11.680  12.323  69.789  1.00  0.00    -0.368 A  
ENDBRANCH  24  25
ENDBRANCH  23  24
ENDBRANCH  22  23
ENDBRANCH  21  22
ENDBRANCH  20  21
ENDBRANCH  19  20
ENDBRANCH  18  19
ENDBRANCH  17  18
ENDBRANCH  16  17
ENDBRANCH  15  16
ENDBRANCH  14  15
TORSDOF 11
ENDMDL
MODEL      391
REMARK 921   NORMALIZED FREE ENERGY PREDICTED BY IDOCK:   -4.15 KCAL/MOL
REMARK 922        TOTAL FREE ENERGY PREDICTED BY IDOCK:   -8.17 KCAL/MOL
REMARK 923 INTER-LIGAND FREE ENERGY PREDICTED BY IDOCK:   -8.55 KCAL/MOL
REMARK 924 INTRA-LIGAND FREE ENERGY PREDICTED BY IDOCK:    0.38 KCAL/MOL
REMARK 927      BINDING AFFINITY PREDICTED BY RF-SCORE:    0.00 PKD
ROOT
HETATM    1  C   UNL     1      -7.322   9.457  70.661  1.00  0.00    -0.140 C  
HETATM    2  C   UNL     1      -8.304   8.484  71.275  1.00  0.00    -0.156 A  
HETATM    3  C   UNL     1      -9.601   8.928  71.502  1.00  0.00    -0.362 A  
HETATM    4  C   UNL     1     -10.566   8.095  72.047  1.00  0.00    -0.269 A  
HETATM    5  N   UNL     1     -11.877   8.578  72.109  1.00  0.00    -0.358 NA 
HETATM    6  C   UNL     1     -10.231   6.748  72.282  1.00  0.00    -0.210 A  
HETATM    7  H2  UNL     1     -12.173   8.871  71.177  1.00  0.00     0.000 HD 
HETATM    8  C   UNL     1     -11.190   5.803  72.715  1.00  0.00    -0.336 A  
HETATM    9  H1  UNL     1     -12.587   7.966  72.510  1.00  0.00     0.000 HD 
HETATM   10  C   UNL     1     -10.857   4.473  72.965  1.00  0.00    -0.315 A  
HETATM   11  C   UNL     1      -9.552   4.050  72.799  1.00  0.00    -0.177 A  
HETATM   12  C   UNL     1      -8.581   4.957  72.365  1.00  0.00    -0.123 A  
HETATM   13  C   UNL     1      -8.898   6.308  72.070  1.00  0.00    -0.138 A  
HETATM   14  N   UNL     1      -7.967   7.191  71.567  1.00  0.00    -0.101 NA 
ENDROOT
BRANCH  14  15
HETATM   15  C   UNL     1      -6.586   6.721  71.269  1.00  0.00    -0.053 C  
BRANCH  15  16
HETATM   16  C   UNL     1      -6.581   5.801  70.050  1.00  0.00    -0.043 C  
BRANCH  16  17
HETATM   17  C   UNL     1      -6.531   6.594  68.746  1.00  0.00    -0.046 C  
BRANCH  17  18
HETATM   18  C   UNL     1      -7.652   6.213  67.774  1.00  0.00    -0.097 C  
BRANCH  18  19
HETATM   19  C   UNL     1      -9.029   6.279  68.427  1.00  0.00    -0.116 C  
BRANCH  19  20
HETATM   20  C   UNL     1      -9.674   7.664  68.338  1.00  0.00    -0.164 C  
BRANCH  20  21
HETATM   21  C   UNL     1      -9.136   8.526  67.188  1.00  0.00    -0.164 C  
BRANCH  21  22
HETATM   22  C   UNL     1     -10.231   9.330  66.481  1.00  0.00    -0.316 C  
BRANCH  22  23
HETATM   23  C   UNL     1     -10.397  10.747  67.043  1.00  0.00    -0.275 C  
BRANCH  23  24
HETATM   24  C   UNL     1     -11.047  10.732  68.426  1.00  0.00    -0.266 C  
BRANCH  24  25
HETATM   25  N   UNL     1     -11.303  12.116  68.900  1.00  0.00    -0.261 NA 
HETATM   26  C   UNL     1     -10.912  13.187  68.142  1.00  0.00    -0.251 A  
HETATM   27  C   UNL     1     -11.221  14.484  68.560  1.00  0.00    -0.285 A  
HETATM   28  C   UNL     1     -10.202  13.094  66.810  1.00  0.00    -0.252 C  
HETATM   29  C   UNL     1     -11.895  14.724  69.747  1.00  0.00    -0.316 A  
HETATM   30  N   UNL     1     -12.287  16.040  70.010  1.00  0.00    -0.399 NA 
HETATM   31  C   UNL     1     -12.348  13.619  70.486  1.00  0.00    -0.425 A  
HETATM   32  H1  UNL     1     -12.784  16.218  70.883  1.00  0.00     0.000 HD 
HETATM   33  C   UNL     1     -12.010  12.302  70.071  1.00  0.00    -0.304 A  
HETATM   34  H2  UNL     1     -12.844  16.389  69.230  1.00  0.00     0.000 HD 
HETATM   35  C   UNL     1     -12.439  11.216  70.875  1.00  0.00    -0.509 A  
HETATM   36  C   UNL     1     -13.215  11.401  72.017  1.00  0.00    -0.432 A  
HETATM   37  C   UNL     1     -13.578  12.680  72.394  1.00  0.00    -0.435 A  
HETATM   38  C   UNL     1     -13.144  13.772  71.644  1.00  0.00    -0.456 A  
ENDBRANCH  24  25
ENDBRANCH  23  24
ENDBRANCH  22  23
ENDBRANCH  21  22
ENDBRANCH  20  21
ENDBRANCH  19  20
ENDBRANCH  18  19
ENDBRANCH  17  18
ENDBRANCH  16  17
ENDBRANCH  15  16
ENDBRANCH  14  15
TORSDOF 11
ENDMDL
MODEL      392
REMARK 921   NORMALIZED FREE ENERGY PREDICTED BY IDOCK:   -4.14 KCAL/MOL
REMARK 922        TOTAL FREE ENERGY PREDICTED BY IDOCK:   -8.15 KCAL/MOL
REMARK 923 INTER-LIGAND FREE ENERGY PREDICTED BY IDOCK:   -5.83 KCAL/MOL
REMARK 924 INTRA-LIGAND FREE ENERGY PREDICTED BY IDOCK:   -2.32 KCAL/MOL
REMARK 927      BINDING AFFINITY PREDICTED BY RF-SCORE:    0.00 PKD
ROOT
HETATM    1  C   UNL     1     -10.167   6.479  73.457  1.00  0.00    -0.281 C  
HETATM    2  C   UNL     1     -10.808   7.570  72.630  1.00  0.00    -0.315 A  
HETATM    3  C   UNL     1     -12.118   7.923  72.925  1.00  0.00    -0.016 A  
HETATM    4  C   UNL     1     -12.775   8.923  72.224  1.00  0.00    -0.397 A  
HETATM    5  N   UNL     1     -14.039   9.310  72.680  1.00  0.00    -0.819 NA 
HETATM    6  C   UNL     1     -12.050   9.649  71.260  1.00  0.00    -0.457 A  
HETATM    7  H2  UNL     1     -13.977   9.574  73.664  1.00  0.00     0.000 HD 
HETATM    8  C   UNL     1     -12.604  10.766  70.591  1.00  0.00    -0.446 A  
HETATM    9  H1  UNL     1     -14.522  10.046  72.165  1.00  0.00     0.000 HD 
HETATM   10  C   UNL     1     -11.894  11.475  69.624  1.00  0.00    -0.421 A  
HETATM   11  C   UNL     1     -10.613  11.082  69.287  1.00  0.00    -0.236 A  
HETATM   12  C   UNL     1     -10.034   9.986  69.933  1.00  0.00    -0.280 A  
HETATM   13  C   UNL     1     -10.719   9.267  70.947  1.00  0.00    -0.301 A  
HETATM   14  N   UNL     1     -10.130   8.235  71.645  1.00  0.00    -0.198 NA 
ENDROOT
BRANCH  14  15
HETATM   15  C   UNL     1      -8.709   7.876  71.379  1.00  0.00    -0.127 C  
BRANCH  15  16
HETATM   16  C   UNL     1      -8.618   6.512  70.697  1.00  0.00    -0.139 C  
BRANCH  16  17
HETATM   17  C   UNL     1      -9.283   6.524  69.323  1.00  0.00    -0.139 C  
BRANCH  17  18
HETATM   18  C   UNL     1     -10.220   5.332  69.105  1.00  0.00    -0.281 C  
BRANCH  18  19
HETATM   19  C   UNL     1      -9.511   4.153  68.445  1.00  0.00    -0.212 C  
BRANCH  19  20
HETATM   20  C   UNL     1      -9.441   2.914  69.340  1.00  0.00    -0.158 C  
BRANCH  20  21
HETATM   21  C   UNL     1      -9.528   3.225  70.840  1.00  0.00    -0.234 C  
BRANCH  21  22
HETATM   22  C   UNL     1      -8.199   3.020  71.571  1.00  0.00    -0.069 C  
BRANCH  22  23
HETATM   23  C   UNL     1      -7.235   2.091  70.823  1.00  0.00    -0.033 C  
BRANCH  23  24
HETATM   24  C   UNL     1      -5.848   2.718  70.678  1.00  0.00    -0.017 C  
BRANCH  24  25
HETATM   25  N   UNL     1      -5.817   3.659  69.529  1.00  0.00    -0.021 NA 
HETATM   26  C   UNL     1      -6.085   3.211  68.264  1.00  0.00    -0.025 A  
HETATM   27  C   UNL     1      -6.126   4.116  67.200  1.00  0.00    -0.028 A  
HETATM   28  C   UNL     1      -6.415   1.781  67.902  1.00  0.00    -0.028 C  
HETATM   29  C   UNL     1      -5.872   5.466  67.384  1.00  0.00    -0.017 A  
HETATM   30  N   UNL     1      -6.077   6.315  66.292  1.00  0.00    -0.032 NA 
HETATM   31  C   UNL     1      -5.661   5.927  68.694  1.00  0.00    -0.011 A  
HETATM   32  H1  UNL     1      -5.891   7.309  66.427  1.00  0.00     0.000 HD 
HETATM   33  C   UNL     1      -5.596   5.000  69.769  1.00  0.00    -0.015 A  
HETATM   34  H2  UNL     1      -7.029   6.195  65.945  1.00  0.00     0.000 HD 
HETATM   35  C   UNL     1      -5.326   5.500  71.069  1.00  0.00    -0.009 A  
HETATM   36  C   UNL     1      -5.175   6.862  71.322  1.00  0.00    -0.027 A  
HETATM   37  C   UNL     1      -5.282   7.764  70.280  1.00  0.00    -0.023 A  
HETATM   38  C   UNL     1      -5.514   7.303  68.986  1.00  0.00    -0.018 A  
ENDBRANCH  24  25
ENDBRANCH  23  24
ENDBRANCH  22  23
ENDBRANCH  21  22
ENDBRANCH  20  21
ENDBRANCH  19  20
ENDBRANCH  18  19
ENDBRANCH  17  18
ENDBRANCH  16  17
ENDBRANCH  15  16
ENDBRANCH  14  15
TORSDOF 11
ENDMDL
MODEL      393
REMARK 921   NORMALIZED FREE ENERGY PREDICTED BY IDOCK:   -4.13 KCAL/MOL
REMARK 922        TOTAL FREE ENERGY PREDICTED BY IDOCK:   -8.13 KCAL/MOL
REMARK 923 INTER-LIGAND FREE ENERGY PREDICTED BY IDOCK:   -6.50 KCAL/MOL
REMARK 924 INTRA-LIGAND FREE ENERGY PREDICTED BY IDOCK:   -1.64 KCAL/MOL
REMARK 927      BINDING AFFINITY PREDICTED BY RF-SCORE:    0.00 PKD
ROOT
HETATM    1  C   UNL     1      -9.977  11.249  64.680  1.00  0.00    -0.331 C  
HETATM    2  C   UNL     1     -10.527  12.364  65.540  1.00  0.00    -0.275 A  
HETATM    3  C   UNL     1     -11.703  12.979  65.130  1.00  0.00    -0.379 A  
HETATM    4  C   UNL     1     -12.282  14.000  65.868  1.00  0.00    -0.456 A  
HETATM    5  N   UNL     1     -13.537  14.464  65.460  1.00  0.00    -0.351 NA 
HETATM    6  C   UNL     1     -11.701  14.343  67.104  1.00  0.00    -0.424 A  
HETATM    7  H2  UNL     1     -14.185  13.678  65.405  1.00  0.00     0.000 HD 
HETATM    8  C   UNL     1     -12.299  15.281  67.978  1.00  0.00     0.481 A  
HETATM    9  H1  UNL     1     -13.962  15.215  66.003  1.00  0.00     0.000 HD 
HETATM   10  C   UNL     1     -11.717  15.634  69.194  1.00  0.00    -0.402 A  
HETATM   11  C   UNL     1     -10.514  15.067  69.569  1.00  0.00    -0.245 A  
HETATM   12  C   UNL     1      -9.901  14.131  68.732  1.00  0.00    -0.168 A  
HETATM   13  C   UNL     1     -10.487  13.726  67.505  1.00  0.00    -0.245 A  
HETATM   14  N   UNL     1      -9.931  12.748  66.710  1.00  0.00    -0.232 NA 
ENDROOT
BRANCH  14  15
HETATM   15  C   UNL     1      -8.699  12.041  67.157  1.00  0.00    -0.183 C  
BRANCH  15  16
HETATM   16  C   UNL     1      -9.055  10.742  67.879  1.00  0.00    -0.150 C  
BRANCH  16  17
HETATM   17  C   UNL     1      -8.215  10.551  69.139  1.00  0.00    -0.152 C  
BRANCH  17  18
HETATM   18  C   UNL     1      -8.923   9.708  70.203  1.00  0.00    -0.273 C  
BRANCH  18  19
HETATM   19  C   UNL     1      -8.528   8.236  70.131  1.00  0.00    -0.126 C  
BRANCH  19  20
HETATM   20  C   UNL     1      -7.013   8.020  70.082  1.00  0.00    -0.048 C  
BRANCH  20  21
HETATM   21  C   UNL     1      -6.236   8.834  71.125  1.00  0.00    -0.051 C  
BRANCH  21  22
HETATM   22  C   UNL     1      -5.220   7.993  71.903  1.00  0.00    -0.035 C  
BRANCH  22  23
HETATM   23  C   UNL     1      -5.565   6.500  71.929  1.00  0.00    -0.036 C  
BRANCH  23  24
HETATM   24  C   UNL     1      -6.186   6.088  73.264  1.00  0.00    -0.062 C  
BRANCH  24  25
HETATM   25  N   UNL     1      -7.668   6.077  73.171  1.00  0.00    -0.098 NA 
HETATM   26  C   UNL     1      -8.403   7.068  73.766  1.00  0.00    -0.134 A  
HETATM   27  C   UNL     1      -9.791   7.090  73.613  1.00  0.00    -0.318 A  
HETATM   28  C   UNL     1      -7.826   8.221  74.556  1.00  0.00    -0.300 C  
HETATM   29  C   UNL     1     -10.459   6.114  72.890  1.00  0.00    -0.217 A  
HETATM   30  N   UNL     1     -11.827   6.298  72.669  1.00  0.00    -0.511 NA 
HETATM   31  C   UNL     1      -9.694   5.138  72.231  1.00  0.00    -0.201 A  
HETATM   32  H1  UNL     1     -12.319   5.580  72.138  1.00  0.00     0.000 HD 
HETATM   33  C   UNL     1      -8.283   5.104  72.411  1.00  0.00    -0.117 A  
HETATM   34  H2  UNL     1     -11.979   7.206  72.229  1.00  0.00     0.000 HD 
HETATM   35  C   UNL     1      -7.552   4.070  71.771  1.00  0.00    -0.061 A  
HETATM   36  C   UNL     1      -8.166   3.132  70.945  1.00  0.00    -0.075 A  
HETATM   37  C   UNL     1      -9.531   3.195  70.739  1.00  0.00    -0.231 A  
HETATM   38  C   UNL     1     -10.283   4.178  71.378  1.00  0.00    -0.091 A  
ENDBRANCH  24  25
ENDBRANCH  23  24
ENDBRANCH  22  23
ENDBRANCH  21  22
ENDBRANCH  20  21
ENDBRANCH  19  20
ENDBRANCH  18  19
ENDBRANCH  17  18
ENDBRANCH  16  17
ENDBRANCH  15  16
ENDBRANCH  14  15
TORSDOF 11
ENDMDL
MODEL      394
REMARK 921   NORMALIZED FREE ENERGY PREDICTED BY IDOCK:   -4.10 KCAL/MOL
REMARK 922        TOTAL FREE ENERGY PREDICTED BY IDOCK:   -8.09 KCAL/MOL
REMARK 923 INTER-LIGAND FREE ENERGY PREDICTED BY IDOCK:   -6.73 KCAL/MOL
REMARK 924 INTRA-LIGAND FREE ENERGY PREDICTED BY IDOCK:   -1.37 KCAL/MOL
REMARK 927      BINDING AFFINITY PREDICTED BY RF-SCORE:    0.00 PKD
ROOT
HETATM    1  C   UNL     1     -10.168   8.151  72.135  1.00  0.00    -0.330 C  
HETATM    2  C   UNL     1      -9.971   6.652  72.159  1.00  0.00    -0.160 A  
HETATM    3  C   UNL     1     -10.795   5.903  72.991  1.00  0.00    -0.300 A  
HETATM    4  C   UNL     1     -10.690   4.522  73.061  1.00  0.00    -0.225 A  
HETATM    5  N   UNL     1     -11.650   3.837  73.813  1.00  0.00    -0.018 NA 
HETATM    6  C   UNL     1      -9.787   3.876  72.194  1.00  0.00    -0.235 A  
HETATM    7  H2  UNL     1     -12.581   4.087  73.479  1.00  0.00     0.000 HD 
HETATM    8  C   UNL     1      -9.710   2.466  72.110  1.00  0.00    -0.205 A  
HETATM    9  H1  UNL     1     -11.572   2.821  73.864  1.00  0.00     0.000 HD 
HETATM   10  C   UNL     1      -8.805   1.824  71.265  1.00  0.00    -0.111 A  
HETATM   11  C   UNL     1      -7.944   2.573  70.487  1.00  0.00    -0.050 A  
HETATM   12  C   UNL     1      -8.000   3.969  70.541  1.00  0.00    -0.055 A  
HETATM   13  C   UNL     1      -8.933   4.649  71.365  1.00  0.00    -0.128 A  
HETATM   14  N   UNL     1      -9.051   6.022  71.368  1.00  0.00    -0.143 NA 
ENDROOT
BRANCH  14  15
HETATM   15  C   UNL     1      -8.213   6.840  70.446  1.00  0.00    -0.125 C  
BRANCH  15  16
HETATM   16  C   UNL     1      -6.872   7.177  71.095  1.00  0.00    -0.060 C  
BRANCH  16  17
HETATM   17  C   UNL     1      -6.371   8.554  70.669  1.00  0.00    -0.037 C  
BRANCH  17  18
HETATM   18  C   UNL     1      -7.133   9.119  69.466  1.00  0.00    -0.059 C  
BRANCH  18  19
HETATM   19  C   UNL     1      -6.815  10.591  69.220  1.00  0.00    -0.079 C  
BRANCH  19  20
HETATM   20  C   UNL     1      -6.564  10.915  67.745  1.00  0.00    -0.064 C  
BRANCH  20  21
HETATM   21  C   UNL     1      -7.097  12.287  67.313  1.00  0.00    -0.138 C  
BRANCH  21  22
HETATM   22  C   UNL     1      -7.552  13.151  68.493  1.00  0.00    -0.122 C  
BRANCH  22  23
HETATM   23  C   UNL     1      -8.084  14.524  68.067  1.00  0.00    -0.139 C  
BRANCH  23  24
HETATM   24  C   UNL     1      -9.483  14.421  67.459  1.00  0.00    -0.207 C  
BRANCH  24  25
HETATM   25  N   UNL     1     -10.522  14.690  68.485  1.00  0.00    -0.240 NA 
HETATM   26  C   UNL     1     -10.944  15.972  68.717  1.00  0.00    -0.320 A  
HETATM   27  C   UNL     1     -11.973  16.209  69.632  1.00  0.00    -0.070 A  
HETATM   28  C   UNL     1     -10.424  17.200  68.005  1.00  0.00    -0.369 C  
HETATM   29  C   UNL     1     -12.568  15.177  70.342  1.00  0.00    -0.359 A  
HETATM   30  N   UNL     1     -13.684  15.492  71.124  1.00  0.00    -0.733 NA 
HETATM   31  C   UNL     1     -12.173  13.861  70.051  1.00  0.00    -0.408 A  
HETATM   32  H1  UNL     1     -14.122  14.733  71.646  1.00  0.00     0.000 HD 
HETATM   33  C   UNL     1     -11.109  13.626  69.138  1.00  0.00    -0.231 A  
HETATM   34  H2  UNL     1     -14.386  15.950  70.542  1.00  0.00     0.000 HD 
HETATM   35  C   UNL     1     -10.704  12.285  68.913  1.00  0.00    -0.210 A  
HETATM   36  C   UNL     1     -11.345  11.207  69.518  1.00  0.00    -0.359 A  
HETATM   37  C   UNL     1     -12.407  11.437  70.372  1.00  0.00    -0.404 A  
HETATM   38  C   UNL     1     -12.810  12.744  70.640  1.00  0.00    -0.034 A  
ENDBRANCH  24  25
ENDBRANCH  23  24
ENDBRANCH  22  23
ENDBRANCH  21  22
ENDBRANCH  20  21
ENDBRANCH  19  20
ENDBRANCH  18  19
ENDBRANCH  17  18
ENDBRANCH  16  17
ENDBRANCH  15  16
ENDBRANCH  14  15
TORSDOF 11
ENDMDL
MODEL      395
REMARK 921   NORMALIZED FREE ENERGY PREDICTED BY IDOCK:   -4.08 KCAL/MOL
REMARK 922        TOTAL FREE ENERGY PREDICTED BY IDOCK:   -8.06 KCAL/MOL
REMARK 923 INTER-LIGAND FREE ENERGY PREDICTED BY IDOCK:   -7.81 KCAL/MOL
REMARK 924 INTRA-LIGAND FREE ENERGY PREDICTED BY IDOCK:   -0.25 KCAL/MOL
REMARK 927      BINDING AFFINITY PREDICTED BY RF-SCORE:    0.00 PKD
ROOT
HETATM    1  C   UNL     1      -9.477  15.621  69.595  1.00  0.00    -0.243 C  
HETATM    2  C   UNL     1      -9.046  16.862  68.846  1.00  0.00    -0.223 A  
HETATM    3  C   UNL     1     -10.029  17.615  68.217  1.00  0.00    -0.339 A  
HETATM    4  C   UNL     1      -9.720  18.774  67.522  1.00  0.00    -0.307 A  
HETATM    5  N   UNL     1     -10.784  19.545  67.042  1.00  0.00    -0.488 NA 
HETATM    6  C   UNL     1      -8.389  19.232  67.545  1.00  0.00    -0.322 A  
HETATM    7  H2  UNL     1     -11.411  19.772  67.815  1.00  0.00     0.000 HD 
HETATM    8  C   UNL     1      -8.013  20.469  66.971  1.00  0.00    -0.333 A  
HETATM    9  H1  UNL     1     -10.557  20.397  66.531  1.00  0.00     0.000 HD 
HETATM   10  C   UNL     1      -6.693  20.916  66.978  1.00  0.00    -0.396 A  
HETATM   11  C   UNL     1      -5.706  20.134  67.549  1.00  0.00    -0.200 A  
HETATM   12  C   UNL     1      -6.046  18.909  68.130  1.00  0.00    -0.217 A  
HETATM   13  C   UNL     1      -7.386  18.445  68.169  1.00  0.00    -0.261 A  
HETATM   14  N   UNL     1      -7.743  17.278  68.809  1.00  0.00    -0.267 NA 
ENDROOT
BRANCH  14  15
HETATM   15  C   UNL     1      -6.712  16.483  69.532  1.00  0.00    -0.198 C  
BRANCH  15  16
HETATM   16  C   UNL     1      -7.076  15.000  69.530  1.00  0.00    -0.192 C  
BRANCH  16  17
HETATM   17  C   UNL     1      -6.187  14.204  68.579  1.00  0.00    -0.093 C  
BRANCH  17  18
HETATM   18  C   UNL     1      -6.950  13.654  67.370  1.00  0.00    -0.075 C  
BRANCH  18  19
HETATM   19  C   UNL     1      -7.317  12.183  67.538  1.00  0.00    -0.135 C  
BRANCH  19  20
HETATM   20  C   UNL     1      -8.131  11.905  68.803  1.00  0.00    -0.021 C  
BRANCH  20  21
HETATM   21  C   UNL     1      -7.673  10.660  69.574  1.00  0.00    -0.113 C  
BRANCH  21  22
HETATM   22  C   UNL     1      -7.701   9.387  68.724  1.00  0.00    -0.080 C  
BRANCH  22  23
HETATM   23  C   UNL     1      -8.654   8.317  69.268  1.00  0.00    -0.138 C  
BRANCH  23  24
HETATM   24  C   UNL     1      -9.734   7.954  68.248  1.00  0.00    -0.160 C  
BRANCH  24  25
HETATM   25  N   UNL     1     -10.262   9.175  67.588  1.00  0.00    -0.221 NA 
HETATM   26  C   UNL     1     -10.968  10.098  68.312  1.00  0.00    -0.248 A  
HETATM   27  C   UNL     1     -11.398  11.278  67.700  1.00  0.00    -0.352 A  
HETATM   28  C   UNL     1     -11.285   9.987  69.786  1.00  0.00    -0.307 C  
HETATM   29  C   UNL     1     -11.155  11.534  66.360  1.00  0.00    -0.269 A  
HETATM   30  N   UNL     1     -11.495  12.799  65.872  1.00  0.00    -0.338 NA 
HETATM   31  C   UNL     1     -10.377  10.611  65.641  1.00  0.00    -0.285 A  
HETATM   32  H1  UNL     1     -11.315  12.988  64.886  1.00  0.00     0.000 HD 
HETATM   33  C   UNL     1      -9.962   9.400  66.260  1.00  0.00    -0.283 A  
HETATM   34  H2  UNL     1     -11.038  13.513  66.440  1.00  0.00     0.000 HD 
HETATM   35  C   UNL     1      -9.224   8.470  65.484  1.00  0.00    -0.109 A  
HETATM   36  C   UNL     1      -8.859   8.732  64.165  1.00  0.00     0.083 A  
HETATM   37  C   UNL     1      -9.227   9.928  63.581  1.00  0.00    -0.283 A  
HETATM   38  C   UNL     1      -9.981  10.850  64.305  1.00  0.00    -0.392 A  
ENDBRANCH  24  25
ENDBRANCH  23  24
ENDBRANCH  22  23
ENDBRANCH  21  22
ENDBRANCH  20  21
ENDBRANCH  19  20
ENDBRANCH  18  19
ENDBRANCH  17  18
ENDBRANCH  16  17
ENDBRANCH  15  16
ENDBRANCH  14  15
TORSDOF 11
ENDMDL
MODEL      396
REMARK 921   NORMALIZED FREE ENERGY PREDICTED BY IDOCK:   -4.07 KCAL/MOL
REMARK 922        TOTAL FREE ENERGY PREDICTED BY IDOCK:   -8.04 KCAL/MOL
REMARK 923 INTER-LIGAND FREE ENERGY PREDICTED BY IDOCK:   -7.25 KCAL/MOL
REMARK 924 INTRA-LIGAND FREE ENERGY PREDICTED BY IDOCK:   -0.78 KCAL/MOL
REMARK 927      BINDING AFFINITY PREDICTED BY RF-SCORE:    0.00 PKD
ROOT
HETATM    1  C   UNL     1     -11.123   5.990  69.573  1.00  0.00    -0.468 C  
HETATM    2  C   UNL     1     -10.251   5.698  70.773  1.00  0.00    -0.227 A  
HETATM    3  C   UNL     1     -10.735   4.811  71.726  1.00  0.00    -0.045 A  
HETATM    4  C   UNL     1      -9.992   4.477  72.849  1.00  0.00    -0.152 A  
HETATM    5  N   UNL     1     -10.493   3.471  73.681  1.00  0.00    -0.161 NA 
HETATM    6  C   UNL     1      -8.684   4.986  72.960  1.00  0.00    -0.113 A  
HETATM    7  H2  UNL     1     -10.664   2.631  73.129  1.00  0.00     0.000 HD 
HETATM    8  C   UNL     1      -7.815   4.595  74.004  1.00  0.00    -0.100 A  
HETATM    9  H1  UNL     1      -9.946   3.226  74.507  1.00  0.00     0.000 HD 
HETATM   10  C   UNL     1      -6.525   5.111  74.125  1.00  0.00    -0.069 A  
HETATM   11  C   UNL     1      -6.070   6.041  73.211  1.00  0.00    -0.057 A  
HETATM   12  C   UNL     1      -6.902   6.444  72.162  1.00  0.00    -0.072 A  
HETATM   13  C   UNL     1      -8.205   5.910  71.994  1.00  0.00    -0.112 A  
HETATM   14  N   UNL     1      -9.004   6.240  70.920  1.00  0.00    -0.146 NA 
ENDROOT
BRANCH  14  15
HETATM   15  C   UNL     1      -8.484   7.149  69.861  1.00  0.00    -0.140 C  
BRANCH  15  16
HETATM   16  C   UNL     1      -7.772   6.352  68.770  1.00  0.00    -0.101 C  
BRANCH  16  17
HETATM   17  C   UNL     1      -8.138   6.856  67.376  1.00  0.00    -0.115 C  
BRANCH  17  18
HETATM   18  C   UNL     1      -6.964   7.534  66.662  1.00  0.00    -0.074 C  
BRANCH  18  19
HETATM   19  C   UNL     1      -6.770   8.979  67.111  1.00  0.00    -0.066 C  
BRANCH  19  20
HETATM   20  C   UNL     1      -8.085   9.750  67.250  1.00  0.00    -0.117 C  
BRANCH  20  21
HETATM   21  C   UNL     1      -8.121  10.703  68.452  1.00  0.00    -0.123 C  
BRANCH  21  22
HETATM   22  C   UNL     1      -9.478  10.719  69.161  1.00  0.00    -0.151 C  
BRANCH  22  23
HETATM   23  C   UNL     1     -10.664  10.820  68.194  1.00  0.00    -0.257 C  
BRANCH  23  24
HETATM   24  C   UNL     1     -11.992  10.938  68.942  1.00  0.00    -0.206 C  
BRANCH  24  25
HETATM   25  N   UNL     1     -12.115  12.271  69.585  1.00  0.00    -0.253 NA 
HETATM   26  C   UNL     1     -12.488  12.370  70.898  1.00  0.00    -0.274 A  
HETATM   27  C   UNL     1     -12.531  13.623  71.516  1.00  0.00    -0.330 A  
HETATM   28  C   UNL     1     -12.813  11.200  71.799  1.00  0.00    -0.479 C  
HETATM   29  C   UNL     1     -12.230  14.786  70.823  1.00  0.00    -0.314 A  
HETATM   30  N   UNL     1     -12.158  15.973  71.558  1.00  0.00    -0.533 NA 
HETATM   31  C   UNL     1     -11.787  14.669  69.496  1.00  0.00    -0.374 A  
HETATM   32  H1  UNL     1     -11.937  16.829  71.049  1.00  0.00     0.000 HD 
HETATM   33  C   UNL     1     -11.769  13.396  68.864  1.00  0.00    -0.328 A  
HETATM   34  H2  UNL     1     -11.496  15.856  72.325  1.00  0.00     0.000 HD 
HETATM   35  C   UNL     1     -11.367  13.328  67.505  1.00  0.00    -0.329 A  
HETATM   36  C   UNL     1     -10.949  14.454  66.800  1.00  0.00    -0.314 A  
HETATM   37  C   UNL     1     -10.927  15.683  67.430  1.00  0.00    -0.293 A  
HETATM   38  C   UNL     1     -11.347  15.790  68.755  1.00  0.00    -0.362 A  
ENDBRANCH  24  25
ENDBRANCH  23  24
ENDBRANCH  22  23
ENDBRANCH  21  22
ENDBRANCH  20  21
ENDBRANCH  19  20
ENDBRANCH  18  19
ENDBRANCH  17  18
ENDBRANCH  16  17
ENDBRANCH  15  16
ENDBRANCH  14  15
TORSDOF 11
ENDMDL
MODEL      397
REMARK 921   NORMALIZED FREE ENERGY PREDICTED BY IDOCK:   -4.06 KCAL/MOL
REMARK 922        TOTAL FREE ENERGY PREDICTED BY IDOCK:   -8.02 KCAL/MOL
REMARK 923 INTER-LIGAND FREE ENERGY PREDICTED BY IDOCK:   -5.78 KCAL/MOL
REMARK 924 INTRA-LIGAND FREE ENERGY PREDICTED BY IDOCK:   -2.24 KCAL/MOL
REMARK 927      BINDING AFFINITY PREDICTED BY RF-SCORE:    0.00 PKD
ROOT
HETATM    1  C   UNL     1      -5.812   7.282  70.668  1.00  0.00    -0.027 C  
HETATM    2  C   UNL     1      -6.930   6.326  71.019  1.00  0.00    -0.068 A  
HETATM    3  C   UNL     1      -6.809   5.007  70.602  1.00  0.00    -0.040 A  
HETATM    4  C   UNL     1      -7.783   4.063  70.895  1.00  0.00    -0.051 A  
HETATM    5  N   UNL     1      -7.515   2.731  70.562  1.00  0.00    -0.040 NA 
HETATM    6  C   UNL     1      -8.862   4.449  71.712  1.00  0.00    -0.145 A  
HETATM    7  H2  UNL     1      -6.632   2.449  70.989  1.00  0.00     0.000 HD 
HETATM    8  C   UNL     1      -9.829   3.520  72.163  1.00  0.00    -0.238 A  
HETATM    9  H1  UNL     1      -8.231   2.038  70.778  1.00  0.00     0.000 HD 
HETATM   10  C   UNL     1     -10.908   3.903  72.959  1.00  0.00    -0.223 A  
HETATM   11  C   UNL     1     -11.058   5.228  73.318  1.00  0.00    -0.376 A  
HETATM   12  C   UNL     1     -10.117   6.171  72.895  1.00  0.00    -0.196 A  
HETATM   13  C   UNL     1      -8.990   5.804  72.114  1.00  0.00    -0.136 A  
HETATM   14  N   UNL     1      -8.015   6.710  71.757  1.00  0.00    -0.102 NA 
ENDROOT
BRANCH  14  15
HETATM   15  C   UNL     1      -8.099   8.118  72.237  1.00  0.00    -0.139 C  
BRANCH  15  16
HETATM   16  C   UNL     1      -8.555   9.044  71.111  1.00  0.00    -0.250 C  
BRANCH  16  17
HETATM   17  C   UNL     1     -10.076   9.171  71.069  1.00  0.00    -0.373 C  
BRANCH  17  18
HETATM   18  C   UNL     1     -10.660   8.880  69.684  1.00  0.00    -0.230 C  
BRANCH  18  19
HETATM   19  C   UNL     1      -9.609   8.977  68.582  1.00  0.00    -0.158 C  
BRANCH  19  20
HETATM   20  C   UNL     1      -9.982   8.192  67.322  1.00  0.00    -0.283 C  
BRANCH  20  21
HETATM   21  C   UNL     1      -8.772   7.665  66.539  1.00  0.00    -0.161 C  
BRANCH  21  22
HETATM   22  C   UNL     1      -8.593   8.354  65.183  1.00  0.00    -0.159 C  
BRANCH  22  23
HETATM   23  C   UNL     1      -9.692   9.378  64.875  1.00  0.00     0.068 C  
BRANCH  23  24
HETATM   24  C   UNL     1      -9.104  10.740  64.506  1.00  0.00    -0.198 C  
BRANCH  24  25
HETATM   25  N   UNL     1      -9.426  11.749  65.548  1.00  0.00    -0.206 NA 
HETATM   26  C   UNL     1     -10.599  12.452  65.485  1.00  0.00    -0.275 A  
HETATM   27  C   UNL     1     -10.928  13.346  66.508  1.00  0.00    -0.299 A  
HETATM   28  C   UNL     1     -11.644  12.302  64.403  1.00  0.00    -0.428 C  
HETATM   29  C   UNL     1     -10.081  13.566  67.582  1.00  0.00    -0.229 A  
HETATM   30  N   UNL     1     -10.556  14.366  68.625  1.00  0.00    -0.245 NA 
HETATM   31  C   UNL     1      -8.910  12.796  67.670  1.00  0.00    -0.189 A  
HETATM   32  H1  UNL     1      -9.933  14.528  69.416  1.00  0.00     0.000 HD 
HETATM   33  C   UNL     1      -8.567  11.905  66.615  1.00  0.00    -0.163 A  
HETATM   34  H2  UNL     1     -11.440  13.986  68.966  1.00  0.00     0.000 HD 
HETATM   35  C   UNL     1      -7.349  11.185  66.717  1.00  0.00    -0.146 A  
HETATM   36  C   UNL     1      -6.518  11.289  67.830  1.00  0.00    -0.058 A  
HETATM   37  C   UNL     1      -6.876  12.123  68.872  1.00  0.00    -0.100 A  
HETATM   38  C   UNL     1      -8.050  12.870  68.790  1.00  0.00     0.087 A  
ENDBRANCH  24  25
ENDBRANCH  23  24
ENDBRANCH  22  23
ENDBRANCH  21  22
ENDBRANCH  20  21
ENDBRANCH  19  20
ENDBRANCH  18  19
ENDBRANCH  17  18
ENDBRANCH  16  17
ENDBRANCH  15  16
ENDBRANCH  14  15
TORSDOF 11
ENDMDL
MODEL      398
REMARK 921   NORMALIZED FREE ENERGY PREDICTED BY IDOCK:   -3.99 KCAL/MOL
REMARK 922        TOTAL FREE ENERGY PREDICTED BY IDOCK:   -7.90 KCAL/MOL
REMARK 923 INTER-LIGAND FREE ENERGY PREDICTED BY IDOCK:   -6.94 KCAL/MOL
REMARK 924 INTRA-LIGAND FREE ENERGY PREDICTED BY IDOCK:   -0.97 KCAL/MOL
REMARK 927      BINDING AFFINITY PREDICTED BY RF-SCORE:    0.00 PKD
ROOT
HETATM    1  C   UNL     1      -5.749   8.942  68.418  1.00  0.00    -0.038 C  
HETATM    2  C   UNL     1      -6.195   7.578  67.942  1.00  0.00    -0.048 A  
HETATM    3  C   UNL     1      -6.423   7.408  66.582  1.00  0.00    -0.052 A  
HETATM    4  C   UNL     1      -6.820   6.186  66.061  1.00  0.00    -0.057 A  
HETATM    5  N   UNL     1      -6.888   6.067  64.669  1.00  0.00    -0.046 NA 
HETATM    6  C   UNL     1      -6.897   5.082  66.931  1.00  0.00    -0.063 A  
HETATM    7  H2  UNL     1      -5.990   6.330  64.264  1.00  0.00     0.000 HD 
HETATM    8  C   UNL     1      -7.169   3.776  66.461  1.00  0.00    -0.068 A  
HETATM    9  H1  UNL     1      -7.180   5.168  64.286  1.00  0.00     0.000 HD 
HETATM   10  C   UNL     1      -7.263   2.685  67.324  1.00  0.00    -0.053 A  
HETATM   11  C   UNL     1      -7.098   2.869  68.683  1.00  0.00    -0.048 A  
HETATM   12  C   UNL     1      -6.822   4.146  69.179  1.00  0.00    -0.046 A  
HETATM   13  C   UNL     1      -6.686   5.268  68.323  1.00  0.00    -0.054 A  
HETATM   14  N   UNL     1      -6.336   6.516  68.792  1.00  0.00    -0.036 NA 
ENDROOT
BRANCH  14  15
HETATM   15  C   UNL     1      -6.038   6.707  70.239  1.00  0.00    -0.027 C  
BRANCH  15  16
HETATM   16  C   UNL     1      -6.887   7.836  70.819  1.00  0.00    -0.042 C  
BRANCH  16  17
HETATM   17  C   UNL     1      -7.935   7.308  71.795  1.00  0.00    -0.095 C  
BRANCH  17  18
HETATM   18  C   UNL     1      -9.141   8.241  71.936  1.00  0.00    -0.259 C  
BRANCH  18  19
HETATM   19  C   UNL     1      -9.273   9.197  70.755  1.00  0.00    -0.321 C  
BRANCH  19  20
HETATM   20  C   UNL     1     -10.023   8.589  69.567  1.00  0.00    -0.193 C  
BRANCH  20  21
HETATM   21  C   UNL     1      -9.552   9.112  68.203  1.00  0.00    -0.160 C  
BRANCH  21  22
HETATM   22  C   UNL     1     -10.709   9.545  67.298  1.00  0.00    -0.269 C  
BRANCH  22  23
HETATM   23  C   UNL     1     -10.955  11.059  67.314  1.00  0.00    -0.356 C  
BRANCH  23  24
HETATM   24  C   UNL     1      -9.722  11.833  66.845  1.00  0.00    -0.198 C  
BRANCH  24  25
HETATM   25  N   UNL     1     -10.123  13.053  66.099  1.00  0.00    -0.281 NA 
HETATM   26  C   UNL     1     -10.511  12.962  64.789  1.00  0.00    -0.350 A  
HETATM   27  C   UNL     1     -10.956  14.103  64.116  1.00  0.00     0.070 A  
HETATM   28  C   UNL     1     -10.565  11.682  63.987  1.00  0.00    -0.426 C  
HETATM   29  C   UNL     1     -10.990  15.344  64.732  1.00  0.00    -0.393 A  
HETATM   30  N   UNL     1     -11.585  16.396  64.029  1.00  0.00    -1.542 NA 
HETATM   31  C   UNL     1     -10.651  15.417  66.092  1.00  0.00    -0.321 A  
HETATM   32  H1  UNL     1     -11.611  17.310  64.482  1.00  0.00     0.000 HD 
HETATM   33  C   UNL     1     -10.175  14.259  66.767  1.00  0.00    -0.272 A  
HETATM   34  H2  UNL     1     -12.531  16.129  63.757  1.00  0.00     0.000 HD 
HETATM   35  C   UNL     1      -9.791  14.387  68.126  1.00  0.00    -0.223 A  
HETATM   36  C   UNL     1      -9.913  15.588  68.820  1.00  0.00    -0.214 A  
HETATM   37  C   UNL     1     -10.416  16.701  68.173  1.00  0.00    -0.321 A  
HETATM   38  C   UNL     1     -10.772  16.618  66.829  1.00  0.00    -0.133 A  
ENDBRANCH  24  25
ENDBRANCH  23  24
ENDBRANCH  22  23
ENDBRANCH  21  22
ENDBRANCH  20  21
ENDBRANCH  19  20
ENDBRANCH  18  19
ENDBRANCH  17  18
ENDBRANCH  16  17
ENDBRANCH  15  16
ENDBRANCH  14  15
TORSDOF 11
ENDMDL
MODEL      399
REMARK 921   NORMALIZED FREE ENERGY PREDICTED BY IDOCK:   -3.97 KCAL/MOL
REMARK 922        TOTAL FREE ENERGY PREDICTED BY IDOCK:   -7.88 KCAL/MOL
REMARK 923 INTER-LIGAND FREE ENERGY PREDICTED BY IDOCK:   -7.19 KCAL/MOL
REMARK 924 INTRA-LIGAND FREE ENERGY PREDICTED BY IDOCK:   -0.69 KCAL/MOL
REMARK 927      BINDING AFFINITY PREDICTED BY RF-SCORE:    0.00 PKD
ROOT
HETATM    1  C   UNL     1      -9.423   7.963  72.892  1.00  0.00    -0.321 C  
HETATM    2  C   UNL     1      -9.525   7.208  71.586  1.00  0.00    -0.152 A  
HETATM    3  C   UNL     1      -9.203   5.857  71.592  1.00  0.00    -0.156 A  
HETATM    4  C   UNL     1      -9.283   5.088  70.440  1.00  0.00    -0.148 A  
HETATM    5  N   UNL     1      -9.079   3.710  70.566  1.00  0.00    -0.102 NA 
HETATM    6  C   UNL     1      -9.793   5.686  69.272  1.00  0.00    -0.230 A  
HETATM    7  H2  UNL     1      -9.721   3.337  71.266  1.00  0.00     0.000 HD 
HETATM    8  C   UNL     1     -10.028   4.943  68.092  1.00  0.00    -0.171 A  
HETATM    9  H1  UNL     1      -9.139   3.145  69.719  1.00  0.00     0.000 HD 
HETATM   10  C   UNL     1     -10.517   5.537  66.930  1.00  0.00    -0.348 A  
HETATM   11  C   UNL     1     -10.776   6.894  66.909  1.00  0.00    -0.386 A  
HETATM   12  C   UNL     1     -10.561   7.656  68.061  1.00  0.00    -0.213 A  
HETATM   13  C   UNL     1     -10.097   7.073  69.268  1.00  0.00    -0.173 A  
HETATM   14  N   UNL     1      -9.957   7.799  70.431  1.00  0.00    -0.188 NA 
ENDROOT
BRANCH  14  15
HETATM   15  C   UNL     1     -10.345   9.237  70.459  1.00  0.00    -0.254 C  
BRANCH  15  16
HETATM   16  C   UNL     1      -9.572  10.024  69.403  1.00  0.00    -0.237 C  
BRANCH  16  17
HETATM   17  C   UNL     1      -8.114  10.223  69.805  1.00  0.00    -0.125 C  
BRANCH  17  18
HETATM   18  C   UNL     1      -7.279  10.892  68.709  1.00  0.00    -0.091 C  
BRANCH  18  19
HETATM   19  C   UNL     1      -5.781  10.721  68.937  1.00  0.00    -0.040 C  
BRANCH  19  20
HETATM   20  C   UNL     1      -5.216  11.683  69.985  1.00  0.00    -0.079 C  
BRANCH  20  21
HETATM   21  C   UNL     1      -6.160  12.840  70.337  1.00  0.00    -0.024 C  
BRANCH  21  22
HETATM   22  C   UNL     1      -5.818  14.136  69.597  1.00  0.00    -0.107 C  
BRANCH  22  23
HETATM   23  C   UNL     1      -7.045  14.828  68.991  1.00  0.00    -0.127 C  
BRANCH  23  24
HETATM   24  C   UNL     1      -6.801  15.233  67.537  1.00  0.00    -0.189 C  
BRANCH  24  25
HETATM   25  N   UNL     1      -7.776  16.270  67.112  1.00  0.00    -0.167 NA 
HETATM   26  C   UNL     1      -7.515  17.595  67.341  1.00  0.00    -0.194 A  
HETATM   27  C   UNL     1      -8.401  18.568  66.874  1.00  0.00    -0.270 A  
HETATM   28  C   UNL     1      -6.278  18.130  68.026  1.00  0.00    -0.176 C  
HETATM   29  C   UNL     1      -9.565  18.230  66.201  1.00  0.00    -0.180 A  
HETATM   30  N   UNL     1     -10.315  19.271  65.646  1.00  0.00    -0.498 NA 
HETATM   31  C   UNL     1      -9.793  16.874  65.916  1.00  0.00    -0.241 A  
HETATM   32  H1  UNL     1     -11.171  19.022  65.151  1.00  0.00     0.000 HD 
HETATM   33  C   UNL     1      -8.902  15.885  66.415  1.00  0.00    -0.333 A  
HETATM   34  H2  UNL     1      -9.719  19.825  65.030  1.00  0.00     0.000 HD 
HETATM   35  C   UNL     1      -9.197  14.523  66.150  1.00  0.00    -0.175 A  
HETATM   36  C   UNL     1     -10.295  14.139  65.383  1.00  0.00    -0.384 A  
HETATM   37  C   UNL     1     -11.135  15.105  64.864  1.00  0.00    -0.425 A  
HETATM   38  C   UNL     1     -10.892  16.451  65.133  1.00  0.00    -0.289 A  
ENDBRANCH  24  25
ENDBRANCH  23  24
ENDBRANCH  22  23
ENDBRANCH  21  22
ENDBRANCH  20  21
ENDBRANCH  19  20
ENDBRANCH  18  19
ENDBRANCH  17  18
ENDBRANCH  16  17
ENDBRANCH  15  16
ENDBRANCH  14  15
TORSDOF 11
ENDMDL
MODEL      400
REMARK 921   NORMALIZED FREE ENERGY PREDICTED BY IDOCK:   -3.97 KCAL/MOL
REMARK 922        TOTAL FREE ENERGY PREDICTED BY IDOCK:   -7.87 KCAL/MOL
REMARK 923 INTER-LIGAND FREE ENERGY PREDICTED BY IDOCK:   -6.69 KCAL/MOL
REMARK 924 INTRA-LIGAND FREE ENERGY PREDICTED BY IDOCK:   -1.18 KCAL/MOL
REMARK 927      BINDING AFFINITY PREDICTED BY RF-SCORE:    0.00 PKD
ROOT
HETATM    1  C   UNL     1     -11.331  15.128  70.682  1.00  0.00    -0.330 C  
HETATM    2  C   UNL     1     -11.427  14.390  69.366  1.00  0.00    -0.288 A  
HETATM    3  C   UNL     1     -11.746  13.039  69.401  1.00  0.00    -0.386 A  
HETATM    4  C   UNL     1     -11.869  12.293  68.239  1.00  0.00    -0.310 A  
HETATM    5  N   UNL     1     -12.331  10.978  68.359  1.00  0.00    -0.644 NA 
HETATM    6  C   UNL     1     -11.755  12.958  67.003  1.00  0.00    -0.447 A  
HETATM    7  H2  UNL     1     -13.223  10.979  68.853  1.00  0.00     0.000 HD 
HETATM    8  C   UNL     1     -11.991  12.299  65.774  1.00  0.00    -0.362 A  
HETATM    9  H1  UNL     1     -12.421  10.430  67.504  1.00  0.00     0.000 HD 
HETATM   10  C   UNL     1     -11.863  12.951  64.549  1.00  0.00    -0.429 A  
HETATM   11  C   UNL     1     -11.483  14.279  64.515  1.00  0.00    -0.363 A  
HETATM   12  C   UNL     1     -11.248  14.961  65.712  1.00  0.00    -0.334 A  
HETATM   13  C   UNL     1     -11.405  14.333  66.975  1.00  0.00    -0.341 A  
HETATM   14  N   UNL     1     -11.252  15.016  68.162  1.00  0.00    -0.294 NA 
ENDROOT
BRANCH  14  15
HETATM   15  C   UNL     1     -10.961  16.477  68.145  1.00  0.00    -0.336 C  
BRANCH  15  16
HETATM   16  C   UNL     1      -9.551  16.738  67.617  1.00  0.00    -0.244 C  
BRANCH  16  17
HETATM   17  C   UNL     1      -8.511  16.667  68.732  1.00  0.00    -0.255 C  
BRANCH  17  18
HETATM   18  C   UNL     1      -7.731  15.349  68.735  1.00  0.00    -0.150 C  
BRANCH  18  19
HETATM   19  C   UNL     1      -6.790  15.232  67.540  1.00  0.00    -0.218 C  
BRANCH  19  20
HETATM   20  C   UNL     1      -6.433  13.784  67.193  1.00  0.00     0.577 C  
BRANCH  20  21
HETATM   21  C   UNL     1      -7.121  12.744  68.086  1.00  0.00    -0.105 C  
BRANCH  21  22
HETATM   22  C   UNL     1      -8.405  12.182  67.468  1.00  0.00    -0.166 C  
BRANCH  22  23
HETATM   23  C   UNL     1      -8.488  10.653  67.536  1.00  0.00    -0.121 C  
BRANCH  23  24
HETATM   24  C   UNL     1      -7.175   9.998  67.107  1.00  0.00    -0.090 C  
BRANCH  24  25
HETATM   25  N   UNL     1      -7.136   8.575  67.530  1.00  0.00    -0.079 NA 
HETATM   26  C   UNL     1      -6.700   7.610  66.663  1.00  0.00    -0.062 A  
HETATM   27  C   UNL     1      -6.597   6.284  67.092  1.00  0.00    -0.058 A  
HETATM   28  C   UNL     1      -6.241   7.861  65.244  1.00  0.00    -0.038 C  
HETATM   29  C   UNL     1      -6.954   5.906  68.377  1.00  0.00    -0.072 A  
HETATM   30  N   UNL     1      -6.681   4.590  68.762  1.00  0.00    -0.045 NA 
HETATM   31  C   UNL     1      -7.340   6.911  69.279  1.00  0.00    -0.092 A  
HETATM   32  H1  UNL     1      -6.943   4.312  69.707  1.00  0.00     0.000 HD 
HETATM   33  C   UNL     1      -7.467   8.255  68.831  1.00  0.00    -0.092 A  
HETATM   34  H2  UNL     1      -5.690   4.394  68.616  1.00  0.00     0.000 HD 
HETATM   35  C   UNL     1      -7.913   9.231  69.759  1.00  0.00    -0.103 A  
HETATM   36  C   UNL     1      -8.176   8.920  71.091  1.00  0.00    -0.218 A  
HETATM   37  C   UNL     1      -8.010   7.621  71.533  1.00  0.00    -0.096 A  
HETATM   38  C   UNL     1      -7.606   6.632  70.639  1.00  0.00    -0.095 A  
ENDBRANCH  24  25
ENDBRANCH  23  24
ENDBRANCH  22  23
ENDBRANCH  21  22
ENDBRANCH  20  21
ENDBRANCH  19  20
ENDBRANCH  18  19
ENDBRANCH  17  18
ENDBRANCH  16  17
ENDBRANCH  15  16
ENDBRANCH  14  15
TORSDOF 11
ENDMDL
MODEL      401
REMARK 921   NORMALIZED FREE ENERGY PREDICTED BY IDOCK:   -3.96 KCAL/MOL
REMARK 922        TOTAL FREE ENERGY PREDICTED BY IDOCK:   -7.85 KCAL/MOL
REMARK 923 INTER-LIGAND FREE ENERGY PREDICTED BY IDOCK:   -5.88 KCAL/MOL
REMARK 924 INTRA-LIGAND FREE ENERGY PREDICTED BY IDOCK:   -1.98 KCAL/MOL
REMARK 927      BINDING AFFINITY PREDICTED BY RF-SCORE:    0.00 PKD
ROOT
HETATM    1  C   UNL     1     -10.791   7.392  66.711  1.00  0.00    -0.073 C  
HETATM    2  C   UNL     1      -9.970   8.628  67.002  1.00  0.00    -0.249 A  
HETATM    3  C   UNL     1     -10.455   9.521  67.950  1.00  0.00    -0.293 A  
HETATM    4  C   UNL     1      -9.756  10.671  68.285  1.00  0.00    -0.161 A  
HETATM    5  N   UNL     1     -10.245  11.438  69.348  1.00  0.00    -0.433 NA 
HETATM    6  C   UNL     1      -8.487  10.873  67.711  1.00  0.00    -0.124 A  
HETATM    7  H2  UNL     1     -10.338  10.847  70.175  1.00  0.00     0.000 HD 
HETATM    8  C   UNL     1      -7.655  11.951  68.094  1.00  0.00    -0.121 A  
HETATM    9  H1  UNL     1      -9.731  12.283  69.595  1.00  0.00     0.000 HD 
HETATM   10  C   UNL     1      -6.405  12.162  67.515  1.00  0.00    -0.129 A  
HETATM   11  C   UNL     1      -5.954  11.308  66.527  1.00  0.00    -0.144 A  
HETATM   12  C   UNL     1      -6.749  10.229  66.130  1.00  0.00    -0.110 A  
HETATM   13  C   UNL     1      -8.009   9.969  66.726  1.00  0.00    -0.114 A  
HETATM   14  N   UNL     1      -8.766   8.865  66.398  1.00  0.00    -0.124 NA 
ENDROOT
BRANCH  14  15
HETATM   15  C   UNL     1      -8.241   7.869  65.423  1.00  0.00    -0.138 C  
BRANCH  15  16
HETATM   16  C   UNL     1      -7.611   6.683  66.150  1.00  0.00    -0.086 C  
BRANCH  16  17
HETATM   17  C   UNL     1      -6.504   6.038  65.321  1.00  0.00    -0.042 C  
BRANCH  17  18
HETATM   18  C   UNL     1      -6.818   4.591  64.930  1.00  0.00    -0.049 C  
BRANCH  18  19
HETATM   19  C   UNL     1      -8.289   4.395  64.575  1.00  0.00    -0.111 C  
BRANCH  19  20
HETATM   20  C   UNL     1      -8.959   3.277  65.376  1.00  0.00    -0.144 C  
BRANCH  20  21
HETATM   21  C   UNL     1      -8.013   2.556  66.346  1.00  0.00    -0.081 C  
BRANCH  21  22
HETATM   22  C   UNL     1      -8.689   2.174  67.666  1.00  0.00    -0.134 C  
BRANCH  22  23
HETATM   23  C   UNL     1      -9.507   3.317  68.279  1.00  0.00    -0.214 C  
BRANCH  23  24
HETATM   24  C   UNL     1      -8.658   4.177  69.216  1.00  0.00    -0.078 C  
BRANCH  24  25
HETATM   25  N   UNL     1      -9.227   4.176  70.588  1.00  0.00    -0.112 NA 
HETATM   26  C   UNL     1      -8.695   3.363  71.553  1.00  0.00    -0.081 A  
HETATM   27  C   UNL     1      -9.188   3.421  72.859  1.00  0.00    -0.122 A  
HETATM   28  C   UNL     1      -7.537   2.413  71.346  1.00  0.00    -0.040 C  
HETATM   29  C   UNL     1     -10.230   4.266  73.206  1.00  0.00    -0.156 A  
HETATM   30  N   UNL     1     -10.559   4.362  74.562  1.00  0.00    -0.282 NA 
HETATM   31  C   UNL     1     -10.727   5.141  72.226  1.00  0.00    -0.266 A  
HETATM   32  H1  UNL     1     -11.325   4.984  74.818  1.00  0.00     0.000 HD 
HETATM   33  C   UNL     1     -10.240   5.061  70.893  1.00  0.00    -0.217 A  
HETATM   34  H2  UNL     1      -9.726   4.617  75.093  1.00  0.00     0.000 HD 
HETATM   35  C   UNL     1     -10.806   5.926  69.920  1.00  0.00    -0.439 A  
HETATM   36  C   UNL     1     -11.777   6.870  70.245  1.00  0.00    -0.344 A  
HETATM   37  C   UNL     1     -12.217   6.973  71.551  1.00  0.00    -0.407 A  
HETATM   38  C   UNL     1     -11.705   6.117  72.524  1.00  0.00    -0.259 A  
ENDBRANCH  24  25
ENDBRANCH  23  24
ENDBRANCH  22  23
ENDBRANCH  21  22
ENDBRANCH  20  21
ENDBRANCH  19  20
ENDBRANCH  18  19
ENDBRANCH  17  18
ENDBRANCH  16  17
ENDBRANCH  15  16
ENDBRANCH  14  15
TORSDOF 11
ENDMDL
MODEL      402
REMARK 921   NORMALIZED FREE ENERGY PREDICTED BY IDOCK:   -3.94 KCAL/MOL
REMARK 922        TOTAL FREE ENERGY PREDICTED BY IDOCK:   -7.83 KCAL/MOL
REMARK 923 INTER-LIGAND FREE ENERGY PREDICTED BY IDOCK:   -6.37 KCAL/MOL
REMARK 924 INTRA-LIGAND FREE ENERGY PREDICTED BY IDOCK:   -1.46 KCAL/MOL
REMARK 927      BINDING AFFINITY PREDICTED BY RF-SCORE:    0.00 PKD
ROOT
HETATM    1  C   UNL     1      -9.574   5.849  66.110  1.00  0.00    -0.107 C  
HETATM    2  C   UNL     1      -9.137   7.276  66.355  1.00  0.00    -0.158 A  
HETATM    3  C   UNL     1     -10.124   8.247  66.463  1.00  0.00    -0.303 A  
HETATM    4  C   UNL     1      -9.810   9.576  66.701  1.00  0.00    -0.231 A  
HETATM    5  N   UNL     1     -10.868  10.460  66.937  1.00  0.00    -0.206 NA 
HETATM    6  C   UNL     1      -8.462   9.913  66.928  1.00  0.00    -0.125 A  
HETATM    7  H2  UNL     1     -11.438  10.106  67.705  1.00  0.00     0.000 HD 
HETATM    8  C   UNL     1      -8.070  11.219  67.304  1.00  0.00    -0.140 A  
HETATM    9  H1  UNL     1     -10.636  11.437  67.112  1.00  0.00     0.000 HD 
HETATM   10  C   UNL     1      -6.734  11.559  67.513  1.00  0.00    -0.087 A  
HETATM   11  C   UNL     1      -5.749  10.606  67.342  1.00  0.00    -0.044 A  
HETATM   12  C   UNL     1      -6.103   9.303  66.978  1.00  0.00    -0.060 A  
HETATM   13  C   UNL     1      -7.456   8.920  66.793  1.00  0.00    -0.083 A  
HETATM   14  N   UNL     1      -7.823   7.622  66.511  1.00  0.00    -0.103 NA 
ENDROOT
BRANCH  14  15
HETATM   15  C   UNL     1      -6.784   6.557  66.442  1.00  0.00    -0.056 C  
BRANCH  15  16
HETATM   16  C   UNL     1      -7.051   5.475  67.487  1.00  0.00    -0.074 C  
BRANCH  16  17
HETATM   17  C   UNL     1      -5.757   4.974  68.122  1.00  0.00    -0.017 C  
BRANCH  17  18
HETATM   18  C   UNL     1      -5.999   4.085  69.345  1.00  0.00    -0.023 C  
BRANCH  18  19
HETATM   19  C   UNL     1      -7.423   3.539  69.390  1.00  0.00    -0.048 C  
BRANCH  19  20
HETATM   20  C   UNL     1      -8.098   3.727  70.751  1.00  0.00    -0.066 C  
BRANCH  20  21
HETATM   21  C   UNL     1      -7.466   4.830  71.610  1.00  0.00    -0.071 C  
BRANCH  21  22
HETATM   22  C   UNL     1      -8.434   5.408  72.646  1.00  0.00    -0.114 C  
BRANCH  22  23
HETATM   23  C   UNL     1      -9.891   5.426  72.168  1.00  0.00    -0.209 C  
BRANCH  23  24
HETATM   24  C   UNL     1     -10.015   6.019  70.764  1.00  0.00    -0.191 C  
BRANCH  24  25
HETATM   25  N   UNL     1     -10.406   7.450  70.832  1.00  0.00    -0.201 NA 
HETATM   26  C   UNL     1      -9.528   8.423  70.435  1.00  0.00    -0.168 A  
HETATM   27  C   UNL     1      -9.929   9.762  70.434  1.00  0.00    -0.294 A  
HETATM   28  C   UNL     1      -8.129   8.172  69.921  1.00  0.00    -0.115 C  
HETATM   29  C   UNL     1     -11.195  10.142  70.852  1.00  0.00    -0.307 A  
HETATM   30  N   UNL     1     -11.555  11.482  70.679  1.00  0.00    -0.391 NA 
HETATM   31  C   UNL     1     -12.109   9.133  71.196  1.00  0.00    -0.365 A  
HETATM   32  H1  UNL     1     -12.486  11.762  70.986  1.00  0.00     0.000 HD 
HETATM   33  C   UNL     1     -11.689   7.775  71.221  1.00  0.00    -0.288 A  
HETATM   34  H2  UNL     1     -11.432  11.741  69.699  1.00  0.00     0.000 HD 
HETATM   35  C   UNL     1     -12.627   6.791  71.626  1.00  0.00    -0.380 A  
HETATM   36  C   UNL     1     -13.944   7.113  71.948  1.00  0.00    -0.338 A  
HETATM   37  C   UNL     1     -14.360   8.429  71.882  1.00  0.00    -0.561 A  
HETATM   38  C   UNL     1     -13.455   9.424  71.519  1.00  0.00    -0.445 A  
ENDBRANCH  24  25
ENDBRANCH  23  24
ENDBRANCH  22  23
ENDBRANCH  21  22
ENDBRANCH  20  21
ENDBRANCH  19  20
ENDBRANCH  18  19
ENDBRANCH  17  18
ENDBRANCH  16  17
ENDBRANCH  15  16
ENDBRANCH  14  15
TORSDOF 11
ENDMDL
MODEL      403
REMARK 921   NORMALIZED FREE ENERGY PREDICTED BY IDOCK:   -3.93 KCAL/MOL
REMARK 922        TOTAL FREE ENERGY PREDICTED BY IDOCK:   -7.81 KCAL/MOL
REMARK 923 INTER-LIGAND FREE ENERGY PREDICTED BY IDOCK:   -6.32 KCAL/MOL
REMARK 924 INTRA-LIGAND FREE ENERGY PREDICTED BY IDOCK:   -1.49 KCAL/MOL
REMARK 927      BINDING AFFINITY PREDICTED BY RF-SCORE:    0.00 PKD
ROOT
HETATM    1  C   UNL     1     -11.023  16.432  70.058  1.00  0.00    -0.322 C  
HETATM    2  C   UNL     1     -11.010  16.015  68.604  1.00  0.00    -0.323 A  
HETATM    3  C   UNL     1     -10.204  16.733  67.731  1.00  0.00    -0.303 A  
HETATM    4  C   UNL     1     -10.124  16.407  66.385  1.00  0.00    -0.316 A  
HETATM    5  N   UNL     1      -9.182  17.090  65.608  1.00  0.00    -0.444 NA 
HETATM    6  C   UNL     1     -10.809  15.263  65.933  1.00  0.00    -0.345 A  
HETATM    7  H2  UNL     1      -8.260  16.992  66.034  1.00  0.00     0.000 HD 
HETATM    8  C   UNL     1     -10.679  14.788  64.607  1.00  0.00    -0.279 A  
HETATM    9  H1  UNL     1      -9.123  16.850  64.619  1.00  0.00     0.000 HD 
HETATM   10  C   UNL     1     -11.369  13.665  64.153  1.00  0.00    -0.330 A  
HETATM   11  C   UNL     1     -12.220  12.991  65.008  1.00  0.00    -0.501 A  
HETATM   12  C   UNL     1     -12.366  13.431  66.327  1.00  0.00    -0.410 A  
HETATM   13  C   UNL     1     -11.649  14.549  66.826  1.00  0.00    -0.376 A  
HETATM   14  N   UNL     1     -11.726  14.944  68.145  1.00  0.00    -0.332 NA 
ENDROOT
BRANCH  14  15
HETATM   15  C   UNL     1     -12.544  14.156  69.108  1.00  0.00     0.254 C  
BRANCH  15  16
HETATM   16  C   UNL     1     -11.656  13.238  69.944  1.00  0.00    -0.260 C  
BRANCH  16  17
HETATM   17  C   UNL     1     -11.539  11.849  69.322  1.00  0.00    -0.376 C  
BRANCH  17  18
HETATM   18  C   UNL     1     -10.234  11.653  68.544  1.00  0.00    -0.216 C  
BRANCH  18  19
HETATM   19  C   UNL     1      -9.741  10.210  68.596  1.00  0.00    -0.167 C  
BRANCH  19  20
HETATM   20  C   UNL     1     -10.470   9.288  67.616  1.00  0.00    -0.325 C  
BRANCH  20  21
HETATM   21  C   UNL     1     -11.122   8.068  68.280  1.00  0.00     0.328 C  
BRANCH  21  22
HETATM   22  C   UNL     1     -11.247   6.869  67.336  1.00  0.00    -0.217 C  
BRANCH  22  23
HETATM   23  C   UNL     1     -10.533   5.615  67.854  1.00  0.00    -0.274 C  
BRANCH  23  24
HETATM   24  C   UNL     1      -9.160   5.439  67.203  1.00  0.00    -0.111 C  
BRANCH  24  25
HETATM   25  N   UNL     1      -8.181   4.903  68.182  1.00  0.00    -0.089 NA 
HETATM   26  C   UNL     1      -8.021   3.550  68.325  1.00  0.00    -0.070 A  
HETATM   27  C   UNL     1      -7.047   3.054  69.195  1.00  0.00    -0.045 A  
HETATM   28  C   UNL     1      -8.788   2.499  67.555  1.00  0.00    -0.162 C  
HETATM   29  C   UNL     1      -6.246   3.898  69.948  1.00  0.00    -0.027 A  
HETATM   30  N   UNL     1      -5.204   3.318  70.678  1.00  0.00    -0.004 NA 
HETATM   31  C   UNL     1      -6.373   5.283  69.749  1.00  0.00    -0.027 A  
HETATM   32  H1  UNL     1      -4.615   3.939  71.232  1.00  0.00     0.000 HD 
HETATM   33  C   UNL     1      -7.382   5.784  68.881  1.00  0.00    -0.083 A  
HETATM   34  H2  UNL     1      -4.618   2.768  70.051  1.00  0.00     0.000 HD 
HETATM   35  C   UNL     1      -7.514   7.190  68.749  1.00  0.00    -0.102 A  
HETATM   36  C   UNL     1      -6.659   8.078  69.399  1.00  0.00    -0.035 A  
HETATM   37  C   UNL     1      -5.652   7.586  70.207  1.00  0.00    -0.023 A  
HETATM   38  C   UNL     1      -5.516   6.210  70.385  1.00  0.00    -0.014 A  
ENDBRANCH  24  25
ENDBRANCH  23  24
ENDBRANCH  22  23
ENDBRANCH  21  22
ENDBRANCH  20  21
ENDBRANCH  19  20
ENDBRANCH  18  19
ENDBRANCH  17  18
ENDBRANCH  16  17
ENDBRANCH  15  16
ENDBRANCH  14  15
TORSDOF 11
ENDMDL
MODEL      404
REMARK 921   NORMALIZED FREE ENERGY PREDICTED BY IDOCK:   -3.93 KCAL/MOL
REMARK 922        TOTAL FREE ENERGY PREDICTED BY IDOCK:   -7.80 KCAL/MOL
REMARK 923 INTER-LIGAND FREE ENERGY PREDICTED BY IDOCK:   -6.44 KCAL/MOL
REMARK 924 INTRA-LIGAND FREE ENERGY PREDICTED BY IDOCK:   -1.37 KCAL/MOL
REMARK 927      BINDING AFFINITY PREDICTED BY RF-SCORE:    0.00 PKD
ROOT
HETATM    1  C   UNL     1     -10.603   6.965  67.587  1.00  0.00    -0.328 C  
HETATM    2  C   UNL     1      -9.991   5.757  66.914  1.00  0.00    -0.171 A  
HETATM    3  C   UNL     1     -10.761   5.076  65.980  1.00  0.00    -0.241 A  
HETATM    4  C   UNL     1     -10.270   3.967  65.306  1.00  0.00    -0.139 A  
HETATM    5  N   UNL     1     -11.058   3.430  64.283  1.00  0.00    -0.612 NA 
HETATM    6  C   UNL     1      -8.928   3.597  65.519  1.00  0.00    -0.138 A  
HETATM    7  H2  UNL     1     -11.280   4.162  63.609  1.00  0.00     0.000 HD 
HETATM    8  C   UNL     1      -8.312   2.561  64.779  1.00  0.00    -0.088 A  
HETATM    9  H1  UNL     1     -10.696   2.615  63.788  1.00  0.00     0.000 HD 
HETATM   10  C   UNL     1      -6.988   2.182  65.000  1.00  0.00    -0.047 A  
HETATM   11  C   UNL     1      -6.245   2.820  65.974  1.00  0.00    -0.024 A  
HETATM   12  C   UNL     1      -6.823   3.853  66.718  1.00  0.00    -0.058 A  
HETATM   13  C   UNL     1      -8.155   4.284  66.492  1.00  0.00    -0.102 A  
HETATM   14  N   UNL     1      -8.709   5.352  67.164  1.00  0.00    -0.108 NA 
ENDROOT
BRANCH  14  15
HETATM   15  C   UNL     1      -7.884   6.127  68.131  1.00  0.00    -0.103 C  
BRANCH  15  16
HETATM   16  C   UNL     1      -8.313   5.828  69.566  1.00  0.00    -0.112 C  
BRANCH  16  17
HETATM   17  C   UNL     1      -7.783   6.875  70.542  1.00  0.00    -0.096 C  
BRANCH  17  18
HETATM   18  C   UNL     1      -8.796   7.988  70.828  1.00  0.00    -0.142 C  
BRANCH  18  19
HETATM   19  C   UNL     1      -8.308   9.351  70.348  1.00  0.00    -0.234 C  
BRANCH  19  20
HETATM   20  C   UNL     1      -8.852   9.735  68.969  1.00  0.00    -0.153 C  
BRANCH  20  21
HETATM   21  C   UNL     1      -7.762  10.097  67.951  1.00  0.00    -0.089 C  
BRANCH  21  22
HETATM   22  C   UNL     1      -8.324  10.727  66.674  1.00  0.00    -0.141 C  
BRANCH  22  23
HETATM   23  C   UNL     1      -9.534  11.634  66.929  1.00  0.00    -0.195 C  
BRANCH  23  24
HETATM   24  C   UNL     1      -9.471  12.906  66.083  1.00  0.00    -0.154 C  
BRANCH  24  25
HETATM   25  N   UNL     1      -9.798  14.099  66.906  1.00  0.00    -0.258 NA 
HETATM   26  C   UNL     1     -11.102  14.482  67.076  1.00  0.00    -0.322 A  
HETATM   27  C   UNL     1     -11.406  15.560  67.910  1.00  0.00    -0.309 A  
HETATM   28  C   UNL     1     -12.298  13.783  66.470  1.00  0.00    -0.432 C  
HETATM   29  C   UNL     1     -10.415  16.281  68.558  1.00  0.00    -0.278 A  
HETATM   30  N   UNL     1     -10.820  17.248  69.483  1.00  0.00    -0.303 NA 
HETATM   31  C   UNL     1      -9.087  15.843  68.429  1.00  0.00    -0.189 A  
HETATM   32  H1  UNL     1     -10.091  17.778  69.960  1.00  0.00     0.000 HD 
HETATM   33  C   UNL     1      -8.779  14.761  67.559  1.00  0.00    -0.186 A  
HETATM   34  H2  UNL     1     -11.431  16.816  70.177  1.00  0.00     0.000 HD 
HETATM   35  C   UNL     1      -7.419  14.383  67.415  1.00  0.00    -0.183 A  
HETATM   36  C   UNL     1      -6.399  15.005  68.131  1.00  0.00    -0.140 A  
HETATM   37  C   UNL     1      -6.706  16.028  69.007  1.00  0.00    -0.157 A  
HETATM   38  C   UNL     1      -8.029  16.445  69.148  1.00  0.00    -0.204 A  
ENDBRANCH  24  25
ENDBRANCH  23  24
ENDBRANCH  22  23
ENDBRANCH  21  22
ENDBRANCH  20  21
ENDBRANCH  19  20
ENDBRANCH  18  19
ENDBRANCH  17  18
ENDBRANCH  16  17
ENDBRANCH  15  16
ENDBRANCH  14  15
TORSDOF 11
ENDMDL
MODEL      405
REMARK 921   NORMALIZED FREE ENERGY PREDICTED BY IDOCK:   -3.91 KCAL/MOL
REMARK 922        TOTAL FREE ENERGY PREDICTED BY IDOCK:   -7.78 KCAL/MOL
REMARK 923 INTER-LIGAND FREE ENERGY PREDICTED BY IDOCK:   -6.63 KCAL/MOL
REMARK 924 INTRA-LIGAND FREE ENERGY PREDICTED BY IDOCK:   -1.15 KCAL/MOL
REMARK 927      BINDING AFFINITY PREDICTED BY RF-SCORE:    0.00 PKD
ROOT
HETATM    1  C   UNL     1      -5.304   8.067  66.879  1.00  0.00    -0.032 C  
HETATM    2  C   UNL     1      -6.147   6.814  66.796  1.00  0.00    -0.036 A  
HETATM    3  C   UNL     1      -5.788   5.852  65.860  1.00  0.00    -0.024 A  
HETATM    4  C   UNL     1      -6.499   4.668  65.730  1.00  0.00    -0.040 A  
HETATM    5  N   UNL     1      -5.985   3.697  64.865  1.00  0.00    -0.022 NA 
HETATM    6  C   UNL     1      -7.545   4.414  66.637  1.00  0.00    -0.089 A  
HETATM    7  H2  UNL     1      -5.023   3.485  65.129  1.00  0.00     0.000 HD 
HETATM    8  C   UNL     1      -8.235   3.180  66.656  1.00  0.00    -0.089 A  
HETATM    9  H1  UNL     1      -6.508   2.827  64.769  1.00  0.00     0.000 HD 
HETATM   10  C   UNL     1      -9.282   2.932  67.542  1.00  0.00    -0.233 A  
HETATM   11  C   UNL     1      -9.678   3.915  68.429  1.00  0.00    -0.115 A  
HETATM   12  C   UNL     1      -9.012   5.144  68.441  1.00  0.00    -0.118 A  
HETATM   13  C   UNL     1      -7.920   5.411  67.575  1.00  0.00    -0.101 A  
HETATM   14  N   UNL     1      -7.206   6.589  67.631  1.00  0.00    -0.087 NA 
ENDROOT
BRANCH  14  15
HETATM   15  C   UNL     1      -7.542   7.611  68.661  1.00  0.00    -0.109 C  
BRANCH  15  16
HETATM   16  C   UNL     1      -6.445   7.688  69.721  1.00  0.00    -0.031 C  
BRANCH  16  17
HETATM   17  C   UNL     1      -6.592   6.583  70.764  1.00  0.00    -0.053 C  
BRANCH  17  18
HETATM   18  C   UNL     1      -7.935   6.633  71.499  1.00  0.00    -0.103 C  
BRANCH  18  19
HETATM   19  C   UNL     1      -8.698   7.924  71.221  1.00  0.00    -0.149 C  
BRANCH  19  20
HETATM   20  C   UNL     1      -9.459   8.450  72.441  1.00  0.00    -0.365 C  
BRANCH  20  21
HETATM   21  C   UNL     1     -10.914   7.970  72.519  1.00  0.00    -0.430 C  
BRANCH  21  22
HETATM   22  C   UNL     1     -11.784   8.512  71.381  1.00  0.00    -0.346 C  
BRANCH  22  23
HETATM   23  C   UNL     1     -11.475   9.972  71.028  1.00  0.00    -0.463 C  
BRANCH  23  24
HETATM   24  C   UNL     1     -12.379  10.483  69.906  1.00  0.00    -0.178 C  
BRANCH  24  25
HETATM   25  N   UNL     1     -11.587  11.228  68.894  1.00  0.00    -0.290 NA 
HETATM   26  C   UNL     1     -11.453  12.587  68.991  1.00  0.00    -0.304 A  
HETATM   27  C   UNL     1     -10.647  13.272  68.077  1.00  0.00    -0.249 A  
HETATM   28  C   UNL     1     -12.069  13.446  70.071  1.00  0.00    -0.404 C  
HETATM   29  C   UNL     1      -9.993  12.614  67.047  1.00  0.00    -0.219 A  
HETATM   30  N   UNL     1      -9.097  13.357  66.274  1.00  0.00    -0.470 NA 
HETATM   31  C   UNL     1     -10.085  11.213  66.994  1.00  0.00    -0.235 A  
HETATM   32  H1  UNL     1      -8.615  12.873  65.516  1.00  0.00     0.000 HD 
HETATM   33  C   UNL     1     -10.926  10.523  67.909  1.00  0.00    -0.295 A  
HETATM   34  H2  UNL     1      -8.407  13.796  66.884  1.00  0.00     0.000 HD 
HETATM   35  C   UNL     1     -11.034   9.114  67.787  1.00  0.00    -0.033 A  
HETATM   36  C   UNL     1     -10.310   8.395  66.839  1.00  0.00    -0.378 A  
HETATM   37  C   UNL     1      -9.461   9.065  65.979  1.00  0.00    -0.323 A  
HETATM   38  C   UNL     1      -9.356  10.453  66.050  1.00  0.00    -0.219 A  
ENDBRANCH  24  25
ENDBRANCH  23  24
ENDBRANCH  22  23
ENDBRANCH  21  22
ENDBRANCH  20  21
ENDBRANCH  19  20
ENDBRANCH  18  19
ENDBRANCH  17  18
ENDBRANCH  16  17
ENDBRANCH  15  16
ENDBRANCH  14  15
TORSDOF 11
ENDMDL
MODEL      406
REMARK 921   NORMALIZED FREE ENERGY PREDICTED BY IDOCK:   -3.91 KCAL/MOL
REMARK 922        TOTAL FREE ENERGY PREDICTED BY IDOCK:   -7.77 KCAL/MOL
REMARK 923 INTER-LIGAND FREE ENERGY PREDICTED BY IDOCK:   -4.12 KCAL/MOL
REMARK 924 INTRA-LIGAND FREE ENERGY PREDICTED BY IDOCK:   -3.65 KCAL/MOL
REMARK 927      BINDING AFFINITY PREDICTED BY RF-SCORE:    0.00 PKD
ROOT
HETATM    1  C   UNL     1      -9.750   5.974  65.839  1.00  0.00     0.097 C  
HETATM    2  C   UNL     1      -9.423   7.057  66.842  1.00  0.00    -0.160 A  
HETATM    3  C   UNL     1     -10.471   7.830  67.326  1.00  0.00    -0.392 A  
HETATM    4  C   UNL     1     -10.260   8.834  68.259  1.00  0.00    -0.201 A  
HETATM    5  N   UNL     1     -11.386   9.466  68.796  1.00  0.00    -0.415 NA 
HETATM    6  C   UNL     1      -8.964   8.995  68.785  1.00  0.00    -0.137 A  
HETATM    7  H2  UNL     1     -12.009   8.763  69.193  1.00  0.00     0.000 HD 
HETATM    8  C   UNL     1      -8.688   9.907  69.830  1.00  0.00    -0.225 A  
HETATM    9  H1  UNL     1     -11.230  10.204  69.482  1.00  0.00     0.000 HD 
HETATM   10  C   UNL     1      -7.403  10.080  70.341  1.00  0.00    -0.094 A  
HETATM   11  C   UNL     1      -6.352   9.355  69.814  1.00  0.00    -0.040 A  
HETATM   12  C   UNL     1      -6.591   8.440  68.784  1.00  0.00    -0.054 A  
HETATM   13  C   UNL     1      -7.894   8.217  68.269  1.00  0.00    -0.118 A  
HETATM   14  N   UNL     1      -8.154   7.263  67.309  1.00  0.00    -0.111 NA 
ENDROOT
BRANCH  14  15
HETATM   15  C   UNL     1      -7.054   6.389  66.816  1.00  0.00    -0.073 C  
BRANCH  15  16
HETATM   16  C   UNL     1      -7.261   4.949  67.280  1.00  0.00    -0.074 C  
BRANCH  16  17
HETATM   17  C   UNL     1      -5.937   4.197  67.389  1.00  0.00    -0.024 C  
BRANCH  17  18
HETATM   18  C   UNL     1      -6.121   2.711  67.711  1.00  0.00    -0.024 C  
BRANCH  18  19
HETATM   19  C   UNL     1      -7.501   2.199  67.309  1.00  0.00    -0.060 C  
BRANCH  19  20
HETATM   20  C   UNL     1      -8.332   1.708  68.496  1.00  0.00    -0.076 C  
BRANCH  20  21
HETATM   21  C   UNL     1      -7.884   2.282  69.847  1.00  0.00    -0.049 C  
BRANCH  21  22
HETATM   22  C   UNL     1      -9.051   2.531  70.806  1.00  0.00    -0.187 C  
BRANCH  22  23
HETATM   23  C   UNL     1      -9.966   3.677  70.360  1.00  0.00     0.057 C  
BRANCH  23  24
HETATM   24  C   UNL     1      -9.163   4.861  69.820  1.00  0.00    -0.121 C  
BRANCH  24  25
HETATM   25  N   UNL     1      -9.027   5.918  70.856  1.00  0.00    -0.144 NA 
HETATM   26  C   UNL     1     -10.136   6.581  71.311  1.00  0.00    -0.186 A  
HETATM   27  C   UNL     1     -10.009   7.521  72.337  1.00  0.00    -0.233 A  
HETATM   28  C   UNL     1     -11.549   6.339  70.833  1.00  0.00    -0.338 C  
HETATM   29  C   UNL     1      -8.778   7.827  72.896  1.00  0.00    -0.166 A  
HETATM   30  N   UNL     1      -8.768   8.670  74.011  1.00  0.00    -0.230 NA 
HETATM   31  C   UNL     1      -7.657   7.098  72.467  1.00  0.00    -0.089 A  
HETATM   32  H1  UNL     1      -7.863   8.896  74.423  1.00  0.00     0.000 HD 
HETATM   33  C   UNL     1      -7.786   6.160  71.406  1.00  0.00    -0.100 A  
HETATM   34  H2  UNL     1      -9.379   8.284  74.732  1.00  0.00     0.000 HD 
HETATM   35  C   UNL     1      -6.619   5.483  70.966  1.00  0.00    -0.044 A  
HETATM   36  C   UNL     1      -5.380   5.675  71.572  1.00  0.00    -0.009 A  
HETATM   37  C   UNL     1      -5.267   6.555  72.631  1.00  0.00    -0.036 A  
HETATM   38  C   UNL     1      -6.387   7.261  73.066  1.00  0.00    -0.060 A  
ENDBRANCH  24  25
ENDBRANCH  23  24
ENDBRANCH  22  23
ENDBRANCH  21  22
ENDBRANCH  20  21
ENDBRANCH  19  20
ENDBRANCH  18  19
ENDBRANCH  17  18
ENDBRANCH  16  17
ENDBRANCH  15  16
ENDBRANCH  14  15
TORSDOF 11
ENDMDL
MODEL      407
REMARK 921   NORMALIZED FREE ENERGY PREDICTED BY IDOCK:   -3.89 KCAL/MOL
REMARK 922        TOTAL FREE ENERGY PREDICTED BY IDOCK:   -7.74 KCAL/MOL
REMARK 923 INTER-LIGAND FREE ENERGY PREDICTED BY IDOCK:   -7.12 KCAL/MOL
REMARK 924 INTRA-LIGAND FREE ENERGY PREDICTED BY IDOCK:   -0.62 KCAL/MOL
REMARK 927      BINDING AFFINITY PREDICTED BY RF-SCORE:    0.00 PKD
ROOT
HETATM    1  C   UNL     1     -10.287   5.710  67.318  1.00  0.00    -0.295 C  
HETATM    2  C   UNL     1      -9.586   5.043  66.156  1.00  0.00    -0.168 A  
HETATM    3  C   UNL     1     -10.363   4.331  65.251  1.00  0.00    -0.220 A  
HETATM    4  C   UNL     1      -9.801   3.702  64.150  1.00  0.00    -0.181 A  
HETATM    5  N   UNL     1     -10.671   3.131  63.217  1.00  0.00    -0.233 NA 
HETATM    6  C   UNL     1      -8.425   3.878  63.911  1.00  0.00    -0.094 A  
HETATM    7  H2  UNL     1     -11.335   3.837  62.898  1.00  0.00     0.000 HD 
HETATM    8  C   UNL     1      -7.798   3.380  62.746  1.00  0.00    -0.070 A  
HETATM    9  H1  UNL     1     -10.257   2.668  62.407  1.00  0.00     0.000 HD 
HETATM   10  C   UNL     1      -6.432   3.538  62.515  1.00  0.00    -0.022 A  
HETATM   11  C   UNL     1      -5.650   4.192  63.449  1.00  0.00    -0.013 A  
HETATM   12  C   UNL     1      -6.240   4.703  64.608  1.00  0.00    -0.030 A  
HETATM   13  C   UNL     1      -7.633   4.587  64.853  1.00  0.00    -0.077 A  
HETATM   14  N   UNL     1      -8.238   5.155  65.953  1.00  0.00    -0.113 NA 
ENDROOT
BRANCH  14  15
HETATM   15  C   UNL     1      -7.430   5.965  66.907  1.00  0.00    -0.084 C  
BRANCH  15  16
HETATM   16  C   UNL     1      -6.951   5.103  68.074  1.00  0.00    -0.061 C  
BRANCH  16  17
HETATM   17  C   UNL     1      -6.493   5.956  69.253  1.00  0.00    -0.042 C  
BRANCH  17  18
HETATM   18  C   UNL     1      -7.328   5.725  70.516  1.00  0.00    -0.084 C  
BRANCH  18  19
HETATM   19  C   UNL     1      -7.406   6.970  71.394  1.00  0.00    -0.080 C  
BRANCH  19  20
HETATM   20  C   UNL     1      -8.469   7.969  70.930  1.00  0.00    -0.126 C  
BRANCH  20  21
HETATM   21  C   UNL     1      -7.951   9.002  69.920  1.00  0.00    -0.103 C  
BRANCH  21  22
HETATM   22  C   UNL     1      -8.724   8.984  68.598  1.00  0.00    -0.133 C  
BRANCH  22  23
HETATM   23  C   UNL     1     -10.236   9.156  68.780  1.00  0.00    -0.228 C  
BRANCH  23  24
HETATM   24  C   UNL     1     -10.895   9.715  67.519  1.00  0.00    -0.198 C  
BRANCH  24  25
HETATM   25  N   UNL     1     -11.315  11.124  67.728  1.00  0.00    -0.385 NA 
HETATM   26  C   UNL     1     -11.772  11.531  68.954  1.00  0.00    -0.339 A  
HETATM   27  C   UNL     1     -12.096  12.874  69.163  1.00  0.00    -0.216 A  
HETATM   28  C   UNL     1     -11.906  10.643  70.169  1.00  0.00    -0.421 C  
HETATM   29  C   UNL     1     -11.995  13.814  68.148  1.00  0.00    -0.358 A  
HETATM   30  N   UNL     1     -12.201  15.154  68.487  1.00  0.00    -0.581 NA 
HETATM   31  C   UNL     1     -11.467  13.400  66.914  1.00  0.00    -0.376 A  
HETATM   32  H1  UNL     1     -12.127  15.845  67.741  1.00  0.00     0.000 HD 
HETATM   33  C   UNL     1     -11.162  12.028  66.698  1.00  0.00    -0.327 A  
HETATM   34  H2  UNL     1     -11.571  15.410  69.248  1.00  0.00     0.000 HD 
HETATM   35  C   UNL     1     -10.682  11.643  65.420  1.00  0.00    -0.341 A  
HETATM   36  C   UNL     1     -10.458  12.568  64.403  1.00  0.00    -0.384 A  
HETATM   37  C   UNL     1     -10.715  13.907  64.631  1.00  0.00    -0.422 A  
HETATM   38  C   UNL     1     -11.219  14.315  65.865  1.00  0.00    -0.319 A  
ENDBRANCH  24  25
ENDBRANCH  23  24
ENDBRANCH  22  23
ENDBRANCH  21  22
ENDBRANCH  20  21
ENDBRANCH  19  20
ENDBRANCH  18  19
ENDBRANCH  17  18
ENDBRANCH  16  17
ENDBRANCH  15  16
ENDBRANCH  14  15
TORSDOF 11
ENDMDL
MODEL      408
REMARK 921   NORMALIZED FREE ENERGY PREDICTED BY IDOCK:   -3.87 KCAL/MOL
REMARK 922        TOTAL FREE ENERGY PREDICTED BY IDOCK:   -7.71 KCAL/MOL
REMARK 923 INTER-LIGAND FREE ENERGY PREDICTED BY IDOCK:   -6.68 KCAL/MOL
REMARK 924 INTRA-LIGAND FREE ENERGY PREDICTED BY IDOCK:   -1.03 KCAL/MOL
REMARK 927      BINDING AFFINITY PREDICTED BY RF-SCORE:    0.00 PKD
ROOT
HETATM    1  C   UNL     1     -11.680  15.175  69.595  1.00  0.00    -0.353 C  
HETATM    2  C   UNL     1     -11.460  13.779  69.060  1.00  0.00    -0.305 A  
HETATM    3  C   UNL     1     -12.168  12.739  69.650  1.00  0.00    -0.188 A  
HETATM    4  C   UNL     1     -12.035  11.431  69.209  1.00  0.00    -0.332 A  
HETATM    5  N   UNL     1     -12.889  10.471  69.763  1.00  0.00    -0.567 NA 
HETATM    6  C   UNL     1     -11.233  11.185  68.078  1.00  0.00    -0.359 A  
HETATM    7  H2  UNL     1     -13.856  10.771  69.642  1.00  0.00     0.000 HD 
HETATM    8  C   UNL     1     -11.146   9.903  67.487  1.00  0.00    -0.141 A  
HETATM    9  H1  UNL     1     -12.791   9.510  69.439  1.00  0.00     0.000 HD 
HETATM   10  C   UNL     1     -10.339   9.654  66.378  1.00  0.00    -0.246 A  
HETATM   11  C   UNL     1      -9.588  10.677  65.832  1.00  0.00    -0.253 A  
HETATM   12  C   UNL     1      -9.657  11.958  66.388  1.00  0.00    -0.239 A  
HETATM   13  C   UNL     1     -10.495  12.249  67.495  1.00  0.00    -0.213 A  
HETATM   14  N   UNL     1     -10.631  13.523  68.002  1.00  0.00    -0.234 NA 
ENDROOT
BRANCH  14  15
HETATM   15  C   UNL     1      -9.922  14.659  67.352  1.00  0.00    -0.231 C  
BRANCH  15  16
HETATM   16  C   UNL     1      -8.594  14.195  66.756  1.00  0.00    -0.097 C  
BRANCH  16  17
HETATM   17  C   UNL     1      -7.431  14.440  67.714  1.00  0.00    -0.182 C  
BRANCH  17  18
HETATM   18  C   UNL     1      -6.818  13.143  68.251  1.00  0.00    -0.103 C  
BRANCH  18  19
HETATM   19  C   UNL     1      -6.076  12.364  67.169  1.00  0.00    -0.083 C  
BRANCH  19  20
HETATM   20  C   UNL     1      -6.051  10.855  67.422  1.00  0.00    -0.055 C  
BRANCH  20  21
HETATM   21  C   UNL     1      -7.070  10.384  68.468  1.00  0.00    -0.074 C  
BRANCH  21  22
HETATM   22  C   UNL     1      -6.556   9.222  69.323  1.00  0.00    -0.049 C  
BRANCH  22  23
HETATM   23  C   UNL     1      -7.679   8.425  69.997  1.00  0.00    -0.090 C  
BRANCH  23  24
HETATM   24  C   UNL     1      -8.031   7.167  69.203  1.00  0.00    -0.119 C  
BRANCH  24  25
HETATM   25  N   UNL     1      -8.584   6.119  70.099  1.00  0.00    -0.132 NA 
HETATM   26  C   UNL     1      -7.823   5.032  70.439  1.00  0.00    -0.073 A  
HETATM   27  C   UNL     1      -8.323   4.089  71.340  1.00  0.00    -0.086 A  
HETATM   28  C   UNL     1      -6.412   4.776  69.960  1.00  0.00    -0.035 C  
HETATM   29  C   UNL     1      -9.592   4.206  71.887  1.00  0.00    -0.152 A  
HETATM   30  N   UNL     1      -9.950   3.297  72.886  1.00  0.00    -0.137 NA 
HETATM   31  C   UNL     1     -10.340   5.355  71.582  1.00  0.00    -0.280 A  
HETATM   32  H1  UNL     1     -10.883   3.383  73.289  1.00  0.00     0.000 HD 
HETATM   33  C   UNL     1      -9.837   6.300  70.646  1.00  0.00    -0.184 A  
HETATM   34  H2  UNL     1      -9.257   3.327  73.634  1.00  0.00     0.000 HD 
HETATM   35  C   UNL     1     -10.647   7.420  70.325  1.00  0.00    -0.241 A  
HETATM   36  C   UNL     1     -11.881   7.639  70.932  1.00  0.00    -0.272 A  
HETATM   37  C   UNL     1     -12.347   6.741  71.873  1.00  0.00    -0.369 A  
HETATM   38  C   UNL     1     -11.591   5.613  72.188  1.00  0.00    -0.202 A  
ENDBRANCH  24  25
ENDBRANCH  23  24
ENDBRANCH  22  23
ENDBRANCH  21  22
ENDBRANCH  20  21
ENDBRANCH  19  20
ENDBRANCH  18  19
ENDBRANCH  17  18
ENDBRANCH  16  17
ENDBRANCH  15  16
ENDBRANCH  14  15
TORSDOF 11
ENDMDL
MODEL      409
REMARK 921   NORMALIZED FREE ENERGY PREDICTED BY IDOCK:   -3.86 KCAL/MOL
REMARK 922        TOTAL FREE ENERGY PREDICTED BY IDOCK:   -7.70 KCAL/MOL
REMARK 923 INTER-LIGAND FREE ENERGY PREDICTED BY IDOCK:   -5.99 KCAL/MOL
REMARK 924 INTRA-LIGAND FREE ENERGY PREDICTED BY IDOCK:   -1.72 KCAL/MOL
REMARK 927      BINDING AFFINITY PREDICTED BY RF-SCORE:    0.00 PKD
ROOT
HETATM    1  C   UNL     1     -11.432   5.625  72.213  1.00  0.00    -0.278 C  
HETATM    2  C   UNL     1     -10.077   6.294  72.271  1.00  0.00    -0.177 A  
HETATM    3  C   UNL     1      -9.171   5.842  73.222  1.00  0.00    -0.132 A  
HETATM    4  C   UNL     1      -7.902   6.392  73.333  1.00  0.00    -0.096 A  
HETATM    5  N   UNL     1      -7.008   5.783  74.219  1.00  0.00    -0.081 NA 
HETATM    6  C   UNL     1      -7.511   7.363  72.391  1.00  0.00    -0.084 A  
HETATM    7  H2  UNL     1      -6.927   4.792  73.988  1.00  0.00     0.000 HD 
HETATM    8  C   UNL     1      -6.195   7.881  72.353  1.00  0.00    -0.048 A  
HETATM    9  H1  UNL     1      -6.075   6.187  74.299  1.00  0.00     0.000 HD 
HETATM   10  C   UNL     1      -5.810   8.854  71.433  1.00  0.00    -0.054 A  
HETATM   11  C   UNL     1      -6.732   9.347  70.530  1.00  0.00    -0.087 A  
HETATM   12  C   UNL     1      -8.039   8.852  70.536  1.00  0.00    -0.145 A  
HETATM   13  C   UNL     1      -8.450   7.836  71.438  1.00  0.00    -0.116 A  
HETATM   14  N   UNL     1      -9.712   7.285  71.401  1.00  0.00    -0.165 NA 
ENDROOT
BRANCH  14  15
HETATM   15  C   UNL     1     -10.681   7.720  70.357  1.00  0.00    -0.236 C  
BRANCH  15  16
HETATM   16  C   UNL     1     -10.642   6.773  69.159  1.00  0.00    -0.261 C  
BRANCH  16  17
HETATM   17  C   UNL     1     -10.143   7.478  67.901  1.00  0.00    -0.226 C  
BRANCH  17  18
HETATM   18  C   UNL     1      -8.721   7.064  67.510  1.00  0.00    -0.120 C  
BRANCH  18  19
HETATM   19  C   UNL     1      -7.940   8.210  66.875  1.00  0.00    -0.104 C  
BRANCH  19  20
HETATM   20  C   UNL     1      -8.576   9.581  67.116  1.00  0.00    -0.133 C  
BRANCH  20  21
HETATM   21  C   UNL     1      -9.379  10.111  65.921  1.00  0.00    -0.224 C  
BRANCH  21  22
HETATM   22  C   UNL     1     -10.702  10.764  66.333  1.00  0.00    -0.228 C  
BRANCH  22  23
HETATM   23  C   UNL     1     -11.223  11.775  65.304  1.00  0.00    -0.315 C  
BRANCH  23  24
HETATM   24  C   UNL     1     -10.288  12.978  65.174  1.00  0.00    -0.304 C  
BRANCH  24  25
HETATM   25  N   UNL     1     -10.412  13.868  66.357  1.00  0.00    -0.280 NA 
HETATM   26  C   UNL     1     -11.607  14.475  66.638  1.00  0.00    -0.375 A  
HETATM   27  C   UNL     1     -11.736  15.252  67.792  1.00  0.00    -0.206 A  
HETATM   28  C   UNL     1     -12.869  14.331  65.818  1.00  0.00    -0.282 C  
HETATM   29  C   UNL     1     -10.671  15.452  68.657  1.00  0.00    -0.246 A  
HETATM   30  N   UNL     1     -10.932  16.121  69.857  1.00  0.00    -0.340 NA 
HETATM   31  C   UNL     1      -9.469  14.775  68.395  1.00  0.00    -0.213 A  
HETATM   32  H1  UNL     1     -10.149  16.268  70.494  1.00  0.00     0.000 HD 
HETATM   33  C   UNL     1      -9.334  14.005  67.207  1.00  0.00    -0.230 A  
HETATM   34  H2  UNL     1     -11.685  15.643  70.353  1.00  0.00     0.000 HD 
HETATM   35  C   UNL     1      -8.087  13.381  66.951  1.00  0.00     0.097 A  
HETATM   36  C   UNL     1      -7.022  13.461  67.846  1.00  0.00    -0.141 A  
HETATM   37  C   UNL     1      -7.171  14.174  69.021  1.00  0.00    -0.110 A  
HETATM   38  C   UNL     1      -8.373  14.827  69.287  1.00  0.00    -0.047 A  
ENDBRANCH  24  25
ENDBRANCH  23  24
ENDBRANCH  22  23
ENDBRANCH  21  22
ENDBRANCH  20  21
ENDBRANCH  19  20
ENDBRANCH  18  19
ENDBRANCH  17  18
ENDBRANCH  16  17
ENDBRANCH  15  16
ENDBRANCH  14  15
TORSDOF 11
ENDMDL
MODEL      410
REMARK 921   NORMALIZED FREE ENERGY PREDICTED BY IDOCK:   -3.86 KCAL/MOL
REMARK 922        TOTAL FREE ENERGY PREDICTED BY IDOCK:   -7.70 KCAL/MOL
REMARK 923 INTER-LIGAND FREE ENERGY PREDICTED BY IDOCK:   -6.76 KCAL/MOL
REMARK 924 INTRA-LIGAND FREE ENERGY PREDICTED BY IDOCK:   -0.94 KCAL/MOL
REMARK 927      BINDING AFFINITY PREDICTED BY RF-SCORE:    0.00 PKD
ROOT
HETATM    1  C   UNL     1      -9.448   8.672  66.715  1.00  0.00    -0.250 C  
HETATM    2  C   UNL     1      -9.488   7.907  68.019  1.00  0.00    -0.149 A  
HETATM    3  C   UNL     1     -10.693   7.865  68.709  1.00  0.00    -0.082 A  
HETATM    4  C   UNL     1     -10.819   7.174  69.905  1.00  0.00    -0.254 A  
HETATM    5  N   UNL     1     -12.099   7.064  70.457  1.00  0.00    -0.583 NA 
HETATM    6  C   UNL     1      -9.716   6.429  70.365  1.00  0.00    -0.183 A  
HETATM    7  H2  UNL     1     -12.730   6.659  69.766  1.00  0.00     0.000 HD 
HETATM    8  C   UNL     1      -9.799   5.595  71.504  1.00  0.00    -0.213 A  
HETATM    9  H1  UNL     1     -12.191   6.556  71.336  1.00  0.00     0.000 HD 
HETATM   10  C   UNL     1      -8.704   4.870  71.971  1.00  0.00    -0.135 A  
HETATM   11  C   UNL     1      -7.490   4.965  71.319  1.00  0.00    -0.077 A  
HETATM   12  C   UNL     1      -7.376   5.775  70.185  1.00  0.00    -0.073 A  
HETATM   13  C   UNL     1      -8.482   6.496  69.667  1.00  0.00    -0.131 A  
HETATM   14  N   UNL     1      -8.401   7.235  68.506  1.00  0.00    -0.125 NA 
ENDROOT
BRANCH  14  15
HETATM   15  C   UNL     1      -7.133   7.252  67.725  1.00  0.00    -0.089 C  
BRANCH  15  16
HETATM   16  C   UNL     1      -6.443   8.609  67.847  1.00  0.00    -0.057 C  
BRANCH  16  17
HETATM   17  C   UNL     1      -6.112   8.942  69.299  1.00  0.00    -0.041 C  
BRANCH  17  18
HETATM   18  C   UNL     1      -5.965  10.447  69.546  1.00  0.00    -0.044 C  
BRANCH  18  19
HETATM   19  C   UNL     1      -6.855  11.273  68.624  1.00  0.00    -0.076 C  
BRANCH  19  20
HETATM   20  C   UNL     1      -6.520  12.767  68.640  1.00  0.00    -0.079 C  
BRANCH  20  21
HETATM   21  C   UNL     1      -7.110  13.548  67.459  1.00  0.00    -0.159 C  
BRANCH  21  22
HETATM   22  C   UNL     1      -8.609  13.301  67.268  1.00  0.00    -0.211 C  
BRANCH  22  23
HETATM   23  C   UNL     1      -9.169  13.939  65.991  1.00  0.00     0.045 C  
BRANCH  23  24
HETATM   24  C   UNL     1     -10.648  14.293  66.141  1.00  0.00    -0.293 C  
BRANCH  24  25
HETATM   25  N   UNL     1     -11.203  13.707  67.389  1.00  0.00    -0.292 NA 
HETATM   26  C   UNL     1     -11.563  12.387  67.428  1.00  0.00    -0.365 A  
HETATM   27  C   UNL     1     -12.015  11.826  68.626  1.00  0.00    -0.299 A  
HETATM   28  C   UNL     1     -11.457  11.423  66.268  1.00  0.00    -0.028 C  
HETATM   29  C   UNL     1     -12.138  12.581  69.782  1.00  0.00    -0.224 A  
HETATM   30  N   UNL     1     -12.458  11.904  70.963  1.00  0.00    -0.348 NA 
HETATM   31  C   UNL     1     -11.707  13.917  69.748  1.00  0.00    -0.372 A  
HETATM   32  H1  UNL     1     -12.548  12.459  71.814  1.00  0.00     0.000 HD 
HETATM   33  C   UNL     1     -11.271  14.490  68.522  1.00  0.00    -0.266 A  
HETATM   34  H2  UNL     1     -11.781  11.157  71.118  1.00  0.00     0.000 HD 
HETATM   35  C   UNL     1     -10.895  15.858  68.519  1.00  0.00    -0.298 A  
HETATM   36  C   UNL     1     -10.895  16.628  69.680  1.00  0.00    -0.282 A  
HETATM   37  C   UNL     1     -11.278  16.056  70.878  1.00  0.00    -0.365 A  
HETATM   38  C   UNL     1     -11.685  14.723  70.910  1.00  0.00    -0.360 A  
ENDBRANCH  24  25
ENDBRANCH  23  24
ENDBRANCH  22  23
ENDBRANCH  21  22
ENDBRANCH  20  21
ENDBRANCH  19  20
ENDBRANCH  18  19
ENDBRANCH  17  18
ENDBRANCH  16  17
ENDBRANCH  15  16
ENDBRANCH  14  15
TORSDOF 11
ENDMDL
MODEL      411
REMARK 921   NORMALIZED FREE ENERGY PREDICTED BY IDOCK:   -3.84 KCAL/MOL
REMARK 922        TOTAL FREE ENERGY PREDICTED BY IDOCK:   -7.66 KCAL/MOL
REMARK 923 INTER-LIGAND FREE ENERGY PREDICTED BY IDOCK:   -6.43 KCAL/MOL
REMARK 924 INTRA-LIGAND FREE ENERGY PREDICTED BY IDOCK:   -1.23 KCAL/MOL
REMARK 927      BINDING AFFINITY PREDICTED BY RF-SCORE:    0.00 PKD
ROOT
HETATM    1  C   UNL     1      -9.648   9.447  66.515  1.00  0.00    -0.267 C  
HETATM    2  C   UNL     1      -9.295   8.560  67.687  1.00  0.00    -0.137 A  
HETATM    3  C   UNL     1     -10.311   8.218  68.571  1.00  0.00    -0.230 A  
HETATM    4  C   UNL     1     -10.075   7.397  69.663  1.00  0.00    -0.186 A  
HETATM    5  N   UNL     1     -11.181   6.989  70.418  1.00  0.00    -0.285 NA 
HETATM    6  C   UNL     1      -8.794   6.832  69.810  1.00  0.00    -0.141 A  
HETATM    7  H2  UNL     1     -11.862   6.544  69.803  1.00  0.00     0.000 HD 
HETATM    8  C   UNL     1      -8.505   5.886  70.821  1.00  0.00    -0.129 A  
HETATM    9  H1  UNL     1     -11.007   6.386  71.221  1.00  0.00     0.000 HD 
HETATM   10  C   UNL     1      -7.233   5.338  70.978  1.00  0.00    -0.069 A  
HETATM   11  C   UNL     1      -6.208   5.729  70.136  1.00  0.00    -0.027 A  
HETATM   12  C   UNL     1      -6.463   6.657  69.123  1.00  0.00    -0.040 A  
HETATM   13  C   UNL     1      -7.755   7.204  68.917  1.00  0.00    -0.113 A  
HETATM   14  N   UNL     1      -8.036   8.060  67.873  1.00  0.00    -0.126 NA 
ENDROOT
BRANCH  14  15
HETATM   15  C   UNL     1      -6.973   8.397  66.886  1.00  0.00    -0.074 C  
BRANCH  15  16
HETATM   16  C   UNL     1      -6.402   9.786  67.164  1.00  0.00    -0.068 C  
BRANCH  16  17
HETATM   17  C   UNL     1      -5.922   9.919  68.606  1.00  0.00    -0.038 C  
BRANCH  17  18
HETATM   18  C   UNL     1      -5.954  11.363  69.114  1.00  0.00    -0.050 C  
BRANCH  18  19
HETATM   19  C   UNL     1      -6.665  12.301  68.144  1.00  0.00    -0.069 C  
BRANCH  19  20
HETATM   20  C   UNL     1      -6.845  13.717  68.696  1.00  0.00    -0.102 C  
BRANCH  20  21
HETATM   21  C   UNL     1      -6.924  14.800  67.611  1.00  0.00    -0.204 C  
BRANCH  21  22
HETATM   22  C   UNL     1      -8.316  14.917  66.984  1.00  0.00    -0.246 C  
BRANCH  22  23
HETATM   23  C   UNL     1      -8.880  16.342  67.023  1.00  0.00    -0.222 C  
BRANCH  23  24
HETATM   24  C   UNL     1     -10.374  16.347  67.349  1.00  0.00    -0.295 C  
BRANCH  24  25
HETATM   25  N   UNL     1     -11.076  15.273  66.602  1.00  0.00    -0.309 NA 
HETATM   26  C   UNL     1     -11.365  15.433  65.273  1.00  0.00    -0.243 A  
HETATM   27  C   UNL     1     -11.960  14.389  64.561  1.00  0.00    -0.487 A  
HETATM   28  C   UNL     1     -11.032  16.660  64.455  1.00  0.00     0.159 C  
HETATM   29  C   UNL     1     -12.297  13.191  65.171  1.00  0.00    -0.473 A  
HETATM   30  N   UNL     1     -12.753  12.156  64.351  1.00  0.00    -0.561 NA 
HETATM   31  C   UNL     1     -11.941  13.012  66.518  1.00  0.00    -0.457 A  
HETATM   32  H1  UNL     1     -13.001  11.274  64.799  1.00  0.00     0.000 HD 
HETATM   33  C   UNL     1     -11.358  14.085  67.246  1.00  0.00    -0.330 A  
HETATM   34  H2  UNL     1     -12.067  11.979  63.617  1.00  0.00     0.000 HD 
HETATM   35  C   UNL     1     -11.062  13.881  68.618  1.00  0.00    -0.290 A  
HETATM   36  C   UNL     1     -11.280  12.658  69.248  1.00  0.00    -0.255 A  
HETATM   37  C   UNL     1     -11.806  11.604  68.526  1.00  0.00    -0.357 A  
HETATM   38  C   UNL     1     -12.138  11.780  67.184  1.00  0.00     0.292 A  
ENDBRANCH  24  25
ENDBRANCH  23  24
ENDBRANCH  22  23
ENDBRANCH  21  22
ENDBRANCH  20  21
ENDBRANCH  19  20
ENDBRANCH  18  19
ENDBRANCH  17  18
ENDBRANCH  16  17
ENDBRANCH  15  16
ENDBRANCH  14  15
TORSDOF 11
ENDMDL
MODEL      412
REMARK 921   NORMALIZED FREE ENERGY PREDICTED BY IDOCK:   -3.82 KCAL/MOL
REMARK 922        TOTAL FREE ENERGY PREDICTED BY IDOCK:   -7.62 KCAL/MOL
REMARK 923 INTER-LIGAND FREE ENERGY PREDICTED BY IDOCK:   -5.62 KCAL/MOL
REMARK 924 INTRA-LIGAND FREE ENERGY PREDICTED BY IDOCK:   -2.01 KCAL/MOL
REMARK 927      BINDING AFFINITY PREDICTED BY RF-SCORE:    0.00 PKD
ROOT
HETATM    1  C   UNL     1      -7.078   9.834  70.776  1.00  0.00    -0.040 C  
HETATM    2  C   UNL     1      -7.884   8.591  71.077  1.00  0.00    -0.110 A  
HETATM    3  C   UNL     1      -9.166   8.756  71.586  1.00  0.00    -0.333 A  
HETATM    4  C   UNL     1      -9.976   7.668  71.876  1.00  0.00    -0.176 A  
HETATM    5  N   UNL     1     -11.299   7.927  72.249  1.00  0.00    -0.310 NA 
HETATM    6  C   UNL     1      -9.506   6.381  71.553  1.00  0.00    -0.162 A  
HETATM    7  H2  UNL     1     -11.745   8.498  71.531  1.00  0.00     0.000 HD 
HETATM    8  C   UNL     1     -10.317   5.231  71.696  1.00  0.00    -0.281 A  
HETATM    9  H1  UNL     1     -11.894   7.127  72.462  1.00  0.00     0.000 HD 
HETATM   10  C   UNL     1      -9.848   3.953  71.392  1.00  0.00    -0.243 A  
HETATM   11  C   UNL     1      -8.551   3.786  70.947  1.00  0.00    -0.109 A  
HETATM   12  C   UNL     1      -7.726   4.903  70.787  1.00  0.00    -0.070 A  
HETATM   13  C   UNL     1      -8.187   6.218  71.055  1.00  0.00    -0.123 A  
HETATM   14  N   UNL     1      -7.408   7.333  70.827  1.00  0.00    -0.070 NA 
ENDROOT
BRANCH  14  15
HETATM   15  C   UNL     1      -6.051   7.180  70.233  1.00  0.00    -0.024 C  
BRANCH  15  16
HETATM   16  C   UNL     1      -6.148   6.742  68.773  1.00  0.00    -0.026 C  
BRANCH  16  17
HETATM   17  C   UNL     1      -6.574   7.893  67.867  1.00  0.00    -0.056 C  
BRANCH  17  18
HETATM   18  C   UNL     1      -7.913   7.636  67.168  1.00  0.00    -0.117 C  
BRANCH  18  19
HETATM   19  C   UNL     1      -9.082   8.283  67.904  1.00  0.00    -0.137 C  
BRANCH  19  20
HETATM   20  C   UNL     1      -9.613   9.539  67.207  1.00  0.00    -0.192 C  
BRANCH  20  21
HETATM   21  C   UNL     1      -8.941   9.831  65.859  1.00  0.00    -0.189 C  
BRANCH  21  22
HETATM   22  C   UNL     1      -9.945  10.160  64.750  1.00  0.00    -0.334 C  
BRANCH  22  23
HETATM   23  C   UNL     1     -10.874  11.327  65.103  1.00  0.00    -0.268 C  
BRANCH  23  24
HETATM   24  C   UNL     1     -10.157  12.673  64.981  1.00  0.00    -0.231 C  
BRANCH  24  25
HETATM   25  N   UNL     1     -10.088  13.350  66.301  1.00  0.00    -0.293 NA 
HETATM   26  C   UNL     1     -11.206  13.933  66.835  1.00  0.00    -0.312 A  
HETATM   27  C   UNL     1     -11.149  14.504  68.109  1.00  0.00    -0.280 A  
HETATM   28  C   UNL     1     -12.566  13.966  66.177  1.00  0.00    -0.426 C  
HETATM   29  C   UNL     1      -9.976  14.524  68.847  1.00  0.00    -0.206 A  
HETATM   30  N   UNL     1     -10.050  14.985  70.164  1.00  0.00    -0.503 NA 
HETATM   31  C   UNL     1      -8.851  13.869  68.318  1.00  0.00    -0.185 A  
HETATM   32  H1  UNL     1      -9.187  14.999  70.708  1.00  0.00     0.000 HD 
HETATM   33  C   UNL     1      -8.906  13.311  67.012  1.00  0.00    -0.212 A  
HETATM   34  H2  UNL     1     -10.757  14.450  70.670  1.00  0.00     0.000 HD 
HETATM   35  C   UNL     1      -7.733  12.705  66.493  1.00  0.00     0.574 A  
HETATM   36  C   UNL     1      -6.561  12.601  67.240  1.00  0.00    -0.109 A  
HETATM   37  C   UNL     1      -6.525  13.107  68.525  1.00  0.00    -0.085 A  
HETATM   38  C   UNL     1      -7.651  13.737  69.053  1.00  0.00     0.022 A  
ENDBRANCH  24  25
ENDBRANCH  23  24
ENDBRANCH  22  23
ENDBRANCH  21  22
ENDBRANCH  20  21
ENDBRANCH  19  20
ENDBRANCH  18  19
ENDBRANCH  17  18
ENDBRANCH  16  17
ENDBRANCH  15  16
ENDBRANCH  14  15
TORSDOF 11
ENDMDL
MODEL      413
REMARK 921   NORMALIZED FREE ENERGY PREDICTED BY IDOCK:   -3.78 KCAL/MOL
REMARK 922        TOTAL FREE ENERGY PREDICTED BY IDOCK:   -7.57 KCAL/MOL
REMARK 923 INTER-LIGAND FREE ENERGY PREDICTED BY IDOCK:   -4.57 KCAL/MOL
REMARK 924 INTRA-LIGAND FREE ENERGY PREDICTED BY IDOCK:   -3.00 KCAL/MOL
REMARK 927      BINDING AFFINITY PREDICTED BY RF-SCORE:    0.00 PKD
ROOT
HETATM    1  C   UNL     1     -10.918   6.091  69.746  1.00  0.00    -0.471 C  
HETATM    2  C   UNL     1     -10.407   7.426  69.253  1.00  0.00    -0.204 A  
HETATM    3  C   UNL     1      -9.792   8.265  70.173  1.00  0.00    -0.184 A  
HETATM    4  C   UNL     1      -9.283   9.501  69.800  1.00  0.00    -0.208 A  
HETATM    5  N   UNL     1      -8.556  10.217  70.756  1.00  0.00    -0.126 NA 
HETATM    6  C   UNL     1      -9.318   9.853  68.437  1.00  0.00    -0.135 A  
HETATM    7  H2  UNL     1      -7.797   9.633  71.109  1.00  0.00     0.000 HD 
HETATM    8  C   UNL     1      -8.708  11.035  67.954  1.00  0.00    -0.133 A  
HETATM    9  H1  UNL     1      -8.182  11.125  70.481  1.00  0.00     0.000 HD 
HETATM   10  C   UNL     1      -8.755  11.394  66.609  1.00  0.00    -0.178 A  
HETATM   11  C   UNL     1      -9.423  10.588  65.706  1.00  0.00    -0.249 A  
HETATM   12  C   UNL     1     -10.031   9.410  66.150  1.00  0.00    -0.351 A  
HETATM   13  C   UNL     1      -9.969   9.002  67.507  1.00  0.00    -0.207 A  
HETATM   14  N   UNL     1     -10.496   7.804  67.941  1.00  0.00    -0.215 NA 
ENDROOT
BRANCH  14  15
HETATM   15  C   UNL     1     -11.114   6.868  66.962  1.00  0.00    -0.245 C  
BRANCH  15  16
HETATM   16  C   UNL     1     -10.275   5.599  66.826  1.00  0.00    -0.276 C  
BRANCH  16  17
HETATM   17  C   UNL     1      -9.092   5.805  65.885  1.00  0.00    -0.148 C  
BRANCH  17  18
HETATM   18  C   UNL     1      -8.635   4.509  65.209  1.00  0.00    -0.128 C  
BRANCH  18  19
HETATM   19  C   UNL     1      -8.947   3.277  66.053  1.00  0.00    -0.145 C  
BRANCH  19  20
HETATM   20  C   UNL     1      -7.696   2.590  66.604  1.00  0.00    -0.071 C  
BRANCH  20  21
HETATM   21  C   UNL     1      -6.484   3.522  66.737  1.00  0.00    -0.040 C  
BRANCH  21  22
HETATM   22  C   UNL     1      -6.016   3.690  68.185  1.00  0.00    -0.027 C  
BRANCH  22  23
HETATM   23  C   UNL     1      -7.081   3.295  69.214  1.00  0.00    -0.045 C  
BRANCH  23  24
HETATM   24  C   UNL     1      -8.077   4.429  69.457  1.00  0.00    -0.060 C  
BRANCH  24  25
HETATM   25  N   UNL     1      -7.536   5.398  70.445  1.00  0.00    -0.074 NA 
HETATM   26  C   UNL     1      -7.579   5.112  71.783  1.00  0.00    -0.106 A  
HETATM   27  C   UNL     1      -7.003   5.995  72.701  1.00  0.00    -0.079 A  
HETATM   28  C   UNL     1      -8.161   3.853  72.384  1.00  0.00    -0.085 C  
HETATM   29  C   UNL     1      -6.406   7.179  72.295  1.00  0.00    -0.048 A  
HETATM   30  N   UNL     1      -5.731   7.925  73.265  1.00  0.00    -0.045 NA 
HETATM   31  C   UNL     1      -6.310   7.433  70.917  1.00  0.00    -0.039 A  
HETATM   32  H1  UNL     1      -5.291   8.796  72.967  1.00  0.00     0.000 HD 
HETATM   33  C   UNL     1      -6.920   6.545  69.989  1.00  0.00    -0.063 A  
HETATM   34  H2  UNL     1      -5.034   7.336  73.721  1.00  0.00     0.000 HD 
HETATM   35  C   UNL     1      -6.847   6.866  68.609  1.00  0.00    -0.070 A  
HETATM   36  C   UNL     1      -6.162   7.986  68.145  1.00  0.00    -0.046 A  
HETATM   37  C   UNL     1      -5.534   8.823  69.047  1.00  0.00    -0.036 A  
HETATM   38  C   UNL     1      -5.614   8.555  70.412  1.00  0.00    -0.027 A  
ENDBRANCH  24  25
ENDBRANCH  23  24
ENDBRANCH  22  23
ENDBRANCH  21  22
ENDBRANCH  20  21
ENDBRANCH  19  20
ENDBRANCH  18  19
ENDBRANCH  17  18
ENDBRANCH  16  17
ENDBRANCH  15  16
ENDBRANCH  14  15
TORSDOF 11
ENDMDL
MODEL      414
REMARK 921   NORMALIZED FREE ENERGY PREDICTED BY IDOCK:   -3.76 KCAL/MOL
REMARK 922        TOTAL FREE ENERGY PREDICTED BY IDOCK:   -7.53 KCAL/MOL
REMARK 923 INTER-LIGAND FREE ENERGY PREDICTED BY IDOCK:   -6.24 KCAL/MOL
REMARK 924 INTRA-LIGAND FREE ENERGY PREDICTED BY IDOCK:   -1.29 KCAL/MOL
REMARK 927      BINDING AFFINITY PREDICTED BY RF-SCORE:    0.00 PKD
ROOT
HETATM    1  C   UNL     1     -11.239   6.135  69.995  1.00  0.00    -0.471 C  
HETATM    2  C   UNL     1     -10.217   5.728  71.032  1.00  0.00    -0.217 A  
HETATM    3  C   UNL     1     -10.683   5.238  72.245  1.00  0.00    -0.282 A  
HETATM    4  C   UNL     1      -9.813   4.829  73.244  1.00  0.00    -0.148 A  
HETATM    5  N   UNL     1     -10.365   4.217  74.374  1.00  0.00    -0.211 NA 
HETATM    6  C   UNL     1      -8.432   4.831  72.969  1.00  0.00    -0.103 A  
HETATM    7  H2  UNL     1     -10.938   3.425  74.083  1.00  0.00     0.000 HD 
HETATM    8  C   UNL     1      -7.486   4.311  73.883  1.00  0.00    -0.076 A  
HETATM    9  H1  UNL     1      -9.725   3.916  75.109  1.00  0.00     0.000 HD 
HETATM   10  C   UNL     1      -6.117   4.327  73.619  1.00  0.00    -0.024 A  
HETATM   11  C   UNL     1      -5.652   4.874  72.439  1.00  0.00    -0.008 A  
HETATM   12  C   UNL     1      -6.562   5.390  71.511  1.00  0.00    -0.040 A  
HETATM   13  C   UNL     1      -7.962   5.355  71.737  1.00  0.00    -0.113 A  
HETATM   14  N   UNL     1      -8.871   5.789  70.796  1.00  0.00    -0.136 NA 
ENDROOT
BRANCH  14  15
HETATM   15  C   UNL     1      -8.393   6.270  69.470  1.00  0.00    -0.118 C  
BRANCH  15  16
HETATM   16  C   UNL     1      -8.077   5.091  68.552  1.00  0.00    -0.085 C  
BRANCH  16  17
HETATM   17  C   UNL     1      -8.126   5.495  67.081  1.00  0.00    -0.101 C  
BRANCH  17  18
HETATM   18  C   UNL     1      -6.740   5.541  66.429  1.00  0.00    -0.057 C  
BRANCH  18  19
HETATM   19  C   UNL     1      -6.023   6.862  66.690  1.00  0.00    -0.029 C  
BRANCH  19  20
HETATM   20  C   UNL     1      -6.656   8.047  65.959  1.00  0.00    -0.046 C  
BRANCH  20  21
HETATM   21  C   UNL     1      -6.548   9.375  66.720  1.00  0.00    -0.068 C  
BRANCH  21  22
HETATM   22  C   UNL     1      -7.903   9.896  67.208  1.00  0.00    -0.102 C  
BRANCH  22  23
HETATM   23  C   UNL     1      -9.086   9.356  66.395  1.00  0.00    -0.199 C  
BRANCH  23  24
HETATM   24  C   UNL     1     -10.398   9.464  67.172  1.00  0.00    -0.258 C  
BRANCH  24  25
HETATM   25  N   UNL     1     -10.721  10.885  67.460  1.00  0.00    -0.234 NA 
HETATM   26  C   UNL     1     -10.703  11.348  68.749  1.00  0.00    -0.203 A  
HETATM   27  C   UNL     1     -10.936  12.702  69.004  1.00  0.00    -0.240 A  
HETATM   28  C   UNL     1     -10.381  10.512  69.967  1.00  0.00    -0.087 C  
HETATM   29  C   UNL     1     -11.216  13.597  67.983  1.00  0.00    -0.267 A  
HETATM   30  N   UNL     1     -11.292  14.952  68.316  1.00  0.00    -0.296 NA 
HETATM   31  C   UNL     1     -11.171  13.127  66.660  1.00  0.00    -0.335 A  
HETATM   32  H1  UNL     1     -11.498  15.611  67.566  1.00  0.00     0.000 HD 
HETATM   33  C   UNL     1     -10.958  11.744  66.407  1.00  0.00    -0.294 A  
HETATM   34  H2  UNL     1     -10.430  15.233  68.784  1.00  0.00     0.000 HD 
HETATM   35  C   UNL     1     -10.973  11.300  65.059  1.00  0.00    -0.226 A  
HETATM   36  C   UNL     1     -11.139  12.180  63.992  1.00  0.00    -0.449 A  
HETATM   37  C   UNL     1     -11.303  13.530  64.241  1.00  0.00    -0.402 A  
HETATM   38  C   UNL     1     -11.326  13.994  65.555  1.00  0.00    -0.313 A  
ENDBRANCH  24  25
ENDBRANCH  23  24
ENDBRANCH  22  23
ENDBRANCH  21  22
ENDBRANCH  20  21
ENDBRANCH  19  20
ENDBRANCH  18  19
ENDBRANCH  17  18
ENDBRANCH  16  17
ENDBRANCH  15  16
ENDBRANCH  14  15
TORSDOF 11
ENDMDL
MODEL      415
REMARK 921   NORMALIZED FREE ENERGY PREDICTED BY IDOCK:   -3.76 KCAL/MOL
REMARK 922        TOTAL FREE ENERGY PREDICTED BY IDOCK:   -7.53 KCAL/MOL
REMARK 923 INTER-LIGAND FREE ENERGY PREDICTED BY IDOCK:   -6.85 KCAL/MOL
REMARK 924 INTRA-LIGAND FREE ENERGY PREDICTED BY IDOCK:   -0.67 KCAL/MOL
REMARK 927      BINDING AFFINITY PREDICTED BY RF-SCORE:    0.00 PKD
ROOT
HETATM    1  C   UNL     1     -11.609  10.820  66.629  1.00  0.00     0.657 C  
HETATM    2  C   UNL     1     -11.717  11.812  67.765  1.00  0.00    -0.267 A  
HETATM    3  C   UNL     1     -11.787  11.312  69.059  1.00  0.00    -0.421 A  
HETATM    4  C   UNL     1     -11.873  12.154  70.157  1.00  0.00    -0.287 A  
HETATM    5  N   UNL     1     -11.795  11.572  71.427  1.00  0.00     0.173 NA 
HETATM    6  C   UNL     1     -11.792  13.543  69.942  1.00  0.00    -0.386 A  
HETATM    7  H2  UNL     1     -10.940  11.020  71.492  1.00  0.00     0.000 HD 
HETATM    8  C   UNL     1     -11.744  14.465  71.013  1.00  0.00    -0.256 A  
HETATM    9  H1  UNL     1     -11.859  12.192  72.234  1.00  0.00     0.000 HD 
HETATM   10  C   UNL     1     -11.681  15.841  70.802  1.00  0.00    -0.430 A  
HETATM   11  C   UNL     1     -11.675  16.338  69.512  1.00  0.00    -0.094 A  
HETATM   12  C   UNL     1     -11.716  15.453  68.431  1.00  0.00    -0.332 A  
HETATM   13  C   UNL     1     -11.745  14.047  68.615  1.00  0.00    -0.354 A  
HETATM   14  N   UNL     1     -11.705  13.164  67.558  1.00  0.00    -0.351 NA 
ENDROOT
BRANCH  14  15
HETATM   15  C   UNL     1     -11.579  13.679  66.166  1.00  0.00    -0.347 C  
BRANCH  15  16
HETATM   16  C   UNL     1     -12.550  12.957  65.234  1.00  0.00    -0.502 C  
BRANCH  16  17
HETATM   17  C   UNL     1     -12.095  13.033  63.779  1.00  0.00    -0.574 C  
BRANCH  17  18
HETATM   18  C   UNL     1     -10.714  12.409  63.554  1.00  0.00    -0.473 C  
BRANCH  18  19
HETATM   19  C   UNL     1     -10.776  10.887  63.456  1.00  0.00    -0.082 C  
BRANCH  19  20
HETATM   20  C   UNL     1      -9.426  10.248  63.122  1.00  0.00    -0.337 C  
BRANCH  20  21
HETATM   21  C   UNL     1      -8.788   9.497  64.298  1.00  0.00    -0.247 C  
BRANCH  21  22
HETATM   22  C   UNL     1      -7.910  10.394  65.174  1.00  0.00    -0.122 C  
BRANCH  22  23
HETATM   23  C   UNL     1      -6.494   9.842  65.377  1.00  0.00    -0.083 C  
BRANCH  23  24
HETATM   24  C   UNL     1      -6.239   9.472  66.838  1.00  0.00    -0.065 C  
BRANCH  24  25
HETATM   25  N   UNL     1      -7.435   8.819  67.430  1.00  0.00    -0.088 NA 
HETATM   26  C   UNL     1      -8.318   9.549  68.180  1.00  0.00    -0.118 A  
HETATM   27  C   UNL     1      -9.477   8.944  68.671  1.00  0.00    -0.153 A  
HETATM   28  C   UNL     1      -8.182  11.023  68.488  1.00  0.00    -0.146 C  
HETATM   29  C   UNL     1      -9.752   7.605  68.444  1.00  0.00    -0.158 A  
HETATM   30  N   UNL     1     -11.001   7.125  68.849  1.00  0.00    -0.431 NA 
HETATM   31  C   UNL     1      -8.874   6.880  67.622  1.00  0.00    -0.118 A  
HETATM   32  H1  UNL     1     -11.204   6.139  68.681  1.00  0.00     0.000 HD 
HETATM   33  C   UNL     1      -7.683   7.492  67.144  1.00  0.00    -0.112 A  
HETATM   34  H2  UNL     1     -11.735   7.696  68.427  1.00  0.00     0.000 HD 
HETATM   35  C   UNL     1      -6.795   6.709  66.361  1.00  0.00    -0.061 A  
HETATM   36  C   UNL     1      -7.082   5.392  66.013  1.00  0.00    -0.068 A  
HETATM   37  C   UNL     1      -8.261   4.814  66.443  1.00  0.00    -0.107 A  
HETATM   38  C   UNL     1      -9.140   5.544  67.241  1.00  0.00    -0.110 A  
ENDBRANCH  24  25
ENDBRANCH  23  24
ENDBRANCH  22  23
ENDBRANCH  21  22
ENDBRANCH  20  21
ENDBRANCH  19  20
ENDBRANCH  18  19
ENDBRANCH  17  18
ENDBRANCH  16  17
ENDBRANCH  15  16
ENDBRANCH  14  15
TORSDOF 11
ENDMDL
MODEL      416
REMARK 921   NORMALIZED FREE ENERGY PREDICTED BY IDOCK:   -3.75 KCAL/MOL
REMARK 922        TOTAL FREE ENERGY PREDICTED BY IDOCK:   -7.51 KCAL/MOL
REMARK 923 INTER-LIGAND FREE ENERGY PREDICTED BY IDOCK:   -6.02 KCAL/MOL
REMARK 924 INTRA-LIGAND FREE ENERGY PREDICTED BY IDOCK:   -1.48 KCAL/MOL
REMARK 927      BINDING AFFINITY PREDICTED BY RF-SCORE:    0.00 PKD
ROOT
HETATM    1  C   UNL     1      -7.234   9.482  70.932  1.00  0.00    -0.063 C  
HETATM    2  C   UNL     1      -7.572   8.860  69.596  1.00  0.00    -0.072 A  
HETATM    3  C   UNL     1      -8.402   7.746  69.591  1.00  0.00    -0.129 A  
HETATM    4  C   UNL     1      -8.772   7.124  68.408  1.00  0.00    -0.125 A  
HETATM    5  N   UNL     1      -9.721   6.100  68.484  1.00  0.00    -0.125 NA 
HETATM    6  C   UNL     1      -8.363   7.705  67.192  1.00  0.00    -0.121 A  
HETATM    7  H2  UNL     1     -10.556   6.449  68.956  1.00  0.00     0.000 HD 
HETATM    8  C   UNL     1      -8.801   7.210  65.941  1.00  0.00    -0.128 A  
HETATM    9  H1  UNL     1      -9.993   5.643  67.614  1.00  0.00     0.000 HD 
HETATM   10  C   UNL     1      -8.385   7.773  64.736  1.00  0.00    -0.051 A  
HETATM   11  C   UNL     1      -7.508   8.841  64.745  1.00  0.00    -0.100 A  
HETATM   12  C   UNL     1      -7.061   9.359  65.964  1.00  0.00    -0.091 A  
HETATM   13  C   UNL     1      -7.496   8.829  67.206  1.00  0.00    -0.089 A  
HETATM   14  N   UNL     1      -7.124   9.380  68.413  1.00  0.00    -0.071 NA 
ENDROOT
BRANCH  14  15
HETATM   15  C   UNL     1      -6.277  10.605  68.439  1.00  0.00    -0.050 C  
BRANCH  15  16
HETATM   16  C   UNL     1      -7.078  11.804  68.942  1.00  0.00    -0.114 C  
BRANCH  16  17
HETATM   17  C   UNL     1      -8.012  12.348  67.865  1.00  0.00    -0.155 C  
BRANCH  17  18
HETATM   18  C   UNL     1      -9.492  12.114  68.185  1.00  0.00    -0.205 C  
BRANCH  18  19
HETATM   19  C   UNL     1     -10.297  11.731  66.947  1.00  0.00    -0.247 C  
BRANCH  19  20
HETATM   20  C   UNL     1      -9.910  12.534  65.703  1.00  0.00    -0.227 C  
BRANCH  20  21
HETATM   21  C   UNL     1     -10.969  13.555  65.269  1.00  0.00    -0.303 C  
BRANCH  21  22
HETATM   22  C   UNL     1     -10.678  14.970  65.777  1.00  0.00    -0.351 C  
BRANCH  22  23
HETATM   23  C   UNL     1      -9.192  15.342  65.712  1.00  0.00    -0.133 C  
BRANCH  23  24
HETATM   24  C   UNL     1      -8.640  15.697  67.093  1.00  0.00    -0.210 C  
BRANCH  24  25
HETATM   25  N   UNL     1      -9.140  17.026  67.531  1.00  0.00    -0.222 NA 
HETATM   26  C   UNL     1     -10.234  17.114  68.349  1.00  0.00    -0.340 A  
HETATM   27  C   UNL     1     -10.654  18.363  68.814  1.00  0.00     0.098 A  
HETATM   28  C   UNL     1     -11.029  15.937  68.866  1.00  0.00    -0.290 C  
HETATM   29  C   UNL     1     -10.005  19.532  68.448  1.00  0.00    -0.443 A  
HETATM   30  N   UNL     1     -10.404  20.715  69.076  1.00  0.00     0.103 NA 
HETATM   31  C   UNL     1      -8.847  19.427  67.661  1.00  0.00    -0.355 A  
HETATM   32  H1  UNL     1      -9.927  21.576  68.807  1.00  0.00     0.000 HD 
HETATM   33  C   UNL     1      -8.438  18.157  67.168  1.00  0.00    -0.243 A  
HETATM   34  H2  UNL     1     -10.342  20.598  70.088  1.00  0.00     0.000 HD 
HETATM   35  C   UNL     1      -7.293  18.100  66.332  1.00  0.00    -0.285 A  
HETATM   36  C   UNL     1      -6.543  19.233  66.027  1.00  0.00    -0.245 A  
HETATM   37  C   UNL     1      -6.919  20.459  66.542  1.00  0.00    -0.299 A  
HETATM   38  C   UNL     1      -8.057  20.555  67.340  1.00  0.00    -0.345 A  
ENDBRANCH  24  25
ENDBRANCH  23  24
ENDBRANCH  22  23
ENDBRANCH  21  22
ENDBRANCH  20  21
ENDBRANCH  19  20
ENDBRANCH  18  19
ENDBRANCH  17  18
ENDBRANCH  16  17
ENDBRANCH  15  16
ENDBRANCH  14  15
TORSDOF 11
ENDMDL
MODEL      417
REMARK 921   NORMALIZED FREE ENERGY PREDICTED BY IDOCK:   -3.70 KCAL/MOL
REMARK 922        TOTAL FREE ENERGY PREDICTED BY IDOCK:   -7.43 KCAL/MOL
REMARK 923 INTER-LIGAND FREE ENERGY PREDICTED BY IDOCK:   -6.53 KCAL/MOL
REMARK 924 INTRA-LIGAND FREE ENERGY PREDICTED BY IDOCK:   -0.90 KCAL/MOL
REMARK 927      BINDING AFFINITY PREDICTED BY RF-SCORE:    0.00 PKD
ROOT
HETATM    1  C   UNL     1      -6.818   6.823  64.634  1.00  0.00    -0.050 C  
HETATM    2  C   UNL     1      -7.402   5.517  65.122  1.00  0.00    -0.068 A  
HETATM    3  C   UNL     1      -7.225   4.391  64.328  1.00  0.00    -0.054 A  
HETATM    4  C   UNL     1      -7.716   3.151  64.710  1.00  0.00    -0.078 A  
HETATM    5  N   UNL     1      -7.370   2.047  63.923  1.00  0.00    -0.055 NA 
HETATM    6  C   UNL     1      -8.323   3.033  65.975  1.00  0.00    -0.098 A  
HETATM    7  H2  UNL     1      -6.354   1.997  63.843  1.00  0.00     0.000 HD 
HETATM    8  C   UNL     1      -8.735   1.784  66.494  1.00  0.00    -0.119 A  
HETATM    9  H1  UNL     1      -7.731   1.136  64.204  1.00  0.00     0.000 HD 
HETATM   10  C   UNL     1      -9.351   1.667  67.738  1.00  0.00    -0.165 A  
HETATM   11  C   UNL     1      -9.584   2.798  68.497  1.00  0.00    -0.094 A  
HETATM   12  C   UNL     1      -9.182   4.048  68.016  1.00  0.00    -0.200 A  
HETATM   13  C   UNL     1      -8.522   4.193  66.769  1.00  0.00    -0.104 A  
HETATM   14  N   UNL     1      -8.052   5.408  66.321  1.00  0.00    -0.105 NA 
ENDROOT
BRANCH  14  15
HETATM   15  C   UNL     1      -8.187   6.618  67.180  1.00  0.00    -0.113 C  
BRANCH  15  16
HETATM   16  C   UNL     1      -9.387   7.456  66.744  1.00  0.00    -0.202 C  
BRANCH  16  17
HETATM   17  C   UNL     1      -9.437   8.792  67.481  1.00  0.00    -0.173 C  
BRANCH  17  18
HETATM   18  C   UNL     1     -10.393   9.795  66.829  1.00  0.00    -0.289 C  
BRANCH  18  19
HETATM   19  C   UNL     1     -11.024  10.739  67.849  1.00  0.00    -0.344 C  
BRANCH  19  20
HETATM   20  C   UNL     1     -10.127  11.927  68.206  1.00  0.00    -0.203 C  
BRANCH  20  21
HETATM   21  C   UNL     1     -10.398  13.182  67.366  1.00  0.00    -0.239 C  
BRANCH  21  22
HETATM   22  C   UNL     1      -9.175  13.640  66.566  1.00  0.00    -0.195 C  
BRANCH  22  23
HETATM   23  C   UNL     1      -9.109  15.161  66.380  1.00  0.00    -0.331 C  
BRANCH  23  24
HETATM   24  C   UNL     1      -9.578  15.901  67.633  1.00  0.00    -0.221 C  
BRANCH  24  25
HETATM   25  N   UNL     1      -8.478  16.724  68.197  1.00  0.00    -0.206 NA 
HETATM   26  C   UNL     1      -7.545  16.154  69.021  1.00  0.00    -0.213 A  
HETATM   27  C   UNL     1      -6.473  16.918  69.489  1.00  0.00    -0.223 A  
HETATM   28  C   UNL     1      -7.531  14.702  69.442  1.00  0.00    -0.112 C  
HETATM   29  C   UNL     1      -6.337  18.258  69.163  1.00  0.00    -0.248 A  
HETATM   30  N   UNL     1      -5.160  18.901  69.556  1.00  0.00    -0.181 NA 
HETATM   31  C   UNL     1      -7.262  18.818  68.267  1.00  0.00    -0.283 A  
HETATM   32  H1  UNL     1      -5.059  19.888  69.317  1.00  0.00     0.000 HD 
HETATM   33  C   UNL     1      -8.366  18.045  67.814  1.00  0.00    -0.249 A  
HETATM   34  H2  UNL     1      -4.356  18.384  69.198  1.00  0.00     0.000 HD 
HETATM   35  C   UNL     1      -9.308  18.664  66.952  1.00  0.00    -0.308 A  
HETATM   36  C   UNL     1      -9.154  19.975  66.507  1.00  0.00    -0.452 A  
HETATM   37  C   UNL     1      -8.057  20.709  66.917  1.00  0.00    -0.225 A  
HETATM   38  C   UNL     1      -7.130  20.142  67.789  1.00  0.00    -0.330 A  
ENDBRANCH  24  25
ENDBRANCH  23  24
ENDBRANCH  22  23
ENDBRANCH  21  22
ENDBRANCH  20  21
ENDBRANCH  19  20
ENDBRANCH  18  19
ENDBRANCH  17  18
ENDBRANCH  16  17
ENDBRANCH  15  16
ENDBRANCH  14  15
TORSDOF 11
ENDMDL
MODEL      418
REMARK 921   NORMALIZED FREE ENERGY PREDICTED BY IDOCK:   -3.65 KCAL/MOL
REMARK 922        TOTAL FREE ENERGY PREDICTED BY IDOCK:   -7.36 KCAL/MOL
REMARK 923 INTER-LIGAND FREE ENERGY PREDICTED BY IDOCK:   -6.14 KCAL/MOL
REMARK 924 INTRA-LIGAND FREE ENERGY PREDICTED BY IDOCK:   -1.22 KCAL/MOL
REMARK 927      BINDING AFFINITY PREDICTED BY RF-SCORE:    0.00 PKD
ROOT
HETATM    1  C   UNL     1      -9.651   2.721  69.839  1.00  0.00    -0.088 C  
HETATM    2  C   UNL     1      -9.099   3.495  68.663  1.00  0.00    -0.146 A  
HETATM    3  C   UNL     1      -8.920   2.814  67.465  1.00  0.00    -0.190 A  
HETATM    4  C   UNL     1      -8.433   3.453  66.335  1.00  0.00    -0.109 A  
HETATM    5  N   UNL     1      -8.419   2.730  65.138  1.00  0.00    -0.094 NA 
HETATM    6  C   UNL     1      -8.209   4.841  66.397  1.00  0.00    -0.107 A  
HETATM    7  H2  UNL     1      -9.356   2.376  64.947  1.00  0.00     0.000 HD 
HETATM    8  C   UNL     1      -7.835   5.591  65.257  1.00  0.00    -0.095 A  
HETATM    9  H1  UNL     1      -8.060   3.200  64.307  1.00  0.00     0.000 HD 
HETATM   10  C   UNL     1      -7.597   6.963  65.320  1.00  0.00    -0.099 A  
HETATM   11  C   UNL     1      -7.714   7.625  66.527  1.00  0.00    -0.097 A  
HETATM   12  C   UNL     1      -8.088   6.915  67.671  1.00  0.00    -0.113 A  
HETATM   13  C   UNL     1      -8.371   5.525  67.630  1.00  0.00    -0.100 A  
HETATM   14  N   UNL     1      -8.817   4.831  68.734  1.00  0.00    -0.096 NA 
ENDROOT
BRANCH  14  15
HETATM   15  C   UNL     1      -9.064   5.553  70.014  1.00  0.00    -0.135 C  
BRANCH  15  16
HETATM   16  C   UNL     1     -10.473   6.141  70.036  1.00  0.00    -0.294 C  
BRANCH  16  17
HETATM   17  C   UNL     1     -10.603   7.250  71.077  1.00  0.00    -0.235 C  
BRANCH  17  18
HETATM   18  C   UNL     1     -10.517   8.652  70.467  1.00  0.00    -0.237 C  
BRANCH  18  19
HETATM   19  C   UNL     1      -9.344   9.453  71.023  1.00  0.00    -0.210 C  
BRANCH  19  20
HETATM   20  C   UNL     1      -8.084   9.355  70.160  1.00  0.00    -0.167 C  
BRANCH  20  21
HETATM   21  C   UNL     1      -7.463  10.714  69.812  1.00  0.00    -0.088 C  
BRANCH  21  22
HETATM   22  C   UNL     1      -6.845  10.748  68.412  1.00  0.00    -0.068 C  
BRANCH  22  23
HETATM   23  C   UNL     1      -6.875  12.140  67.771  1.00  0.00    -0.106 C  
BRANCH  23  24
HETATM   24  C   UNL     1      -7.892  13.053  68.457  1.00  0.00    -0.105 C  
BRANCH  24  25
HETATM   25  N   UNL     1      -7.930  14.384  67.798  1.00  0.00    -0.143 NA 
HETATM   26  C   UNL     1      -6.826  15.194  67.821  1.00  0.00    -0.170 A  
HETATM   27  C   UNL     1      -6.845  16.412  67.137  1.00  0.00    -0.238 A  
HETATM   28  C   UNL     1      -5.514  14.855  68.491  1.00  0.00    -0.101 C  
HETATM   29  C   UNL     1      -7.970  16.844  66.451  1.00  0.00    -0.317 A  
HETATM   30  N   UNL     1      -7.849  18.003  65.679  1.00  0.00    -0.483 NA 
HETATM   31  C   UNL     1      -9.074  15.979  66.381  1.00  0.00    -0.354 A  
HETATM   32  H1  UNL     1      -8.676  18.321  65.174  1.00  0.00     0.000 HD 
HETATM   33  C   UNL     1      -9.060  14.752  67.099  1.00  0.00    -0.217 A  
HETATM   34  H2  UNL     1      -7.076  17.892  65.022  1.00  0.00     0.000 HD 
HETATM   35  C   UNL     1     -10.216  13.932  67.045  1.00  0.00    -0.254 A  
HETATM   36  C   UNL     1     -11.329  14.270  66.279  1.00  0.00    -0.347 A  
HETATM   37  C   UNL     1     -11.323  15.444  65.549  1.00  0.00    -0.164 A  
HETATM   38  C   UNL     1     -10.215  16.288  65.605  1.00  0.00    -0.368 A  
ENDBRANCH  24  25
ENDBRANCH  23  24
ENDBRANCH  22  23
ENDBRANCH  21  22
ENDBRANCH  20  21
ENDBRANCH  19  20
ENDBRANCH  18  19
ENDBRANCH  17  18
ENDBRANCH  16  17
ENDBRANCH  15  16
ENDBRANCH  14  15
TORSDOF 11
ENDMDL
MODEL      419
REMARK 921   NORMALIZED FREE ENERGY PREDICTED BY IDOCK:   -3.65 KCAL/MOL
REMARK 922        TOTAL FREE ENERGY PREDICTED BY IDOCK:   -7.35 KCAL/MOL
REMARK 923 INTER-LIGAND FREE ENERGY PREDICTED BY IDOCK:   -6.56 KCAL/MOL
REMARK 924 INTRA-LIGAND FREE ENERGY PREDICTED BY IDOCK:   -0.79 KCAL/MOL
REMARK 927      BINDING AFFINITY PREDICTED BY RF-SCORE:    0.00 PKD
ROOT
HETATM    1  C   UNL     1      -9.433   4.692  67.478  1.00  0.00    -0.182 C  
HETATM    2  C   UNL     1      -9.160   4.913  68.949  1.00  0.00    -0.112 A  
HETATM    3  C   UNL     1      -9.621   3.956  69.845  1.00  0.00    -0.270 A  
HETATM    4  C   UNL     1      -9.399   4.076  71.209  1.00  0.00    -0.143 A  
HETATM    5  N   UNL     1      -9.772   3.000  72.022  1.00  0.00    -0.150 NA 
HETATM    6  C   UNL     1      -8.608   5.147  71.666  1.00  0.00    -0.132 A  
HETATM    7  H2  UNL     1      -9.324   2.150  71.681  1.00  0.00     0.000 HD 
HETATM    8  C   UNL     1      -8.228   5.271  73.023  1.00  0.00    -0.112 A  
HETATM    9  H1  UNL     1      -9.609   3.088  73.024  1.00  0.00     0.000 HD 
HETATM   10  C   UNL     1      -7.459   6.339  73.480  1.00  0.00    -0.091 A  
HETATM   11  C   UNL     1      -7.056   7.323  72.597  1.00  0.00    -0.068 A  
HETATM   12  C   UNL     1      -7.409   7.226  71.248  1.00  0.00    -0.077 A  
HETATM   13  C   UNL     1      -8.161   6.132  70.747  1.00  0.00    -0.124 A  
HETATM   14  N   UNL     1      -8.447   5.987  69.407  1.00  0.00    -0.114 NA 
ENDROOT
BRANCH  14  15
HETATM   15  C   UNL     1      -7.918   6.973  68.424  1.00  0.00    -0.123 C  
BRANCH  15  16
HETATM   16  C   UNL     1      -6.663   6.434  67.743  1.00  0.00    -0.064 C  
BRANCH  16  17
HETATM   17  C   UNL     1      -6.191   7.356  66.622  1.00  0.00    -0.044 C  
BRANCH  17  18
HETATM   18  C   UNL     1      -7.247   7.556  65.531  1.00  0.00    -0.069 C  
BRANCH  18  19
HETATM   19  C   UNL     1      -8.004   8.870  65.694  1.00  0.00    -0.098 C  
BRANCH  19  20
HETATM   20  C   UNL     1      -7.099  10.102  65.616  1.00  0.00    -0.133 C  
BRANCH  20  21
HETATM   21  C   UNL     1      -6.588  10.584  66.980  1.00  0.00    -0.077 C  
BRANCH  21  22
HETATM   22  C   UNL     1      -7.641  11.367  67.769  1.00  0.00    -0.105 C  
BRANCH  22  23
HETATM   23  C   UNL     1      -8.019  12.701  67.113  1.00  0.00    -0.123 C  
BRANCH  23  24
HETATM   24  C   UNL     1      -9.458  12.686  66.596  1.00  0.00    -0.244 C  
BRANCH  24  25
HETATM   25  N   UNL     1     -10.330  13.535  67.448  1.00  0.00    -0.236 NA 
HETATM   26  C   UNL     1     -11.143  12.960  68.387  1.00  0.00    -0.262 A  
HETATM   27  C   UNL     1     -11.906  13.770  69.234  1.00  0.00    -0.392 A  
HETATM   28  C   UNL     1     -11.255  11.476  68.648  1.00  0.00    -0.307 C  
HETATM   29  C   UNL     1     -11.885  15.152  69.132  1.00  0.00    -0.313 A  
HETATM   30  N   UNL     1     -12.565  15.881  70.112  1.00  0.00    -0.570 NA 
HETATM   31  C   UNL     1     -11.001  15.734  68.209  1.00  0.00    -0.325 A  
HETATM   32  H1  UNL     1     -12.549  16.898  70.038  1.00  0.00     0.000 HD 
HETATM   33  C   UNL     1     -10.245  14.907  67.333  1.00  0.00    -0.234 A  
HETATM   34  H2  UNL     1     -12.225  15.606  71.034  1.00  0.00     0.000 HD 
HETATM   35  C   UNL     1      -9.405  15.535  66.378  1.00  0.00    -0.330 A  
HETATM   36  C   UNL     1      -9.265  16.919  66.312  1.00  0.00    -0.299 A  
HETATM   37  C   UNL     1      -9.968  17.718  67.193  1.00  0.00    -0.322 A  
HETATM   38  C   UNL     1     -10.828  17.135  68.122  1.00  0.00    -0.316 A  
ENDBRANCH  24  25
ENDBRANCH  23  24
ENDBRANCH  22  23
ENDBRANCH  21  22
ENDBRANCH  20  21
ENDBRANCH  19  20
ENDBRANCH  18  19
ENDBRANCH  17  18
ENDBRANCH  16  17
ENDBRANCH  15  16
ENDBRANCH  14  15
TORSDOF 11
ENDMDL
MODEL      420
REMARK 921   NORMALIZED FREE ENERGY PREDICTED BY IDOCK:   -3.64 KCAL/MOL
REMARK 922        TOTAL FREE ENERGY PREDICTED BY IDOCK:   -7.34 KCAL/MOL
REMARK 923 INTER-LIGAND FREE ENERGY PREDICTED BY IDOCK:   -7.19 KCAL/MOL
REMARK 924 INTRA-LIGAND FREE ENERGY PREDICTED BY IDOCK:   -0.15 KCAL/MOL
REMARK 927      BINDING AFFINITY PREDICTED BY RF-SCORE:    0.00 PKD
ROOT
HETATM    1  C   UNL     1      -9.284   8.643  71.936  1.00  0.00    -0.345 C  
HETATM    2  C   UNL     1      -9.227   7.239  72.495  1.00  0.00    -0.139 A  
HETATM    3  C   UNL     1      -8.080   6.861  73.182  1.00  0.00    -0.116 A  
HETATM    4  C   UNL     1      -7.953   5.597  73.738  1.00  0.00    -0.108 A  
HETATM    5  N   UNL     1      -6.829   5.349  74.533  1.00  0.00    -0.076 NA 
HETATM    6  C   UNL     1      -9.057   4.726  73.676  1.00  0.00    -0.109 A  
HETATM    7  H2  UNL     1      -6.778   6.050  75.273  1.00  0.00     0.000 HD 
HETATM    8  C   UNL     1      -9.057   3.470  74.326  1.00  0.00    -0.097 A  
HETATM    9  H1  UNL     1      -6.736   4.420  74.941  1.00  0.00     0.000 HD 
HETATM   10  C   UNL     1     -10.143   2.598  74.252  1.00  0.00    -0.173 A  
HETATM   11  C   UNL     1     -11.257   2.952  73.514  1.00  0.00    -0.301 A  
HETATM   12  C   UNL     1     -11.291   4.189  72.864  1.00  0.00    -0.012 A  
HETATM   13  C   UNL     1     -10.216   5.110  72.952  1.00  0.00    -0.180 A  
HETATM   14  N   UNL     1     -10.271   6.363  72.381  1.00  0.00    -0.184 NA 
ENDROOT
BRANCH  14  15
HETATM   15  C   UNL     1     -11.511   6.807  71.684  1.00  0.00    -0.282 C  
BRANCH  15  16
HETATM   16  C   UNL     1     -11.638   6.124  70.324  1.00  0.00    -0.266 C  
BRANCH  16  17
HETATM   17  C   UNL     1     -10.419   6.389  69.445  1.00  0.00    -0.277 C  
BRANCH  17  18
HETATM   18  C   UNL     1     -10.481   7.745  68.735  1.00  0.00    -0.201 C  
BRANCH  18  19
HETATM   19  C   UNL     1     -10.732   7.603  67.237  1.00  0.00    -0.344 C  
BRANCH  19  20
HETATM   20  C   UNL     1      -9.707   8.349  66.380  1.00  0.00    -0.312 C  
BRANCH  20  21
HETATM   21  C   UNL     1      -9.056   9.543  67.090  1.00  0.00    -0.152 C  
BRANCH  21  22
HETATM   22  C   UNL     1      -9.778  10.866  66.820  1.00  0.00    -0.221 C  
BRANCH  22  23
HETATM   23  C   UNL     1      -9.201  12.043  67.615  1.00  0.00    -0.182 C  
BRANCH  23  24
HETATM   24  C   UNL     1     -10.303  12.862  68.286  1.00  0.00    -0.244 C  
BRANCH  24  25
HETATM   25  N   UNL     1     -10.435  14.193  67.639  1.00  0.00    -0.244 NA 
HETATM   26  C   UNL     1     -10.015  15.321  68.293  1.00  0.00    -0.222 A  
HETATM   27  C   UNL     1     -10.074  16.559  67.649  1.00  0.00    -0.266 A  
HETATM   28  C   UNL     1      -9.411  15.346  69.679  1.00  0.00    -0.220 C  
HETATM   29  C   UNL     1     -10.577  16.688  66.364  1.00  0.00    -0.200 A  
HETATM   30  N   UNL     1     -10.464  17.938  65.749  1.00  0.00    -0.591 NA 
HETATM   31  C   UNL     1     -10.947  15.519  65.678  1.00  0.00    -0.307 A  
HETATM   32  H1  UNL     1     -10.833  18.033  64.803  1.00  0.00     0.000 HD 
HETATM   33  C   UNL     1     -10.908  14.264  66.346  1.00  0.00    -0.307 A  
HETATM   34  H2  UNL     1      -9.486  18.232  65.760  1.00  0.00     0.000 HD 
HETATM   35  C   UNL     1     -11.341  13.115  65.636  1.00  0.00    -0.328 A  
HETATM   36  C   UNL     1     -11.749  13.177  64.305  1.00  0.00    -0.447 A  
HETATM   37  C   UNL     1     -11.745  14.392  63.647  1.00  0.00     0.429 A  
HETATM   38  C   UNL     1     -11.357  15.546  64.325  1.00  0.00    -0.165 A  
ENDBRANCH  24  25
ENDBRANCH  23  24
ENDBRANCH  22  23
ENDBRANCH  21  22
ENDBRANCH  20  21
ENDBRANCH  19  20
ENDBRANCH  18  19
ENDBRANCH  17  18
ENDBRANCH  16  17
ENDBRANCH  15  16
ENDBRANCH  14  15
TORSDOF 11
ENDMDL
MODEL      421
REMARK 921   NORMALIZED FREE ENERGY PREDICTED BY IDOCK:   -3.64 KCAL/MOL
REMARK 922        TOTAL FREE ENERGY PREDICTED BY IDOCK:   -7.34 KCAL/MOL
REMARK 923 INTER-LIGAND FREE ENERGY PREDICTED BY IDOCK:   -6.16 KCAL/MOL
REMARK 924 INTRA-LIGAND FREE ENERGY PREDICTED BY IDOCK:   -1.18 KCAL/MOL
REMARK 927      BINDING AFFINITY PREDICTED BY RF-SCORE:    0.00 PKD
ROOT
HETATM    1  C   UNL     1      -7.674   7.262  64.406  1.00  0.00    -0.120 C  
HETATM    2  C   UNL     1      -8.062   7.524  65.844  1.00  0.00    -0.127 A  
HETATM    3  C   UNL     1      -9.409   7.450  66.176  1.00  0.00    -0.111 A  
HETATM    4  C   UNL     1      -9.848   7.662  67.474  1.00  0.00    -0.165 A  
HETATM    5  N   UNL     1     -11.199   7.428  67.747  1.00  0.00    -0.453 NA 
HETATM    6  C   UNL     1      -8.884   7.863  68.481  1.00  0.00    -0.134 A  
HETATM    7  H2  UNL     1     -11.442   6.480  67.461  1.00  0.00     0.000 HD 
HETATM    8  C   UNL     1      -9.236   7.959  69.847  1.00  0.00    -0.153 A  
HETATM    9  H1  UNL     1     -11.521   7.584  68.702  1.00  0.00     0.000 HD 
HETATM   10  C   UNL     1      -8.285   8.174  70.843  1.00  0.00    -0.110 A  
HETATM   11  C   UNL     1      -6.953   8.310  70.501  1.00  0.00    -0.037 A  
HETATM   12  C   UNL     1      -6.570   8.214  69.161  1.00  0.00    -0.043 A  
HETATM   13  C   UNL     1      -7.511   7.960  68.130  1.00  0.00    -0.107 A  
HETATM   14  N   UNL     1      -7.136   7.785  66.816  1.00  0.00    -0.078 NA 
ENDROOT
BRANCH  14  15
HETATM   15  C   UNL     1      -5.693   7.809  66.447  1.00  0.00    -0.036 C  
BRANCH  15  16
HETATM   16  C   UNL     1      -5.187   9.247  66.345  1.00  0.00    -0.040 C  
BRANCH  16  17
HETATM   17  C   UNL     1      -6.317  10.218  66.012  1.00  0.00    -0.102 C  
BRANCH  17  18
HETATM   18  C   UNL     1      -6.105  11.608  66.619  1.00  0.00    -0.094 C  
BRANCH  18  19
HETATM   19  C   UNL     1      -6.904  11.804  67.904  1.00  0.00    -0.077 C  
BRANCH  19  20
HETATM   20  C   UNL     1      -8.311  12.356  67.662  1.00  0.00    -0.169 C  
BRANCH  20  21
HETATM   21  C   UNL     1      -8.967  11.838  66.376  1.00  0.00    -0.201 C  
BRANCH  21  22
HETATM   22  C   UNL     1     -10.213  10.988  66.641  1.00  0.00    -0.280 C  
BRANCH  22  23
HETATM   23  C   UNL     1     -11.021  11.463  67.855  1.00  0.00    -0.295 C  
BRANCH  23  24
HETATM   24  C   UNL     1     -12.292  12.199  67.431  1.00  0.00     0.784 C  
BRANCH  24  25
HETATM   25  N   UNL     1     -11.968  13.313  66.503  1.00  0.00    -0.391 NA 
HETATM   26  C   UNL     1     -12.484  13.324  65.235  1.00  0.00    -0.489 A  
HETATM   27  C   UNL     1     -12.234  14.410  64.393  1.00  0.00    -0.481 A  
HETATM   28  C   UNL     1     -13.385  12.257  64.655  1.00  0.00     0.805 C  
HETATM   29  C   UNL     1     -11.448  15.478  64.797  1.00  0.00    -0.313 A  
HETATM   30  N   UNL     1     -11.372  16.583  63.944  1.00  0.00    -1.559 NA 
HETATM   31  C   UNL     1     -10.975  15.488  66.120  1.00  0.00    -0.247 A  
HETATM   32  H1  UNL     1     -10.794  17.369  64.241  1.00  0.00     0.000 HD 
HETATM   33  C   UNL     1     -11.211  14.369  66.965  1.00  0.00    -0.328 A  
HETATM   34  H2  UNL     1     -12.315  16.917  63.740  1.00  0.00     0.000 HD 
HETATM   35  C   UNL     1     -10.671  14.395  68.276  1.00  0.00    -0.246 A  
HETATM   36  C   UNL     1      -9.969  15.494  68.766  1.00  0.00    -0.214 A  
HETATM   37  C   UNL     1      -9.778  16.598  67.956  1.00  0.00    -0.241 A  
HETATM   38  C   UNL     1     -10.268  16.591  66.651  1.00  0.00    -0.302 A  
ENDBRANCH  24  25
ENDBRANCH  23  24
ENDBRANCH  22  23
ENDBRANCH  21  22
ENDBRANCH  20  21
ENDBRANCH  19  20
ENDBRANCH  18  19
ENDBRANCH  17  18
ENDBRANCH  16  17
ENDBRANCH  15  16
ENDBRANCH  14  15
TORSDOF 11
ENDMDL
MODEL      422
REMARK 921   NORMALIZED FREE ENERGY PREDICTED BY IDOCK:   -3.62 KCAL/MOL
REMARK 922        TOTAL FREE ENERGY PREDICTED BY IDOCK:   -7.31 KCAL/MOL
REMARK 923 INTER-LIGAND FREE ENERGY PREDICTED BY IDOCK:   -6.68 KCAL/MOL
REMARK 924 INTRA-LIGAND FREE ENERGY PREDICTED BY IDOCK:   -0.63 KCAL/MOL
REMARK 927      BINDING AFFINITY PREDICTED BY RF-SCORE:    0.00 PKD
ROOT
HETATM    1  C   UNL     1     -11.499   6.426  68.080  1.00  0.00     0.154 C  
HETATM    2  C   UNL     1     -10.572   6.583  69.265  1.00  0.00    -0.247 A  
HETATM    3  C   UNL     1     -10.593   5.594  70.240  1.00  0.00    -0.370 A  
HETATM    4  C   UNL     1      -9.764   5.654  71.351  1.00  0.00    -0.162 A  
HETATM    5  N   UNL     1      -9.748   4.549  72.207  1.00  0.00    -0.156 NA 
HETATM    6  C   UNL     1      -8.824   6.699  71.426  1.00  0.00    -0.139 A  
HETATM    7  H2  UNL     1      -9.530   3.709  71.670  1.00  0.00     0.000 HD 
HETATM    8  C   UNL     1      -7.858   6.764  72.457  1.00  0.00    -0.100 A  
HETATM    9  H1  UNL     1      -9.139   4.594  73.024  1.00  0.00     0.000 HD 
HETATM   10  C   UNL     1      -6.937   7.806  72.544  1.00  0.00    -0.078 A  
HETATM   11  C   UNL     1      -6.961   8.822  71.607  1.00  0.00    -0.085 A  
HETATM   12  C   UNL     1      -7.899   8.785  70.571  1.00  0.00    -0.104 A  
HETATM   13  C   UNL     1      -8.825   7.719  70.438  1.00  0.00    -0.146 A  
HETATM   14  N   UNL     1      -9.701   7.631  69.378  1.00  0.00    -0.163 NA 
ENDROOT
BRANCH  14  15
HETATM   15  C   UNL     1      -9.660   8.654  68.296  1.00  0.00    -0.147 C  
BRANCH  15  16
HETATM   16  C   UNL     1      -9.663   7.985  66.923  1.00  0.00    -0.291 C  
BRANCH  16  17
HETATM   17  C   UNL     1      -9.177   8.936  65.832  1.00  0.00    -0.290 C  
BRANCH  17  18
HETATM   18  C   UNL     1      -7.779   8.585  65.316  1.00  0.00    -0.097 C  
BRANCH  18  19
HETATM   19  C   UNL     1      -6.684   9.369  66.034  1.00  0.00    -0.081 C  
BRANCH  19  20
HETATM   20  C   UNL     1      -6.708  10.866  65.717  1.00  0.00     0.006 C  
BRANCH  20  21
HETATM   21  C   UNL     1      -5.816  11.709  66.639  1.00  0.00    -0.108 C  
BRANCH  21  22
HETATM   22  C   UNL     1      -6.324  11.756  68.083  1.00  0.00    -0.051 C  
BRANCH  22  23
HETATM   23  C   UNL     1      -7.828  12.035  68.185  1.00  0.00    -0.145 C  
BRANCH  23  24
HETATM   24  C   UNL     1      -8.105  13.480  68.600  1.00  0.00    -0.055 C  
BRANCH  24  25
HETATM   25  N   UNL     1      -8.860  14.194  67.538  1.00  0.00    -0.190 NA 
HETATM   26  C   UNL     1      -8.415  15.401  67.070  1.00  0.00    -0.231 A  
HETATM   27  C   UNL     1      -9.090  16.031  66.021  1.00  0.00    -0.361 A  
HETATM   28  C   UNL     1      -7.177  16.118  67.558  1.00  0.00    -0.188 C  
HETATM   29  C   UNL     1     -10.226  15.478  65.451  1.00  0.00    -0.377 A  
HETATM   30  N   UNL     1     -10.747  16.104  64.315  1.00  0.00    -0.775 NA 
HETATM   31  C   UNL     1     -10.638  14.211  65.894  1.00  0.00    -0.301 A  
HETATM   32  H1  UNL     1     -11.583  15.698  63.895  1.00  0.00     0.000 HD 
HETATM   33  C   UNL     1      -9.964  13.585  66.978  1.00  0.00    -0.247 A  
HETATM   34  H2  UNL     1     -10.017  16.180  63.606  1.00  0.00     0.000 HD 
HETATM   35  C   UNL     1     -10.445  12.330  67.431  1.00  0.00    -0.228 A  
HETATM   36  C   UNL     1     -11.515  11.682  66.817  1.00  0.00    -0.299 A  
HETATM   37  C   UNL     1     -12.141  12.273  65.736  1.00  0.00    -0.287 A  
HETATM   38  C   UNL     1     -11.714  13.522  65.287  1.00  0.00    -0.341 A  
ENDBRANCH  24  25
ENDBRANCH  23  24
ENDBRANCH  22  23
ENDBRANCH  21  22
ENDBRANCH  20  21
ENDBRANCH  19  20
ENDBRANCH  18  19
ENDBRANCH  17  18
ENDBRANCH  16  17
ENDBRANCH  15  16
ENDBRANCH  14  15
TORSDOF 11
ENDMDL
MODEL      423
REMARK 921   NORMALIZED FREE ENERGY PREDICTED BY IDOCK:   -3.57 KCAL/MOL
REMARK 922        TOTAL FREE ENERGY PREDICTED BY IDOCK:   -7.22 KCAL/MOL
REMARK 923 INTER-LIGAND FREE ENERGY PREDICTED BY IDOCK:   -6.94 KCAL/MOL
REMARK 924 INTRA-LIGAND FREE ENERGY PREDICTED BY IDOCK:   -0.28 KCAL/MOL
REMARK 927      BINDING AFFINITY PREDICTED BY RF-SCORE:    0.00 PKD
ROOT
HETATM    1  C   UNL     1     -10.497  17.318  69.867  1.00  0.00     0.285 C  
HETATM    2  C   UNL     1     -10.438  16.463  68.622  1.00  0.00    -0.293 A  
HETATM    3  C   UNL     1      -9.275  16.502  67.863  1.00  0.00    -0.211 A  
HETATM    4  C   UNL     1      -9.133  15.738  66.715  1.00  0.00    -0.249 A  
HETATM    5  N   UNL     1      -7.880  15.729  66.093  1.00  0.00     0.003 NA 
HETATM    6  C   UNL     1     -10.164  14.840  66.378  1.00  0.00    -0.299 A  
HETATM    7  H2  UNL     1      -7.169  15.453  66.771  1.00  0.00     0.000 HD 
HETATM    8  C   UNL     1     -10.045  13.934  65.299  1.00  0.00    -0.328 A  
HETATM    9  H1  UNL     1      -7.776  15.167  65.249  1.00  0.00     0.000 HD 
HETATM   10  C   UNL     1     -11.071  13.055  64.954  1.00  0.00    -0.326 A  
HETATM   11  C   UNL     1     -12.252  13.064  65.672  1.00  0.00    -0.521 A  
HETATM   12  C   UNL     1     -12.399  13.942  66.749  1.00  0.00    -0.370 A  
HETATM   13  C   UNL     1     -11.359  14.822  67.145  1.00  0.00    -0.356 A  
HETATM   14  N   UNL     1     -11.463  15.636  68.252  1.00  0.00    -0.362 NA 
ENDROOT
BRANCH  14  15
HETATM   15  C   UNL     1     -12.681  15.572  69.107  1.00  0.00     0.485 C  
BRANCH  15  16
HETATM   16  C   UNL     1     -12.337  15.030  70.494  1.00  0.00    -0.411 C  
BRANCH  16  17
HETATM   17  C   UNL     1     -12.625  13.535  70.601  1.00  0.00    -0.345 C  
BRANCH  17  18
HETATM   18  C   UNL     1     -11.428  12.668  70.202  1.00  0.00    -0.003 C  
BRANCH  18  19
HETATM   19  C   UNL     1     -11.856  11.324  69.620  1.00  0.00    -0.430 C  
BRANCH  19  20
HETATM   20  C   UNL     1     -12.981  10.654  70.412  1.00  0.00    -0.210 C  
BRANCH  20  21
HETATM   21  C   UNL     1     -12.537  10.105  71.775  1.00  0.00    -0.500 C  
BRANCH  21  22
HETATM   22  C   UNL     1     -13.223   8.785  72.140  1.00  0.00    -0.456 C  
BRANCH  22  23
HETATM   23  C   UNL     1     -12.286   7.575  72.060  1.00  0.00    -0.305 C  
BRANCH  23  24
HETATM   24  C   UNL     1     -11.103   7.840  71.128  1.00  0.00    -0.248 C  
BRANCH  24  25
HETATM   25  N   UNL     1      -9.876   7.176  71.638  1.00  0.00    -0.163 NA 
HETATM   26  C   UNL     1      -9.958   5.953  72.249  1.00  0.00    -0.169 A  
HETATM   27  C   UNL     1      -8.792   5.302  72.660  1.00  0.00    -0.123 A  
HETATM   28  C   UNL     1     -11.238   5.181  72.476  1.00  0.00    -0.229 C  
HETATM   29  C   UNL     1      -7.541   5.875  72.492  1.00  0.00    -0.100 A  
HETATM   30  N   UNL     1      -6.426   5.091  72.800  1.00  0.00    -0.046 NA 
HETATM   31  C   UNL     1      -7.461   7.099  71.808  1.00  0.00    -0.086 A  
HETATM   32  H1  UNL     1      -5.506   5.512  72.676  1.00  0.00     0.000 HD 
HETATM   33  C   UNL     1      -8.651   7.770  71.414  1.00  0.00    -0.120 A  
HETATM   34  H2  UNL     1      -6.471   4.218  72.273  1.00  0.00     0.000 HD 
HETATM   35  C   UNL     1      -8.529   9.030  70.774  1.00  0.00    -0.238 A  
HETATM   36  C   UNL     1      -7.290   9.595  70.482  1.00  0.00    -0.141 A  
HETATM   37  C   UNL     1      -6.135   8.920  70.829  1.00  0.00    -0.040 A  
HETATM   38  C   UNL     1      -6.220   7.695  71.488  1.00  0.00    -0.035 A  
ENDBRANCH  24  25
ENDBRANCH  23  24
ENDBRANCH  22  23
ENDBRANCH  21  22
ENDBRANCH  20  21
ENDBRANCH  19  20
ENDBRANCH  18  19
ENDBRANCH  17  18
ENDBRANCH  16  17
ENDBRANCH  15  16
ENDBRANCH  14  15
TORSDOF 11
ENDMDL
MODEL      424
REMARK 921   NORMALIZED FREE ENERGY PREDICTED BY IDOCK:   -3.53 KCAL/MOL
REMARK 922        TOTAL FREE ENERGY PREDICTED BY IDOCK:   -7.15 KCAL/MOL
REMARK 923 INTER-LIGAND FREE ENERGY PREDICTED BY IDOCK:   -6.54 KCAL/MOL
REMARK 924 INTRA-LIGAND FREE ENERGY PREDICTED BY IDOCK:   -0.62 KCAL/MOL
REMARK 927      BINDING AFFINITY PREDICTED BY RF-SCORE:    0.00 PKD
ROOT
HETATM    1  C   UNL     1     -12.246  13.749  69.862  1.00  0.00    -0.383 C  
HETATM    2  C   UNL     1     -11.845  13.684  68.406  1.00  0.00    -0.372 A  
HETATM    3  C   UNL     1     -11.610  14.883  67.744  1.00  0.00    -0.358 A  
HETATM    4  C   UNL     1     -11.224  14.912  66.413  1.00  0.00    -0.331 A  
HETATM    5  N   UNL     1     -10.871  16.151  65.868  1.00  0.00    -0.234 NA 
HETATM    6  C   UNL     1     -10.980  13.689  65.761  1.00  0.00    -0.281 A  
HETATM    7  H2  UNL     1     -10.140  16.575  66.439  1.00  0.00     0.000 HD 
HETATM    8  C   UNL     1     -10.463  13.631  64.446  1.00  0.00    -0.322 A  
HETATM    9  H1  UNL     1     -10.588  16.172  64.888  1.00  0.00     0.000 HD 
HETATM   10  C   UNL     1     -10.236  12.420  63.793  1.00  0.00    -0.404 A  
HETATM   11  C   UNL     1     -10.531  11.231  64.431  1.00  0.00    -0.407 A  
HETATM   12  C   UNL     1     -11.038  11.253  65.734  1.00  0.00    -0.153 A  
HETATM   13  C   UNL     1     -11.245  12.468  66.436  1.00  0.00    -0.306 A  
HETATM   14  N   UNL     1     -11.669  12.499  67.747  1.00  0.00    -0.354 NA 
ENDROOT
BRANCH  14  15
HETATM   15  C   UNL     1     -11.877  11.224  68.489  1.00  0.00    -0.285 C  
BRANCH  15  16
HETATM   16  C   UNL     1     -10.698  10.944  69.418  1.00  0.00    -0.265 C  
BRANCH  16  17
HETATM   17  C   UNL     1     -10.409   9.449  69.525  1.00  0.00    -0.223 C  
BRANCH  17  18
HETATM   18  C   UNL     1      -8.940   9.106  69.261  1.00  0.00    -0.145 C  
BRANCH  18  19
HETATM   19  C   UNL     1      -8.381   8.129  70.291  1.00  0.00    -0.124 C  
BRANCH  19  20
HETATM   20  C   UNL     1      -8.761   6.673  70.010  1.00  0.00    -0.141 C  
BRANCH  20  21
HETATM   21  C   UNL     1     -10.265   6.455  69.800  1.00  0.00    -0.226 C  
BRANCH  21  22
HETATM   22  C   UNL     1     -10.597   5.058  69.266  1.00  0.00     0.044 C  
BRANCH  22  23
HETATM   23  C   UNL     1     -10.063   4.811  67.850  1.00  0.00    -0.119 C  
BRANCH  23  24
HETATM   24  C   UNL     1      -8.536   4.871  67.806  1.00  0.00    -0.104 C  
BRANCH  24  25
HETATM   25  N   UNL     1      -8.050   4.819  66.404  1.00  0.00    -0.107 NA 
HETATM   26  C   UNL     1      -7.878   3.612  65.779  1.00  0.00    -0.092 A  
HETATM   27  C   UNL     1      -7.490   3.573  64.437  1.00  0.00    -0.075 A  
HETATM   28  C   UNL     1      -8.136   2.263  66.411  1.00  0.00    -0.084 C  
HETATM   29  C   UNL     1      -7.245   4.732  63.717  1.00  0.00    -0.050 A  
HETATM   30  N   UNL     1      -7.004   4.601  62.347  1.00  0.00    -0.030 NA 
HETATM   31  C   UNL     1      -7.485   5.965  64.346  1.00  0.00    -0.077 A  
HETATM   32  H1  UNL     1      -6.824   5.454  61.816  1.00  0.00     0.000 HD 
HETATM   33  C   UNL     1      -7.854   6.000  65.719  1.00  0.00    -0.104 A  
HETATM   34  H2  UNL     1      -7.777   4.094  61.915  1.00  0.00     0.000 HD 
HETATM   35  C   UNL     1      -8.035   7.267  66.331  1.00  0.00    -0.112 A  
HETATM   36  C   UNL     1      -7.909   8.458  65.620  1.00  0.00    -0.106 A  
HETATM   37  C   UNL     1      -7.591   8.418  64.276  1.00  0.00    -0.123 A  
HETATM   38  C   UNL     1      -7.375   7.191  63.651  1.00  0.00    -0.085 A  
ENDBRANCH  24  25
ENDBRANCH  23  24
ENDBRANCH  22  23
ENDBRANCH  21  22
ENDBRANCH  20  21
ENDBRANCH  19  20
ENDBRANCH  18  19
ENDBRANCH  17  18
ENDBRANCH  16  17
ENDBRANCH  15  16
ENDBRANCH  14  15
TORSDOF 11
ENDMDL
MODEL      425
REMARK 921   NORMALIZED FREE ENERGY PREDICTED BY IDOCK:   -3.53 KCAL/MOL
REMARK 922        TOTAL FREE ENERGY PREDICTED BY IDOCK:   -7.15 KCAL/MOL
REMARK 923 INTER-LIGAND FREE ENERGY PREDICTED BY IDOCK:   -5.92 KCAL/MOL
REMARK 924 INTRA-LIGAND FREE ENERGY PREDICTED BY IDOCK:   -1.23 KCAL/MOL
REMARK 927      BINDING AFFINITY PREDICTED BY RF-SCORE:    0.00 PKD
ROOT
HETATM    1  C   UNL     1     -12.145  13.576  70.957  1.00  0.00    -0.233 C  
HETATM    2  C   UNL     1     -11.552  13.277  69.599  1.00  0.00    -0.261 A  
HETATM    3  C   UNL     1     -10.920  14.315  68.925  1.00  0.00    -0.275 A  
HETATM    4  C   UNL     1     -10.338  14.122  67.682  1.00  0.00    -0.241 A  
HETATM    5  N   UNL     1      -9.601  15.180  67.140  1.00  0.00    -0.215 NA 
HETATM    6  C   UNL     1     -10.315  12.818  67.149  1.00  0.00    -0.237 A  
HETATM    7  H2  UNL     1      -8.884  15.467  67.807  1.00  0.00     0.000 HD 
HETATM    8  C   UNL     1      -9.631  12.511  65.950  1.00  0.00    -0.174 A  
HETATM    9  H1  UNL     1      -9.173  15.038  66.226  1.00  0.00     0.000 HD 
HETATM   10  C   UNL     1      -9.621  11.225  65.413  1.00  0.00    -0.261 A  
HETATM   11  C   UNL     1     -10.305  10.209  66.053  1.00  0.00    -0.234 A  
HETATM   12  C   UNL     1     -10.985  10.478  67.244  1.00  0.00    -0.325 A  
HETATM   13  C   UNL     1     -10.983  11.769  67.833  1.00  0.00    -0.221 A  
HETATM   14  N   UNL     1     -11.584  12.027  69.046  1.00  0.00    -0.288 NA 
ENDROOT
BRANCH  14  15
HETATM   15  C   UNL     1     -12.222  10.918  69.808  1.00  0.00    -0.311 C  
BRANCH  15  16
HETATM   16  C   UNL     1     -11.393  10.565  71.041  1.00  0.00    -0.081 C  
BRANCH  16  17
HETATM   17  C   UNL     1     -11.039   9.081  71.076  1.00  0.00    -0.356 C  
BRANCH  17  18
HETATM   18  C   UNL     1      -9.529   8.830  71.137  1.00  0.00    -0.306 C  
BRANCH  18  19
HETATM   19  C   UNL     1      -9.083   8.319  72.504  1.00  0.00    -0.323 C  
BRANCH  19  20
HETATM   20  C   UNL     1      -8.721   6.832  72.504  1.00  0.00    -0.129 C  
BRANCH  20  21
HETATM   21  C   UNL     1      -9.884   5.911  72.112  1.00  0.00    -0.185 C  
BRANCH  21  22
HETATM   22  C   UNL     1      -9.464   4.444  71.977  1.00  0.00    -0.196 C  
BRANCH  22  23
HETATM   23  C   UNL     1      -9.105   4.048  70.540  1.00  0.00    -0.182 C  
BRANCH  23  24
HETATM   24  C   UNL     1      -7.636   4.336  70.229  1.00  0.00    -0.046 C  
BRANCH  24  25
HETATM   25  N   UNL     1      -7.305   3.926  68.840  1.00  0.00    -0.054 NA 
HETATM   26  C   UNL     1      -6.888   2.648  68.580  1.00  0.00    -0.040 A  
HETATM   27  C   UNL     1      -6.649   2.250  67.262  1.00  0.00    -0.039 A  
HETATM   28  C   UNL     1      -6.713   1.564  69.619  1.00  0.00    -0.029 C  
HETATM   29  C   UNL     1      -6.797   3.127  66.199  1.00  0.00    -0.052 A  
HETATM   30  N   UNL     1      -6.677   2.603  64.909  1.00  0.00    -0.038 NA 
HETATM   31  C   UNL     1      -7.285   4.416  66.468  1.00  0.00    -0.079 A  
HETATM   32  H1  UNL     1      -6.786   3.248  64.126  1.00  0.00     0.000 HD 
HETATM   33  C   UNL     1      -7.503   4.825  67.812  1.00  0.00    -0.078 A  
HETATM   34  H2  UNL     1      -7.330   1.827  64.798  1.00  0.00     0.000 HD 
HETATM   35  C   UNL     1      -7.944   6.153  68.045  1.00  0.00    -0.110 A  
HETATM   36  C   UNL     1      -8.214   7.037  67.002  1.00  0.00    -0.117 A  
HETATM   37  C   UNL     1      -8.042   6.622  65.695  1.00  0.00    -0.125 A  
HETATM   38  C   UNL     1      -7.577   5.334  65.433  1.00  0.00    -0.082 A  
ENDBRANCH  24  25
ENDBRANCH  23  24
ENDBRANCH  22  23
ENDBRANCH  21  22
ENDBRANCH  20  21
ENDBRANCH  19  20
ENDBRANCH  18  19
ENDBRANCH  17  18
ENDBRANCH  16  17
ENDBRANCH  15  16
ENDBRANCH  14  15
TORSDOF 11
ENDMDL
MODEL      426
REMARK 921   NORMALIZED FREE ENERGY PREDICTED BY IDOCK:   -3.50 KCAL/MOL
REMARK 922        TOTAL FREE ENERGY PREDICTED BY IDOCK:   -7.10 KCAL/MOL
REMARK 923 INTER-LIGAND FREE ENERGY PREDICTED BY IDOCK:   -4.94 KCAL/MOL
REMARK 924 INTRA-LIGAND FREE ENERGY PREDICTED BY IDOCK:   -2.16 KCAL/MOL
REMARK 927      BINDING AFFINITY PREDICTED BY RF-SCORE:    0.00 PKD
ROOT
HETATM    1  C   UNL     1      -6.387   8.291  74.060  1.00  0.00    -0.138 C  
HETATM    2  C   UNL     1      -6.808   7.119  73.202  1.00  0.00    -0.069 A  
HETATM    3  C   UNL     1      -7.461   6.062  73.824  1.00  0.00    -0.092 A  
HETATM    4  C   UNL     1      -7.893   4.956  73.107  1.00  0.00    -0.097 A  
HETATM    5  N   UNL     1      -8.665   4.007  73.785  1.00  0.00    -0.094 NA 
HETATM    6  C   UNL     1      -7.740   4.965  71.708  1.00  0.00    -0.102 A  
HETATM    7  H2  UNL     1      -9.470   4.468  74.209  1.00  0.00     0.000 HD 
HETATM    8  C   UNL     1      -8.266   3.937  70.891  1.00  0.00    -0.077 A  
HETATM    9  H1  UNL     1      -8.983   3.194  73.258  1.00  0.00     0.000 HD 
HETATM   10  C   UNL     1      -8.101   3.936  69.506  1.00  0.00    -0.062 A  
HETATM   11  C   UNL     1      -7.395   4.957  68.899  1.00  0.00    -0.057 A  
HETATM   12  C   UNL     1      -6.868   5.991  69.677  1.00  0.00    -0.065 A  
HETATM   13  C   UNL     1      -7.051   6.037  71.083  1.00  0.00    -0.073 A  
HETATM   14  N   UNL     1      -6.603   7.091  71.850  1.00  0.00    -0.052 NA 
ENDROOT
BRANCH  14  15
HETATM   15  C   UNL     1      -5.946   8.257  71.197  1.00  0.00    -0.034 C  
BRANCH  15  16
HETATM   16  C   UNL     1      -6.803   9.513  71.349  1.00  0.00     0.135 C  
BRANCH  16  17
HETATM   17  C   UNL     1      -7.687   9.743  70.126  1.00  0.00    -0.188 C  
BRANCH  17  18
HETATM   18  C   UNL     1      -7.013   9.321  68.817  1.00  0.00    -0.061 C  
BRANCH  18  19
HETATM   19  C   UNL     1      -6.370  10.499  68.092  1.00  0.00    -0.058 C  
BRANCH  19  20
HETATM   20  C   UNL     1      -6.728  11.854  68.706  1.00  0.00    -0.088 C  
BRANCH  20  21
HETATM   21  C   UNL     1      -7.483  12.788  67.751  1.00  0.00    -0.135 C  
BRANCH  21  22
HETATM   22  C   UNL     1      -8.687  12.116  67.085  1.00  0.00    -0.190 C  
BRANCH  22  23
HETATM   23  C   UNL     1      -9.918  12.041  67.996  1.00  0.00    -0.197 C  
BRANCH  23  24
HETATM   24  C   UNL     1     -10.747  10.787  67.719  1.00  0.00    -0.251 C  
BRANCH  24  25
HETATM   25  N   UNL     1     -11.002  10.039  68.977  1.00  0.00    -0.225 NA 
HETATM   26  C   UNL     1     -11.312  10.714  70.128  1.00  0.00    -0.323 A  
HETATM   27  C   UNL     1     -11.621  10.000  71.289  1.00  0.00    -0.430 A  
HETATM   28  C   UNL     1     -11.415  12.217  70.252  1.00  0.00     0.062 C  
HETATM   29  C   UNL     1     -11.596   8.615  71.320  1.00  0.00    -0.284 A  
HETATM   30  N   UNL     1     -12.059   7.987  72.480  1.00  0.00    -0.541 NA 
HETATM   31  C   UNL     1     -11.339   7.931  70.120  1.00  0.00    -0.099 A  
HETATM   32  H1  UNL     1     -12.042   6.968  72.503  1.00  0.00     0.000 HD 
HETATM   33  C   UNL     1     -11.001   8.660  68.947  1.00  0.00     0.120 A  
HETATM   34  H2  UNL     1     -13.005   8.312  72.685  1.00  0.00     0.000 HD 
HETATM   35  C   UNL     1     -10.695   7.930  67.770  1.00  0.00    -0.189 A  
HETATM   36  C   UNL     1     -10.766   6.540  67.722  1.00  0.00    -0.368 A  
HETATM   37  C   UNL     1     -11.137   5.837  68.852  1.00  0.00    -0.136 A  
HETATM   38  C   UNL     1     -11.412   6.522  70.034  1.00  0.00    -0.476 A  
ENDBRANCH  24  25
ENDBRANCH  23  24
ENDBRANCH  22  23
ENDBRANCH  21  22
ENDBRANCH  20  21
ENDBRANCH  19  20
ENDBRANCH  18  19
ENDBRANCH  17  18
ENDBRANCH  16  17
ENDBRANCH  15  16
ENDBRANCH  14  15
TORSDOF 11
ENDMDL
MODEL      427
REMARK 921   NORMALIZED FREE ENERGY PREDICTED BY IDOCK:   -3.46 KCAL/MOL
REMARK 922        TOTAL FREE ENERGY PREDICTED BY IDOCK:   -7.04 KCAL/MOL
REMARK 923 INTER-LIGAND FREE ENERGY PREDICTED BY IDOCK:   -7.80 KCAL/MOL
REMARK 924 INTRA-LIGAND FREE ENERGY PREDICTED BY IDOCK:    0.75 KCAL/MOL
REMARK 927      BINDING AFFINITY PREDICTED BY RF-SCORE:    0.00 PKD
ROOT
HETATM    1  C   UNL     1     -10.670  20.063  68.133  1.00  0.00    -0.155 C  
HETATM    2  C   UNL     1      -9.392  19.597  67.473  1.00  0.00    -0.328 A  
HETATM    3  C   UNL     1      -8.736  20.487  66.631  1.00  0.00    -0.165 A  
HETATM    4  C   UNL     1      -7.551  20.144  65.998  1.00  0.00    -0.258 A  
HETATM    5  N   UNL     1      -6.885  21.145  65.284  1.00  0.00    -0.450 NA 
HETATM    6  C   UNL     1      -6.967  18.899  66.301  1.00  0.00    -0.258 A  
HETATM    7  H2  UNL     1      -6.721  21.944  65.897  1.00  0.00     0.000 HD 
HETATM    8  C   UNL     1      -5.698  18.525  65.800  1.00  0.00    -0.222 A  
HETATM    9  H1  UNL     1      -6.013  20.893  64.819  1.00  0.00     0.000 HD 
HETATM   10  C   UNL     1      -5.127  17.286  66.085  1.00  0.00    -0.096 A  
HETATM   11  C   UNL     1      -5.811  16.379  66.871  1.00  0.00     0.007 A  
HETATM   12  C   UNL     1      -7.064  16.720  67.388  1.00  0.00    -0.185 A  
HETATM   13  C   UNL     1      -7.655  17.987  67.144  1.00  0.00    -0.209 A  
HETATM   14  N   UNL     1      -8.853  18.363  67.712  1.00  0.00    -0.274 NA 
ENDROOT
BRANCH  14  15
HETATM   15  C   UNL     1      -9.546  17.445  68.657  1.00  0.00    -0.295 C  
BRANCH  15  16
HETATM   16  C   UNL     1      -9.780  16.081  68.009  1.00  0.00    -0.217 C  
BRANCH  16  17
HETATM   17  C   UNL     1     -11.232  15.907  67.573  1.00  0.00    -0.171 C  
BRANCH  17  18
HETATM   18  C   UNL     1     -12.143  15.436  68.711  1.00  0.00    -0.183 C  
BRANCH  18  19
HETATM   19  C   UNL     1     -11.353  14.899  69.900  1.00  0.00    -0.311 C  
BRANCH  19  20
HETATM   20  C   UNL     1     -11.434  13.377  70.040  1.00  0.00    -0.126 C  
BRANCH  20  21
HETATM   21  C   UNL     1     -12.086  12.677  68.840  1.00  0.00    -0.164 C  
BRANCH  21  22
HETATM   22  C   UNL     1     -11.766  11.181  68.775  1.00  0.00    -0.394 C  
BRANCH  22  23
HETATM   23  C   UNL     1     -11.070  10.657  70.036  1.00  0.00    -0.359 C  
BRANCH  23  24
HETATM   24  C   UNL     1     -12.078  10.306  71.131  1.00  0.00    -0.395 C  
BRANCH  24  25
HETATM   25  N   UNL     1     -11.857   8.921  71.621  1.00  0.00    -0.320 NA 
HETATM   26  C   UNL     1     -12.923   8.089  71.835  1.00  0.00    -0.312 A  
HETATM   27  C   UNL     1     -12.704   6.765  72.226  1.00  0.00    -0.003 A  
HETATM   28  C   UNL     1     -14.373   8.462  71.620  1.00  0.00    -0.536 C  
HETATM   29  C   UNL     1     -11.426   6.271  72.435  1.00  0.00    -0.293 A  
HETATM   30  N   UNL     1     -11.296   4.901  72.682  1.00  0.00    -0.133 NA 
HETATM   31  C   UNL     1     -10.337   7.112  72.153  1.00  0.00    -0.218 A  
HETATM   32  H1  UNL     1     -10.356   4.537  72.835  1.00  0.00     0.000 HD 
HETATM   33  C   UNL     1     -10.565   8.465  71.779  1.00  0.00    -0.282 A  
HETATM   34  H2  UNL     1     -11.741   4.378  71.927  1.00  0.00     0.000 HD 
HETATM   35  C   UNL     1      -9.438   9.297  71.556  1.00  0.00    -0.101 A  
HETATM   36  C   UNL     1      -8.134   8.816  71.643  1.00  0.00    -0.153 A  
HETATM   37  C   UNL     1      -7.917   7.490  71.965  1.00  0.00    -0.103 A  
HETATM   38  C   UNL     1      -9.001   6.653  72.223  1.00  0.00    -0.134 A  
ENDBRANCH  24  25
ENDBRANCH  23  24
ENDBRANCH  22  23
ENDBRANCH  21  22
ENDBRANCH  20  21
ENDBRANCH  19  20
ENDBRANCH  18  19
ENDBRANCH  17  18
ENDBRANCH  16  17
ENDBRANCH  15  16
ENDBRANCH  14  15
TORSDOF 11
ENDMDL
MODEL      428
REMARK 921   NORMALIZED FREE ENERGY PREDICTED BY IDOCK:   -3.44 KCAL/MOL
REMARK 922        TOTAL FREE ENERGY PREDICTED BY IDOCK:   -7.00 KCAL/MOL
REMARK 923 INTER-LIGAND FREE ENERGY PREDICTED BY IDOCK:   -6.21 KCAL/MOL
REMARK 924 INTRA-LIGAND FREE ENERGY PREDICTED BY IDOCK:   -0.79 KCAL/MOL
REMARK 927      BINDING AFFINITY PREDICTED BY RF-SCORE:    0.00 PKD
ROOT
HETATM    1  C   UNL     1     -10.024   6.573  73.381  1.00  0.00    -0.214 C  
HETATM    2  C   UNL     1     -10.767   7.680  72.667  1.00  0.00    -0.321 A  
HETATM    3  C   UNL     1     -12.083   7.923  73.042  1.00  0.00     0.220 A  
HETATM    4  C   UNL     1     -12.830   8.930  72.448  1.00  0.00    -0.380 A  
HETATM    5  N   UNL     1     -14.094   9.198  72.983  1.00  0.00    -1.124 NA 
HETATM    6  C   UNL     1     -12.195   9.771  71.515  1.00  0.00    -0.493 A  
HETATM    7  H2  UNL     1     -14.004   9.390  73.981  1.00  0.00     0.000 HD 
HETATM    8  C   UNL     1     -12.846  10.897  70.959  1.00  0.00    -0.472 A  
HETATM    9  H1  UNL     1     -14.643   9.938  72.546  1.00  0.00     0.000 HD 
HETATM   10  C   UNL     1     -12.225  11.722  70.022  1.00  0.00    -0.317 A  
HETATM   11  C   UNL     1     -10.938  11.439  69.605  1.00  0.00    -0.174 A  
HETATM   12  C   UNL     1     -10.265  10.338  70.140  1.00  0.00    -0.150 A  
HETATM   13  C   UNL     1     -10.859   9.501  71.120  1.00  0.00    -0.355 A  
HETATM   14  N   UNL     1     -10.177   8.460  71.712  1.00  0.00    -0.228 NA 
ENDROOT
BRANCH  14  15
HETATM   15  C   UNL     1      -8.750   8.215  71.362  1.00  0.00    -0.145 C  
BRANCH  15  16
HETATM   16  C   UNL     1      -8.627   7.033  70.401  1.00  0.00    -0.142 C  
BRANCH  16  17
HETATM   17  C   UNL     1      -9.460   7.244  69.140  1.00  0.00    -0.148 C  
BRANCH  17  18
HETATM   18  C   UNL     1     -10.414   6.080  68.855  1.00  0.00    -0.309 C  
BRANCH  18  19
HETATM   19  C   UNL     1      -9.914   5.186  67.725  1.00  0.00    -0.202 C  
BRANCH  19  20
HETATM   20  C   UNL     1      -9.693   3.735  68.156  1.00  0.00    -0.113 C  
BRANCH  20  21
HETATM   21  C   UNL     1      -8.956   3.590  69.494  1.00  0.00    -0.178 C  
BRANCH  21  22
HETATM   22  C   UNL     1      -7.477   3.229  69.325  1.00  0.00    -0.048 C  
BRANCH  22  23
HETATM   23  C   UNL     1      -7.131   2.747  67.912  1.00  0.00    -0.049 C  
BRANCH  23  24
HETATM   24  C   UNL     1      -6.196   3.723  67.197  1.00  0.00    -0.036 C  
BRANCH  24  25
HETATM   25  N   UNL     1      -6.949   4.547  66.217  1.00  0.00    -0.061 NA 
HETATM   26  C   UNL     1      -7.188   5.871  66.470  1.00  0.00    -0.074 A  
HETATM   27  C   UNL     1      -7.833   6.656  65.510  1.00  0.00    -0.108 A  
HETATM   28  C   UNL     1      -6.748   6.610  67.713  1.00  0.00    -0.071 C  
HETATM   29  C   UNL     1      -8.268   6.123  64.307  1.00  0.00    -0.044 A  
HETATM   30  N   UNL     1      -8.771   7.011  63.352  1.00  0.00    -0.044 NA 
HETATM   31  C   UNL     1      -7.963   4.780  64.030  1.00  0.00    -0.102 A  
HETATM   32  H1  UNL     1      -9.091   6.620  62.467  1.00  0.00     0.000 HD 
HETATM   33  C   UNL     1      -7.329   3.979  65.018  1.00  0.00    -0.072 A  
HETATM   34  H2  UNL     1      -8.077   7.737  63.168  1.00  0.00     0.000 HD 
HETATM   35  C   UNL     1      -7.088   2.613  64.719  1.00  0.00    -0.050 A  
HETATM   36  C   UNL     1      -7.406   2.059  63.482  1.00  0.00    -0.052 A  
HETATM   37  C   UNL     1      -7.983   2.852  62.508  1.00  0.00    -0.071 A  
HETATM   38  C   UNL     1      -8.264   4.189  62.781  1.00  0.00    -0.082 A  
ENDBRANCH  24  25
ENDBRANCH  23  24
ENDBRANCH  22  23
ENDBRANCH  21  22
ENDBRANCH  20  21
ENDBRANCH  19  20
ENDBRANCH  18  19
ENDBRANCH  17  18
ENDBRANCH  16  17
ENDBRANCH  15  16
ENDBRANCH  14  15
TORSDOF 11
ENDMDL
MODEL      429
REMARK 921   NORMALIZED FREE ENERGY PREDICTED BY IDOCK:   -3.43 KCAL/MOL
REMARK 922        TOTAL FREE ENERGY PREDICTED BY IDOCK:   -6.99 KCAL/MOL
REMARK 923 INTER-LIGAND FREE ENERGY PREDICTED BY IDOCK:   -6.56 KCAL/MOL
REMARK 924 INTRA-LIGAND FREE ENERGY PREDICTED BY IDOCK:   -0.43 KCAL/MOL
REMARK 927      BINDING AFFINITY PREDICTED BY RF-SCORE:    0.00 PKD
ROOT
HETATM    1  C   UNL     1      -9.765   8.123  72.139  1.00  0.00    -0.311 C  
HETATM    2  C   UNL     1      -9.627   6.623  72.010  1.00  0.00    -0.148 A  
HETATM    3  C   UNL     1     -10.111   5.836  73.047  1.00  0.00    -0.198 A  
HETATM    4  C   UNL     1     -10.037   4.452  73.001  1.00  0.00    -0.155 A  
HETATM    5  N   UNL     1     -10.675   3.736  74.020  1.00  0.00    -0.215 NA 
HETATM    6  C   UNL     1      -9.544   3.848  71.830  1.00  0.00    -0.227 A  
HETATM    7  H2  UNL     1     -11.654   4.019  74.069  1.00  0.00     0.000 HD 
HETATM    8  C   UNL     1      -9.553   2.445  71.649  1.00  0.00    -0.213 A  
HETATM    9  H1  UNL     1     -10.621   2.718  73.985  1.00  0.00     0.000 HD 
HETATM   10  C   UNL     1      -9.050   1.844  70.497  1.00  0.00    -0.152 A  
HETATM   11  C   UNL     1      -8.511   2.627  69.494  1.00  0.00    -0.101 A  
HETATM   12  C   UNL     1      -8.492   4.017  69.638  1.00  0.00    -0.088 A  
HETATM   13  C   UNL     1      -9.030   4.658  70.784  1.00  0.00    -0.122 A  
HETATM   14  N   UNL     1      -9.088   6.030  70.901  1.00  0.00    -0.152 NA 
ENDROOT
BRANCH  14  15
HETATM   15  C   UNL     1      -8.622   6.891  69.779  1.00  0.00    -0.141 C  
BRANCH  15  16
HETATM   16  C   UNL     1      -7.134   7.204  69.922  1.00  0.00    -0.073 C  
BRANCH  16  17
HETATM   17  C   UNL     1      -6.850   8.691  69.728  1.00  0.00    -0.042 C  
BRANCH  17  18
HETATM   18  C   UNL     1      -6.254   9.009  68.354  1.00  0.00    -0.054 C  
BRANCH  18  19
HETATM   19  C   UNL     1      -7.303   9.525  67.374  1.00  0.00    -0.087 C  
BRANCH  19  20
HETATM   20  C   UNL     1      -7.091  10.987  66.976  1.00  0.00    -0.118 C  
BRANCH  20  21
HETATM   21  C   UNL     1      -8.394  11.757  66.725  1.00  0.00    -0.165 C  
BRANCH  21  22
HETATM   22  C   UNL     1      -8.272  13.253  67.029  1.00  0.00    -0.058 C  
BRANCH  22  23
HETATM   23  C   UNL     1      -9.363  13.769  67.975  1.00  0.00    -0.199 C  
BRANCH  23  24
HETATM   24  C   UNL     1      -8.796  14.737  69.013  1.00  0.00    -0.136 C  
BRANCH  24  25
HETATM   25  N   UNL     1      -9.038  16.144  68.604  1.00  0.00    -0.207 NA 
HETATM   26  C   UNL     1     -10.308  16.568  68.315  1.00  0.00    -0.293 A  
HETATM   27  C   UNL     1     -10.537  17.911  68.002  1.00  0.00    -0.366 A  
HETATM   28  C   UNL     1     -11.545  15.701  68.364  1.00  0.00    -0.358 C  
HETATM   29  C   UNL     1      -9.503  18.832  67.947  1.00  0.00    -0.304 A  
HETATM   30  N   UNL     1      -9.845  20.176  67.769  1.00  0.00    -0.398 NA 
HETATM   31  C   UNL     1      -8.215  18.403  68.306  1.00  0.00    -0.317 A  
HETATM   32  H1  UNL     1      -9.085  20.854  67.729  1.00  0.00     0.000 HD 
HETATM   33  C   UNL     1      -7.981  17.031  68.599  1.00  0.00    -0.258 A  
HETATM   34  H2  UNL     1     -10.507  20.454  68.494  1.00  0.00     0.000 HD 
HETATM   35  C   UNL     1      -6.656  16.628  68.904  1.00  0.00    -0.178 A  
HETATM   36  C   UNL     1      -5.603  17.537  68.971  1.00  0.00    -0.180 A  
HETATM   37  C   UNL     1      -5.842  18.876  68.727  1.00  0.00    -0.221 A  
HETATM   38  C   UNL     1      -7.126  19.301  68.392  1.00  0.00    -0.328 A  
ENDBRANCH  24  25
ENDBRANCH  23  24
ENDBRANCH  22  23
ENDBRANCH  21  22
ENDBRANCH  20  21
ENDBRANCH  19  20
ENDBRANCH  18  19
ENDBRANCH  17  18
ENDBRANCH  16  17
ENDBRANCH  15  16
ENDBRANCH  14  15
TORSDOF 11
ENDMDL
MODEL      430
REMARK 921   NORMALIZED FREE ENERGY PREDICTED BY IDOCK:   -3.42 KCAL/MOL
REMARK 922        TOTAL FREE ENERGY PREDICTED BY IDOCK:   -6.98 KCAL/MOL
REMARK 923 INTER-LIGAND FREE ENERGY PREDICTED BY IDOCK:   -6.96 KCAL/MOL
REMARK 924 INTRA-LIGAND FREE ENERGY PREDICTED BY IDOCK:   -0.02 KCAL/MOL
REMARK 927      BINDING AFFINITY PREDICTED BY RF-SCORE:    0.00 PKD
ROOT
HETATM    1  C   UNL     1     -12.654  15.545  64.574  1.00  0.00     0.297 C  
HETATM    2  C   UNL     1     -12.001  14.185  64.672  1.00  0.00    -0.445 A  
HETATM    3  C   UNL     1     -12.406  13.205  63.775  1.00  0.00    -0.459 A  
HETATM    4  C   UNL     1     -11.848  11.935  63.788  1.00  0.00    -0.458 A  
HETATM    5  N   UNL     1     -12.211  11.058  62.761  1.00  0.00    -0.056 NA 
HETATM    6  C   UNL     1     -10.784  11.683  64.675  1.00  0.00    -0.371 A  
HETATM    7  H2  UNL     1     -12.025  11.498  61.860  1.00  0.00     0.000 HD 
HETATM    8  C   UNL     1     -10.075  10.459  64.664  1.00  0.00    -0.378 A  
HETATM    9  H1  UNL     1     -11.800  10.125  62.771  1.00  0.00     0.000 HD 
HETATM   10  C   UNL     1      -9.032  10.201  65.552  1.00  0.00    -0.202 A  
HETATM   11  C   UNL     1      -8.674  11.155  66.485  1.00  0.00    -0.174 A  
HETATM   12  C   UNL     1      -9.350  12.377  66.518  1.00  0.00    -0.233 A  
HETATM   13  C   UNL     1     -10.391  12.682  65.604  1.00  0.00    -0.273 A  
HETATM   14  N   UNL     1     -11.011  13.912  65.576  1.00  0.00    -0.295 NA 
ENDROOT
BRANCH  14  15
HETATM   15  C   UNL     1     -10.556  14.993  66.494  1.00  0.00    -0.305 C  
BRANCH  15  16
HETATM   16  C   UNL     1      -9.702  16.013  65.745  1.00  0.00    -0.340 C  
BRANCH  16  17
HETATM   17  C   UNL     1      -9.361  17.215  66.621  1.00  0.00    -0.277 C  
BRANCH  17  18
HETATM   18  C   UNL     1     -10.574  17.762  67.379  1.00  0.00    -0.341 C  
BRANCH  18  19
HETATM   19  C   UNL     1     -10.383  19.214  67.806  1.00  0.00    -0.513 C  
BRANCH  19  20
HETATM   20  C   UNL     1      -9.380  19.380  68.950  1.00  0.00    -0.417 C  
BRANCH  20  21
HETATM   21  C   UNL     1      -8.110  20.144  68.556  1.00  0.00     0.001 C  
BRANCH  21  22
HETATM   22  C   UNL     1      -6.837  19.537  69.154  1.00  0.00    -0.381 C  
BRANCH  22  23
HETATM   23  C   UNL     1      -6.564  18.108  68.670  1.00  0.00    -0.233 C  
BRANCH  23  24
HETATM   24  C   UNL     1      -6.159  17.190  69.824  1.00  0.00    -0.229 C  
BRANCH  24  25
HETATM   25  N   UNL     1      -6.064  15.781  69.364  1.00  0.00    -0.130 NA 
HETATM   26  C   UNL     1      -6.138  15.487  68.028  1.00  0.00    -0.138 A  
HETATM   27  C   UNL     1      -5.975  14.167  67.598  1.00  0.00    -0.044 A  
HETATM   28  C   UNL     1      -6.326  16.502  66.924  1.00  0.00    -0.166 C  
HETATM   29  C   UNL     1      -5.765  13.131  68.494  1.00  0.00    -0.078 A  
HETATM   30  N   UNL     1      -5.469  11.871  67.965  1.00  0.00    -0.046 NA 
HETATM   31  C   UNL     1      -5.628  13.450  69.855  1.00  0.00    -0.110 A  
HETATM   32  H1  UNL     1      -5.314  11.108  68.624  1.00  0.00     0.000 HD 
HETATM   33  C   UNL     1      -5.820  14.790  70.291  1.00  0.00    -0.151 A  
HETATM   34  H2  UNL     1      -4.664  11.947  67.343  1.00  0.00     0.000 HD 
HETATM   35  C   UNL     1      -5.726  15.061  71.680  1.00  0.00     0.244 A  
HETATM   36  C   UNL     1      -5.407  14.073  72.608  1.00  0.00    -0.212 A  
HETATM   37  C   UNL     1      -5.179  12.780  72.175  1.00  0.00     0.116 A  
HETATM   38  C   UNL     1      -5.295  12.473  70.821  1.00  0.00    -0.167 A  
ENDBRANCH  24  25
ENDBRANCH  23  24
ENDBRANCH  22  23
ENDBRANCH  21  22
ENDBRANCH  20  21
ENDBRANCH  19  20
ENDBRANCH  18  19
ENDBRANCH  17  18
ENDBRANCH  16  17
ENDBRANCH  15  16
ENDBRANCH  14  15
TORSDOF 11
ENDMDL
MODEL      431
REMARK 921   NORMALIZED FREE ENERGY PREDICTED BY IDOCK:   -3.42 KCAL/MOL
REMARK 922        TOTAL FREE ENERGY PREDICTED BY IDOCK:   -6.97 KCAL/MOL
REMARK 923 INTER-LIGAND FREE ENERGY PREDICTED BY IDOCK:   -5.85 KCAL/MOL
REMARK 924 INTRA-LIGAND FREE ENERGY PREDICTED BY IDOCK:   -1.11 KCAL/MOL
REMARK 927      BINDING AFFINITY PREDICTED BY RF-SCORE:    0.00 PKD
ROOT
HETATM    1  C   UNL     1      -5.466   4.874  65.991  1.00  0.00    -0.013 C  
HETATM    2  C   UNL     1      -6.390   4.178  65.018  1.00  0.00    -0.034 A  
HETATM    3  C   UNL     1      -5.832   3.260  64.137  1.00  0.00    -0.014 A  
HETATM    4  C   UNL     1      -6.612   2.567  63.224  1.00  0.00    -0.026 A  
HETATM    5  N   UNL     1      -5.992   1.561  62.475  1.00  0.00    -0.007 NA 
HETATM    6  C   UNL     1      -8.008   2.742  63.268  1.00  0.00    -0.069 A  
HETATM    7  H2  UNL     1      -5.545   0.897  63.107  1.00  0.00     0.000 HD 
HETATM    8  C   UNL     1      -8.885   1.980  62.461  1.00  0.00    -0.073 A  
HETATM    9  H1  UNL     1      -6.566   1.052  61.803  1.00  0.00     0.000 HD 
HETATM   10  C   UNL     1     -10.266   2.164  62.491  1.00  0.00    -0.098 A  
HETATM   11  C   UNL     1     -10.812   3.123  63.323  1.00  0.00    -0.202 A  
HETATM   12  C   UNL     1      -9.975   3.888  64.139  1.00  0.00    -0.194 A  
HETATM   13  C   UNL     1      -8.569   3.699  64.155  1.00  0.00    -0.090 A  
HETATM   14  N   UNL     1      -7.741   4.392  65.012  1.00  0.00    -0.081 NA 
ENDROOT
BRANCH  14  15
HETATM   15  C   UNL     1      -8.325   5.342  65.999  1.00  0.00    -0.120 C  
BRANCH  15  16
HETATM   16  C   UNL     1      -8.627   6.686  65.339  1.00  0.00    -0.065 C  
BRANCH  16  17
HETATM   17  C   UNL     1      -7.731   7.795  65.885  1.00  0.00    -0.094 C  
BRANCH  17  18
HETATM   18  C   UNL     1      -6.661   8.243  64.886  1.00  0.00    -0.063 C  
BRANCH  18  19
HETATM   19  C   UNL     1      -7.117   9.430  64.043  1.00  0.00    -0.102 C  
BRANCH  19  20
HETATM   20  C   UNL     1      -8.626   9.441  63.783  1.00  0.00    -0.224 C  
BRANCH  20  21
HETATM   21  C   UNL     1      -9.312  10.758  64.168  1.00  0.00    -0.286 C  
BRANCH  21  22
HETATM   22  C   UNL     1     -10.656  10.548  64.871  1.00  0.00    -0.099 C  
BRANCH  22  23
HETATM   23  C   UNL     1     -10.888  11.519  66.035  1.00  0.00    -0.330 C  
BRANCH  23  24
HETATM   24  C   UNL     1      -9.939  11.237  67.200  1.00  0.00    -0.192 C  
BRANCH  24  25
HETATM   25  N   UNL     1     -10.670  11.281  68.492  1.00  0.00    -0.189 NA 
HETATM   26  C   UNL     1     -11.173  12.467  68.959  1.00  0.00    -0.266 A  
HETATM   27  C   UNL     1     -11.921  12.487  70.138  1.00  0.00    -0.377 A  
HETATM   28  C   UNL     1     -11.042  13.800  68.259  1.00  0.00    -0.279 C  
HETATM   29  C   UNL     1     -12.150  11.336  70.875  1.00  0.00    -0.301 A  
HETATM   30  N   UNL     1     -13.028  11.427  71.959  1.00  0.00    -0.387 NA 
HETATM   31  C   UNL     1     -11.685  10.116  70.357  1.00  0.00    -0.390 A  
HETATM   32  H1  UNL     1     -13.197  10.580  72.501  1.00  0.00     0.000 HD 
HETATM   33  C   UNL     1     -10.902  10.102  69.170  1.00  0.00    -0.226 A  
HETATM   34  H2  UNL     1     -13.920  11.806  71.639  1.00  0.00     0.000 HD 
HETATM   35  C   UNL     1     -10.406   8.856  68.709  1.00  0.00    -0.232 A  
HETATM   36  C   UNL     1     -10.703   7.657  69.354  1.00  0.00    -0.188 A  
HETATM   37  C   UNL     1     -11.499   7.670  70.483  1.00  0.00    -0.236 A  
HETATM   38  C   UNL     1     -11.976   8.881  70.981  1.00  0.00    -0.307 A  
ENDBRANCH  24  25
ENDBRANCH  23  24
ENDBRANCH  22  23
ENDBRANCH  21  22
ENDBRANCH  20  21
ENDBRANCH  19  20
ENDBRANCH  18  19
ENDBRANCH  17  18
ENDBRANCH  16  17
ENDBRANCH  15  16
ENDBRANCH  14  15
TORSDOF 11
ENDMDL
MODEL      432
REMARK 921   NORMALIZED FREE ENERGY PREDICTED BY IDOCK:   -3.37 KCAL/MOL
REMARK 922        TOTAL FREE ENERGY PREDICTED BY IDOCK:   -6.89 KCAL/MOL
REMARK 923 INTER-LIGAND FREE ENERGY PREDICTED BY IDOCK:   -5.97 KCAL/MOL
REMARK 924 INTRA-LIGAND FREE ENERGY PREDICTED BY IDOCK:   -0.93 KCAL/MOL
REMARK 927      BINDING AFFINITY PREDICTED BY RF-SCORE:    0.00 PKD
ROOT
HETATM    1  C   UNL     1      -9.266   9.639  69.841  1.00  0.00    -0.255 C  
HETATM    2  C   UNL     1      -8.702   9.059  68.564  1.00  0.00    -0.133 A  
HETATM    3  C   UNL     1      -8.572   7.679  68.480  1.00  0.00    -0.129 A  
HETATM    4  C   UNL     1      -8.077   7.065  67.339  1.00  0.00    -0.116 A  
HETATM    5  N   UNL     1      -8.115   5.668  67.287  1.00  0.00    -0.102 NA 
HETATM    6  C   UNL     1      -7.793   7.869  66.219  1.00  0.00    -0.094 A  
HETATM    7  H2  UNL     1      -9.070   5.350  67.452  1.00  0.00     0.000 HD 
HETATM    8  C   UNL     1      -7.407   7.313  64.977  1.00  0.00    -0.079 A  
HETATM    9  H1  UNL     1      -7.751   5.218  66.448  1.00  0.00     0.000 HD 
HETATM   10  C   UNL     1      -7.109   8.107  63.871  1.00  0.00    -0.084 A  
HETATM   11  C   UNL     1      -7.177   9.483  63.977  1.00  0.00    -0.111 A  
HETATM   12  C   UNL     1      -7.562  10.065  65.188  1.00  0.00    -0.138 A  
HETATM   13  C   UNL     1      -7.905   9.281  66.319  1.00  0.00    -0.103 A  
HETATM   14  N   UNL     1      -8.361   9.840  67.493  1.00  0.00    -0.114 NA 
ENDROOT
BRANCH  14  15
HETATM   15  C   UNL     1      -8.555  11.314  67.586  1.00  0.00    -0.124 C  
BRANCH  15  16
HETATM   16  C   UNL     1      -9.481  11.806  66.475  1.00  0.00    -0.225 C  
BRANCH  16  17
HETATM   17  C   UNL     1     -10.951  11.637  66.852  1.00  0.00    -0.342 C  
BRANCH  17  18
HETATM   18  C   UNL     1     -11.906  12.149  65.769  1.00  0.00    -0.342 C  
BRANCH  18  19
HETATM   19  C   UNL     1     -12.417  13.555  66.068  1.00  0.00    -0.456 C  
BRANCH  19  20
HETATM   20  C   UNL     1     -12.011  14.582  65.008  1.00  0.00    -0.399 C  
BRANCH  20  21
HETATM   21  C   UNL     1     -10.606  15.164  65.214  1.00  0.00    -0.432 C  
BRANCH  21  22
HETATM   22  C   UNL     1     -10.510  16.643  64.831  1.00  0.00     0.168 C  
BRANCH  22  23
HETATM   23  C   UNL     1     -10.985  17.587  65.943  1.00  0.00     0.198 C  
BRANCH  23  24
HETATM   24  C   UNL     1      -9.808  18.184  66.715  1.00  0.00    -0.337 C  
BRANCH  24  25
HETATM   25  N   UNL     1      -9.114  17.135  67.505  1.00  0.00    -0.224 NA 
HETATM   26  C   UNL     1      -7.746  17.058  67.495  1.00  0.00    -0.170 A  
HETATM   27  C   UNL     1      -7.098  16.116  68.297  1.00  0.00    -0.130 A  
HETATM   28  C   UNL     1      -6.831  17.973  66.712  1.00  0.00    -0.228 C  
HETATM   29  C   UNL     1      -7.805  15.227  69.092  1.00  0.00    -0.204 A  
HETATM   30  N   UNL     1      -7.072  14.421  69.967  1.00  0.00    -0.393 NA 
HETATM   31  C   UNL     1      -9.203  15.355  69.144  1.00  0.00    -0.242 A  
HETATM   32  H1  UNL     1      -7.592  13.767  70.552  1.00  0.00     0.000 HD 
HETATM   33  C   UNL     1      -9.860  16.298  68.308  1.00  0.00    -0.227 A  
HETATM   34  H2  UNL     1      -6.487  15.011  70.559  1.00  0.00     0.000 HD 
HETATM   35  C   UNL     1     -11.277  16.358  68.351  1.00  0.00    -0.324 A  
HETATM   36  C   UNL     1     -12.026  15.563  69.216  1.00  0.00    -0.338 A  
HETATM   37  C   UNL     1     -11.380  14.678  70.058  1.00  0.00    -0.288 A  
HETATM   38  C   UNL     1      -9.991  14.570  70.017  1.00  0.00     0.549 A  
ENDBRANCH  24  25
ENDBRANCH  23  24
ENDBRANCH  22  23
ENDBRANCH  21  22
ENDBRANCH  20  21
ENDBRANCH  19  20
ENDBRANCH  18  19
ENDBRANCH  17  18
ENDBRANCH  16  17
ENDBRANCH  15  16
ENDBRANCH  14  15
TORSDOF 11
ENDMDL
MODEL      433
REMARK 921   NORMALIZED FREE ENERGY PREDICTED BY IDOCK:   -3.32 KCAL/MOL
REMARK 922        TOTAL FREE ENERGY PREDICTED BY IDOCK:   -6.81 KCAL/MOL
REMARK 923 INTER-LIGAND FREE ENERGY PREDICTED BY IDOCK:   -6.06 KCAL/MOL
REMARK 924 INTRA-LIGAND FREE ENERGY PREDICTED BY IDOCK:   -0.75 KCAL/MOL
REMARK 927      BINDING AFFINITY PREDICTED BY RF-SCORE:    0.00 PKD
ROOT
HETATM    1  C   UNL     1     -11.848  14.171  65.774  1.00  0.00    -0.385 C  
HETATM    2  C   UNL     1     -10.747  14.932  66.478  1.00  0.00    -0.309 A  
HETATM    3  C   UNL     1     -11.028  16.220  66.918  1.00  0.00    -0.059 A  
HETATM    4  C   UNL     1     -10.080  16.980  67.586  1.00  0.00    -0.298 A  
HETATM    5  N   UNL     1     -10.491  18.207  68.118  1.00  0.00    -0.372 NA 
HETATM    6  C   UNL     1      -8.843  16.383  67.896  1.00  0.00    -0.184 A  
HETATM    7  H2  UNL     1     -11.293  18.057  68.730  1.00  0.00     0.000 HD 
HETATM    8  C   UNL     1      -7.870  17.042  68.684  1.00  0.00    -0.257 A  
HETATM    9  H1  UNL     1      -9.793  18.765  68.608  1.00  0.00     0.000 HD 
HETATM   10  C   UNL     1      -6.639  16.460  68.978  1.00  0.00    -0.181 A  
HETATM   11  C   UNL     1      -6.338  15.205  68.485  1.00  0.00    -0.092 A  
HETATM   12  C   UNL     1      -7.280  14.523  67.709  1.00  0.00    -0.192 A  
HETATM   13  C   UNL     1      -8.555  15.076  67.423  1.00  0.00    -0.192 A  
HETATM   14  N   UNL     1      -9.520  14.382  66.726  1.00  0.00    -0.256 NA 
ENDROOT
BRANCH  14  15
HETATM   15  C   UNL     1      -9.257  12.982  66.290  1.00  0.00    -0.065 C  
BRANCH  15  16
HETATM   16  C   UNL     1      -9.379  12.019  67.469  1.00  0.00    -0.179 C  
BRANCH  16  17
HETATM   17  C   UNL     1      -9.932  10.665  67.035  1.00  0.00    -0.243 C  
BRANCH  17  18
HETATM   18  C   UNL     1     -11.033  10.145  67.964  1.00  0.00    -0.326 C  
BRANCH  18  19
HETATM   19  C   UNL     1     -11.327  11.111  69.108  1.00  0.00    -0.340 C  
BRANCH  19  20
HETATM   20  C   UNL     1     -12.526  10.689  69.961  1.00  0.00    -0.294 C  
BRANCH  20  21
HETATM   21  C   UNL     1     -12.191  10.488  71.445  1.00  0.00    -0.429 C  
BRANCH  21  22
HETATM   22  C   UNL     1     -12.551   9.090  71.955  1.00  0.00    -0.452 C  
BRANCH  22  23
HETATM   23  C   UNL     1     -11.329   8.270  72.384  1.00  0.00    -0.457 C  
BRANCH  23  24
HETATM   24  C   UNL     1     -10.764   7.453  71.222  1.00  0.00    -0.221 C  
BRANCH  24  25
HETATM   25  N   UNL     1      -9.411   6.937  71.553  1.00  0.00    -0.155 NA 
HETATM   26  C   UNL     1      -8.426   7.799  71.959  1.00  0.00    -0.116 A  
HETATM   27  C   UNL     1      -7.178   7.298  72.339  1.00  0.00    -0.071 A  
HETATM   28  C   UNL     1      -8.587   9.296  72.099  1.00  0.00     0.815 C  
HETATM   29  C   UNL     1      -6.893   5.943  72.291  1.00  0.00    -0.073 A  
HETATM   30  N   UNL     1      -5.672   5.521  72.826  1.00  0.00    -0.023 NA 
HETATM   31  C   UNL     1      -7.927   5.061  71.934  1.00  0.00    -0.111 A  
HETATM   32  H1  UNL     1      -5.462   4.524  72.791  1.00  0.00     0.000 HD 
HETATM   33  C   UNL     1      -9.188   5.576  71.525  1.00  0.00    -0.146 A  
HETATM   34  H2  UNL     1      -5.595   5.848  73.789  1.00  0.00     0.000 HD 
HETATM   35  C   UNL     1     -10.188   4.655  71.121  1.00  0.00    -0.199 A  
HETATM   36  C   UNL     1      -9.986   3.278  71.162  1.00  0.00    -0.027 A  
HETATM   37  C   UNL     1      -8.774   2.780  71.602  1.00  0.00    -0.113 A  
HETATM   38  C   UNL     1      -7.759   3.658  71.975  1.00  0.00    -0.059 A  
ENDBRANCH  24  25
ENDBRANCH  23  24
ENDBRANCH  22  23
ENDBRANCH  21  22
ENDBRANCH  20  21
ENDBRANCH  19  20
ENDBRANCH  18  19
ENDBRANCH  17  18
ENDBRANCH  16  17
ENDBRANCH  15  16
ENDBRANCH  14  15
TORSDOF 11
ENDMDL
MODEL      434
REMARK 921   NORMALIZED FREE ENERGY PREDICTED BY IDOCK:   -3.32 KCAL/MOL
REMARK 922        TOTAL FREE ENERGY PREDICTED BY IDOCK:   -6.81 KCAL/MOL
REMARK 923 INTER-LIGAND FREE ENERGY PREDICTED BY IDOCK:   -5.15 KCAL/MOL
REMARK 924 INTRA-LIGAND FREE ENERGY PREDICTED BY IDOCK:   -1.65 KCAL/MOL
REMARK 927      BINDING AFFINITY PREDICTED BY RF-SCORE:    0.00 PKD
ROOT
HETATM    1  C   UNL     1      -7.852  16.914  65.852  1.00  0.00     0.101 C  
HETATM    2  C   UNL     1      -8.572  16.210  66.980  1.00  0.00    -0.205 A  
HETATM    3  C   UNL     1      -7.803  15.518  67.907  1.00  0.00    -0.142 A  
HETATM    4  C   UNL     1      -8.384  14.857  68.980  1.00  0.00    -0.175 A  
HETATM    5  N   UNL     1      -7.529  14.308  69.941  1.00  0.00    -0.355 NA 
HETATM    6  C   UNL     1      -9.773  14.981  69.168  1.00  0.00    -0.212 A  
HETATM    7  H2  UNL     1      -6.904  15.035  70.291  1.00  0.00     0.000 HD 
HETATM    8  C   UNL     1     -10.425  14.448  70.304  1.00  0.00     0.542 A  
HETATM    9  H1  UNL     1      -7.956  13.823  70.730  1.00  0.00     0.000 HD 
HETATM   10  C   UNL     1     -11.803  14.555  70.484  1.00  0.00    -0.372 A  
HETATM   11  C   UNL     1     -12.573  15.189  69.528  1.00  0.00    -0.024 A  
HETATM   12  C   UNL     1     -11.959  15.733  68.396  1.00  0.00    -0.039 A  
HETATM   13  C   UNL     1     -10.554  15.670  68.204  1.00  0.00    -0.274 A  
HETATM   14  N   UNL     1      -9.930  16.271  67.132  1.00  0.00    -0.251 NA 
ENDROOT
BRANCH  14  15
HETATM   15  C   UNL     1     -10.730  17.061  66.155  1.00  0.00    -0.099 C  
BRANCH  15  16
HETATM   16  C   UNL     1     -10.887  16.295  64.844  1.00  0.00    -0.315 C  
BRANCH  16  17
HETATM   17  C   UNL     1     -11.898  15.158  64.974  1.00  0.00    -0.180 C  
BRANCH  17  18
HETATM   18  C   UNL     1     -11.334  13.806  64.528  1.00  0.00    -0.393 C  
BRANCH  18  19
HETATM   19  C   UNL     1     -11.519  12.724  65.588  1.00  0.00    -0.379 C  
BRANCH  19  20
HETATM   20  C   UNL     1     -10.202  12.093  66.043  1.00  0.00    -0.265 C  
BRANCH  20  21
HETATM   21  C   UNL     1      -9.902  10.740  65.383  1.00  0.00    -0.317 C  
BRANCH  21  22
HETATM   22  C   UNL     1     -10.242   9.548  66.283  1.00  0.00    -0.290 C  
BRANCH  22  23
HETATM   23  C   UNL     1      -9.234   8.399  66.170  1.00  0.00    -0.263 C  
BRANCH  23  24
HETATM   24  C   UNL     1      -7.846   8.818  66.655  1.00  0.00    -0.100 C  
BRANCH  24  25
HETATM   25  N   UNL     1      -7.700   8.560  68.111  1.00  0.00    -0.101 NA 
HETATM   26  C   UNL     1      -7.779   9.595  69.004  1.00  0.00    -0.078 A  
HETATM   27  C   UNL     1      -7.714   9.335  70.375  1.00  0.00    -0.150 A  
HETATM   28  C   UNL     1      -8.000  11.045  68.636  1.00  0.00    -0.143 C  
HETATM   29  C   UNL     1      -7.542   8.049  70.865  1.00  0.00    -0.078 A  
HETATM   30  N   UNL     1      -7.634   7.868  72.248  1.00  0.00    -0.091 NA 
HETATM   31  C   UNL     1      -7.525   6.988  69.945  1.00  0.00    -0.090 A  
HETATM   32  H1  UNL     1      -7.508   6.922  72.608  1.00  0.00     0.000 HD 
HETATM   33  C   UNL     1      -7.567   7.259  68.550  1.00  0.00    -0.118 A  
HETATM   34  H2  UNL     1      -8.525   8.238  72.578  1.00  0.00     0.000 HD 
HETATM   35  C   UNL     1      -7.493   6.163  67.652  1.00  0.00    -0.088 A  
HETATM   36  C   UNL     1      -7.432   4.845  68.097  1.00  0.00    -0.074 A  
HETATM   37  C   UNL     1      -7.435   4.583  69.454  1.00  0.00    -0.055 A  
HETATM   38  C   UNL     1      -7.474   5.639  70.363  1.00  0.00    -0.080 A  
ENDBRANCH  24  25
ENDBRANCH  23  24
ENDBRANCH  22  23
ENDBRANCH  21  22
ENDBRANCH  20  21
ENDBRANCH  19  20
ENDBRANCH  18  19
ENDBRANCH  17  18
ENDBRANCH  16  17
ENDBRANCH  15  16
ENDBRANCH  14  15
TORSDOF 11
ENDMDL
MODEL      435
REMARK 921   NORMALIZED FREE ENERGY PREDICTED BY IDOCK:   -3.16 KCAL/MOL
REMARK 922        TOTAL FREE ENERGY PREDICTED BY IDOCK:   -6.55 KCAL/MOL
REMARK 923 INTER-LIGAND FREE ENERGY PREDICTED BY IDOCK:   -6.63 KCAL/MOL
REMARK 924 INTRA-LIGAND FREE ENERGY PREDICTED BY IDOCK:    0.08 KCAL/MOL
REMARK 927      BINDING AFFINITY PREDICTED BY RF-SCORE:    0.00 PKD
ROOT
HETATM    1  C   UNL     1      -9.409   8.804  69.136  1.00  0.00    -0.149 C  
HETATM    2  C   UNL     1      -8.955   8.189  67.832  1.00  0.00    -0.133 A  
HETATM    3  C   UNL     1      -9.081   6.813  67.685  1.00  0.00    -0.117 A  
HETATM    4  C   UNL     1      -8.701   6.172  66.515  1.00  0.00    -0.133 A  
HETATM    5  N   UNL     1      -8.995   4.809  66.400  1.00  0.00    -0.112 NA 
HETATM    6  C   UNL     1      -8.269   6.960  65.432  1.00  0.00    -0.134 A  
HETATM    7  H2  UNL     1      -9.993   4.665  66.554  1.00  0.00     0.000 HD 
HETATM    8  C   UNL     1      -7.986   6.399  64.165  1.00  0.00    -0.096 A  
HETATM    9  H1  UNL     1      -8.715   4.338  65.539  1.00  0.00     0.000 HD 
HETATM   10  C   UNL     1      -7.541   7.175  63.095  1.00  0.00    -0.109 A  
HETATM   11  C   UNL     1      -7.356   8.534  63.264  1.00  0.00    -0.103 A  
HETATM   12  C   UNL     1      -7.633   9.121  64.502  1.00  0.00    -0.107 A  
HETATM   13  C   UNL     1      -8.120   8.362  65.598  1.00  0.00    -0.125 A  
HETATM   14  N   UNL     1      -8.471   8.942  66.798  1.00  0.00    -0.114 NA 
ENDROOT
BRANCH  14  15
HETATM   15  C   UNL     1      -8.392  10.420  66.958  1.00  0.00    -0.127 C  
BRANCH  15  16
HETATM   16  C   UNL     1      -9.530  11.106  66.205  1.00  0.00    -0.229 C  
BRANCH  16  17
HETATM   17  C   UNL     1     -10.823  11.104  67.016  1.00  0.00    -0.338 C  
BRANCH  17  18
HETATM   18  C   UNL     1     -11.939  11.921  66.358  1.00  0.00     0.043 C  
BRANCH  18  19
HETATM   19  C   UNL     1     -12.104  13.296  66.999  1.00  0.00    -0.375 C  
BRANCH  19  20
HETATM   20  C   UNL     1     -11.988  14.447  65.997  1.00  0.00    -0.377 C  
BRANCH  20  21
HETATM   21  C   UNL     1     -10.541  14.811  65.637  1.00  0.00    -0.353 C  
BRANCH  21  22
HETATM   22  C   UNL     1     -10.354  16.304  65.354  1.00  0.00    -0.320 C  
BRANCH  22  23
HETATM   23  C   UNL     1      -9.925  17.104  66.590  1.00  0.00    -0.298 C  
BRANCH  23  24
HETATM   24  C   UNL     1      -8.475  17.575  66.480  1.00  0.00    -0.268 C  
BRANCH  24  25
HETATM   25  N   UNL     1      -7.679  17.096  67.639  1.00  0.00    -0.170 NA 
HETATM   26  C   UNL     1      -7.502  15.753  67.844  1.00  0.00    -0.134 A  
HETATM   27  C   UNL     1      -6.692  15.312  68.894  1.00  0.00    -0.115 A  
HETATM   28  C   UNL     1      -8.072  14.659  66.971  1.00  0.00    -0.153 C  
HETATM   29  C   UNL     1      -6.077  16.202  69.762  1.00  0.00    -0.181 A  
HETATM   30  N   UNL     1      -5.173  15.677  70.689  1.00  0.00    -0.156 NA 
HETATM   31  C   UNL     1      -6.213  17.576  69.507  1.00  0.00    -0.246 A  
HETATM   32  H1  UNL     1      -4.720  16.330  71.328  1.00  0.00     0.000 HD 
HETATM   33  C   UNL     1      -7.058  18.021  68.453  1.00  0.00    -0.247 A  
HETATM   34  H2  UNL     1      -4.459  15.138  70.197  1.00  0.00     0.000 HD 
HETATM   35  C   UNL     1      -7.211  19.418  68.262  1.00  0.00    -0.331 A  
HETATM   36  C   UNL     1      -6.526  20.350  69.037  1.00  0.00    -0.273 A  
HETATM   37  C   UNL     1      -5.673  19.914  70.033  1.00  0.00    -0.314 A  
HETATM   38  C   UNL     1      -5.525  18.548  70.268  1.00  0.00    -0.238 A  
ENDBRANCH  24  25
ENDBRANCH  23  24
ENDBRANCH  22  23
ENDBRANCH  21  22
ENDBRANCH  20  21
ENDBRANCH  19  20
ENDBRANCH  18  19
ENDBRANCH  17  18
ENDBRANCH  16  17
ENDBRANCH  15  16
ENDBRANCH  14  15
TORSDOF 11
ENDMDL
MODEL      436
REMARK 921   NORMALIZED FREE ENERGY PREDICTED BY IDOCK:   -3.13 KCAL/MOL
REMARK 922        TOTAL FREE ENERGY PREDICTED BY IDOCK:   -6.50 KCAL/MOL
REMARK 923 INTER-LIGAND FREE ENERGY PREDICTED BY IDOCK:   -6.56 KCAL/MOL
REMARK 924 INTRA-LIGAND FREE ENERGY PREDICTED BY IDOCK:    0.06 KCAL/MOL
REMARK 927      BINDING AFFINITY PREDICTED BY RF-SCORE:    0.00 PKD
ROOT
HETATM    1  C   UNL     1     -10.309  19.845  69.037  1.00  0.00    -0.237 C  
HETATM    2  C   UNL     1      -9.149  19.388  68.183  1.00  0.00    -0.333 A  
HETATM    3  C   UNL     1      -8.645  20.279  67.244  1.00  0.00    -0.425 A  
HETATM    4  C   UNL     1      -7.572  19.944  66.431  1.00  0.00    -0.294 A  
HETATM    5  N   UNL     1      -7.040  20.948  65.616  1.00  0.00    -0.500 NA 
HETATM    6  C   UNL     1      -6.936  18.706  66.641  1.00  0.00    -0.231 A  
HETATM    7  H2  UNL     1      -6.787  21.751  66.192  1.00  0.00     0.000 HD 
HETATM    8  C   UNL     1      -5.760  18.341  65.944  1.00  0.00    -0.227 A  
HETATM    9  H1  UNL     1      -6.251  20.701  65.018  1.00  0.00     0.000 HD 
HETATM   10  C   UNL     1      -5.138  17.109  66.139  1.00  0.00     0.015 A  
HETATM   11  C   UNL     1      -5.679  16.200  67.028  1.00  0.00     0.089 A  
HETATM   12  C   UNL     1      -6.836  16.532  67.737  1.00  0.00    -0.159 A  
HETATM   13  C   UNL     1      -7.471  17.792  67.586  1.00  0.00    -0.201 A  
HETATM   14  N   UNL     1      -8.566  18.160  68.337  1.00  0.00    -0.294 NA 
ENDROOT
BRANCH  14  15
HETATM   15  C   UNL     1      -9.090  17.240  69.384  1.00  0.00     0.311 C  
BRANCH  15  16
HETATM   16  C   UNL     1      -9.674  15.979  68.750  1.00  0.00    -0.226 C  
BRANCH  16  17
HETATM   17  C   UNL     1     -11.053  16.237  68.150  1.00  0.00    -0.329 C  
BRANCH  17  18
HETATM   18  C   UNL     1     -12.164  15.451  68.851  1.00  0.00    -0.118 C  
BRANCH  18  19
HETATM   19  C   UNL     1     -11.644  14.177  69.509  1.00  0.00    -0.349 C  
BRANCH  19  20
HETATM   20  C   UNL     1     -11.709  12.953  68.592  1.00  0.00    -0.359 C  
BRANCH  20  21
HETATM   21  C   UNL     1     -12.251  13.258  67.189  1.00  0.00    -0.281 C  
BRANCH  21  22
HETATM   22  C   UNL     1     -11.814  12.229  66.143  1.00  0.00    -0.398 C  
BRANCH  22  23
HETATM   23  C   UNL     1     -10.489  11.540  66.490  1.00  0.00    -0.284 C  
BRANCH  23  24
HETATM   24  C   UNL     1     -10.588  10.758  67.800  1.00  0.00    -0.228 C  
BRANCH  24  25
HETATM   25  N   UNL     1      -9.292  10.107  68.120  1.00  0.00    -0.134 NA 
HETATM   26  C   UNL     1      -8.208  10.867  68.470  1.00  0.00    -0.140 A  
HETATM   27  C   UNL     1      -7.014  10.244  68.841  1.00  0.00    -0.065 A  
HETATM   28  C   UNL     1      -8.198  12.376  68.557  1.00  0.00    -0.086 C  
HETATM   29  C   UNL     1      -6.882   8.864  68.839  1.00  0.00    -0.061 A  
HETATM   30  N   UNL     1      -5.701   8.328  69.362  1.00  0.00    -0.030 NA 
HETATM   31  C   UNL     1      -8.016   8.091  68.540  1.00  0.00    -0.120 A  
HETATM   32  H1  UNL     1      -5.604   7.313  69.361  1.00  0.00     0.000 HD 
HETATM   33  C   UNL     1      -9.222   8.729  68.139  1.00  0.00    -0.140 A  
HETATM   34  H2  UNL     1      -5.563   8.678  70.310  1.00  0.00     0.000 HD 
HETATM   35  C   UNL     1     -10.329   7.912  67.793  1.00  0.00    -0.289 A  
HETATM   36  C   UNL     1     -10.279   6.523  67.882  1.00  0.00    -0.198 A  
HETATM   37  C   UNL     1      -9.119   5.908  68.313  1.00  0.00    -0.118 A  
HETATM   38  C   UNL     1      -8.003   6.680  68.630  1.00  0.00    -0.118 A  
ENDBRANCH  24  25
ENDBRANCH  23  24
ENDBRANCH  22  23
ENDBRANCH  21  22
ENDBRANCH  20  21
ENDBRANCH  19  20
ENDBRANCH  18  19
ENDBRANCH  17  18
ENDBRANCH  16  17
ENDBRANCH  15  16
ENDBRANCH  14  15
TORSDOF 11
ENDMDL
MODEL      437
REMARK 921   NORMALIZED FREE ENERGY PREDICTED BY IDOCK:   -3.12 KCAL/MOL
REMARK 922        TOTAL FREE ENERGY PREDICTED BY IDOCK:   -6.48 KCAL/MOL
REMARK 923 INTER-LIGAND FREE ENERGY PREDICTED BY IDOCK:   -7.26 KCAL/MOL
REMARK 924 INTRA-LIGAND FREE ENERGY PREDICTED BY IDOCK:    0.78 KCAL/MOL
REMARK 927      BINDING AFFINITY PREDICTED BY RF-SCORE:    0.00 PKD
ROOT
HETATM    1  C   UNL     1     -10.169   9.142  70.147  1.00  0.00    -0.237 C  
HETATM    2  C   UNL     1      -9.871   7.906  70.966  1.00  0.00    -0.170 A  
HETATM    3  C   UNL     1      -9.715   8.060  72.338  1.00  0.00    -0.305 A  
HETATM    4  C   UNL     1      -9.455   6.976  73.163  1.00  0.00    -0.157 A  
HETATM    5  N   UNL     1      -9.455   7.199  74.544  1.00  0.00    -0.435 NA 
HETATM    6  C   UNL     1      -9.445   5.689  72.592  1.00  0.00    -0.157 A  
HETATM    7  H2  UNL     1     -10.341   7.625  74.816  1.00  0.00     0.000 HD 
HETATM    8  C   UNL     1      -9.314   4.522  73.380  1.00  0.00    -0.125 A  
HETATM    9  H1  UNL     1      -9.263   6.402  75.150  1.00  0.00     0.000 HD 
HETATM   10  C   UNL     1      -9.287   3.248  72.815  1.00  0.00    -0.137 A  
HETATM   11  C   UNL     1      -9.379   3.103  71.444  1.00  0.00    -0.207 A  
HETATM   12  C   UNL     1      -9.515   4.236  70.637  1.00  0.00    -0.241 A  
HETATM   13  C   UNL     1      -9.581   5.543  71.187  1.00  0.00    -0.162 A  
HETATM   14  N   UNL     1      -9.794   6.660  70.408  1.00  0.00    -0.175 NA 
ENDROOT
BRANCH  14  15
HETATM   15  C   UNL     1     -10.015   6.511  68.943  1.00  0.00    -0.151 C  
BRANCH  15  16
HETATM   16  C   UNL     1      -9.335   5.246  68.421  1.00  0.00    -0.146 C  
BRANCH  16  17
HETATM   17  C   UNL     1      -8.195   5.575  67.462  1.00  0.00    -0.101 C  
BRANCH  17  18
HETATM   18  C   UNL     1      -7.798   7.054  67.493  1.00  0.00    -0.112 C  
BRANCH  18  19
HETATM   19  C   UNL     1      -6.743   7.392  66.444  1.00  0.00    -0.060 C  
BRANCH  19  20
HETATM   20  C   UNL     1      -7.156   6.996  65.024  1.00  0.00    -0.064 C  
BRANCH  20  21
HETATM   21  C   UNL     1      -8.037   8.037  64.321  1.00  0.00    -0.117 C  
BRANCH  21  22
HETATM   22  C   UNL     1      -7.696   9.476  64.721  1.00  0.00    -0.119 C  
BRANCH  22  23
HETATM   23  C   UNL     1      -8.599  10.519  64.052  1.00  0.00    -0.149 C  
BRANCH  23  24
HETATM   24  C   UNL     1     -10.079  10.183  64.236  1.00  0.00     0.040 C  
BRANCH  24  25
HETATM   25  N   UNL     1     -10.671  11.002  65.325  1.00  0.00    -0.211 NA 
HETATM   26  C   UNL     1     -10.544  10.608  66.630  1.00  0.00    -0.214 A  
HETATM   27  C   UNL     1     -11.039  11.420  67.653  1.00  0.00    -0.325 A  
HETATM   28  C   UNL     1      -9.836   9.354  67.093  1.00  0.00    -0.242 C  
HETATM   29  C   UNL     1     -11.688  12.615  67.383  1.00  0.00    -0.369 A  
HETATM   30  N   UNL     1     -12.020  13.429  68.470  1.00  0.00    -0.355 NA 
HETATM   31  C   UNL     1     -11.758  13.043  66.047  1.00  0.00    -0.442 A  
HETATM   32  H1  UNL     1     -12.497  14.308  68.271  1.00  0.00     0.000 HD 
HETATM   33  C   UNL     1     -11.275  12.201  65.007  1.00  0.00    -0.322 A  
HETATM   34  H2  UNL     1     -11.181  13.618  69.019  1.00  0.00     0.000 HD 
HETATM   35  C   UNL     1     -11.413  12.645  63.667  1.00  0.00    -0.563 A  
HETATM   36  C   UNL     1     -11.957  13.888  63.352  1.00  0.00     0.078 A  
HETATM   37  C   UNL     1     -12.386  14.722  64.367  1.00  0.00    -0.389 A  
HETATM   38  C   UNL     1     -12.295  14.302  65.693  1.00  0.00    -0.416 A  
ENDBRANCH  24  25
ENDBRANCH  23  24
ENDBRANCH  22  23
ENDBRANCH  21  22
ENDBRANCH  20  21
ENDBRANCH  19  20
ENDBRANCH  18  19
ENDBRANCH  17  18
ENDBRANCH  16  17
ENDBRANCH  15  16
ENDBRANCH  14  15
TORSDOF 11
ENDMDL
MODEL      438
REMARK 921   NORMALIZED FREE ENERGY PREDICTED BY IDOCK:   -3.06 KCAL/MOL
REMARK 922        TOTAL FREE ENERGY PREDICTED BY IDOCK:   -6.38 KCAL/MOL
REMARK 923 INTER-LIGAND FREE ENERGY PREDICTED BY IDOCK:   -5.72 KCAL/MOL
REMARK 924 INTRA-LIGAND FREE ENERGY PREDICTED BY IDOCK:   -0.66 KCAL/MOL
REMARK 927      BINDING AFFINITY PREDICTED BY RF-SCORE:    0.00 PKD
ROOT
HETATM    1  C   UNL     1      -9.117   5.871  66.786  1.00  0.00    -0.130 C  
HETATM    2  C   UNL     1      -9.094   5.496  68.251  1.00  0.00    -0.108 A  
HETATM    3  C   UNL     1      -9.515   4.219  68.599  1.00  0.00    -0.221 A  
HETATM    4  C   UNL     1      -9.511   3.790  69.918  1.00  0.00    -0.197 A  
HETATM    5  N   UNL     1      -9.813   2.446  70.163  1.00  0.00     0.111 NA 
HETATM    6  C   UNL     1      -8.979   4.649  70.898  1.00  0.00    -0.163 A  
HETATM    7  H2  UNL     1      -9.189   1.855  69.615  1.00  0.00     0.000 HD 
HETATM    8  C   UNL     1      -8.820   4.242  72.244  1.00  0.00    -0.123 A  
HETATM    9  H1  UNL     1      -9.811   2.131  71.133  1.00  0.00     0.000 HD 
HETATM   10  C   UNL     1      -8.309   5.096  73.219  1.00  0.00    -0.111 A  
HETATM   11  C   UNL     1      -7.951   6.388  72.881  1.00  0.00    -0.106 A  
HETATM   12  C   UNL     1      -8.089   6.819  71.559  1.00  0.00    -0.110 A  
HETATM   13  C   UNL     1      -8.573   5.961  70.538  1.00  0.00    -0.136 A  
HETATM   14  N   UNL     1      -8.640   6.350  69.218  1.00  0.00    -0.125 NA 
ENDROOT
BRANCH  14  15
HETATM   15  C   UNL     1      -8.146   7.696  68.816  1.00  0.00    -0.127 C  
BRANCH  15  16
HETATM   16  C   UNL     1      -6.839   7.580  68.034  1.00  0.00    -0.067 C  
BRANCH  16  17
HETATM   17  C   UNL     1      -6.406   8.925  67.459  1.00  0.00    -0.056 C  
BRANCH  17  18
HETATM   18  C   UNL     1      -6.900   9.147  66.027  1.00  0.00    -0.084 C  
BRANCH  18  19
HETATM   19  C   UNL     1      -7.814  10.364  65.913  1.00  0.00    -0.148 C  
BRANCH  19  20
HETATM   20  C   UNL     1      -7.286  11.587  66.665  1.00  0.00    -0.069 C  
BRANCH  20  21
HETATM   21  C   UNL     1      -7.939  11.801  68.037  1.00  0.00    -0.141 C  
BRANCH  21  22
HETATM   22  C   UNL     1      -8.976  12.928  68.036  1.00  0.00    -0.196 C  
BRANCH  22  23
HETATM   23  C   UNL     1      -8.349  14.326  67.982  1.00  0.00    -0.157 C  
BRANCH  23  24
HETATM   24  C   UNL     1      -8.677  15.039  66.669  1.00  0.00    -0.254 C  
BRANCH  24  25
HETATM   25  N   UNL     1      -9.119  16.433  66.927  1.00  0.00    -0.206 NA 
HETATM   26  C   UNL     1     -10.419  16.690  67.272  1.00  0.00    -0.313 A  
HETATM   27  C   UNL     1     -10.809  17.995  67.584  1.00  0.00    -0.257 A  
HETATM   28  C   UNL     1     -11.502  15.646  67.414  1.00  0.00    -0.086 C  
HETATM   29  C   UNL     1      -9.917  19.055  67.527  1.00  0.00    -0.349 A  
HETATM   30  N   UNL     1     -10.360  20.296  67.994  1.00  0.00    -0.316 NA 
HETATM   31  C   UNL     1      -8.573  18.773  67.233  1.00  0.00    -0.287 A  
HETATM   32  H1  UNL     1      -9.704  21.076  67.953  1.00  0.00     0.000 HD 
HETATM   33  C   UNL     1      -8.185  17.448  66.893  1.00  0.00    -0.231 A  
HETATM   34  H2  UNL     1     -10.702  20.194  68.950  1.00  0.00     0.000 HD 
HETATM   35  C   UNL     1      -6.828  17.215  66.550  1.00  0.00    -0.295 A  
HETATM   36  C   UNL     1      -5.871  18.227  66.587  1.00  0.00    -0.180 A  
HETATM   37  C   UNL     1      -6.244  19.504  66.960  1.00  0.00    -0.194 A  
HETATM   38  C   UNL     1      -7.575  19.774  67.271  1.00  0.00    -0.290 A  
ENDBRANCH  24  25
ENDBRANCH  23  24
ENDBRANCH  22  23
ENDBRANCH  21  22
ENDBRANCH  20  21
ENDBRANCH  19  20
ENDBRANCH  18  19
ENDBRANCH  17  18
ENDBRANCH  16  17
ENDBRANCH  15  16
ENDBRANCH  14  15
TORSDOF 11
ENDMDL
MODEL      439
REMARK 921   NORMALIZED FREE ENERGY PREDICTED BY IDOCK:   -3.04 KCAL/MOL
REMARK 922        TOTAL FREE ENERGY PREDICTED BY IDOCK:   -6.36 KCAL/MOL
REMARK 923 INTER-LIGAND FREE ENERGY PREDICTED BY IDOCK:   -6.17 KCAL/MOL
REMARK 924 INTRA-LIGAND FREE ENERGY PREDICTED BY IDOCK:   -0.18 KCAL/MOL
REMARK 927      BINDING AFFINITY PREDICTED BY RF-SCORE:    0.00 PKD
ROOT
HETATM    1  C   UNL     1     -10.254   9.111  70.216  1.00  0.00    -0.253 C  
HETATM    2  C   UNL     1      -9.802   7.734  70.647  1.00  0.00    -0.182 A  
HETATM    3  C   UNL     1      -9.411   7.564  71.969  1.00  0.00    -0.174 A  
HETATM    4  C   UNL     1      -8.997   6.331  72.449  1.00  0.00    -0.138 A  
HETATM    5  N   UNL     1      -8.758   6.218  73.823  1.00  0.00    -0.123 NA 
HETATM    6  C   UNL     1      -9.069   5.220  71.588  1.00  0.00    -0.156 A  
HETATM    7  H2  UNL     1      -9.588   6.517  74.335  1.00  0.00     0.000 HD 
HETATM    8  C   UNL     1      -8.788   3.907  72.033  1.00  0.00    -0.130 A  
HETATM    9  H1  UNL     1      -8.453   5.311  74.175  1.00  0.00     0.000 HD 
HETATM   10  C   UNL     1      -8.843   2.808  71.178  1.00  0.00    -0.137 A  
HETATM   11  C   UNL     1      -9.171   2.990  69.848  1.00  0.00    -0.225 A  
HETATM   12  C   UNL     1      -9.461   4.273  69.377  1.00  0.00    -0.256 A  
HETATM   13  C   UNL     1      -9.447   5.405  70.232  1.00  0.00    -0.163 A  
HETATM   14  N   UNL     1      -9.807   6.662  69.796  1.00  0.00    -0.162 NA 
ENDROOT
BRANCH  14  15
HETATM   15  C   UNL     1     -10.278   6.856  68.397  1.00  0.00    -0.176 C  
BRANCH  15  16
HETATM   16  C   UNL     1      -9.412   6.060  67.423  1.00  0.00    -0.113 C  
BRANCH  16  17
HETATM   17  C   UNL     1      -8.206   6.868  66.953  1.00  0.00    -0.113 C  
BRANCH  17  18
HETATM   18  C   UNL     1      -7.924   8.086  67.838  1.00  0.00    -0.128 C  
BRANCH  18  19
HETATM   19  C   UNL     1      -6.827   8.977  67.262  1.00  0.00    -0.077 C  
BRANCH  19  20
HETATM   20  C   UNL     1      -7.210   9.620  65.927  1.00  0.00    -0.099 C  
BRANCH  20  21
HETATM   21  C   UNL     1      -7.964  10.949  66.073  1.00  0.00    -0.132 C  
BRANCH  21  22
HETATM   22  C   UNL     1      -7.716  11.632  67.420  1.00  0.00    -0.147 C  
BRANCH  22  23
HETATM   23  C   UNL     1      -8.212  13.082  67.463  1.00  0.00    -0.181 C  
BRANCH  23  24
HETATM   24  C   UNL     1      -9.607  13.218  66.852  1.00  0.00    -0.249 C  
BRANCH  24  25
HETATM   25  N   UNL     1     -10.642  13.271  67.917  1.00  0.00    -0.233 NA 
HETATM   26  C   UNL     1     -11.343  12.143  68.251  1.00  0.00    -0.289 A  
HETATM   27  C   UNL     1     -12.263  12.184  69.303  1.00  0.00    -0.106 A  
HETATM   28  C   UNL     1     -11.168  10.788  67.605  1.00  0.00    -0.370 C  
HETATM   29  C   UNL     1     -12.510  13.351  70.008  1.00  0.00    -0.137 A  
HETATM   30  N   UNL     1     -13.335  13.263  71.133  1.00  0.00    -0.070 NA 
HETATM   31  C   UNL     1     -11.741  14.486  69.701  1.00  0.00    -0.356 A  
HETATM   32  H1  UNL     1     -13.517  14.121  71.653  1.00  0.00     0.000 HD 
HETATM   33  C   UNL     1     -10.824  14.447  68.614  1.00  0.00    -0.251 A  
HETATM   34  H2  UNL     1     -12.964  12.556  71.769  1.00  0.00     0.000 HD 
HETATM   35  C   UNL     1     -10.106  15.630  68.301  1.00  0.00    -0.218 A  
HETATM   36  C   UNL     1     -10.238  16.796  69.052  1.00  0.00    -0.310 A  
HETATM   37  C   UNL     1     -11.097  16.816  70.134  1.00  0.00     0.079 A  
HETATM   38  C   UNL     1     -11.842  15.682  70.448  1.00  0.00    -0.395 A  
ENDBRANCH  24  25
ENDBRANCH  23  24
ENDBRANCH  22  23
ENDBRANCH  21  22
ENDBRANCH  20  21
ENDBRANCH  19  20
ENDBRANCH  18  19
ENDBRANCH  17  18
ENDBRANCH  16  17
ENDBRANCH  15  16
ENDBRANCH  14  15
TORSDOF 11
ENDMDL
MODEL      440
REMARK 921   NORMALIZED FREE ENERGY PREDICTED BY IDOCK:   -2.93 KCAL/MOL
REMARK 922        TOTAL FREE ENERGY PREDICTED BY IDOCK:   -6.17 KCAL/MOL
REMARK 923 INTER-LIGAND FREE ENERGY PREDICTED BY IDOCK:   -5.98 KCAL/MOL
REMARK 924 INTRA-LIGAND FREE ENERGY PREDICTED BY IDOCK:   -0.19 KCAL/MOL
REMARK 927      BINDING AFFINITY PREDICTED BY RF-SCORE:    0.00 PKD
ROOT
HETATM    1  C   UNL     1     -10.784  10.044  67.351  1.00  0.00    -0.336 C  
HETATM    2  C   UNL     1      -9.715  11.113  67.388  1.00  0.00    -0.173 A  
HETATM    3  C   UNL     1     -10.014  12.348  66.826  1.00  0.00    -0.234 A  
HETATM    4  C   UNL     1      -9.096  13.387  66.831  1.00  0.00    -0.231 A  
HETATM    5  N   UNL     1      -9.529  14.636  66.373  1.00  0.00    -0.290 NA 
HETATM    6  C   UNL     1      -7.876  13.198  67.508  1.00  0.00    -0.173 A  
HETATM    7  H2  UNL     1     -10.359  14.917  66.895  1.00  0.00     0.000 HD 
HETATM    8  C   UNL     1      -6.940  14.245  67.671  1.00  0.00    -0.202 A  
HETATM    9  H1  UNL     1      -8.853  15.400  66.377  1.00  0.00     0.000 HD 
HETATM   10  C   UNL     1      -5.724  14.055  68.326  1.00  0.00    -0.116 A  
HETATM   11  C   UNL     1      -5.403  12.808  68.829  1.00  0.00    -0.063 A  
HETATM   12  C   UNL     1      -6.310  11.753  68.690  1.00  0.00    -0.057 A  
HETATM   13  C   UNL     1      -7.569  11.926  68.060  1.00  0.00    -0.122 A  
HETATM   14  N   UNL     1      -8.502  10.914  67.987  1.00  0.00    -0.126 NA 
ENDROOT
BRANCH  14  15
HETATM   15  C   UNL     1      -8.221   9.600  68.628  1.00  0.00    -0.105 C  
BRANCH  15  16
HETATM   16  C   UNL     1      -7.615   9.796  70.016  1.00  0.00    -0.169 C  
BRANCH  16  17
HETATM   17  C   UNL     1      -6.649   8.669  70.373  1.00  0.00    -0.037 C  
BRANCH  17  18
HETATM   18  C   UNL     1      -6.225   8.692  71.844  1.00  0.00    -0.071 C  
BRANCH  18  19
HETATM   19  C   UNL     1      -7.422   8.714  72.791  1.00  0.00     0.025 C  
BRANCH  19  20
HETATM   20  C   UNL     1      -8.393   7.553  72.562  1.00  0.00    -0.138 C  
BRANCH  20  21
HETATM   21  C   UNL     1      -8.324   6.465  73.642  1.00  0.00    -0.122 C  
BRANCH  21  22
HETATM   22  C   UNL     1      -9.568   6.429  74.534  1.00  0.00    -0.294 C  
BRANCH  22  23
HETATM   23  C   UNL     1     -10.457   5.206  74.282  1.00  0.00    -0.315 C  
BRANCH  23  24
HETATM   24  C   UNL     1     -11.173   5.299  72.934  1.00  0.00    -0.312 C  
BRANCH  24  25
HETATM   25  N   UNL     1     -10.489   4.459  71.918  1.00  0.00    -0.095 NA 
HETATM   26  C   UNL     1     -10.072   3.195  72.238  1.00  0.00    -0.146 A  
HETATM   27  C   UNL     1      -9.494   2.385  71.257  1.00  0.00    -0.218 A  
HETATM   28  C   UNL     1     -10.238   2.543  73.592  1.00  0.00    -0.191 C  
HETATM   29  C   UNL     1      -9.303   2.837  69.960  1.00  0.00    -0.132 A  
HETATM   30  N   UNL     1      -8.854   1.911  69.014  1.00  0.00    -0.077 NA 
HETATM   31  C   UNL     1      -9.791   4.111  69.625  1.00  0.00    -0.208 A  
HETATM   32  H1  UNL     1      -8.713   2.243  68.060  1.00  0.00     0.000 HD 
HETATM   33  C   UNL     1     -10.355   4.941  70.632  1.00  0.00    -0.162 A  
HETATM   34  H2  UNL     1      -9.483   1.108  69.002  1.00  0.00     0.000 HD 
HETATM   35  C   UNL     1     -10.786   6.241  70.264  1.00  0.00    -0.366 A  
HETATM   36  C   UNL     1     -10.718   6.699  68.950  1.00  0.00    -0.304 A  
HETATM   37  C   UNL     1     -10.208   5.874  67.966  1.00  0.00    -0.224 A  
HETATM   38  C   UNL     1      -9.746   4.602  68.300  1.00  0.00    -0.193 A  
ENDBRANCH  24  25
ENDBRANCH  23  24
ENDBRANCH  22  23
ENDBRANCH  21  22
ENDBRANCH  20  21
ENDBRANCH  19  20
ENDBRANCH  18  19
ENDBRANCH  17  18
ENDBRANCH  16  17
ENDBRANCH  15  16
ENDBRANCH  14  15
TORSDOF 11
ENDMDL
MODEL      441
REMARK 921   NORMALIZED FREE ENERGY PREDICTED BY IDOCK:   -2.93 KCAL/MOL
REMARK 922        TOTAL FREE ENERGY PREDICTED BY IDOCK:   -6.16 KCAL/MOL
REMARK 923 INTER-LIGAND FREE ENERGY PREDICTED BY IDOCK:   -6.31 KCAL/MOL
REMARK 924 INTRA-LIGAND FREE ENERGY PREDICTED BY IDOCK:    0.15 KCAL/MOL
REMARK 927      BINDING AFFINITY PREDICTED BY RF-SCORE:    0.00 PKD
ROOT
HETATM    1  C   UNL     1      -6.692  10.159  70.456  1.00  0.00    -0.100 C  
HETATM    2  C   UNL     1      -7.629   9.005  70.178  1.00  0.00    -0.082 A  
HETATM    3  C   UNL     1      -8.767   8.889  70.967  1.00  0.00    -0.276 A  
HETATM    4  C   UNL     1      -9.685   7.869  70.768  1.00  0.00    -0.172 A  
HETATM    5  N   UNL     1     -10.870   7.910  71.511  1.00  0.00    -0.226 NA 
HETATM    6  C   UNL     1      -9.490   6.997  69.680  1.00  0.00    -0.147 A  
HETATM    7  H2  UNL     1     -11.328   8.809  71.363  1.00  0.00     0.000 HD 
HETATM    8  C   UNL     1     -10.443   6.012  69.330  1.00  0.00    -0.331 A  
HETATM    9  H1  UNL     1     -11.544   7.160  71.365  1.00  0.00     0.000 HD 
HETATM   10  C   UNL     1     -10.244   5.137  68.263  1.00  0.00    -0.179 A  
HETATM   11  C   UNL     1      -9.081   5.214  67.520  1.00  0.00    -0.118 A  
HETATM   12  C   UNL     1      -8.122   6.182  67.836  1.00  0.00    -0.114 A  
HETATM   13  C   UNL     1      -8.313   7.108  68.893  1.00  0.00    -0.126 A  
HETATM   14  N   UNL     1      -7.412   8.115  69.163  1.00  0.00    -0.085 NA 
ENDROOT
BRANCH  14  15
HETATM   15  C   UNL     1      -6.212   8.287  68.298  1.00  0.00    -0.050 C  
BRANCH  15  16
HETATM   16  C   UNL     1      -6.485   7.763  66.889  1.00  0.00    -0.055 C  
BRANCH  16  17
HETATM   17  C   UNL     1      -7.003   8.865  65.969  1.00  0.00    -0.084 C  
BRANCH  17  18
HETATM   18  C   UNL     1      -8.367   9.409  66.401  1.00  0.00    -0.116 C  
BRANCH  18  19
HETATM   19  C   UNL     1      -8.324  10.905  66.701  1.00  0.00    -0.143 C  
BRANCH  19  20
HETATM   20  C   UNL     1      -9.646  11.448  67.249  1.00  0.00    -0.187 C  
BRANCH  20  21
HETATM   21  C   UNL     1     -10.810  10.453  67.161  1.00  0.00    -0.301 C  
BRANCH  21  22
HETATM   22  C   UNL     1     -11.314  10.000  68.534  1.00  0.00    -0.115 C  
BRANCH  22  23
HETATM   23  C   UNL     1     -11.683  11.167  69.457  1.00  0.00    -0.405 C  
BRANCH  23  24
HETATM   24  C   UNL     1     -12.755  12.061  68.833  1.00  0.00     1.229 C  
BRANCH  24  25
HETATM   25  N   UNL     1     -12.210  13.414  68.552  1.00  0.00    -0.217 NA 
HETATM   26  C   UNL     1     -11.911  14.264  69.583  1.00  0.00    -0.336 A  
HETATM   27  C   UNL     1     -11.331  15.506  69.312  1.00  0.00    -0.330 A  
HETATM   28  C   UNL     1     -12.102  13.951  71.049  1.00  0.00    -0.357 C  
HETATM   29  C   UNL     1     -11.070  15.921  68.016  1.00  0.00    -0.334 A  
HETATM   30  N   UNL     1     -10.358  17.112  67.851  1.00  0.00    -0.335 NA 
HETATM   31  C   UNL     1     -11.320  15.018  66.970  1.00  0.00    -0.319 A  
HETATM   32  H1  UNL     1     -10.165  17.418  66.897  1.00  0.00     0.000 HD 
HETATM   33  C   UNL     1     -11.934  13.765  67.246  1.00  0.00    -0.401 A  
HETATM   34  H2  UNL     1      -9.481  17.056  68.369  1.00  0.00     0.000 HD 
HETATM   35  C   UNL     1     -12.220  12.904  66.156  1.00  0.00    -0.385 A  
HETATM   36  C   UNL     1     -11.874  13.229  64.846  1.00  0.00    -0.398 A  
HETATM   37  C   UNL     1     -11.239  14.429  64.586  1.00  0.00    -0.366 A  
HETATM   38  C   UNL     1     -10.973  15.312  65.631  1.00  0.00    -0.348 A  
ENDBRANCH  24  25
ENDBRANCH  23  24
ENDBRANCH  22  23
ENDBRANCH  21  22
ENDBRANCH  20  21
ENDBRANCH  19  20
ENDBRANCH  18  19
ENDBRANCH  17  18
ENDBRANCH  16  17
ENDBRANCH  15  16
ENDBRANCH  14  15
TORSDOF 11
ENDMDL
MODEL      442
REMARK 921   NORMALIZED FREE ENERGY PREDICTED BY IDOCK:   -2.89 KCAL/MOL
REMARK 922        TOTAL FREE ENERGY PREDICTED BY IDOCK:   -6.09 KCAL/MOL
REMARK 923 INTER-LIGAND FREE ENERGY PREDICTED BY IDOCK:   -5.81 KCAL/MOL
REMARK 924 INTRA-LIGAND FREE ENERGY PREDICTED BY IDOCK:   -0.28 KCAL/MOL
REMARK 927      BINDING AFFINITY PREDICTED BY RF-SCORE:    0.00 PKD
ROOT
HETATM    1  C   UNL     1      -9.478   3.637  69.203  1.00  0.00    -0.235 C  
HETATM    2  C   UNL     1      -8.607   4.336  68.184  1.00  0.00    -0.095 A  
HETATM    3  C   UNL     1      -7.340   3.815  67.949  1.00  0.00    -0.062 A  
HETATM    4  C   UNL     1      -6.484   4.387  67.020  1.00  0.00    -0.042 A  
HETATM    5  N   UNL     1      -5.287   3.717  66.744  1.00  0.00    -0.012 NA 
HETATM    6  C   UNL     1      -6.961   5.460  66.243  1.00  0.00    -0.063 A  
HETATM    7  H2  UNL     1      -5.495   2.758  66.465  1.00  0.00     0.000 HD 
HETATM    8  C   UNL     1      -6.200   6.016  65.188  1.00  0.00    -0.037 A  
HETATM    9  H1  UNL     1      -4.658   4.137  66.061  1.00  0.00     0.000 HD 
HETATM   10  C   UNL     1      -6.664   7.089  64.429  1.00  0.00    -0.046 A  
HETATM   11  C   UNL     1      -7.897   7.645  64.708  1.00  0.00    -0.129 A  
HETATM   12  C   UNL     1      -8.677   7.114  65.739  1.00  0.00    -0.125 A  
HETATM   13  C   UNL     1      -8.247   6.001  66.506  1.00  0.00    -0.107 A  
HETATM   14  N   UNL     1      -9.040   5.420  67.472  1.00  0.00    -0.108 NA 
ENDROOT
BRANCH  14  15
HETATM   15  C   UNL     1     -10.419   5.930  67.704  1.00  0.00    -0.238 C  
BRANCH  15  16
HETATM   16  C   UNL     1     -10.401   7.110  68.674  1.00  0.00    -0.200 C  
BRANCH  16  17
HETATM   17  C   UNL     1     -10.879   6.702  70.065  1.00  0.00    -0.331 C  
BRANCH  17  18
HETATM   18  C   UNL     1     -11.296   7.898  70.926  1.00  0.00    -0.290 C  
BRANCH  18  19
HETATM   19  C   UNL     1     -12.513   7.589  71.792  1.00  0.00    -0.360 C  
BRANCH  19  20
HETATM   20  C   UNL     1     -13.014   8.801  72.582  1.00  0.00    -0.305 C  
BRANCH  20  21
HETATM   21  C   UNL     1     -12.500  10.145  72.049  1.00  0.00    -0.264 C  
BRANCH  21  22
HETATM   22  C   UNL     1     -12.326  10.157  70.528  1.00  0.00    -0.330 C  
BRANCH  22  23
HETATM   23  C   UNL     1     -12.612  11.525  69.898  1.00  0.00    -0.046 C  
BRANCH  23  24
HETATM   24  C   UNL     1     -11.571  12.565  70.315  1.00  0.00     0.033 C  
BRANCH  24  25
HETATM   25  N   UNL     1     -10.935  13.178  69.122  1.00  0.00    -0.193 NA 
HETATM   26  C   UNL     1     -11.319  14.422  68.699  1.00  0.00    -0.273 A  
HETATM   27  C   UNL     1     -10.665  15.022  67.620  1.00  0.00    -0.274 A  
HETATM   28  C   UNL     1     -12.386  15.270  69.354  1.00  0.00    -0.168 C  
HETATM   29  C   UNL     1      -9.646  14.377  66.937  1.00  0.00    -0.256 A  
HETATM   30  N   UNL     1      -8.955  15.109  65.968  1.00  0.00    -0.470 NA 
HETATM   31  C   UNL     1      -9.216  13.128  67.416  1.00  0.00    -0.213 A  
HETATM   32  H1  UNL     1      -8.204  14.635  65.466  1.00  0.00     0.000 HD 
HETATM   33  C   UNL     1      -9.900  12.511  68.499  1.00  0.00    -0.149 A  
HETATM   34  H2  UNL     1      -8.591  15.965  66.387  1.00  0.00     0.000 HD 
HETATM   35  C   UNL     1      -9.469  11.226  68.917  1.00  0.00    -0.102 A  
HETATM   36  C   UNL     1      -8.377  10.585  68.336  1.00  0.00    -0.126 A  
HETATM   37  C   UNL     1      -7.688  11.208  67.312  1.00  0.00    -0.130 A  
HETATM   38  C   UNL     1      -8.106  12.456  66.855  1.00  0.00    -0.064 A  
ENDBRANCH  24  25
ENDBRANCH  23  24
ENDBRANCH  22  23
ENDBRANCH  21  22
ENDBRANCH  20  21
ENDBRANCH  19  20
ENDBRANCH  18  19
ENDBRANCH  17  18
ENDBRANCH  16  17
ENDBRANCH  15  16
ENDBRANCH  14  15
TORSDOF 11
ENDMDL
MODEL      443
REMARK 921   NORMALIZED FREE ENERGY PREDICTED BY IDOCK:   -2.85 KCAL/MOL
REMARK 922        TOTAL FREE ENERGY PREDICTED BY IDOCK:   -6.04 KCAL/MOL
REMARK 923 INTER-LIGAND FREE ENERGY PREDICTED BY IDOCK:   -5.63 KCAL/MOL
REMARK 924 INTRA-LIGAND FREE ENERGY PREDICTED BY IDOCK:   -0.41 KCAL/MOL
REMARK 927      BINDING AFFINITY PREDICTED BY RF-SCORE:    0.00 PKD
ROOT
HETATM    1  C   UNL     1     -11.143   4.343  72.179  1.00  0.00     0.304 C  
HETATM    2  C   UNL     1      -9.844   4.801  72.804  1.00  0.00    -0.144 A  
HETATM    3  C   UNL     1      -8.886   3.836  73.087  1.00  0.00    -0.097 A  
HETATM    4  C   UNL     1      -7.662   4.173  73.647  1.00  0.00    -0.081 A  
HETATM    5  N   UNL     1      -6.704   3.161  73.766  1.00  0.00    -0.033 NA 
HETATM    6  C   UNL     1      -7.368   5.536  73.837  1.00  0.00    -0.087 A  
HETATM    7  H2  UNL     1      -6.550   2.733  72.853  1.00  0.00     0.000 HD 
HETATM    8  C   UNL     1      -6.098   5.973  74.282  1.00  0.00    -0.064 A  
HETATM    9  H1  UNL     1      -5.805   3.409  74.178  1.00  0.00     0.000 HD 
HETATM   10  C   UNL     1      -5.810   7.321  74.487  1.00  0.00    -0.081 A  
HETATM   11  C   UNL     1      -6.786   8.273  74.265  1.00  0.00    -0.175 A  
HETATM   12  C   UNL     1      -8.050   7.876  73.819  1.00  0.00    -0.256 A  
HETATM   13  C   UNL     1      -8.361   6.514  73.567  1.00  0.00    -0.118 A  
HETATM   14  N   UNL     1      -9.577   6.119  73.053  1.00  0.00    -0.150 NA 
ENDROOT
BRANCH  14  15
HETATM   15  C   UNL     1     -10.598   7.142  72.695  1.00  0.00    -0.256 C  
BRANCH  15  16
HETATM   16  C   UNL     1     -10.355   7.674  71.284  1.00  0.00    -0.215 C  
BRANCH  16  17
HETATM   17  C   UNL     1      -9.916   9.136  71.302  1.00  0.00    -0.373 C  
BRANCH  17  18
HETATM   18  C   UNL     1      -8.430   9.315  70.978  1.00  0.00    -0.150 C  
BRANCH  18  19
HETATM   19  C   UNL     1      -8.211  10.011  69.638  1.00  0.00    -0.185 C  
BRANCH  19  20
HETATM   20  C   UNL     1      -9.479  10.663  69.082  1.00  0.00    -0.185 C  
BRANCH  20  21
HETATM   21  C   UNL     1      -9.456  10.867  67.561  1.00  0.00    -0.168 C  
BRANCH  21  22
HETATM   22  C   UNL     1     -10.800  11.341  67.002  1.00  0.00    -0.332 C  
BRANCH  22  23
HETATM   23  C   UNL     1     -10.812  11.453  65.472  1.00  0.00    -0.282 C  
BRANCH  23  24
HETATM   24  C   UNL     1     -10.117  12.728  64.996  1.00  0.00    -0.218 C  
BRANCH  24  25
HETATM   25  N   UNL     1     -10.306  13.826  65.979  1.00  0.00    -0.301 NA 
HETATM   26  C   UNL     1     -11.529  14.430  66.109  1.00  0.00    -0.357 A  
HETATM   27  C   UNL     1     -11.718  15.411  67.086  1.00  0.00     0.035 A  
HETATM   28  C   UNL     1     -12.760  14.078  65.306  1.00  0.00    -0.468 C  
HETATM   29  C   UNL     1     -10.687  15.817  67.918  1.00  0.00    -0.302 A  
HETATM   30  N   UNL     1     -11.005  16.697  68.957  1.00  0.00    -0.305 NA 
HETATM   31  C   UNL     1      -9.455  15.150  67.820  1.00  0.00    -0.194 A  
HETATM   32  H1  UNL     1     -10.247  16.996  69.570  1.00  0.00     0.000 HD 
HETATM   33  C   UNL     1      -9.259  14.169  66.809  1.00  0.00    -0.266 A  
HETATM   34  H2  UNL     1     -11.755  16.296  69.521  1.00  0.00     0.000 HD 
HETATM   35  C   UNL     1      -7.984  13.557  66.708  1.00  0.00     0.354 A  
HETATM   36  C   UNL     1      -6.949  13.851  67.594  1.00  0.00    -0.189 A  
HETATM   37  C   UNL     1      -7.157  14.773  68.602  1.00  0.00    -0.112 A  
HETATM   38  C   UNL     1      -8.388  15.418  68.708  1.00  0.00    -0.182 A  
ENDBRANCH  24  25
ENDBRANCH  23  24
ENDBRANCH  22  23
ENDBRANCH  21  22
ENDBRANCH  20  21
ENDBRANCH  19  20
ENDBRANCH  18  19
ENDBRANCH  17  18
ENDBRANCH  16  17
ENDBRANCH  15  16
ENDBRANCH  14  15
TORSDOF 11
ENDMDL
MODEL      444
REMARK 921   NORMALIZED FREE ENERGY PREDICTED BY IDOCK:   -2.75 KCAL/MOL
REMARK 922        TOTAL FREE ENERGY PREDICTED BY IDOCK:   -5.88 KCAL/MOL
REMARK 923 INTER-LIGAND FREE ENERGY PREDICTED BY IDOCK:   -5.82 KCAL/MOL
REMARK 924 INTRA-LIGAND FREE ENERGY PREDICTED BY IDOCK:   -0.06 KCAL/MOL
REMARK 927      BINDING AFFINITY PREDICTED BY RF-SCORE:    0.00 PKD
ROOT
HETATM    1  C   UNL     1      -7.760   5.090  68.474  1.00  0.00    -0.079 C  
HETATM    2  C   UNL     1      -7.800   4.531  67.070  1.00  0.00    -0.098 A  
HETATM    3  C   UNL     1      -6.589   4.307  66.427  1.00  0.00    -0.045 A  
HETATM    4  C   UNL     1      -6.536   3.783  65.144  1.00  0.00    -0.044 A  
HETATM    5  N   UNL     1      -5.278   3.456  64.630  1.00  0.00    -0.009 NA 
HETATM    6  C   UNL     1      -7.742   3.390  64.533  1.00  0.00    -0.077 A  
HETATM    7  H2  UNL     1      -4.805   2.820  65.272  1.00  0.00     0.000 HD 
HETATM    8  C   UNL     1      -7.767   2.731  63.282  1.00  0.00    -0.064 A  
HETATM    9  H1  UNL     1      -5.239   3.071  63.686  1.00  0.00     0.000 HD 
HETATM   10  C   UNL     1      -8.961   2.356  62.667  1.00  0.00    -0.081 A  
HETATM   11  C   UNL     1     -10.167   2.639  63.281  1.00  0.00    -0.148 A  
HETATM   12  C   UNL     1     -10.177   3.283  64.521  1.00  0.00    -0.037 A  
HETATM   13  C   UNL     1      -8.977   3.644  65.186  1.00  0.00    -0.133 A  
HETATM   14  N   UNL     1      -8.972   4.208  66.444  1.00  0.00    -0.118 NA 
ENDROOT
BRANCH  14  15
HETATM   15  C   UNL     1     -10.257   4.410  67.171  1.00  0.00     0.029 C  
BRANCH  15  16
HETATM   16  C   UNL     1     -10.829   5.796  66.878  1.00  0.00    -0.337 C  
BRANCH  16  17
HETATM   17  C   UNL     1     -11.213   6.528  68.161  1.00  0.00    -0.250 C  
BRANCH  17  18
HETATM   18  C   UNL     1     -10.016   7.188  68.852  1.00  0.00    -0.163 C  
BRANCH  18  19
HETATM   19  C   UNL     1      -9.596   8.484  68.166  1.00  0.00    -0.158 C  
BRANCH  19  20
HETATM   20  C   UNL     1     -10.013   8.551  66.695  1.00  0.00    -0.363 C  
BRANCH  20  21
HETATM   21  C   UNL     1      -9.370   9.710  65.920  1.00  0.00    -0.275 C  
BRANCH  21  22
HETATM   22  C   UNL     1     -10.396  10.706  65.375  1.00  0.00    -0.303 C  
BRANCH  22  23
HETATM   23  C   UNL     1     -10.539  11.962  66.243  1.00  0.00    -0.289 C  
BRANCH  23  24
HETATM   24  C   UNL     1      -9.971  11.744  67.646  1.00  0.00    -0.194 C  
BRANCH  24  25
HETATM   25  N   UNL     1      -9.267  12.962  68.121  1.00  0.00    -0.210 NA 
HETATM   26  C   UNL     1      -7.933  13.133  67.860  1.00  0.00    -0.158 A  
HETATM   27  C   UNL     1      -7.295  14.314  68.246  1.00  0.00    -0.124 A  
HETATM   28  C   UNL     1      -7.063  12.150  67.109  1.00  0.00    -0.120 C  
HETATM   29  C   UNL     1      -7.972  15.320  68.919  1.00  0.00    -0.176 A  
HETATM   30  N   UNL     1      -7.292  16.522  69.135  1.00  0.00    -0.225 NA 
HETATM   31  C   UNL     1      -9.352  15.164  69.126  1.00  0.00    -0.215 A  
HETATM   32  H1  UNL     1      -7.789  17.262  69.630  1.00  0.00     0.000 HD 
HETATM   33  C   UNL     1      -9.992  13.950  68.754  1.00  0.00    -0.135 A  
HETATM   34  H2  UNL     1      -6.951  16.882  68.244  1.00  0.00     0.000 HD 
HETATM   35  C   UNL     1     -11.377  13.811  69.030  1.00  0.00    -0.333 A  
HETATM   36  C   UNL     1     -12.124  14.838  69.602  1.00  0.00    -0.346 A  
HETATM   37  C   UNL     1     -11.508  16.032  69.924  1.00  0.00    -0.327 A  
HETATM   38  C   UNL     1     -10.142  16.190  69.696  1.00  0.00    -0.212 A  
ENDBRANCH  24  25
ENDBRANCH  23  24
ENDBRANCH  22  23
ENDBRANCH  21  22
ENDBRANCH  20  21
ENDBRANCH  19  20
ENDBRANCH  18  19
ENDBRANCH  17  18
ENDBRANCH  16  17
ENDBRANCH  15  16
ENDBRANCH  14  15
TORSDOF 11
ENDMDL
MODEL      445
REMARK 921   NORMALIZED FREE ENERGY PREDICTED BY IDOCK:   -2.57 KCAL/MOL
REMARK 922        TOTAL FREE ENERGY PREDICTED BY IDOCK:   -5.58 KCAL/MOL
REMARK 923 INTER-LIGAND FREE ENERGY PREDICTED BY IDOCK:   -4.39 KCAL/MOL
REMARK 924 INTRA-LIGAND FREE ENERGY PREDICTED BY IDOCK:   -1.19 KCAL/MOL
REMARK 927      BINDING AFFINITY PREDICTED BY RF-SCORE:    0.00 PKD
ROOT
HETATM    1  C   UNL     1      -9.377   4.454  65.762  1.00  0.00    -0.162 C  
HETATM    2  C   UNL     1      -9.801   5.501  66.767  1.00  0.00    -0.167 A  
HETATM    3  C   UNL     1     -10.154   5.072  68.041  1.00  0.00    -0.169 A  
HETATM    4  C   UNL     1     -10.541   5.968  69.026  1.00  0.00    -0.291 A  
HETATM    5  N   UNL     1     -10.740   5.466  70.316  1.00  0.00    -0.263 NA 
HETATM    6  C   UNL     1     -10.478   7.345  68.738  1.00  0.00    -0.215 A  
HETATM    7  H2  UNL     1      -9.900   4.974  70.620  1.00  0.00     0.000 HD 
HETATM    8  C   UNL     1     -10.731   8.328  69.723  1.00  0.00    -0.221 A  
HETATM    9  H1  UNL     1     -11.024   6.126  71.040  1.00  0.00     0.000 HD 
HETATM   10  C   UNL     1     -10.687   9.691  69.435  1.00  0.00    -0.248 A  
HETATM   11  C   UNL     1     -10.398  10.113  68.151  1.00  0.00    -0.217 A  
HETATM   12  C   UNL     1     -10.136   9.167  67.156  1.00  0.00    -0.301 A  
HETATM   13  C   UNL     1     -10.140   7.774  67.428  1.00  0.00    -0.222 A  
HETATM   14  N   UNL     1      -9.806   6.837  66.474  1.00  0.00    -0.144 NA 
ENDROOT
BRANCH  14  15
HETATM   15  C   UNL     1      -9.376   7.278  65.118  1.00  0.00     0.964 C  
BRANCH  15  16
HETATM   16  C   UNL     1      -7.852   7.336  65.029  1.00  0.00    -0.125 C  
BRANCH  16  17
HETATM   17  C   UNL     1      -7.248   8.088  66.212  1.00  0.00    -0.071 C  
BRANCH  17  18
HETATM   18  C   UNL     1      -6.636   9.434  65.811  1.00  0.00    -0.073 C  
BRANCH  18  19
HETATM   19  C   UNL     1      -5.260   9.651  66.434  1.00  0.00    -0.043 C  
BRANCH  19  20
HETATM   20  C   UNL     1      -5.280  10.617  67.620  1.00  0.00    -0.036 C  
BRANCH  20  21
HETATM   21  C   UNL     1      -6.596  10.605  68.408  1.00  0.00    -0.055 C  
BRANCH  21  22
HETATM   22  C   UNL     1      -7.442  11.861  68.178  1.00  0.00    -0.100 C  
BRANCH  22  23
HETATM   23  C   UNL     1      -6.667  13.162  68.415  1.00  0.00    -0.095 C  
BRANCH  23  24
HETATM   24  C   UNL     1      -7.496  14.174  69.208  1.00  0.00     0.018 C  
BRANCH  24  25
HETATM   25  N   UNL     1      -8.316  15.009  68.295  1.00  0.00    -0.140 NA 
HETATM   26  C   UNL     1      -7.710  15.825  67.377  1.00  0.00    -0.183 A  
HETATM   27  C   UNL     1      -8.489  16.553  66.473  1.00  0.00    -0.328 A  
HETATM   28  C   UNL     1      -6.216  15.974  67.201  1.00  0.00    -0.079 C  
HETATM   29  C   UNL     1      -9.873  16.495  66.495  1.00  0.00    -0.278 A  
HETATM   30  N   UNL     1     -10.562  17.140  65.463  1.00  0.00    -0.579 NA 
HETATM   31  C   UNL     1     -10.484  15.608  67.396  1.00  0.00    -0.291 A  
HETATM   32  H1  UNL     1     -11.581  17.098  65.478  1.00  0.00     0.000 HD 
HETATM   33  C   UNL     1      -9.690  14.889  68.331  1.00  0.00    -0.209 A  
HETATM   34  H2  UNL     1     -10.224  16.795  64.564  1.00  0.00     0.000 HD 
HETATM   35  C   UNL     1     -10.350  14.045  69.261  1.00  0.00     0.018 A  
HETATM   36  C   UNL     1     -11.732  13.868  69.249  1.00  0.00    -0.381 A  
HETATM   37  C   UNL     1     -12.496  14.536  68.311  1.00  0.00     0.208 A  
HETATM   38  C   UNL     1     -11.883  15.398  67.404  1.00  0.00     0.083 A  
ENDBRANCH  24  25
ENDBRANCH  23  24
ENDBRANCH  22  23
ENDBRANCH  21  22
ENDBRANCH  20  21
ENDBRANCH  19  20
ENDBRANCH  18  19
ENDBRANCH  17  18
ENDBRANCH  16  17
ENDBRANCH  15  16
ENDBRANCH  14  15
TORSDOF 11
ENDMDL
MODEL      446
REMARK 921   NORMALIZED FREE ENERGY PREDICTED BY IDOCK:   -2.57 KCAL/MOL
REMARK 922        TOTAL FREE ENERGY PREDICTED BY IDOCK:   -5.57 KCAL/MOL
REMARK 923 INTER-LIGAND FREE ENERGY PREDICTED BY IDOCK:   -5.50 KCAL/MOL
REMARK 924 INTRA-LIGAND FREE ENERGY PREDICTED BY IDOCK:   -0.07 KCAL/MOL
REMARK 927      BINDING AFFINITY PREDICTED BY RF-SCORE:    0.00 PKD
ROOT
HETATM    1  C   UNL     1      -8.470   4.942  66.249  1.00  0.00    -0.111 C  
HETATM    2  C   UNL     1      -8.386   4.476  67.685  1.00  0.00    -0.099 A  
HETATM    3  C   UNL     1      -8.996   3.271  68.012  1.00  0.00    -0.188 A  
HETATM    4  C   UNL     1      -8.953   2.765  69.303  1.00  0.00    -0.111 A  
HETATM    5  N   UNL     1      -9.469   1.482  69.512  1.00  0.00    -0.093 NA 
HETATM    6  C   UNL     1      -8.192   3.454  70.266  1.00  0.00    -0.069 A  
HETATM    7  H2  UNL     1      -9.011   0.827  68.878  1.00  0.00     0.000 HD 
HETATM    8  C   UNL     1      -7.991   2.940  71.568  1.00  0.00    -0.056 A  
HETATM    9  H1  UNL     1      -9.437   1.110  70.461  1.00  0.00     0.000 HD 
HETATM   10  C   UNL     1      -7.251   3.629  72.528  1.00  0.00    -0.049 A  
HETATM   11  C   UNL     1      -6.699   4.857  72.218  1.00  0.00    -0.048 A  
HETATM   12  C   UNL     1      -6.873   5.390  70.938  1.00  0.00    -0.048 A  
HETATM   13  C   UNL     1      -7.591   4.695  69.930  1.00  0.00    -0.054 A  
HETATM   14  N   UNL     1      -7.703   5.174  68.642  1.00  0.00    -0.078 NA 
ENDROOT
BRANCH  14  15
HETATM   15  C   UNL     1      -7.013   6.437  68.258  1.00  0.00    -0.080 C  
BRANCH  15  16
HETATM   16  C   UNL     1      -5.897   6.157  67.254  1.00  0.00    -0.017 C  
BRANCH  16  17
HETATM   17  C   UNL     1      -5.306   7.449  66.695  1.00  0.00    -0.024 C  
BRANCH  17  18
HETATM   18  C   UNL     1      -5.709   7.708  65.241  1.00  0.00    -0.037 C  
BRANCH  18  19
HETATM   19  C   UNL     1      -6.756   8.811  65.119  1.00  0.00    -0.064 C  
BRANCH  19  20
HETATM   20  C   UNL     1      -6.617   9.896  66.188  1.00  0.00    -0.084 C  
BRANCH  20  21
HETATM   21  C   UNL     1      -7.227   9.514  67.544  1.00  0.00    -0.090 C  
BRANCH  21  22
HETATM   22  C   UNL     1      -8.620  10.110  67.762  1.00  0.00    -0.118 C  
BRANCH  22  23
HETATM   23  C   UNL     1      -8.587  11.579  68.199  1.00  0.00    -0.156 C  
BRANCH  23  24
HETATM   24  C   UNL     1      -8.499  12.522  66.998  1.00  0.00    -0.161 C  
BRANCH  24  25
HETATM   25  N   UNL     1      -9.850  12.997  66.605  1.00  0.00    -0.246 NA 
HETATM   26  C   UNL     1     -10.480  13.966  67.340  1.00  0.00    -0.263 A  
HETATM   27  C   UNL     1     -11.719  14.459  66.922  1.00  0.00    -0.422 A  
HETATM   28  C   UNL     1      -9.912  14.623  68.577  1.00  0.00    -0.235 C  
HETATM   29  C   UNL     1     -12.351  13.973  65.788  1.00  0.00    -0.480 A  
HETATM   30  N   UNL     1     -13.514  14.625  65.369  1.00  0.00    -0.160 NA 
HETATM   31  C   UNL     1     -11.670  13.025  65.006  1.00  0.00    -0.376 A  
HETATM   32  H1  UNL     1     -13.979  14.268  64.534  1.00  0.00     0.000 HD 
HETATM   33  C   UNL     1     -10.421  12.508  65.448  1.00  0.00    -0.282 A  
HETATM   34  H2  UNL     1     -13.318  15.619  65.245  1.00  0.00     0.000 HD 
HETATM   35  C   UNL     1      -9.792  11.513  64.657  1.00  0.00    -0.283 A  
HETATM   36  C   UNL     1     -10.334  11.073  63.452  1.00  0.00    -0.373 A  
HETATM   37  C   UNL     1     -11.526  11.609  63.005  1.00  0.00     0.071 A  
HETATM   38  C   UNL     1     -12.187  12.565  63.774  1.00  0.00    -0.615 A  
ENDBRANCH  24  25
ENDBRANCH  23  24
ENDBRANCH  22  23
ENDBRANCH  21  22
ENDBRANCH  20  21
ENDBRANCH  19  20
ENDBRANCH  18  19
ENDBRANCH  17  18
ENDBRANCH  16  17
ENDBRANCH  15  16
ENDBRANCH  14  15
TORSDOF 11
ENDMDL
MODEL      447
REMARK 921   NORMALIZED FREE ENERGY PREDICTED BY IDOCK:   -2.56 KCAL/MOL
REMARK 922        TOTAL FREE ENERGY PREDICTED BY IDOCK:   -5.56 KCAL/MOL
REMARK 923 INTER-LIGAND FREE ENERGY PREDICTED BY IDOCK:   -4.93 KCAL/MOL
REMARK 924 INTRA-LIGAND FREE ENERGY PREDICTED BY IDOCK:   -0.63 KCAL/MOL
REMARK 927      BINDING AFFINITY PREDICTED BY RF-SCORE:    0.00 PKD
ROOT
HETATM    1  C   UNL     1      -9.823   7.273  65.943  1.00  0.00     0.442 C  
HETATM    2  C   UNL     1      -9.097   6.144  66.639  1.00  0.00    -0.139 A  
HETATM    3  C   UNL     1      -9.641   4.869  66.548  1.00  0.00    -0.176 A  
HETATM    4  C   UNL     1      -9.030   3.777  67.145  1.00  0.00    -0.143 A  
HETATM    5  N   UNL     1      -9.567   2.512  66.884  1.00  0.00    -0.393 NA 
HETATM    6  C   UNL     1      -7.784   3.969  67.772  1.00  0.00    -0.068 A  
HETATM    7  H2  UNL     1      -9.608   2.365  65.875  1.00  0.00     0.000 HD 
HETATM    8  C   UNL     1      -7.034   2.888  68.292  1.00  0.00    -0.049 A  
HETATM    9  H1  UNL     1      -9.117   1.709  67.323  1.00  0.00     0.000 HD 
HETATM   10  C   UNL     1      -5.808   3.078  68.929  1.00  0.00    -0.023 A  
HETATM   11  C   UNL     1      -5.300   4.355  69.073  1.00  0.00    -0.011 A  
HETATM   12  C   UNL     1      -6.014   5.444  68.564  1.00  0.00    -0.021 A  
HETATM   13  C   UNL     1      -7.246   5.278  67.881  1.00  0.00    -0.071 A  
HETATM   14  N   UNL     1      -7.918   6.335  67.306  1.00  0.00    -0.108 NA 
ENDROOT
BRANCH  14  15
HETATM   15  C   UNL     1      -7.327   7.701  67.348  1.00  0.00    -0.092 C  
BRANCH  15  16
HETATM   16  C   UNL     1      -7.811   8.460  68.582  1.00  0.00    -0.116 C  
BRANCH  16  17
HETATM   17  C   UNL     1      -6.858   9.591  68.958  1.00  0.00    -0.054 C  
BRANCH  17  18
HETATM   18  C   UNL     1      -7.584  10.835  69.477  1.00  0.00    -0.094 C  
BRANCH  18  19
HETATM   19  C   UNL     1      -7.891  11.832  68.364  1.00  0.00    -0.141 C  
BRANCH  19  20
HETATM   20  C   UNL     1      -9.070  11.410  67.484  1.00  0.00    -0.157 C  
BRANCH  20  21
HETATM   21  C   UNL     1      -8.704  11.218  66.007  1.00  0.00    -0.165 C  
BRANCH  21  22
HETATM   22  C   UNL     1      -9.912  11.329  65.072  1.00  0.00    -0.323 C  
BRANCH  22  23
HETATM   23  C   UNL     1     -10.652  12.666  65.199  1.00  0.00    -0.324 C  
BRANCH  23  24
HETATM   24  C   UNL     1      -9.679  13.837  65.335  1.00  0.00    -0.042 C  
BRANCH  24  25
HETATM   25  N   UNL     1     -10.053  14.698  66.486  1.00  0.00    -0.270 NA 
HETATM   26  C   UNL     1     -11.372  14.900  66.794  1.00  0.00    -0.328 A  
HETATM   27  C   UNL     1     -11.715  15.652  67.921  1.00  0.00    -0.097 A  
HETATM   28  C   UNL     1     -12.541  14.314  66.035  1.00  0.00    -0.335 C  
HETATM   29  C   UNL     1     -10.749  16.229  68.731  1.00  0.00    -0.309 A  
HETATM   30  N   UNL     1     -11.180  16.838  69.914  1.00  0.00    -0.354 NA 
HETATM   31  C   UNL     1      -9.400  15.964  68.444  1.00  0.00    -0.201 A  
HETATM   32  H1  UNL     1     -10.470  17.263  70.510  1.00  0.00     0.000 HD 
HETATM   33  C   UNL     1      -9.056  15.220  67.282  1.00  0.00    -0.198 A  
HETATM   34  H2  UNL     1     -11.722  16.169  70.460  1.00  0.00     0.000 HD 
HETATM   35  C   UNL     1      -7.680  15.021  66.999  1.00  0.00    -0.120 A  
HETATM   36  C   UNL     1      -6.675  15.486  67.843  1.00  0.00    -0.172 A  
HETATM   37  C   UNL     1      -7.015  16.172  68.994  1.00  0.00    -0.178 A  
HETATM   38  C   UNL     1      -8.356  16.413  69.286  1.00  0.00    -0.101 A  
ENDBRANCH  24  25
ENDBRANCH  23  24
ENDBRANCH  22  23
ENDBRANCH  21  22
ENDBRANCH  20  21
ENDBRANCH  19  20
ENDBRANCH  18  19
ENDBRANCH  17  18
ENDBRANCH  16  17
ENDBRANCH  15  16
ENDBRANCH  14  15
TORSDOF 11
ENDMDL
MODEL      448
REMARK 921   NORMALIZED FREE ENERGY PREDICTED BY IDOCK:   -2.51 KCAL/MOL
REMARK 922        TOTAL FREE ENERGY PREDICTED BY IDOCK:   -5.47 KCAL/MOL
REMARK 923 INTER-LIGAND FREE ENERGY PREDICTED BY IDOCK:   -5.11 KCAL/MOL
REMARK 924 INTRA-LIGAND FREE ENERGY PREDICTED BY IDOCK:   -0.36 KCAL/MOL
REMARK 927      BINDING AFFINITY PREDICTED BY RF-SCORE:    0.00 PKD
ROOT
HETATM    1  C   UNL     1      -8.373   8.363  66.330  1.00  0.00    -0.116 C  
HETATM    2  C   UNL     1      -7.864   7.000  66.740  1.00  0.00    -0.107 A  
HETATM    3  C   UNL     1      -6.722   6.945  67.530  1.00  0.00    -0.067 A  
HETATM    4  C   UNL     1      -6.197   5.736  67.961  1.00  0.00    -0.039 A  
HETATM    5  N   UNL     1      -5.132   5.779  68.867  1.00  0.00    -0.003 NA 
HETATM    6  C   UNL     1      -6.904   4.556  67.661  1.00  0.00    -0.055 A  
HETATM    7  H2  UNL     1      -5.401   6.337  69.677  1.00  0.00     0.000 HD 
HETATM    8  C   UNL     1      -6.509   3.297  68.170  1.00  0.00    -0.037 A  
HETATM    9  H1  UNL     1      -4.747   4.889  69.184  1.00  0.00     0.000 HD 
HETATM   10  C   UNL     1      -7.197   2.125  67.860  1.00  0.00    -0.047 A  
HETATM   11  C   UNL     1      -8.296   2.175  67.023  1.00  0.00    -0.088 A  
HETATM   12  C   UNL     1      -8.716   3.405  66.508  1.00  0.00    -0.127 A  
HETATM   13  C   UNL     1      -8.057   4.618  66.835  1.00  0.00    -0.103 A  
HETATM   14  N   UNL     1      -8.509   5.844  66.397  1.00  0.00    -0.117 NA 
ENDROOT
BRANCH  14  15
HETATM   15  C   UNL     1      -9.760   5.928  65.593  1.00  0.00     0.296 C  
BRANCH  15  16
HETATM   16  C   UNL     1     -10.988   5.877  66.500  1.00  0.00    -0.142 C  
BRANCH  16  17
HETATM   17  C   UNL     1     -10.769   4.949  67.692  1.00  0.00     0.265 C  
BRANCH  17  18
HETATM   18  C   UNL     1     -10.666   5.702  69.022  1.00  0.00    -0.307 C  
BRANCH  18  19
HETATM   19  C   UNL     1     -10.093   4.832  70.136  1.00  0.00    -0.310 C  
BRANCH  19  20
HETATM   20  C   UNL     1     -10.018   5.550  71.485  1.00  0.00    -0.229 C  
BRANCH  20  21
HETATM   21  C   UNL     1     -11.388   5.943  72.055  1.00  0.00    -0.325 C  
BRANCH  21  22
HETATM   22  C   UNL     1     -12.183   6.860  71.121  1.00  0.00    -0.428 C  
BRANCH  22  23
HETATM   23  C   UNL     1     -12.896   8.000  71.858  1.00  0.00    -0.343 C  
BRANCH  23  24
HETATM   24  C   UNL     1     -11.912   9.076  72.317  1.00  0.00    -0.262 C  
BRANCH  24  25
HETATM   25  N   UNL     1     -11.100   9.566  71.173  1.00  0.00    -0.352 NA 
HETATM   26  C   UNL     1     -11.672  10.353  70.210  1.00  0.00    -0.321 A  
HETATM   27  C   UNL     1     -10.885  10.869  69.177  1.00  0.00    -0.280 A  
HETATM   28  C   UNL     1     -13.120  10.786  70.190  1.00  0.00     0.080 C  
HETATM   29  C   UNL     1      -9.532  10.582  69.081  1.00  0.00    -0.191 A  
HETATM   30  N   UNL     1      -8.798  11.257  68.102  1.00  0.00    -0.152 NA 
HETATM   31  C   UNL     1      -8.941   9.826  70.107  1.00  0.00    -0.235 A  
HETATM   32  H1  UNL     1      -7.802  11.047  68.030  1.00  0.00     0.000 HD 
HETATM   33  C   UNL     1      -9.750   9.283  71.142  1.00  0.00    -0.257 A  
HETATM   34  H2  UNL     1      -8.921  12.263  68.220  1.00  0.00     0.000 HD 
HETATM   35  C   UNL     1      -9.124   8.480  72.129  1.00  0.00    -0.319 A  
HETATM   36  C   UNL     1      -7.749   8.255  72.138  1.00  0.00    -0.162 A  
HETATM   37  C   UNL     1      -6.960   8.820  71.154  1.00  0.00    -0.082 A  
HETATM   38  C   UNL     1      -7.548   9.588  70.151  1.00  0.00    -0.146 A  
ENDBRANCH  24  25
ENDBRANCH  23  24
ENDBRANCH  22  23
ENDBRANCH  21  22
ENDBRANCH  20  21
ENDBRANCH  19  20
ENDBRANCH  18  19
ENDBRANCH  17  18
ENDBRANCH  16  17
ENDBRANCH  15  16
ENDBRANCH  14  15
TORSDOF 11
ENDMDL
MODEL      449
REMARK 921   NORMALIZED FREE ENERGY PREDICTED BY IDOCK:   -2.46 KCAL/MOL
REMARK 922        TOTAL FREE ENERGY PREDICTED BY IDOCK:   -5.40 KCAL/MOL
REMARK 923 INTER-LIGAND FREE ENERGY PREDICTED BY IDOCK:   -4.73 KCAL/MOL
REMARK 924 INTRA-LIGAND FREE ENERGY PREDICTED BY IDOCK:   -0.67 KCAL/MOL
REMARK 927      BINDING AFFINITY PREDICTED BY RF-SCORE:    0.00 PKD
ROOT
HETATM    1  C   UNL     1      -7.675   7.255  64.404  1.00  0.00    -0.120 C  
HETATM    2  C   UNL     1      -8.019   7.516  65.853  1.00  0.00    -0.117 A  
HETATM    3  C   UNL     1      -9.355   7.444  66.226  1.00  0.00    -0.166 A  
HETATM    4  C   UNL     1      -9.754   7.656  67.537  1.00  0.00    -0.156 A  
HETATM    5  N   UNL     1     -11.097   7.424  67.851  1.00  0.00    -0.491 NA 
HETATM    6  C   UNL     1      -8.759   7.853  68.514  1.00  0.00    -0.131 A  
HETATM    7  H2  UNL     1     -11.350   6.477  67.571  1.00  0.00     0.000 HD 
HETATM    8  C   UNL     1      -9.071   7.949  69.890  1.00  0.00    -0.146 A  
HETATM    9  H1  UNL     1     -11.390   7.580  68.815  1.00  0.00     0.000 HD 
HETATM   10  C   UNL     1      -8.089   8.161  70.857  1.00  0.00    -0.098 A  
HETATM   11  C   UNL     1      -6.768   8.295  70.476  1.00  0.00    -0.037 A  
HETATM   12  C   UNL     1      -6.426   8.199  69.124  1.00  0.00    -0.040 A  
HETATM   13  C   UNL     1      -7.398   7.948  68.122  1.00  0.00    -0.099 A  
HETATM   14  N   UNL     1      -7.063   7.774  66.797  1.00  0.00    -0.078 NA 
ENDROOT
BRANCH  14  15
HETATM   15  C   UNL     1      -5.632   7.796  66.385  1.00  0.00    -0.028 C  
BRANCH  15  16
HETATM   16  C   UNL     1      -5.130   9.233  66.255  1.00  0.00    -0.039 C  
BRANCH  16  17
HETATM   17  C   UNL     1      -6.274  10.205  65.978  1.00  0.00    -0.086 C  
BRANCH  17  18
HETATM   18  C   UNL     1      -6.020  11.602  66.551  1.00  0.00    -0.036 C  
BRANCH  18  19
HETATM   19  C   UNL     1      -6.707  11.808  67.898  1.00  0.00    -0.072 C  
BRANCH  19  20
HETATM   20  C   UNL     1      -7.260  13.223  68.083  1.00  0.00    -0.112 C  
BRANCH  20  21
HETATM   21  C   UNL     1      -7.964  13.781  66.839  1.00  0.00     0.202 C  
BRANCH  21  22
HETATM   22  C   UNL     1      -9.452  14.059  67.070  1.00  0.00    -0.253 C  
BRANCH  22  23
HETATM   23  C   UNL     1      -9.762  14.557  68.487  1.00  0.00    -0.224 C  
BRANCH  23  24
HETATM   24  C   UNL     1     -10.116  16.045  68.495  1.00  0.00    -0.233 C  
BRANCH  24  25
HETATM   25  N   UNL     1      -9.070  16.836  67.798  1.00  0.00    -0.219 NA 
HETATM   26  C   UNL     1      -9.396  17.595  66.705  1.00  0.00    -0.278 A  
HETATM   27  C   UNL     1      -8.422  18.393  66.099  1.00  0.00    -0.145 A  
HETATM   28  C   UNL     1     -10.778  17.701  66.103  1.00  0.00    -0.105 C  
HETATM   29  C   UNL     1      -7.115  18.421  66.559  1.00  0.00    -0.221 A  
HETATM   30  N   UNL     1      -6.248  19.356  65.984  1.00  0.00    -0.180 NA 
HETATM   31  C   UNL     1      -6.805  17.690  67.718  1.00  0.00    -0.187 A  
HETATM   32  H1  UNL     1      -5.287  19.377  66.322  1.00  0.00     0.000 HD 
HETATM   33  C   UNL     1      -7.792  16.859  68.316  1.00  0.00    -0.208 A  
HETATM   34  H2  UNL     1      -6.655  20.288  66.067  1.00  0.00     0.000 HD 
HETATM   35  C   UNL     1      -7.424  16.095  69.453  1.00  0.00    -0.181 A  
HETATM   36  C   UNL     1      -6.154  16.175  70.019  1.00  0.00    -0.142 A  
HETATM   37  C   UNL     1      -5.211  17.016  69.460  1.00  0.00    -0.153 A  
HETATM   38  C   UNL     1      -5.529  17.756  68.323  1.00  0.00    -0.154 A  
ENDBRANCH  24  25
ENDBRANCH  23  24
ENDBRANCH  22  23
ENDBRANCH  21  22
ENDBRANCH  20  21
ENDBRANCH  19  20
ENDBRANCH  18  19
ENDBRANCH  17  18
ENDBRANCH  16  17
ENDBRANCH  15  16
ENDBRANCH  14  15
TORSDOF 11
ENDMDL
MODEL      450
REMARK 921   NORMALIZED FREE ENERGY PREDICTED BY IDOCK:   -2.38 KCAL/MOL
REMARK 922        TOTAL FREE ENERGY PREDICTED BY IDOCK:   -5.27 KCAL/MOL
REMARK 923 INTER-LIGAND FREE ENERGY PREDICTED BY IDOCK:   -3.49 KCAL/MOL
REMARK 924 INTRA-LIGAND FREE ENERGY PREDICTED BY IDOCK:   -1.78 KCAL/MOL
REMARK 927      BINDING AFFINITY PREDICTED BY RF-SCORE:    0.00 PKD
ROOT
HETATM    1  C   UNL     1      -9.605   5.702  68.421  1.00  0.00    -0.152 C  
HETATM    2  C   UNL     1      -9.399   5.925  69.902  1.00  0.00    -0.150 A  
HETATM    3  C   UNL     1     -10.118   5.128  70.784  1.00  0.00    -0.303 A  
HETATM    4  C   UNL     1      -9.977   5.259  72.157  1.00  0.00    -0.184 A  
HETATM    5  N   UNL     1     -10.628   4.322  72.967  1.00  0.00    -0.182 NA 
HETATM    6  C   UNL     1      -9.011   6.159  72.647  1.00  0.00    -0.130 A  
HETATM    7  H2  UNL     1     -10.348   3.382  72.687  1.00  0.00     0.000 HD 
HETATM    8  C   UNL     1      -8.714   6.260  74.026  1.00  0.00    -0.130 A  
HETATM    9  H1  UNL     1     -10.524   4.419  73.977  1.00  0.00     0.000 HD 
HETATM   10  C   UNL     1      -7.771   7.163  74.515  1.00  0.00    -0.150 A  
HETATM   11  C   UNL     1      -7.104   7.999  73.640  1.00  0.00    -0.158 A  
HETATM   12  C   UNL     1      -7.369   7.919  72.270  1.00  0.00    -0.100 A  
HETATM   13  C   UNL     1      -8.298   6.986  71.741  1.00  0.00    -0.110 A  
HETATM   14  N   UNL     1      -8.510   6.845  70.386  1.00  0.00    -0.133 NA 
ENDROOT
BRANCH  14  15
HETATM   15  C   UNL     1      -7.713   7.653  69.422  1.00  0.00    -0.107 C  
BRANCH  15  16
HETATM   16  C   UNL     1      -6.416   6.933  69.059  1.00  0.00    -0.036 C  
BRANCH  16  17
HETATM   17  C   UNL     1      -5.634   7.689  67.988  1.00  0.00    -0.031 C  
BRANCH  17  18
HETATM   18  C   UNL     1      -6.208   7.493  66.582  1.00  0.00    -0.045 C  
BRANCH  18  19
HETATM   19  C   UNL     1      -7.091   8.660  66.150  1.00  0.00    -0.084 C  
BRANCH  19  20
HETATM   20  C   UNL     1      -6.393  10.018  66.261  1.00  0.00    -0.079 C  
BRANCH  20  21
HETATM   21  C   UNL     1      -6.731  10.786  67.546  1.00  0.00    -0.073 C  
BRANCH  21  22
HETATM   22  C   UNL     1      -8.106  10.423  68.114  1.00  0.00    -0.111 C  
BRANCH  22  23
HETATM   23  C   UNL     1      -9.118  11.572  68.027  1.00  0.00    -0.174 C  
BRANCH  23  24
HETATM   24  C   UNL     1     -10.557  11.062  68.106  1.00  0.00    -0.191 C  
BRANCH  24  25
HETATM   25  N   UNL     1     -11.253  11.638  69.284  1.00  0.00    -0.259 NA 
HETATM   26  C   UNL     1     -11.798  12.893  69.216  1.00  0.00    -0.309 A  
HETATM   27  C   UNL     1     -12.515  13.398  70.304  1.00  0.00    -0.285 A  
HETATM   28  C   UNL     1     -11.748  13.796  68.005  1.00  0.00    -0.390 C  
HETATM   29  C   UNL     1     -12.670  12.672  71.474  1.00  0.00    -0.223 A  
HETATM   30  N   UNL     1     -13.522  13.196  72.450  1.00  0.00    -0.573 NA 
HETATM   31  C   UNL     1     -12.163  11.363  71.512  1.00  0.00    -0.017 A  
HETATM   32  H1  UNL     1     -13.636  12.662  73.312  1.00  0.00     0.000 HD 
HETATM   33  C   UNL     1     -11.413  10.861  70.413  1.00  0.00    -0.275 A  
HETATM   34  H2  UNL     1     -14.439  13.373  72.039  1.00  0.00     0.000 HD 
HETATM   35  C   UNL     1     -10.871   9.554  70.513  1.00  0.00    -0.352 A  
HETATM   36  C   UNL     1     -11.095   8.743  71.623  1.00  0.00    -0.398 A  
HETATM   37  C   UNL     1     -11.860   9.219  72.671  1.00  0.00     0.503 A  
HETATM   38  C   UNL     1     -12.379  10.511  72.619  1.00  0.00     1.901 A  
ENDBRANCH  24  25
ENDBRANCH  23  24
ENDBRANCH  22  23
ENDBRANCH  21  22
ENDBRANCH  20  21
ENDBRANCH  19  20
ENDBRANCH  18  19
ENDBRANCH  17  18
ENDBRANCH  16  17
ENDBRANCH  15  16
ENDBRANCH  14  15
TORSDOF 11
ENDMDL
MODEL      451
REMARK 921   NORMALIZED FREE ENERGY PREDICTED BY IDOCK:   -2.32 KCAL/MOL
REMARK 922        TOTAL FREE ENERGY PREDICTED BY IDOCK:   -5.17 KCAL/MOL
REMARK 923 INTER-LIGAND FREE ENERGY PREDICTED BY IDOCK:   -5.38 KCAL/MOL
REMARK 924 INTRA-LIGAND FREE ENERGY PREDICTED BY IDOCK:    0.22 KCAL/MOL
REMARK 927      BINDING AFFINITY PREDICTED BY RF-SCORE:    0.00 PKD
ROOT
HETATM    1  C   UNL     1     -10.067   7.616  71.934  1.00  0.00    -0.218 C  
HETATM    2  C   UNL     1      -9.646   6.393  71.151  1.00  0.00    -0.174 A  
HETATM    3  C   UNL     1      -9.064   5.344  71.851  1.00  0.00    -0.151 A  
HETATM    4  C   UNL     1      -8.663   4.180  71.211  1.00  0.00    -0.101 A  
HETATM    5  N   UNL     1      -8.218   3.122  72.010  1.00  0.00    -0.062 NA 
HETATM    6  C   UNL     1      -8.945   4.042  69.839  1.00  0.00    -0.161 A  
HETATM    7  H2  UNL     1      -8.935   2.896  72.700  1.00  0.00     0.000 HD 
HETATM    8  C   UNL     1      -8.686   2.840  69.139  1.00  0.00    -0.134 A  
HETATM    9  H1  UNL     1      -7.924   2.267  71.539  1.00  0.00     0.000 HD 
HETATM   10  C   UNL     1      -8.950   2.706  67.777  1.00  0.00    -0.198 A  
HETATM   11  C   UNL     1      -9.470   3.774  67.071  1.00  0.00    -0.227 A  
HETATM   12  C   UNL     1      -9.744   4.973  67.734  1.00  0.00    -0.192 A  
HETATM   13  C   UNL     1      -9.519   5.127  69.126  1.00  0.00    -0.134 A  
HETATM   14  N   UNL     1      -9.858   6.278  69.805  1.00  0.00    -0.163 NA 
ENDROOT
BRANCH  14  15
HETATM   15  C   UNL     1     -10.530   7.393  69.083  1.00  0.00    -0.213 C  
BRANCH  15  16
HETATM   16  C   UNL     1      -9.794   7.715  67.784  1.00  0.00    -0.196 C  
BRANCH  16  17
HETATM   17  C   UNL     1      -8.312   7.985  68.030  1.00  0.00    -0.126 C  
BRANCH  17  18
HETATM   18  C   UNL     1      -7.726   9.018  67.062  1.00  0.00    -0.098 C  
BRANCH  18  19
HETATM   19  C   UNL     1      -6.205   8.940  66.985  1.00  0.00    -0.059 C  
BRANCH  19  20
HETATM   20  C   UNL     1      -5.506   9.576  68.188  1.00  0.00    -0.037 C  
BRANCH  20  21
HETATM   21  C   UNL     1      -6.400  10.530  68.992  1.00  0.00    -0.045 C  
BRANCH  21  22
HETATM   22  C   UNL     1      -6.114  12.006  68.699  1.00  0.00    -0.053 C  
BRANCH  22  23
HETATM   23  C   UNL     1      -7.378  12.873  68.678  1.00  0.00    -0.099 C  
BRANCH  23  24
HETATM   24  C   UNL     1      -7.441  13.745  67.424  1.00  0.00    -0.125 C  
BRANCH  24  25
HETATM   25  N   UNL     1      -7.755  15.153  67.780  1.00  0.00    -0.136 NA 
HETATM   26  C   UNL     1      -6.809  16.130  67.621  1.00  0.00    -0.152 A  
HETATM   27  C   UNL     1      -7.135  17.462  67.889  1.00  0.00    -0.178 A  
HETATM   28  C   UNL     1      -5.406  15.905  67.105  1.00  0.00     0.177 C  
HETATM   29  C   UNL     1      -8.393  17.826  68.343  1.00  0.00    -0.295 A  
HETATM   30  N   UNL     1      -8.672  19.192  68.445  1.00  0.00    -0.339 NA 
HETATM   31  C   UNL     1      -9.375  16.827  68.442  1.00  0.00    -0.231 A  
HETATM   32  H1  UNL     1      -9.598  19.460  68.778  1.00  0.00     0.000 HD 
HETATM   33  C   UNL     1      -9.033  15.470  68.192  1.00  0.00    -0.179 A  
HETATM   34  H2  UNL     1      -8.495  19.641  67.546  1.00  0.00     0.000 HD 
HETATM   35  C   UNL     1     -10.040  14.484  68.356  1.00  0.00    -0.241 A  
HETATM   36  C   UNL     1     -11.348  14.813  68.702  1.00  0.00    -0.305 A  
HETATM   37  C   UNL     1     -11.688  16.138  68.902  1.00  0.00    -0.250 A  
HETATM   38  C   UNL     1     -10.715  17.128  68.781  1.00  0.00    -0.289 A  
ENDBRANCH  24  25
ENDBRANCH  23  24
ENDBRANCH  22  23
ENDBRANCH  21  22
ENDBRANCH  20  21
ENDBRANCH  19  20
ENDBRANCH  18  19
ENDBRANCH  17  18
ENDBRANCH  16  17
ENDBRANCH  15  16
ENDBRANCH  14  15
TORSDOF 11
ENDMDL
MODEL      452
REMARK 921   NORMALIZED FREE ENERGY PREDICTED BY IDOCK:   -2.20 KCAL/MOL
REMARK 922        TOTAL FREE ENERGY PREDICTED BY IDOCK:   -4.97 KCAL/MOL
REMARK 923 INTER-LIGAND FREE ENERGY PREDICTED BY IDOCK:   -5.02 KCAL/MOL
REMARK 924 INTRA-LIGAND FREE ENERGY PREDICTED BY IDOCK:    0.05 KCAL/MOL
REMARK 927      BINDING AFFINITY PREDICTED BY RF-SCORE:    0.00 PKD
ROOT
HETATM    1  C   UNL     1      -8.486   4.923  66.261  1.00  0.00    -0.111 C  
HETATM    2  C   UNL     1      -8.398   4.447  67.693  1.00  0.00    -0.099 A  
HETATM    3  C   UNL     1      -9.042   3.261  68.022  1.00  0.00    -0.214 A  
HETATM    4  C   UNL     1      -8.998   2.746  69.309  1.00  0.00    -0.111 A  
HETATM    5  N   UNL     1      -9.552   1.479  69.519  1.00  0.00    -0.054 NA 
HETATM    6  C   UNL     1      -8.202   3.405  70.266  1.00  0.00    -0.069 A  
HETATM    7  H2  UNL     1      -9.123   0.813  68.876  1.00  0.00     0.000 HD 
HETATM    8  C   UNL     1      -8.000   2.878  71.563  1.00  0.00    -0.056 A  
HETATM    9  H1  UNL     1      -9.520   1.101  70.465  1.00  0.00     0.000 HD 
HETATM   10  C   UNL     1      -7.226   3.537  72.516  1.00  0.00    -0.048 A  
HETATM   11  C   UNL     1      -6.639   4.748  72.205  1.00  0.00    -0.042 A  
HETATM   12  C   UNL     1      -6.813   5.293  70.930  1.00  0.00    -0.048 A  
HETATM   13  C   UNL     1      -7.566   4.628  69.928  1.00  0.00    -0.054 A  
HETATM   14  N   UNL     1      -7.679   5.117  68.645  1.00  0.00    -0.078 NA 
ENDROOT
BRANCH  14  15
HETATM   15  C   UNL     1      -6.955   6.360  68.258  1.00  0.00    -0.080 C  
BRANCH  15  16
HETATM   16  C   UNL     1      -5.873   6.052  67.225  1.00  0.00    -0.017 C  
BRANCH  16  17
HETATM   17  C   UNL     1      -5.304   7.328  66.609  1.00  0.00    -0.023 C  
BRANCH  17  18
HETATM   18  C   UNL     1      -5.811   7.579  65.185  1.00  0.00    -0.038 C  
BRANCH  18  19
HETATM   19  C   UNL     1      -6.794   8.744  65.119  1.00  0.00    -0.075 C  
BRANCH  19  20
HETATM   20  C   UNL     1      -6.528   9.819  66.175  1.00  0.00    -0.076 C  
BRANCH  20  21
HETATM   21  C   UNL     1      -7.121   9.495  67.553  1.00  0.00    -0.085 C  
BRANCH  21  22
HETATM   22  C   UNL     1      -8.446  10.216  67.817  1.00  0.00    -0.114 C  
BRANCH  22  23
HETATM   23  C   UNL     1      -8.269  11.701  68.156  1.00  0.00    -0.151 C  
BRANCH  23  24
HETATM   24  C   UNL     1      -8.257  12.567  66.897  1.00  0.00    -0.068 C  
BRANCH  24  25
HETATM   25  N   UNL     1      -9.626  13.047  66.577  1.00  0.00    -0.258 NA 
HETATM   26  C   UNL     1     -10.316  12.508  65.524  1.00  0.00    -0.280 A  
HETATM   27  C   UNL     1     -11.630  12.912  65.275  1.00  0.00    -0.376 A  
HETATM   28  C   UNL     1      -9.791  11.428  64.605  1.00  0.00    -0.302 C  
HETATM   29  C   UNL     1     -12.255  13.873  66.053  1.00  0.00    -0.462 A  
HETATM   30  N   UNL     1     -13.614  14.108  65.821  1.00  0.00    -0.330 NA 
HETATM   31  C   UNL     1     -11.563  14.375  67.168  1.00  0.00    -0.406 A  
HETATM   32  H1  UNL     1     -14.074  14.815  66.393  1.00  0.00     0.000 HD 
HETATM   33  C   UNL     1     -10.218  13.979  67.403  1.00  0.00    -0.248 A  
HETATM   34  H2  UNL     1     -14.125  13.228  65.896  1.00  0.00     0.000 HD 
HETATM   35  C   UNL     1      -9.536  14.550  68.509  1.00  0.00    -0.220 A  
HETATM   36  C   UNL     1     -10.159  15.436  69.385  1.00  0.00    -0.269 A  
HETATM   37  C   UNL     1     -11.480  15.784  69.178  1.00  0.00    -0.383 A  
HETATM   38  C   UNL     1     -12.169  15.267  68.082  1.00  0.00     0.220 A  
ENDBRANCH  24  25
ENDBRANCH  23  24
ENDBRANCH  22  23
ENDBRANCH  21  22
ENDBRANCH  20  21
ENDBRANCH  19  20
ENDBRANCH  18  19
ENDBRANCH  17  18
ENDBRANCH  16  17
ENDBRANCH  15  16
ENDBRANCH  14  15
TORSDOF 11
ENDMDL
MODEL      453
REMARK 921   NORMALIZED FREE ENERGY PREDICTED BY IDOCK:   -2.19 KCAL/MOL
REMARK 922        TOTAL FREE ENERGY PREDICTED BY IDOCK:   -4.95 KCAL/MOL
REMARK 923 INTER-LIGAND FREE ENERGY PREDICTED BY IDOCK:   -5.44 KCAL/MOL
REMARK 924 INTRA-LIGAND FREE ENERGY PREDICTED BY IDOCK:    0.49 KCAL/MOL
REMARK 927      BINDING AFFINITY PREDICTED BY RF-SCORE:    0.00 PKD
ROOT
HETATM    1  C   UNL     1     -10.732  14.668  69.136  1.00  0.00    -0.263 C  
HETATM    2  C   UNL     1     -10.805  13.173  68.919  1.00  0.00    -0.204 A  
HETATM    3  C   UNL     1     -11.849  12.482  69.520  1.00  0.00    -0.375 A  
HETATM    4  C   UNL     1     -11.998  11.112  69.359  1.00  0.00    -0.349 A  
HETATM    5  N   UNL     1     -13.154  10.521  69.879  1.00  0.00    -0.479 NA 
HETATM    6  C   UNL     1     -11.115  10.442  68.491  1.00  0.00    -0.318 A  
HETATM    7  H2  UNL     1     -13.974  10.995  69.501  1.00  0.00     0.000 HD 
HETATM    8  C   UNL     1     -11.275   9.073  68.172  1.00  0.00     0.352 A  
HETATM    9  H1  UNL     1     -13.262   9.514  69.761  1.00  0.00     0.000 HD 
HETATM   10  C   UNL     1     -10.393   8.403  67.326  1.00  0.00    -0.369 A  
HETATM   11  C   UNL     1      -9.318   9.079  66.781  1.00  0.00    -0.213 A  
HETATM   12  C   UNL     1      -9.136  10.435  67.070  1.00  0.00    -0.153 A  
HETATM   13  C   UNL     1     -10.037  11.151  67.900  1.00  0.00    -0.176 A  
HETATM   14  N   UNL     1      -9.912  12.504  68.129  1.00  0.00    -0.219 NA 
ENDROOT
BRANCH  14  15
HETATM   15  C   UNL     1      -8.829  13.273  67.454  1.00  0.00    -0.204 C  
BRANCH  15  16
HETATM   16  C   UNL     1      -7.942  12.343  66.629  1.00  0.00     0.144 C  
BRANCH  16  17
HETATM   17  C   UNL     1      -6.504  12.337  67.141  1.00  0.00    -0.118 C  
BRANCH  17  18
HETATM   18  C   UNL     1      -6.106  11.004  67.783  1.00  0.00    -0.047 C  
BRANCH  18  19
HETATM   19  C   UNL     1      -5.354  10.098  66.813  1.00  0.00    -0.041 C  
BRANCH  19  20
HETATM   20  C   UNL     1      -5.125   8.687  67.360  1.00  0.00    -0.033 C  
BRANCH  20  21
HETATM   21  C   UNL     1      -6.035   8.325  68.542  1.00  0.00    -0.041 C  
BRANCH  21  22
HETATM   22  C   UNL     1      -5.276   7.676  69.703  1.00  0.00    -0.023 C  
BRANCH  22  23
HETATM   23  C   UNL     1      -6.201   7.096  70.780  1.00  0.00    -0.036 C  
BRANCH  23  24
HETATM   24  C   UNL     1      -7.099   5.995  70.216  1.00  0.00    -0.074 C  
BRANCH  24  25
HETATM   25  N   UNL     1      -8.376   5.922  70.972  1.00  0.00    -0.122 NA 
HETATM   26  C   UNL     1      -9.113   7.056  71.189  1.00  0.00    -0.153 A  
HETATM   27  C   UNL     1     -10.347   6.968  71.837  1.00  0.00    -0.213 A  
HETATM   28  C   UNL     1      -8.731   8.442  70.721  1.00  0.00    -0.167 C  
HETATM   29  C   UNL     1     -10.843   5.758  72.298  1.00  0.00    -0.248 A  
HETATM   30  N   UNL     1     -12.147   5.745  72.802  1.00  0.00    -0.534 NA 
HETATM   31  C   UNL     1     -10.111   4.593  72.015  1.00  0.00    -0.262 A  
HETATM   32  H1  UNL     1     -12.512   4.855  73.141  1.00  0.00     0.000 HD 
HETATM   33  C   UNL     1      -8.844   4.690  71.378  1.00  0.00    -0.123 A  
HETATM   34  H2  UNL     1     -12.783   6.126  72.101  1.00  0.00     0.000 HD 
HETATM   35  C   UNL     1      -8.111   3.495  71.160  1.00  0.00    -0.069 A  
HETATM   36  C   UNL     1      -8.617   2.243  71.504  1.00  0.00    -0.095 A  
HETATM   37  C   UNL     1      -9.868   2.150  72.084  1.00  0.00    -0.216 A  
HETATM   38  C   UNL     1     -10.600   3.308  72.342  1.00  0.00     0.001 A  
ENDBRANCH  24  25
ENDBRANCH  23  24
ENDBRANCH  22  23
ENDBRANCH  21  22
ENDBRANCH  20  21
ENDBRANCH  19  20
ENDBRANCH  18  19
ENDBRANCH  17  18
ENDBRANCH  16  17
ENDBRANCH  15  16
ENDBRANCH  14  15
TORSDOF 11
ENDMDL
MODEL      454
REMARK 921   NORMALIZED FREE ENERGY PREDICTED BY IDOCK:   -2.11 KCAL/MOL
REMARK 922        TOTAL FREE ENERGY PREDICTED BY IDOCK:   -4.82 KCAL/MOL
REMARK 923 INTER-LIGAND FREE ENERGY PREDICTED BY IDOCK:   -5.16 KCAL/MOL
REMARK 924 INTRA-LIGAND FREE ENERGY PREDICTED BY IDOCK:    0.34 KCAL/MOL
REMARK 927      BINDING AFFINITY PREDICTED BY RF-SCORE:    0.00 PKD
ROOT
HETATM    1  C   UNL     1     -10.071   7.621  71.933  1.00  0.00    -0.218 C  
HETATM    2  C   UNL     1      -9.594   6.433  71.129  1.00  0.00    -0.174 A  
HETATM    3  C   UNL     1      -8.942   5.410  71.806  1.00  0.00    -0.146 A  
HETATM    4  C   UNL     1      -8.486   4.279  71.145  1.00  0.00    -0.089 A  
HETATM    5  N   UNL     1      -7.970   3.239  71.924  1.00  0.00    -0.058 NA 
HETATM    6  C   UNL     1      -8.783   4.141  69.776  1.00  0.00    -0.117 A  
HETATM    7  H2  UNL     1      -8.662   2.965  72.622  1.00  0.00     0.000 HD 
HETATM    8  C   UNL     1      -8.468   2.964  69.058  1.00  0.00    -0.100 A  
HETATM    9  H1  UNL     1      -7.635   2.407  71.438  1.00  0.00     0.000 HD 
HETATM   10  C   UNL     1      -8.745   2.831  67.698  1.00  0.00    -0.137 A  
HETATM   11  C   UNL     1      -9.337   3.875  67.013  1.00  0.00    -0.212 A  
HETATM   12  C   UNL     1      -9.667   5.050  67.696  1.00  0.00    -0.188 A  
HETATM   13  C   UNL     1      -9.429   5.200  69.086  1.00  0.00    -0.134 A  
HETATM   14  N   UNL     1      -9.821   6.321  69.784  1.00  0.00    -0.163 NA 
ENDROOT
BRANCH  14  15
HETATM   15  C   UNL     1     -10.567   7.406  69.087  1.00  0.00    -0.204 C  
BRANCH  15  16
HETATM   16  C   UNL     1      -9.869   7.786  67.782  1.00  0.00    -0.200 C  
BRANCH  16  17
HETATM   17  C   UNL     1      -8.416   8.188  68.017  1.00  0.00    -0.133 C  
BRANCH  17  18
HETATM   18  C   UNL     1      -7.928   9.257  67.036  1.00  0.00    -0.102 C  
BRANCH  18  19
HETATM   19  C   UNL     1      -6.405   9.337  66.978  1.00  0.00    -0.066 C  
BRANCH  19  20
HETATM   20  C   UNL     1      -5.794  10.083  68.167  1.00  0.00    -0.042 C  
BRANCH  20  21
HETATM   21  C   UNL     1      -6.795  10.964  68.927  1.00  0.00    -0.076 C  
BRANCH  21  22
HETATM   22  C   UNL     1      -6.669  12.449  68.577  1.00  0.00    -0.077 C  
BRANCH  22  23
HETATM   23  C   UNL     1      -8.019  13.173  68.520  1.00  0.00    -0.094 C  
BRANCH  23  24
HETATM   24  C   UNL     1      -8.173  13.976  67.228  1.00  0.00    -0.171 C  
BRANCH  24  25
HETATM   25  N   UNL     1      -8.626  15.360  67.523  1.00  0.00    -0.166 NA 
HETATM   26  C   UNL     1      -9.801  15.572  68.192  1.00  0.00    -0.216 A  
HETATM   27  C   UNL     1     -10.184  16.873  68.529  1.00  0.00    -0.310 A  
HETATM   28  C   UNL     1     -10.734  14.484  68.674  1.00  0.00    -0.257 C  
HETATM   29  C   UNL     1      -9.415  17.971  68.179  1.00  0.00    -0.289 A  
HETATM   30  N   UNL     1      -9.801  19.217  68.683  1.00  0.00    -0.400 NA 
HETATM   31  C   UNL     1      -8.181  17.741  67.549  1.00  0.00    -0.228 A  
HETATM   32  H1  UNL     1      -9.235  20.025  68.426  1.00  0.00     0.000 HD 
HETATM   33  C   UNL     1      -7.807  16.418  67.185  1.00  0.00    -0.189 A  
HETATM   34  H2  UNL     1      -9.869  19.163  69.700  1.00  0.00     0.000 HD 
HETATM   35  C   UNL     1      -6.577  16.233  66.502  1.00  0.00     0.358 A  
HETATM   36  C   UNL     1      -5.717  17.294  66.227  1.00  0.00    -0.166 A  
HETATM   37  C   UNL     1      -6.064  18.573  66.620  1.00  0.00    -0.181 A  
HETATM   38  C   UNL     1      -7.280  18.793  67.264  1.00  0.00    -0.216 A  
ENDBRANCH  24  25
ENDBRANCH  23  24
ENDBRANCH  22  23
ENDBRANCH  21  22
ENDBRANCH  20  21
ENDBRANCH  19  20
ENDBRANCH  18  19
ENDBRANCH  17  18
ENDBRANCH  16  17
ENDBRANCH  15  16
ENDBRANCH  14  15
TORSDOF 11
ENDMDL
MODEL      455
REMARK 921   NORMALIZED FREE ENERGY PREDICTED BY IDOCK:   -1.93 KCAL/MOL
REMARK 922        TOTAL FREE ENERGY PREDICTED BY IDOCK:   -4.52 KCAL/MOL
REMARK 923 INTER-LIGAND FREE ENERGY PREDICTED BY IDOCK:   -4.15 KCAL/MOL
REMARK 924 INTRA-LIGAND FREE ENERGY PREDICTED BY IDOCK:   -0.37 KCAL/MOL
REMARK 927      BINDING AFFINITY PREDICTED BY RF-SCORE:    0.00 PKD
ROOT
HETATM    1  C   UNL     1     -10.804  10.058  67.352  1.00  0.00    -0.313 C  
HETATM    2  C   UNL     1      -9.808  11.196  67.341  1.00  0.00    -0.173 A  
HETATM    3  C   UNL     1     -10.182  12.380  66.718  1.00  0.00    -0.234 A  
HETATM    4  C   UNL     1      -9.333  13.476  66.677  1.00  0.00    -0.245 A  
HETATM    5  N   UNL     1      -9.843  14.670  66.156  1.00  0.00    -0.296 NA 
HETATM    6  C   UNL     1      -8.109  13.399  67.367  1.00  0.00    -0.178 A  
HETATM    7  H2  UNL     1     -10.693  14.921  66.661  1.00  0.00     0.000 HD 
HETATM    8  C   UNL     1      -7.243  14.512  67.483  1.00  0.00    -0.210 A  
HETATM    9  H1  UNL     1      -9.218  15.475  66.126  1.00  0.00     0.000 HD 
HETATM   10  C   UNL     1      -6.023  14.433  68.152  1.00  0.00    -0.136 A  
HETATM   11  C   UNL     1      -5.626  13.236  68.716  1.00  0.00    -0.073 A  
HETATM   12  C   UNL     1      -6.461  12.118  68.625  1.00  0.00    -0.072 A  
HETATM   13  C   UNL     1      -7.724  12.178  67.981  1.00  0.00    -0.134 A  
HETATM   14  N   UNL     1      -8.589  11.105  67.954  1.00  0.00    -0.131 NA 
ENDROOT
BRANCH  14  15
HETATM   15  C   UNL     1      -8.228   9.845  68.660  1.00  0.00    -0.108 C  
BRANCH  15  16
HETATM   16  C   UNL     1      -7.735  10.142  70.075  1.00  0.00    -0.150 C  
BRANCH  16  17
HETATM   17  C   UNL     1      -6.704   9.116  70.538  1.00  0.00    -0.069 C  
BRANCH  17  18
HETATM   18  C   UNL     1      -7.067   8.470  71.878  1.00  0.00    -0.106 C  
BRANCH  18  19
HETATM   19  C   UNL     1      -8.454   7.835  71.856  1.00  0.00    -0.140 C  
BRANCH  19  20
HETATM   20  C   UNL     1      -8.616   6.777  70.762  1.00  0.00    -0.141 C  
BRANCH  20  21
HETATM   21  C   UNL     1      -8.361   5.343  71.243  1.00  0.00    -0.125 C  
BRANCH  21  22
HETATM   22  C   UNL     1      -9.635   4.495  71.297  1.00  0.00    -0.240 C  
BRANCH  22  23
HETATM   23  C   UNL     1      -9.665   3.383  70.241  1.00  0.00    -0.140 C  
BRANCH  23  24
HETATM   24  C   UNL     1      -9.916   3.943  68.841  1.00  0.00     0.231 C  
BRANCH  24  25
HETATM   25  N   UNL     1      -8.644   4.034  68.078  1.00  0.00    -0.094 NA 
HETATM   26  C   UNL     1      -7.741   3.006  68.120  1.00  0.00    -0.056 A  
HETATM   27  C   UNL     1      -6.582   3.067  67.343  1.00  0.00    -0.037 A  
HETATM   28  C   UNL     1      -7.915   1.730  68.914  1.00  0.00    -0.055 C  
HETATM   29  C   UNL     1      -6.300   4.162  66.542  1.00  0.00    -0.036 A  
HETATM   30  N   UNL     1      -5.194   4.072  65.692  1.00  0.00    -0.009 NA 
HETATM   31  C   UNL     1      -7.261   5.183  66.456  1.00  0.00    -0.077 A  
HETATM   32  H1  UNL     1      -4.987   4.878  65.102  1.00  0.00     0.000 HD 
HETATM   33  C   UNL     1      -8.427   5.129  67.267  1.00  0.00    -0.106 A  
HETATM   34  H2  UNL     1      -5.285   3.241  65.107  1.00  0.00     0.000 HD 
HETATM   35  C   UNL     1      -9.347   6.206  67.191  1.00  0.00    -0.124 A  
HETATM   36  C   UNL     1      -9.163   7.276  66.318  1.00  0.00    -0.175 A  
HETATM   37  C   UNL     1      -8.049   7.304  65.500  1.00  0.00    -0.132 A  
HETATM   38  C   UNL     1      -7.110   6.278  65.573  1.00  0.00    -0.068 A  
ENDBRANCH  24  25
ENDBRANCH  23  24
ENDBRANCH  22  23
ENDBRANCH  21  22
ENDBRANCH  20  21
ENDBRANCH  19  20
ENDBRANCH  18  19
ENDBRANCH  17  18
ENDBRANCH  16  17
ENDBRANCH  15  16
ENDBRANCH  14  15
TORSDOF 11
ENDMDL
MODEL      456
REMARK 921   NORMALIZED FREE ENERGY PREDICTED BY IDOCK:   -1.80 KCAL/MOL
REMARK 922        TOTAL FREE ENERGY PREDICTED BY IDOCK:   -4.30 KCAL/MOL
REMARK 923 INTER-LIGAND FREE ENERGY PREDICTED BY IDOCK:   -6.00 KCAL/MOL
REMARK 924 INTRA-LIGAND FREE ENERGY PREDICTED BY IDOCK:    1.70 KCAL/MOL
REMARK 927      BINDING AFFINITY PREDICTED BY RF-SCORE:    0.00 PKD
ROOT
HETATM    1  C   UNL     1     -10.308  19.837  69.042  1.00  0.00    -0.240 C  
HETATM    2  C   UNL     1      -9.139  19.294  68.251  1.00  0.00    -0.345 A  
HETATM    3  C   UNL     1      -8.588  20.106  67.268  1.00  0.00    -0.414 A  
HETATM    4  C   UNL     1      -7.506  19.689  66.507  1.00  0.00    -0.261 A  
HETATM    5  N   UNL     1      -6.926  20.621  65.641  1.00  0.00    -0.494 NA 
HETATM    6  C   UNL     1      -6.909  18.452  66.817  1.00  0.00    -0.216 A  
HETATM    7  H2  UNL     1      -6.666  21.455  66.168  1.00  0.00     0.000 HD 
HETATM    8  C   UNL     1      -5.727  18.011  66.178  1.00  0.00    -0.229 A  
HETATM    9  H1  UNL     1      -6.130  20.314  65.082  1.00  0.00     0.000 HD 
HETATM   10  C   UNL     1      -5.143  16.779  66.471  1.00  0.00     0.089 A  
HETATM   11  C   UNL     1      -5.731  15.946  67.404  1.00  0.00    -0.089 A  
HETATM   12  C   UNL     1      -6.896  16.355  68.059  1.00  0.00    -0.147 A  
HETATM   13  C   UNL     1      -7.492  17.618  67.806  1.00  0.00    -0.201 A  
HETATM   14  N   UNL     1      -8.595  18.064  68.502  1.00  0.00    -0.303 NA 
ENDROOT
BRANCH  14  15
HETATM   15  C   UNL     1      -9.169  17.231  69.595  1.00  0.00     0.719 C  
BRANCH  15  16
HETATM   16  C   UNL     1      -9.760  15.940  69.033  1.00  0.00    -0.243 C  
BRANCH  16  17
HETATM   17  C   UNL     1     -11.085  16.191  68.318  1.00  0.00    -0.348 C  
BRANCH  17  18
HETATM   18  C   UNL     1     -12.282  15.576  69.048  1.00  0.00    -0.147 C  
BRANCH  18  19
HETATM   19  C   UNL     1     -11.878  14.399  69.931  1.00  0.00    -0.382 C  
BRANCH  19  20
HETATM   20  C   UNL     1     -11.975  13.048  69.218  1.00  0.00    -0.331 C  
BRANCH  20  21
HETATM   21  C   UNL     1     -12.355  13.156  67.735  1.00  0.00     0.081 C  
BRANCH  21  22
HETATM   22  C   UNL     1     -11.766  12.026  66.884  1.00  0.00    -0.342 C  
BRANCH  22  23
HETATM   23  C   UNL     1     -10.509  11.400  67.499  1.00  0.00    -0.233 C  
BRANCH  23  24
HETATM   24  C   UNL     1     -10.817  10.709  68.828  1.00  0.00    -0.229 C  
BRANCH  24  25
HETATM   25  N   UNL     1      -9.589  10.098  69.397  1.00  0.00    -0.223 NA 
HETATM   26  C   UNL     1      -9.661   9.342  70.536  1.00  0.00    -0.260 A  
HETATM   27  C   UNL     1      -8.514   8.710  71.025  1.00  0.00    -0.199 A  
HETATM   28  C   UNL     1     -10.927   9.063  71.315  1.00  0.00    -0.384 C  
HETATM   29  C   UNL     1      -7.285   8.850  70.399  1.00  0.00    -0.060 A  
HETATM   30  N   UNL     1      -6.228   8.067  70.873  1.00  0.00    -0.033 NA 
HETATM   31  C   UNL     1      -7.232   9.574  69.197  1.00  0.00    -0.067 A  
HETATM   32  H1  UNL     1      -5.323   8.169  70.414  1.00  0.00     0.000 HD 
HETATM   33  C   UNL     1      -8.396  10.236  68.718  1.00  0.00    -0.125 A  
HETATM   34  H2  UNL     1      -6.503   7.085  70.861  1.00  0.00     0.000 HD 
HETATM   35  C   UNL     1      -8.288  11.002  67.529  1.00  0.00    -0.118 A  
HETATM   36  C   UNL     1      -7.101  11.081  66.804  1.00  0.00    -0.135 A  
HETATM   37  C   UNL     1      -5.984  10.402  67.251  1.00  0.00    -0.053 A  
HETATM   38  C   UNL     1      -6.047   9.666  68.433  1.00  0.00    -0.043 A  
ENDBRANCH  24  25
ENDBRANCH  23  24
ENDBRANCH  22  23
ENDBRANCH  21  22
ENDBRANCH  20  21
ENDBRANCH  19  20
ENDBRANCH  18  19
ENDBRANCH  17  18
ENDBRANCH  16  17
ENDBRANCH  15  16
ENDBRANCH  14  15
TORSDOF 11
ENDMDL
MODEL      457
REMARK 921   NORMALIZED FREE ENERGY PREDICTED BY IDOCK:   -1.72 KCAL/MOL
REMARK 922        TOTAL FREE ENERGY PREDICTED BY IDOCK:   -4.18 KCAL/MOL
REMARK 923 INTER-LIGAND FREE ENERGY PREDICTED BY IDOCK:   -4.14 KCAL/MOL
REMARK 924 INTRA-LIGAND FREE ENERGY PREDICTED BY IDOCK:   -0.03 KCAL/MOL
REMARK 927      BINDING AFFINITY PREDICTED BY RF-SCORE:    0.00 PKD
ROOT
HETATM    1  C   UNL     1     -11.480   2.957  72.320  1.00  0.00     1.481 C  
HETATM    2  C   UNL     1     -10.368   3.851  72.819  1.00  0.00    -0.164 A  
HETATM    3  C   UNL     1      -9.168   3.253  73.182  1.00  0.00    -0.108 A  
HETATM    4  C   UNL     1      -8.093   4.002  73.636  1.00  0.00    -0.089 A  
HETATM    5  N   UNL     1      -6.881   3.336  73.842  1.00  0.00    -0.038 NA 
HETATM    6  C   UNL     1      -8.209   5.405  73.635  1.00  0.00    -0.113 A  
HETATM    7  H2  UNL     1      -6.614   2.849  72.986  1.00  0.00     0.000 HD 
HETATM    8  C   UNL     1      -7.120   6.246  73.960  1.00  0.00    -0.086 A  
HETATM    9  H1  UNL     1      -6.091   3.888  74.176  1.00  0.00     0.000 HD 
HETATM   10  C   UNL     1      -7.237   7.635  73.976  1.00  0.00    -0.136 A  
HETATM   11  C   UNL     1      -8.450   8.225  73.676  1.00  0.00    -0.266 A  
HETATM   12  C   UNL     1      -9.545   7.422  73.344  1.00  0.00    -0.298 A  
HETATM   13  C   UNL     1      -9.446   6.008  73.286  1.00  0.00    -0.142 A  
HETATM   14  N   UNL     1     -10.496   5.211  72.883  1.00  0.00    -0.198 NA 
ENDROOT
BRANCH  14  15
HETATM   15  C   UNL     1     -11.774   5.836  72.442  1.00  0.00    -0.223 C  
BRANCH  15  16
HETATM   16  C   UNL     1     -11.559   6.668  71.179  1.00  0.00    -0.384 C  
BRANCH  16  17
HETATM   17  C   UNL     1     -10.427   6.107  70.322  1.00  0.00    -0.288 C  
BRANCH  17  18
HETATM   18  C   UNL     1     -10.930   5.403  69.058  1.00  0.00     0.150 C  
BRANCH  18  19
HETATM   19  C   UNL     1     -10.792   6.278  67.816  1.00  0.00    -0.424 C  
BRANCH  19  20
HETATM   20  C   UNL     1     -10.171   7.647  68.107  1.00  0.00    -0.236 C  
BRANCH  20  21
HETATM   21  C   UNL     1     -10.703   8.773  67.210  1.00  0.00    -0.217 C  
BRANCH  21  22
HETATM   22  C   UNL     1     -10.709  10.137  67.905  1.00  0.00    -0.317 C  
BRANCH  22  23
HETATM   23  C   UNL     1     -11.442  11.220  67.104  1.00  0.00    -0.217 C  
BRANCH  23  24
HETATM   24  C   UNL     1     -10.542  11.830  66.029  1.00  0.00    -0.260 C  
BRANCH  24  25
HETATM   25  N   UNL     1      -9.118  11.777  66.446  1.00  0.00    -0.212 NA 
HETATM   26  C   UNL     1      -8.688  12.508  67.521  1.00  0.00    -0.182 A  
HETATM   27  C   UNL     1      -7.363  12.396  67.952  1.00  0.00    -0.112 A  
HETATM   28  C   UNL     1      -9.560  13.416  68.358  1.00  0.00    -0.188 C  
HETATM   29  C   UNL     1      -6.453  11.579  67.300  1.00  0.00    -0.110 A  
HETATM   30  N   UNL     1      -5.194  11.419  67.887  1.00  0.00    -0.043 NA 
HETATM   31  C   UNL     1      -6.918  10.785  66.239  1.00  0.00    -0.134 A  
HETATM   32  H1  UNL     1      -4.524  10.817  67.408  1.00  0.00     0.000 HD 
HETATM   33  C   UNL     1      -8.260  10.921  65.788  1.00  0.00    -0.113 A  
HETATM   34  H2  UNL     1      -5.308  11.097  68.848  1.00  0.00     0.000 HD 
HETATM   35  C   UNL     1      -8.675  10.140  64.678  1.00  0.00    -0.205 A  
HETATM   36  C   UNL     1      -7.829   9.223  64.060  1.00  0.00    -0.126 A  
HETATM   37  C   UNL     1      -6.538   9.063  64.529  1.00  0.00    -0.074 A  
HETATM   38  C   UNL     1      -6.088   9.837  65.596  1.00  0.00    -0.070 A  
ENDBRANCH  24  25
ENDBRANCH  23  24
ENDBRANCH  22  23
ENDBRANCH  21  22
ENDBRANCH  20  21
ENDBRANCH  19  20
ENDBRANCH  18  19
ENDBRANCH  17  18
ENDBRANCH  16  17
ENDBRANCH  15  16
ENDBRANCH  14  15
TORSDOF 11
ENDMDL
MODEL      458
REMARK 921   NORMALIZED FREE ENERGY PREDICTED BY IDOCK:   -1.68 KCAL/MOL
REMARK 922        TOTAL FREE ENERGY PREDICTED BY IDOCK:   -4.12 KCAL/MOL
REMARK 923 INTER-LIGAND FREE ENERGY PREDICTED BY IDOCK:   -3.14 KCAL/MOL
REMARK 924 INTRA-LIGAND FREE ENERGY PREDICTED BY IDOCK:   -0.98 KCAL/MOL
REMARK 927      BINDING AFFINITY PREDICTED BY RF-SCORE:    0.00 PKD
ROOT
HETATM    1  C   UNL     1      -5.506   4.887  65.989  1.00  0.00    -0.013 C  
HETATM    2  C   UNL     1      -6.624   4.300  65.157  1.00  0.00    -0.047 A  
HETATM    3  C   UNL     1      -6.294   3.331  64.218  1.00  0.00    -0.023 A  
HETATM    4  C   UNL     1      -7.261   2.732  63.425  1.00  0.00    -0.048 A  
HETATM    5  N   UNL     1      -6.861   1.668  62.610  1.00  0.00    -0.021 NA 
HETATM    6  C   UNL     1      -8.611   3.058  63.656  1.00  0.00    -0.089 A  
HETATM    7  H2  UNL     1      -6.407   0.957  63.182  1.00  0.00     0.000 HD 
HETATM    8  C   UNL     1      -9.666   2.401  62.982  1.00  0.00    -0.091 A  
HETATM    9  H1  UNL     1      -7.572   1.228  62.026  1.00  0.00     0.000 HD 
HETATM   10  C   UNL     1     -11.002   2.734  63.197  1.00  0.00    -0.189 A  
HETATM   11  C   UNL     1     -11.323   3.743  64.085  1.00  0.00     0.585 A  
HETATM   12  C   UNL     1     -10.304   4.408  64.773  1.00  0.00    -0.089 A  
HETATM   13  C   UNL     1      -8.938   4.066  64.601  1.00  0.00    -0.136 A  
HETATM   14  N   UNL     1      -7.932   4.661  65.331  1.00  0.00    -0.097 NA 
ENDROOT
BRANCH  14  15
HETATM   15  C   UNL     1      -8.270   5.665  66.378  1.00  0.00    -0.107 C  
BRANCH  15  16
HETATM   16  C   UNL     1      -8.398   7.058  65.767  1.00  0.00    -0.143 C  
BRANCH  16  17
HETATM   17  C   UNL     1      -7.304   7.996  66.270  1.00  0.00    -0.078 C  
BRANCH  17  18
HETATM   18  C   UNL     1      -6.179   8.199  65.250  1.00  0.00    -0.045 C  
BRANCH  18  19
HETATM   19  C   UNL     1      -6.410   9.425  64.372  1.00  0.00    -0.084 C  
BRANCH  19  20
HETATM   20  C   UNL     1      -7.889   9.686  64.076  1.00  0.00    -0.137 C  
BRANCH  20  21
HETATM   21  C   UNL     1      -8.377  11.068  64.529  1.00  0.00     0.256 C  
BRANCH  21  22
HETATM   22  C   UNL     1      -9.791  11.038  65.117  1.00  0.00    -0.319 C  
BRANCH  22  23
HETATM   23  C   UNL     1     -10.295  12.420  65.550  1.00  0.00    -0.298 C  
BRANCH  23  24
HETATM   24  C   UNL     1      -9.606  12.895  66.829  1.00  0.00    -0.246 C  
BRANCH  24  25
HETATM   25  N   UNL     1      -9.343  11.750  67.738  1.00  0.00    -0.176 NA 
HETATM   26  C   UNL     1     -10.384  11.100  68.345  1.00  0.00    -0.186 A  
HETATM   27  C   UNL     1     -10.134   9.979  69.141  1.00  0.00    -0.219 A  
HETATM   28  C   UNL     1     -11.844  11.458  68.182  1.00  0.00    -0.288 C  
HETATM   29  C   UNL     1      -8.846   9.515  69.359  1.00  0.00    -0.170 A  
HETATM   30  N   UNL     1      -8.704   8.306  70.047  1.00  0.00    -0.132 NA 
HETATM   31  C   UNL     1      -7.791  10.148  68.683  1.00  0.00    -0.097 A  
HETATM   32  H1  UNL     1      -7.757   7.964  70.208  1.00  0.00     0.000 HD 
HETATM   33  C   UNL     1      -8.047  11.303  67.894  1.00  0.00    -0.121 A  
HETATM   34  H2  UNL     1      -9.248   7.583  69.575  1.00  0.00     0.000 HD 
HETATM   35  C   UNL     1      -6.946  11.946  67.271  1.00  0.00    -0.145 A  
HETATM   36  C   UNL     1      -5.648  11.452  67.370  1.00  0.00    -0.060 A  
HETATM   37  C   UNL     1      -5.409  10.304  68.101  1.00  0.00    -0.034 A  
HETATM   38  C   UNL     1      -6.463   9.667  68.754  1.00  0.00    -0.047 A  
ENDBRANCH  24  25
ENDBRANCH  23  24
ENDBRANCH  22  23
ENDBRANCH  21  22
ENDBRANCH  20  21
ENDBRANCH  19  20
ENDBRANCH  18  19
ENDBRANCH  17  18
ENDBRANCH  16  17
ENDBRANCH  15  16
ENDBRANCH  14  15
TORSDOF 11
ENDMDL
MODEL      459
REMARK 921   NORMALIZED FREE ENERGY PREDICTED BY IDOCK:   -1.59 KCAL/MOL
REMARK 922        TOTAL FREE ENERGY PREDICTED BY IDOCK:   -3.97 KCAL/MOL
REMARK 923 INTER-LIGAND FREE ENERGY PREDICTED BY IDOCK:   -6.22 KCAL/MOL
REMARK 924 INTRA-LIGAND FREE ENERGY PREDICTED BY IDOCK:    2.25 KCAL/MOL
REMARK 927      BINDING AFFINITY PREDICTED BY RF-SCORE:    0.00 PKD
ROOT
HETATM    1  C   UNL     1     -12.612  11.565  71.024  1.00  0.00    -0.457 C  
HETATM    2  C   UNL     1     -11.977  10.624  70.026  1.00  0.00    -0.329 A  
HETATM    3  C   UNL     1     -12.068   9.260  70.272  1.00  0.00     0.150 A  
HETATM    4  C   UNL     1     -11.525   8.329  69.399  1.00  0.00     0.550 A  
HETATM    5  N   UNL     1     -11.786   6.978  69.650  1.00  0.00    -0.576 NA 
HETATM    6  C   UNL     1     -10.957   8.792  68.197  1.00  0.00     0.084 A  
HETATM    7  H2  UNL     1     -12.794   6.834  69.711  1.00  0.00     0.000 HD 
HETATM    8  C   UNL     1     -10.497   7.905  67.196  1.00  0.00    -0.414 A  
HETATM    9  H1  UNL     1     -11.387   6.293  69.008  1.00  0.00     0.000 HD 
HETATM   10  C   UNL     1      -9.919   8.361  66.013  1.00  0.00     0.023 A  
HETATM   11  C   UNL     1      -9.773   9.718  65.799  1.00  0.00    -0.340 A  
HETATM   12  C   UNL     1     -10.223  10.622  66.766  1.00  0.00    -0.284 A  
HETATM   13  C   UNL     1     -10.847  10.188  67.964  1.00  0.00    -0.270 A  
HETATM   14  N   UNL     1     -11.365  11.070  68.887  1.00  0.00    -0.254 NA 
ENDROOT
BRANCH  14  15
HETATM   15  C   UNL     1     -11.324  12.534  68.618  1.00  0.00    -0.288 C  
BRANCH  15  16
HETATM   16  C   UNL     1     -12.307  13.276  69.521  1.00  0.00    -0.122 C  
BRANCH  16  17
HETATM   17  C   UNL     1     -11.586  14.183  70.514  1.00  0.00    -0.205 C  
BRANCH  17  18
HETATM   18  C   UNL     1     -11.789  15.672  70.218  1.00  0.00    -0.386 C  
BRANCH  18  19
HETATM   19  C   UNL     1     -11.422  16.031  68.781  1.00  0.00    -0.375 C  
BRANCH  19  20
HETATM   20  C   UNL     1     -11.603  17.517  68.466  1.00  0.00     1.207 C  
BRANCH  20  21
HETATM   21  C   UNL     1     -10.422  18.139  67.709  1.00  0.00    -0.421 C  
BRANCH  21  22
HETATM   22  C   UNL     1     -10.349  19.661  67.862  1.00  0.00    -0.583 C  
BRANCH  22  23
HETATM   23  C   UNL     1      -8.913  20.191  67.953  1.00  0.00    -0.323 C  
BRANCH  23  24
HETATM   24  C   UNL     1      -7.948  19.349  67.118  1.00  0.00    -0.260 C  
BRANCH  24  25
HETATM   25  N   UNL     1      -7.388  18.237  67.928  1.00  0.00    -0.226 NA 
HETATM   26  C   UNL     1      -6.660  18.506  69.056  1.00  0.00    -0.262 A  
HETATM   27  C   UNL     1      -6.199  17.455  69.852  1.00  0.00    -0.122 A  
HETATM   28  C   UNL     1      -6.347  19.890  69.577  1.00  0.00    -0.382 C  
HETATM   29  C   UNL     1      -6.434  16.130  69.517  1.00  0.00    -0.199 A  
HETATM   30  N   UNL     1      -6.061  15.154  70.445  1.00  0.00    -0.128 NA 
HETATM   31  C   UNL     1      -7.234  15.865  68.393  1.00  0.00    -0.121 A  
HETATM   32  H1  UNL     1      -6.235  14.180  70.199  1.00  0.00     0.000 HD 
HETATM   33  C   UNL     1      -7.681  16.937  67.572  1.00  0.00    -0.169 A  
HETATM   34  H2  UNL     1      -6.501  15.357  71.343  1.00  0.00     0.000 HD 
HETATM   35  C   UNL     1      -8.441  16.622  66.417  1.00  0.00    -0.348 A  
HETATM   36  C   UNL     1      -8.798  15.314  66.099  1.00  0.00    -0.166 A  
HETATM   37  C   UNL     1      -8.399  14.279  66.923  1.00  0.00    -0.084 A  
HETATM   38  C   UNL     1      -7.623  14.550  68.048  1.00  0.00    -0.138 A  
ENDBRANCH  24  25
ENDBRANCH  23  24
ENDBRANCH  22  23
ENDBRANCH  21  22
ENDBRANCH  20  21
ENDBRANCH  19  20
ENDBRANCH  18  19
ENDBRANCH  17  18
ENDBRANCH  16  17
ENDBRANCH  15  16
ENDBRANCH  14  15
TORSDOF 11
ENDMDL
MODEL      460
REMARK 921   NORMALIZED FREE ENERGY PREDICTED BY IDOCK:   -1.57 KCAL/MOL
REMARK 922        TOTAL FREE ENERGY PREDICTED BY IDOCK:   -3.93 KCAL/MOL
REMARK 923 INTER-LIGAND FREE ENERGY PREDICTED BY IDOCK:   -5.55 KCAL/MOL
REMARK 924 INTRA-LIGAND FREE ENERGY PREDICTED BY IDOCK:    1.62 KCAL/MOL
REMARK 927      BINDING AFFINITY PREDICTED BY RF-SCORE:    0.00 PKD
ROOT
HETATM    1  C   UNL     1      -8.409   4.489  65.896  1.00  0.00    -0.114 C  
HETATM    2  C   UNL     1      -8.380   4.430  67.406  1.00  0.00    -0.100 A  
HETATM    3  C   UNL     1      -8.781   3.249  68.017  1.00  0.00    -0.132 A  
HETATM    4  C   UNL     1      -8.770   3.107  69.396  1.00  0.00    -0.076 A  
HETATM    5  N   UNL     1      -9.053   1.840  69.919  1.00  0.00    -0.082 NA 
HETATM    6  C   UNL     1      -8.250   4.160  70.172  1.00  0.00    -0.068 A  
HETATM    7  H2  UNL     1      -8.419   1.156  69.505  1.00  0.00     0.000 HD 
HETATM    8  C   UNL     1      -8.085   4.047  71.572  1.00  0.00    -0.077 A  
HETATM    9  H1  UNL     1      -9.045   1.736  70.933  1.00  0.00     0.000 HD 
HETATM   10  C   UNL     1      -7.586   5.095  72.345  1.00  0.00    -0.096 A  
HETATM   11  C   UNL     1      -7.248   6.291  71.742  1.00  0.00    -0.087 A  
HETATM   12  C   UNL     1      -7.393   6.433  70.359  1.00  0.00    -0.089 A  
HETATM   13  C   UNL     1      -7.865   5.373  69.543  1.00  0.00    -0.085 A  
HETATM   14  N   UNL     1      -7.937   5.475  68.170  1.00  0.00    -0.096 NA 
ENDROOT
BRANCH  14  15
HETATM   15  C   UNL     1      -7.464   6.714  67.493  1.00  0.00    -0.097 C  
BRANCH  15  16
HETATM   16  C   UNL     1      -6.701   6.371  66.215  1.00  0.00    -0.056 C  
BRANCH  16  17
HETATM   17  C   UNL     1      -6.614   7.568  65.273  1.00  0.00    -0.044 C  
BRANCH  17  18
HETATM   18  C   UNL     1      -7.582   7.467  64.090  1.00  0.00    -0.109 C  
BRANCH  18  19
HETATM   19  C   UNL     1      -8.903   8.181  64.361  1.00  0.00     0.385 C  
BRANCH  19  20
HETATM   20  C   UNL     1      -8.722   9.575  64.965  1.00  0.00    -0.205 C  
BRANCH  20  21
HETATM   21  C   UNL     1      -7.654   9.641  66.065  1.00  0.00    -0.102 C  
BRANCH  21  22
HETATM   22  C   UNL     1      -8.226  10.032  67.431  1.00  0.00    -0.118 C  
BRANCH  22  23
HETATM   23  C   UNL     1      -8.837  11.438  67.449  1.00  0.00    -0.150 C  
BRANCH  23  24
HETATM   24  C   UNL     1     -10.357  11.392  67.291  1.00  0.00    -0.198 C  
BRANCH  24  25
HETATM   25  N   UNL     1     -11.027  11.688  68.584  1.00  0.00    -0.205 NA 
HETATM   26  C   UNL     1     -11.463  12.957  68.859  1.00  0.00    -0.304 A  
HETATM   27  C   UNL     1     -12.156  13.211  70.045  1.00  0.00    -0.375 A  
HETATM   28  C   UNL     1     -11.313  14.145  67.936  1.00  0.00    -0.318 C  
HETATM   29  C   UNL     1     -12.395  12.213  70.976  1.00  0.00    -0.230 A  
HETATM   30  N   UNL     1     -13.220  12.527  72.061  1.00  0.00    -0.466 NA 
HETATM   31  C   UNL     1     -12.001  10.903  70.658  1.00  0.00    -0.467 A  
HETATM   32  H1  UNL     1     -13.396  11.793  72.746  1.00  0.00     0.000 HD 
HETATM   33  C   UNL     1     -11.274  10.653  69.462  1.00  0.00    -0.272 A  
HETATM   34  H2  UNL     1     -14.110  12.886  71.715  1.00  0.00     0.000 HD 
HETATM   35  C   UNL     1     -10.846   9.326  69.204  1.00  0.00    -0.154 A  
HETATM   36  C   UNL     1     -11.159   8.268  70.055  1.00  0.00    -0.147 A  
HETATM   37  C   UNL     1     -11.903   8.508  71.195  1.00  0.00    -0.322 A  
HETATM   38  C   UNL     1     -12.311   9.807  71.495  1.00  0.00    -0.495 A  
ENDBRANCH  24  25
ENDBRANCH  23  24
ENDBRANCH  22  23
ENDBRANCH  21  22
ENDBRANCH  20  21
ENDBRANCH  19  20
ENDBRANCH  18  19
ENDBRANCH  17  18
ENDBRANCH  16  17
ENDBRANCH  15  16
ENDBRANCH  14  15
TORSDOF 11
ENDMDL
MODEL      461
REMARK 921   NORMALIZED FREE ENERGY PREDICTED BY IDOCK:   -1.56 KCAL/MOL
REMARK 922        TOTAL FREE ENERGY PREDICTED BY IDOCK:   -3.91 KCAL/MOL
REMARK 923 INTER-LIGAND FREE ENERGY PREDICTED BY IDOCK:   -3.45 KCAL/MOL
REMARK 924 INTRA-LIGAND FREE ENERGY PREDICTED BY IDOCK:   -0.46 KCAL/MOL
REMARK 927      BINDING AFFINITY PREDICTED BY RF-SCORE:    0.00 PKD
ROOT
HETATM    1  C   UNL     1      -9.393   4.456  65.749  1.00  0.00    -0.162 C  
HETATM    2  C   UNL     1      -9.917   5.469  66.741  1.00  0.00    -0.183 A  
HETATM    3  C   UNL     1     -10.316   5.007  67.989  1.00  0.00    -0.096 A  
HETATM    4  C   UNL     1     -10.794   5.871  68.962  1.00  0.00    -0.313 A  
HETATM    5  N   UNL     1     -11.038   5.343  70.234  1.00  0.00    -0.038 NA 
HETATM    6  C   UNL     1     -10.780   7.253  68.694  1.00  0.00    -0.172 A  
HETATM    7  H2  UNL     1     -10.193   4.886  70.577  1.00  0.00     0.000 HD 
HETATM    8  C   UNL     1     -11.130   8.210  69.675  1.00  0.00    -0.015 A  
HETATM    9  H1  UNL     1     -11.390   5.979  70.950  1.00  0.00     0.000 HD 
HETATM   10  C   UNL     1     -11.132   9.578  69.406  1.00  0.00    -0.136 A  
HETATM   11  C   UNL     1     -10.796  10.029  68.144  1.00  0.00    -0.303 A  
HETATM   12  C   UNL     1     -10.439   9.110  67.153  1.00  0.00    -0.325 A  
HETATM   13  C   UNL     1     -10.393   7.715  67.408  1.00  0.00    -0.277 A  
HETATM   14  N   UNL     1      -9.967   6.807  66.463  1.00  0.00    -0.126 NA 
ENDROOT
BRANCH  14  15
HETATM   15  C   UNL     1      -9.487   7.286  65.138  1.00  0.00     1.213 C  
BRANCH  15  16
HETATM   16  C   UNL     1      -7.984   7.557  65.175  1.00  0.00    -0.128 C  
BRANCH  16  17
HETATM   17  C   UNL     1      -7.596   8.411  66.379  1.00  0.00    -0.084 C  
BRANCH  17  18
HETATM   18  C   UNL     1      -7.098   9.804  65.986  1.00  0.00    -0.101 C  
BRANCH  18  19
HETATM   19  C   UNL     1      -5.883  10.235  66.802  1.00  0.00    -0.052 C  
BRANCH  19  20
HETATM   20  C   UNL     1      -6.217  11.265  67.883  1.00  0.00    -0.050 C  
BRANCH  20  21
HETATM   21  C   UNL     1      -7.673  11.209  68.365  1.00  0.00    -0.125 C  
BRANCH  21  22
HETATM   22  C   UNL     1      -8.496  12.421  67.919  1.00  0.00    -0.166 C  
BRANCH  22  23
HETATM   23  C   UNL     1      -9.204  13.131  69.079  1.00  0.00     0.453 C  
BRANCH  23  24
HETATM   24  C   UNL     1     -10.626  13.545  68.701  1.00  0.00    -0.244 C  
BRANCH  24  25
HETATM   25  N   UNL     1     -10.647  14.938  68.186  1.00  0.00    -0.241 NA 
HETATM   26  C   UNL     1     -10.215  15.970  68.976  1.00  0.00    -0.236 A  
HETATM   27  C   UNL     1     -10.169  17.267  68.459  1.00  0.00    -0.358 A  
HETATM   28  C   UNL     1      -9.707  15.825  70.392  1.00  0.00     0.602 C  
HETATM   29  C   UNL     1     -10.577  17.550  67.165  1.00  0.00    -0.264 A  
HETATM   30  N   UNL     1     -10.359  18.846  66.689  1.00  0.00    -0.391 NA 
HETATM   31  C   UNL     1     -10.957  16.477  66.342  1.00  0.00     0.082 A  
HETATM   32  H1  UNL     1     -10.659  19.054  65.737  1.00  0.00     0.000 HD 
HETATM   33  C   UNL     1     -11.027  15.162  66.880  1.00  0.00    -0.323 A  
HETATM   34  H2  UNL     1      -9.372  19.081  66.790  1.00  0.00     0.000 HD 
HETATM   35  C   UNL     1     -11.468  14.115  66.031  1.00  0.00    -0.343 A  
HETATM   36  C   UNL     1     -11.782  14.331  64.691  1.00  0.00    -0.439 A  
HETATM   37  C   UNL     1     -11.672  15.602  64.161  1.00  0.00    -0.081 A  
HETATM   38  C   UNL     1     -11.273  16.660  64.976  1.00  0.00    -0.030 A  
ENDBRANCH  24  25
ENDBRANCH  23  24
ENDBRANCH  22  23
ENDBRANCH  21  22
ENDBRANCH  20  21
ENDBRANCH  19  20
ENDBRANCH  18  19
ENDBRANCH  17  18
ENDBRANCH  16  17
ENDBRANCH  15  16
ENDBRANCH  14  15
TORSDOF 11
ENDMDL
MODEL      462
REMARK 921   NORMALIZED FREE ENERGY PREDICTED BY IDOCK:   -1.49 KCAL/MOL
REMARK 922        TOTAL FREE ENERGY PREDICTED BY IDOCK:   -3.81 KCAL/MOL
REMARK 923 INTER-LIGAND FREE ENERGY PREDICTED BY IDOCK:   -2.39 KCAL/MOL
REMARK 924 INTRA-LIGAND FREE ENERGY PREDICTED BY IDOCK:   -1.42 KCAL/MOL
REMARK 927      BINDING AFFINITY PREDICTED BY RF-SCORE:    0.00 PKD
ROOT
HETATM    1  C   UNL     1      -8.211   6.244  65.013  1.00  0.00    -0.132 C  
HETATM    2  C   UNL     1      -8.669   6.504  66.430  1.00  0.00    -0.140 A  
HETATM    3  C   UNL     1      -9.975   6.169  66.762  1.00  0.00    -0.218 A  
HETATM    4  C   UNL     1     -10.469   6.361  68.043  1.00  0.00    -0.220 A  
HETATM    5  N   UNL     1     -11.747   5.866  68.326  1.00  0.00     0.485 NA 
HETATM    6  C   UNL     1      -9.585   6.819  69.038  1.00  0.00    -0.135 A  
HETATM    7  H2  UNL     1     -11.781   4.873  68.097  1.00  0.00     0.000 HD 
HETATM    8  C   UNL     1      -9.972   6.921  70.395  1.00  0.00    -0.190 A  
HETATM    9  H1  UNL     1     -12.110   6.008  69.268  1.00  0.00     0.000 HD 
HETATM   10  C   UNL     1      -9.104   7.389  71.379  1.00  0.00    -0.146 A  
HETATM   11  C   UNL     1      -7.824   7.782  71.034  1.00  0.00    -0.089 A  
HETATM   12  C   UNL     1      -7.408   7.688  69.703  1.00  0.00    -0.089 A  
HETATM   13  C   UNL     1      -8.258   7.181  68.687  1.00  0.00    -0.125 A  
HETATM   14  N   UNL     1      -7.833   7.011  67.387  1.00  0.00    -0.110 NA 
ENDROOT
BRANCH  14  15
HETATM   15  C   UNL     1      -6.421   7.315  67.023  1.00  0.00    -0.055 C  
BRANCH  15  16
HETATM   16  C   UNL     1      -6.299   8.740  66.488  1.00  0.00    -0.062 C  
BRANCH  16  17
HETATM   17  C   UNL     1      -7.261   8.991  65.330  1.00  0.00    -0.084 C  
BRANCH  17  18
HETATM   18  C   UNL     1      -6.915  10.250  64.529  1.00  0.00    -0.067 C  
BRANCH  18  19
HETATM   19  C   UNL     1      -7.852  11.412  64.845  1.00  0.00     0.982 C  
BRANCH  19  20
HETATM   20  C   UNL     1      -8.563  11.966  63.608  1.00  0.00     1.141 C  
BRANCH  20  21
HETATM   21  C   UNL     1      -9.679  11.059  63.075  1.00  0.00    -0.381 C  
BRANCH  21  22
HETATM   22  C   UNL     1     -10.968  11.822  62.755  1.00  0.00     0.404 C  
BRANCH  22  23
HETATM   23  C   UNL     1     -12.132  11.459  63.684  1.00  0.00     0.062 C  
BRANCH  23  24
HETATM   24  C   UNL     1     -12.672  12.688  64.417  1.00  0.00    -0.332 C  
BRANCH  24  25
HETATM   25  N   UNL     1     -11.606  13.319  65.236  1.00  0.00    -0.302 NA 
HETATM   26  C   UNL     1     -11.325  14.651  65.091  1.00  0.00    -0.375 A  
HETATM   27  C   UNL     1     -10.371  15.254  65.917  1.00  0.00    -0.346 A  
HETATM   28  C   UNL     1     -12.019  15.585  64.126  1.00  0.00    -0.083 C  
HETATM   29  C   UNL     1      -9.673  14.529  66.870  1.00  0.00    -0.252 A  
HETATM   30  N   UNL     1      -8.848  15.242  67.745  1.00  0.00    -0.170 NA 
HETATM   31  C   UNL     1     -10.012  13.179  67.054  1.00  0.00    -0.244 A  
HETATM   32  H1  UNL     1      -8.334  14.710  68.446  1.00  0.00     0.000 HD 
HETATM   33  C   UNL     1     -10.964  12.564  66.196  1.00  0.00    -0.284 A  
HETATM   34  H2  UNL     1      -9.394  15.969  68.207  1.00  0.00     0.000 HD 
HETATM   35  C   UNL     1     -11.239  11.185  66.380  1.00  0.00    -0.118 A  
HETATM   36  C   UNL     1     -10.645  10.441  67.397  1.00  0.00    -0.321 A  
HETATM   37  C   UNL     1      -9.752  11.053  68.256  1.00  0.00    -0.181 A  
HETATM   38  C   UNL     1      -9.435  12.398  68.083  1.00  0.00    -0.214 A  
ENDBRANCH  24  25
ENDBRANCH  23  24
ENDBRANCH  22  23
ENDBRANCH  21  22
ENDBRANCH  20  21
ENDBRANCH  19  20
ENDBRANCH  18  19
ENDBRANCH  17  18
ENDBRANCH  16  17
ENDBRANCH  15  16
ENDBRANCH  14  15
TORSDOF 11
ENDMDL
MODEL      463
REMARK 921   NORMALIZED FREE ENERGY PREDICTED BY IDOCK:   -1.33 KCAL/MOL
REMARK 922        TOTAL FREE ENERGY PREDICTED BY IDOCK:   -3.54 KCAL/MOL
REMARK 923 INTER-LIGAND FREE ENERGY PREDICTED BY IDOCK:   -3.86 KCAL/MOL
REMARK 924 INTRA-LIGAND FREE ENERGY PREDICTED BY IDOCK:    0.32 KCAL/MOL
REMARK 927      BINDING AFFINITY PREDICTED BY RF-SCORE:    0.00 PKD
ROOT
HETATM    1  C   UNL     1      -8.464   4.935  66.250  1.00  0.00    -0.111 C  
HETATM    2  C   UNL     1      -8.394   4.479  67.689  1.00  0.00    -0.099 A  
HETATM    3  C   UNL     1      -9.076   3.319  68.035  1.00  0.00    -0.214 A  
HETATM    4  C   UNL     1      -9.051   2.823  69.330  1.00  0.00    -0.124 A  
HETATM    5  N   UNL     1      -9.645   1.578  69.558  1.00  0.00    -0.054 NA 
HETATM    6  C   UNL     1      -8.237   3.471  70.278  1.00  0.00    -0.075 A  
HETATM    7  H2  UNL     1      -9.237   0.889  68.926  1.00  0.00     0.000 HD 
HETATM    8  C   UNL     1      -8.055   2.959  71.584  1.00  0.00    -0.057 A  
HETATM    9  H1  UNL     1      -9.627   1.214  70.511  1.00  0.00     0.000 HD 
HETATM   10  C   UNL     1      -7.262   3.608  72.529  1.00  0.00    -0.049 A  
HETATM   11  C   UNL     1      -6.637   4.796  72.200  1.00  0.00    -0.042 A  
HETATM   12  C   UNL     1      -6.791   5.326  70.916  1.00  0.00    -0.048 A  
HETATM   13  C   UNL     1      -7.562   4.669  69.923  1.00  0.00    -0.054 A  
HETATM   14  N   UNL     1      -7.657   5.141  68.632  1.00  0.00    -0.077 NA 
ENDROOT
BRANCH  14  15
HETATM   15  C   UNL     1      -6.893   6.354  68.228  1.00  0.00    -0.071 C  
BRANCH  15  16
HETATM   16  C   UNL     1      -5.806   5.993  67.217  1.00  0.00    -0.017 C  
BRANCH  16  17
HETATM   17  C   UNL     1      -5.130   7.238  66.650  1.00  0.00    -0.022 C  
BRANCH  17  18
HETATM   18  C   UNL     1      -5.539   7.531  65.203  1.00  0.00    -0.033 C  
BRANCH  18  19
HETATM   19  C   UNL     1      -6.467   8.738  65.098  1.00  0.00    -0.064 C  
BRANCH  19  20
HETATM   20  C   UNL     1      -6.285   9.740  66.241  1.00  0.00    -0.069 C  
BRANCH  20  21
HETATM   21  C   UNL     1      -7.016   9.347  67.532  1.00  0.00    -0.077 C  
BRANCH  21  22
HETATM   22  C   UNL     1      -8.345  10.085  67.715  1.00  0.00    -0.114 C  
BRANCH  22  23
HETATM   23  C   UNL     1      -8.174  11.516  68.238  1.00  0.00    -0.152 C  
BRANCH  23  24
HETATM   24  C   UNL     1      -7.914  12.504  67.100  1.00  0.00    -0.140 C  
BRANCH  24  25
HETATM   25  N   UNL     1      -7.847  13.894  67.618  1.00  0.00    -0.164 NA 
HETATM   26  C   UNL     1      -6.724  14.335  68.265  1.00  0.00    -0.108 A  
HETATM   27  C   UNL     1      -6.641  15.665  68.685  1.00  0.00    -0.110 A  
HETATM   28  C   UNL     1      -5.490  13.501  68.526  1.00  0.00    -0.089 C  
HETATM   29  C   UNL     1      -7.684  16.556  68.488  1.00  0.00    -0.204 A  
HETATM   30  N   UNL     1      -7.455  17.898  68.810  1.00  0.00    -0.279 NA 
HETATM   31  C   UNL     1      -8.805  16.114  67.768  1.00  0.00    -0.184 A  
HETATM   32  H1  UNL     1      -8.222  18.554  68.665  1.00  0.00     0.000 HD 
HETATM   33  C   UNL     1      -8.897  14.753  67.365  1.00  0.00    -0.193 A  
HETATM   34  H2  UNL     1      -6.630  18.228  68.309  1.00  0.00     0.000 HD 
HETATM   35  C   UNL     1     -10.070  14.333  66.687  1.00  0.00    -0.274 A  
HETATM   36  C   UNL     1     -11.097  15.218  66.368  1.00  0.00    -0.273 A  
HETATM   37  C   UNL     1     -10.986  16.549  66.724  1.00  0.00     0.046 A  
HETATM   38  C   UNL     1      -9.861  16.988  67.420  1.00  0.00    -0.262 A  
ENDBRANCH  24  25
ENDBRANCH  23  24
ENDBRANCH  22  23
ENDBRANCH  21  22
ENDBRANCH  20  21
ENDBRANCH  19  20
ENDBRANCH  18  19
ENDBRANCH  17  18
ENDBRANCH  16  17
ENDBRANCH  15  16
ENDBRANCH  14  15
TORSDOF 11
ENDMDL
MODEL      464
REMARK 921   NORMALIZED FREE ENERGY PREDICTED BY IDOCK:   -1.22 KCAL/MOL
REMARK 922        TOTAL FREE ENERGY PREDICTED BY IDOCK:   -3.35 KCAL/MOL
REMARK 923 INTER-LIGAND FREE ENERGY PREDICTED BY IDOCK:   -5.48 KCAL/MOL
REMARK 924 INTRA-LIGAND FREE ENERGY PREDICTED BY IDOCK:    2.13 KCAL/MOL
REMARK 927      BINDING AFFINITY PREDICTED BY RF-SCORE:    0.00 PKD
ROOT
HETATM    1  C   UNL     1     -12.684  10.906  70.511  1.00  0.00    -0.363 C  
HETATM    2  C   UNL     1     -11.833   9.660  70.415  1.00  0.00    -0.155 A  
HETATM    3  C   UNL     1     -12.199   8.564  71.185  1.00  0.00    -0.260 A  
HETATM    4  C   UNL     1     -11.481   7.378  71.144  1.00  0.00    -0.279 A  
HETATM    5  N   UNL     1     -12.001   6.282  71.840  1.00  0.00    -0.320 NA 
HETATM    6  C   UNL     1     -10.418   7.272  70.227  1.00  0.00    -0.231 A  
HETATM    7  H2  UNL     1     -12.957   6.107  71.529  1.00  0.00     0.000 HD 
HETATM    8  C   UNL     1      -9.717   6.059  70.031  1.00  0.00    -0.202 A  
HETATM    9  H1  UNL     1     -11.473   5.410  71.810  1.00  0.00     0.000 HD 
HETATM   10  C   UNL     1      -8.653   5.957  69.136  1.00  0.00    -0.115 A  
HETATM   11  C   UNL     1      -8.251   7.067  68.418  1.00  0.00    -0.124 A  
HETATM   12  C   UNL     1      -8.927   8.279  68.584  1.00  0.00    -0.137 A  
HETATM   13  C   UNL     1     -10.035   8.404  69.461  1.00  0.00    -0.190 A  
HETATM   14  N   UNL     1     -10.758   9.572  69.574  1.00  0.00    -0.224 NA 
ENDROOT
BRANCH  14  15
HETATM   15  C   UNL     1     -10.413  10.743  68.720  1.00  0.00    -0.199 C  
BRANCH  15  16
HETATM   16  C   UNL     1      -9.704  10.289  67.446  1.00  0.00    -0.189 C  
BRANCH  16  17
HETATM   17  C   UNL     1     -10.679  10.141  66.281  1.00  0.00    -0.047 C  
BRANCH  17  18
HETATM   18  C   UNL     1     -10.013  10.346  64.917  1.00  0.00    -0.409 C  
BRANCH  18  19
HETATM   19  C   UNL     1      -9.462  11.759  64.749  1.00  0.00    -0.031 C  
BRANCH  19  20
HETATM   20  C   UNL     1     -10.473  12.732  64.138  1.00  0.00    -0.437 C  
BRANCH  20  21
HETATM   21  C   UNL     1     -11.936  12.335  64.373  1.00  0.00    -0.473 C  
BRANCH  21  22
HETATM   22  C   UNL     1     -12.387  12.547  65.821  1.00  0.00    -0.227 C  
BRANCH  22  23
HETATM   23  C   UNL     1     -12.404  14.022  66.239  1.00  0.00    -0.482 C  
BRANCH  23  24
HETATM   24  C   UNL     1     -12.475  14.174  67.759  1.00  0.00     0.204 C  
BRANCH  24  25
HETATM   25  N   UNL     1     -11.299  14.925  68.266  1.00  0.00    -0.296 NA 
HETATM   26  C   UNL     1     -10.897  14.780  69.567  1.00  0.00    -0.250 A  
HETATM   27  C   UNL     1      -9.747  15.433  70.017  1.00  0.00    -0.049 A  
HETATM   28  C   UNL     1     -11.574  13.895  70.590  1.00  0.00    -0.073 C  
HETATM   29  C   UNL     1      -9.005  16.256  69.184  1.00  0.00    -0.219 A  
HETATM   30  N   UNL     1      -7.794  16.750  69.677  1.00  0.00     0.306 NA 
HETATM   31  C   UNL     1      -9.387  16.350  67.835  1.00  0.00    -0.214 A  
HETATM   32  H1  UNL     1      -7.248  17.355  69.064  1.00  0.00     0.000 HD 
HETATM   33  C   UNL     1     -10.573  15.704  67.388  1.00  0.00    -0.301 A  
HETATM   34  H2  UNL     1      -7.212  15.970  69.985  1.00  0.00     0.000 HD 
HETATM   35  C   UNL     1     -10.953  15.867  66.032  1.00  0.00    -0.139 A  
HETATM   36  C   UNL     1     -10.180  16.593  65.128  1.00  0.00     0.148 A  
HETATM   37  C   UNL     1      -9.007  17.184  65.557  1.00  0.00     0.749 A  
HETATM   38  C   UNL     1      -8.620  17.070  66.891  1.00  0.00    -0.250 A  
ENDBRANCH  24  25
ENDBRANCH  23  24
ENDBRANCH  22  23
ENDBRANCH  21  22
ENDBRANCH  20  21
ENDBRANCH  19  20
ENDBRANCH  18  19
ENDBRANCH  17  18
ENDBRANCH  16  17
ENDBRANCH  15  16
ENDBRANCH  14  15
TORSDOF 11
ENDMDL
MODEL      465
REMARK 921   NORMALIZED FREE ENERGY PREDICTED BY IDOCK:   -1.19 KCAL/MOL
REMARK 922        TOTAL FREE ENERGY PREDICTED BY IDOCK:   -3.31 KCAL/MOL
REMARK 923 INTER-LIGAND FREE ENERGY PREDICTED BY IDOCK:   -3.68 KCAL/MOL
REMARK 924 INTRA-LIGAND FREE ENERGY PREDICTED BY IDOCK:    0.37 KCAL/MOL
REMARK 927      BINDING AFFINITY PREDICTED BY RF-SCORE:    0.00 PKD
ROOT
HETATM    1  C   UNL     1      -9.454   4.432  65.700  1.00  0.00    -0.175 C  
HETATM    2  C   UNL     1      -9.892   5.562  66.604  1.00  0.00    -0.170 A  
HETATM    3  C   UNL     1     -10.449   5.230  67.833  1.00  0.00    -0.154 A  
HETATM    4  C   UNL     1     -10.864   6.205  68.727  1.00  0.00    -0.336 A  
HETATM    5  N   UNL     1     -11.280   5.786  69.995  1.00  0.00    -0.274 NA 
HETATM    6  C   UNL     1     -10.622   7.554  68.404  1.00  0.00    -0.177 A  
HETATM    7  H2  UNL     1     -10.542   5.228  70.424  1.00  0.00     0.000 HD 
HETATM    8  C   UNL     1     -10.896   8.602  69.314  1.00  0.00    -0.082 A  
HETATM    9  H1  UNL     1     -11.585   6.504  70.652  1.00  0.00     0.000 HD 
HETATM   10  C   UNL     1     -10.672   9.940  68.990  1.00  0.00    -0.244 A  
HETATM   11  C   UNL     1     -10.178  10.270  67.742  1.00  0.00    -0.225 A  
HETATM   12  C   UNL     1      -9.890   9.257  66.823  1.00  0.00    -0.289 A  
HETATM   13  C   UNL     1     -10.074   7.886  67.138  1.00  0.00    -0.258 A  
HETATM   14  N   UNL     1      -9.720   6.877  66.269  1.00  0.00    -0.055 NA 
ENDROOT
BRANCH  14  15
HETATM   15  C   UNL     1      -9.074   7.210  64.969  1.00  0.00     0.681 C  
BRANCH  15  16
HETATM   16  C   UNL     1      -7.554   7.239  65.114  1.00  0.00    -0.105 C  
BRANCH  16  17
HETATM   17  C   UNL     1      -7.121   8.059  66.327  1.00  0.00    -0.066 C  
BRANCH  17  18
HETATM   18  C   UNL     1      -6.272   9.276  65.950  1.00  0.00    -0.056 C  
BRANCH  18  19
HETATM   19  C   UNL     1      -5.126   9.508  66.931  1.00  0.00    -0.034 C  
BRANCH  19  20
HETATM   20  C   UNL     1      -5.361  10.700  67.861  1.00  0.00    -0.036 C  
BRANCH  20  21
HETATM   21  C   UNL     1      -6.837  11.097  68.002  1.00  0.00    -0.067 C  
BRANCH  21  22
HETATM   22  C   UNL     1      -7.162  12.434  67.329  1.00  0.00    -0.125 C  
BRANCH  22  23
HETATM   23  C   UNL     1      -7.873  13.422  68.262  1.00  0.00    -0.143 C  
BRANCH  23  24
HETATM   24  C   UNL     1      -8.929  14.239  67.517  1.00  0.00    -0.196 C  
BRANCH  24  25
HETATM   25  N   UNL     1      -9.804  14.961  68.474  1.00  0.00    -0.211 NA 
HETATM   26  C   UNL     1     -10.536  14.265  69.399  1.00  0.00    -0.030 A  
HETATM   27  C   UNL     1     -11.300  14.955  70.343  1.00  0.00    -0.287 A  
HETATM   28  C   UNL     1     -10.549  12.760  69.539  1.00  0.00     0.392 C  
HETATM   29  C   UNL     1     -11.362  16.340  70.357  1.00  0.00    -0.299 A  
HETATM   30  N   UNL     1     -12.033  16.945  71.423  1.00  0.00     0.164 NA 
HETATM   31  C   UNL     1     -10.560  17.047  69.446  1.00  0.00    -0.236 A  
HETATM   32  H1  UNL     1     -12.079  17.964  71.434  1.00  0.00     0.000 HD 
HETATM   33  C   UNL     1      -9.804  16.341  68.471  1.00  0.00    -0.223 A  
HETATM   34  H2  UNL     1     -11.633  16.617  72.303  1.00  0.00     0.000 HD 
HETATM   35  C   UNL     1      -9.049  17.094  67.535  1.00  0.00    -0.225 A  
HETATM   36  C   UNL     1      -8.991  18.485  67.579  1.00  0.00    -0.286 A  
HETATM   37  C   UNL     1      -9.693  19.166  68.555  1.00  0.00    -0.467 A  
HETATM   38  C   UNL     1     -10.471  18.458  69.469  1.00  0.00     0.616 A  
ENDBRANCH  24  25
ENDBRANCH  23  24
ENDBRANCH  22  23
ENDBRANCH  21  22
ENDBRANCH  20  21
ENDBRANCH  19  20
ENDBRANCH  18  19
ENDBRANCH  17  18
ENDBRANCH  16  17
ENDBRANCH  15  16
ENDBRANCH  14  15
TORSDOF 11
ENDMDL
MODEL      466
REMARK 921   NORMALIZED FREE ENERGY PREDICTED BY IDOCK:   -0.87 KCAL/MOL
REMARK 922        TOTAL FREE ENERGY PREDICTED BY IDOCK:   -2.79 KCAL/MOL
REMARK 923 INTER-LIGAND FREE ENERGY PREDICTED BY IDOCK:   -4.54 KCAL/MOL
REMARK 924 INTRA-LIGAND FREE ENERGY PREDICTED BY IDOCK:    1.75 KCAL/MOL
REMARK 927      BINDING AFFINITY PREDICTED BY RF-SCORE:    0.00 PKD
ROOT
HETATM    1  C   UNL     1     -11.459  12.998  69.096  1.00  0.00    -0.353 C  
HETATM    2  C   UNL     1     -11.000  11.684  69.685  1.00  0.00    -0.032 A  
HETATM    3  C   UNL     1     -11.647  11.222  70.823  1.00  0.00     0.031 A  
HETATM    4  C   UNL     1     -11.297  10.018  71.418  1.00  0.00    -0.181 A  
HETATM    5  N   UNL     1     -12.094   9.562  72.473  1.00  0.00     0.160 NA 
HETATM    6  C   UNL     1     -10.327   9.218  70.785  1.00  0.00    -0.348 A  
HETATM    7  H2  UNL     1     -13.065   9.516  72.167  1.00  0.00     0.000 HD 
HETATM    8  C   UNL     1     -10.004   7.923  71.252  1.00  0.00    -0.206 A  
HETATM    9  H1  UNL     1     -11.836   8.677  72.910  1.00  0.00     0.000 HD 
HETATM   10  C   UNL     1      -9.032   7.136  70.638  1.00  0.00    -0.154 A  
HETATM   11  C   UNL     1      -8.345   7.625  69.543  1.00  0.00    -0.130 A  
HETATM   12  C   UNL     1      -8.644   8.899  69.052  1.00  0.00    -0.138 A  
HETATM   13  C   UNL     1      -9.653   9.708  69.635  1.00  0.00    -0.208 A  
HETATM   14  N   UNL     1     -10.011  10.932  69.112  1.00  0.00    -0.195 NA 
ENDROOT
BRANCH  14  15
HETATM   15  C   UNL     1      -9.365  11.421  67.863  1.00  0.00    -0.164 C  
BRANCH  15  16
HETATM   16  C   UNL     1      -8.944  12.882  68.011  1.00  0.00    -0.196 C  
BRANCH  16  17
HETATM   17  C   UNL     1      -9.459  13.736  66.855  1.00  0.00    -0.265 C  
BRANCH  17  18
HETATM   18  C   UNL     1     -10.161  12.912  65.772  1.00  0.00    -0.294 C  
BRANCH  18  19
HETATM   19  C   UNL     1     -10.899  13.789  64.766  1.00  0.00    -0.410 C  
BRANCH  19  20
HETATM   20  C   UNL     1     -10.235  15.151  64.551  1.00  0.00     0.469 C  
BRANCH  20  21
HETATM   21  C   UNL     1     -11.132  16.342  64.914  1.00  0.00    -0.249 C  
BRANCH  21  22
HETATM   22  C   UNL     1     -10.337  17.602  65.271  1.00  0.00     0.360 C  
BRANCH  22  23
HETATM   23  C   UNL     1     -10.668  18.150  66.664  1.00  0.00    -0.189 C  
BRANCH  23  24
HETATM   24  C   UNL     1      -9.645  19.194  67.115  1.00  0.00    -0.319 C  
BRANCH  24  25
HETATM   25  N   UNL     1      -8.478  18.539  67.759  1.00  0.00    -0.267 NA 
HETATM   26  C   UNL     1      -7.238  19.116  67.685  1.00  0.00    -0.223 A  
HETATM   27  C   UNL     1      -6.160  18.532  68.355  1.00  0.00    -0.202 A  
HETATM   28  C   UNL     1      -6.923  20.409  66.968  1.00  0.00    -0.325 C  
HETATM   29  C   UNL     1      -6.302  17.359  69.079  1.00  0.00    -0.220 A  
HETATM   30  N   UNL     1      -5.206  16.929  69.833  1.00  0.00    -0.166 NA 
HETATM   31  C   UNL     1      -7.589  16.809  69.202  1.00  0.00    -0.181 A  
HETATM   32  H1  UNL     1      -5.310  16.066  70.366  1.00  0.00     0.000 HD 
HETATM   33  C   UNL     1      -8.678  17.392  68.498  1.00  0.00    -0.277 A  
HETATM   34  H2  UNL     1      -4.913  17.679  70.461  1.00  0.00     0.000 HD 
HETATM   35  C   UNL     1      -9.951  16.775  68.606  1.00  0.00    -0.276 A  
HETATM   36  C   UNL     1     -10.168  15.659  69.411  1.00  0.00    -0.261 A  
HETATM   37  C   UNL     1      -9.115  15.121  70.127  1.00  0.00     0.494 A  
HETATM   38  C   UNL     1      -7.845  15.683  70.019  1.00  0.00     0.376 A  
ENDBRANCH  24  25
ENDBRANCH  23  24
ENDBRANCH  22  23
ENDBRANCH  21  22
ENDBRANCH  20  21
ENDBRANCH  19  20
ENDBRANCH  18  19
ENDBRANCH  17  18
ENDBRANCH  16  17
ENDBRANCH  15  16
ENDBRANCH  14  15
TORSDOF 11
ENDMDL
MODEL      467
REMARK 921   NORMALIZED FREE ENERGY PREDICTED BY IDOCK:   -0.45 KCAL/MOL
REMARK 922        TOTAL FREE ENERGY PREDICTED BY IDOCK:   -2.09 KCAL/MOL
REMARK 923 INTER-LIGAND FREE ENERGY PREDICTED BY IDOCK:   -1.94 KCAL/MOL
REMARK 924 INTRA-LIGAND FREE ENERGY PREDICTED BY IDOCK:   -0.16 KCAL/MOL
REMARK 927      BINDING AFFINITY PREDICTED BY RF-SCORE:    0.00 PKD
ROOT
HETATM    1  C   UNL     1      -9.810  14.735  71.505  1.00  0.00     2.953 C  
HETATM    2  C   UNL     1      -9.892  15.318  70.112  1.00  0.00     0.052 A  
HETATM    3  C   UNL     1     -11.152  15.612  69.606  1.00  0.00    -0.299 A  
HETATM    4  C   UNL     1     -11.315  16.162  68.344  1.00  0.00    -0.345 A  
HETATM    5  N   UNL     1     -12.603  16.558  67.971  1.00  0.00     1.279 NA 
HETATM    6  C   UNL     1     -10.163  16.508  67.612  1.00  0.00    -0.279 A  
HETATM    7  H2  UNL     1     -12.973  17.203  68.669  1.00  0.00     0.000 HD 
HETATM    8  C   UNL     1     -10.238  17.188  66.374  1.00  0.00    -0.331 A  
HETATM    9  H1  UNL     1     -12.723  16.962  67.043  1.00  0.00     0.000 HD 
HETATM   10  C   UNL     1      -9.100  17.517  65.641  1.00  0.00     0.487 A  
HETATM   11  C   UNL     1      -7.851  17.166  66.117  1.00  0.00    -0.303 A  
HETATM   12  C   UNL     1      -7.741  16.499  67.341  1.00  0.00    -0.174 A  
HETATM   13  C   UNL     1      -8.880  16.183  68.126  1.00  0.00    -0.184 A  
HETATM   14  N   UNL     1      -8.778  15.596  69.369  1.00  0.00    -0.258 NA 
ENDROOT
BRANCH  14  15
HETATM   15  C   UNL     1      -7.436  15.320  69.951  1.00  0.00    -0.038 C  
BRANCH  15  16
HETATM   16  C   UNL     1      -7.181  13.816  70.026  1.00  0.00     0.603 C  
BRANCH  16  17
HETATM   17  C   UNL     1      -7.671  13.098  68.771  1.00  0.00    -0.006 C  
BRANCH  17  18
HETATM   18  C   UNL     1      -6.694  13.217  67.598  1.00  0.00    -0.171 C  
BRANCH  18  19
HETATM   19  C   UNL     1      -6.074  11.874  67.224  1.00  0.00    -0.141 C  
BRANCH  19  20
HETATM   20  C   UNL     1      -7.113  10.786  66.946  1.00  0.00    -0.114 C  
BRANCH  20  21
HETATM   21  C   UNL     1      -8.423  11.317  66.349  1.00  0.00    -0.169 C  
BRANCH  21  22
HETATM   22  C   UNL     1      -9.601  11.235  67.325  1.00  0.00    -0.188 C  
BRANCH  22  23
HETATM   23  C   UNL     1      -9.826   9.825  67.883  1.00  0.00    -0.176 C  
BRANCH  23  24
HETATM   24  C   UNL     1      -9.149   9.643  69.242  1.00  0.00    -0.172 C  
BRANCH  24  25
HETATM   25  N   UNL     1      -9.952   8.746  70.111  1.00  0.00    -0.180 NA 
HETATM   26  C   UNL     1      -9.506   7.483  70.396  1.00  0.00    -0.161 A  
HETATM   27  C   UNL     1     -10.230   6.672  71.273  1.00  0.00    -0.222 A  
HETATM   28  C   UNL     1      -8.219   6.880  69.879  1.00  0.00    -0.127 C  
HETATM   29  C   UNL     1     -11.416   7.100  71.849  1.00  0.00    -0.270 A  
HETATM   30  N   UNL     1     -11.994   6.280  72.822  1.00  0.00    -0.500 NA 
HETATM   31  C   UNL     1     -11.833   8.418  71.601  1.00  0.00    -0.357 A  
HETATM   32  H1  UNL     1     -12.866   6.595  73.247  1.00  0.00     0.000 HD 
HETATM   33  C   UNL     1     -11.107   9.232  70.689  1.00  0.00    -0.276 A  
HETATM   34  H2  UNL     1     -11.310   6.094  73.557  1.00  0.00     0.000 HD 
HETATM   35  C   UNL     1     -11.592  10.539  70.425  1.00  0.00    -0.430 A  
HETATM   36  C   UNL     1     -12.716  11.054  71.065  1.00  0.00    -0.485 A  
HETATM   37  C   UNL     1     -13.395  10.276  71.983  1.00  0.00    -0.466 A  
HETATM   38  C   UNL     1     -12.964   8.976  72.241  1.00  0.00    -0.490 A  
ENDBRANCH  24  25
ENDBRANCH  23  24
ENDBRANCH  22  23
ENDBRANCH  21  22
ENDBRANCH  20  21
ENDBRANCH  19  20
ENDBRANCH  18  19
ENDBRANCH  17  18
ENDBRANCH  16  17
ENDBRANCH  15  16
ENDBRANCH  14  15
TORSDOF 11
ENDMDL
MODEL      468
REMARK 921   NORMALIZED FREE ENERGY PREDICTED BY IDOCK:    0.01 KCAL/MOL
REMARK 922        TOTAL FREE ENERGY PREDICTED BY IDOCK:   -1.34 KCAL/MOL
REMARK 923 INTER-LIGAND FREE ENERGY PREDICTED BY IDOCK:   -3.73 KCAL/MOL
REMARK 924 INTRA-LIGAND FREE ENERGY PREDICTED BY IDOCK:    2.39 KCAL/MOL
REMARK 927      BINDING AFFINITY PREDICTED BY RF-SCORE:    0.00 PKD
ROOT
HETATM    1  C   UNL     1      -8.399   8.598  66.117  1.00  0.00    -0.127 C  
HETATM    2  C   UNL     1      -7.991   7.158  66.333  1.00  0.00    -0.112 A  
HETATM    3  C   UNL     1      -6.763   6.915  66.935  1.00  0.00    -0.056 A  
HETATM    4  C   UNL     1      -6.321   5.624  67.182  1.00  0.00    -0.042 A  
HETATM    5  N   UNL     1      -5.141   5.473  67.918  1.00  0.00    -0.004 NA 
HETATM    6  C   UNL     1      -7.190   4.553  66.896  1.00  0.00    -0.076 A  
HETATM    7  H2  UNL     1      -5.230   5.974  68.803  1.00  0.00     0.000 HD 
HETATM    8  C   UNL     1      -6.870   3.218  67.235  1.00  0.00    -0.046 A  
HETATM    9  H1  UNL     1      -4.817   4.524  68.100  1.00  0.00     0.000 HD 
HETATM   10  C   UNL     1      -7.721   2.155  66.937  1.00  0.00    -0.066 A  
HETATM   11  C   UNL     1      -8.914   2.395  66.281  1.00  0.00    -0.120 A  
HETATM   12  C   UNL     1      -9.263   3.704  65.938  1.00  0.00    -0.161 A  
HETATM   13  C   UNL     1      -8.433   4.808  66.259  1.00  0.00    -0.111 A  
HETATM   14  N   UNL     1      -8.803   6.110  65.996  1.00  0.00    -0.153 NA 
ENDROOT
BRANCH  14  15
HETATM   15  C   UNL     1     -10.137   6.395  65.399  1.00  0.00     1.503 C  
BRANCH  15  16
HETATM   16  C   UNL     1     -11.255   5.974  66.351  1.00  0.00     0.335 C  
BRANCH  16  17
HETATM   17  C   UNL     1     -10.769   4.945  67.369  1.00  0.00     0.195 C  
BRANCH  17  18
HETATM   18  C   UNL     1     -10.463   5.561  68.737  1.00  0.00    -0.261 C  
BRANCH  18  19
HETATM   19  C   UNL     1      -9.896   4.538  69.717  1.00  0.00    -0.295 C  
BRANCH  19  20
HETATM   20  C   UNL     1      -9.607   5.124  71.101  1.00  0.00    -0.224 C  
BRANCH  20  21
HETATM   21  C   UNL     1     -10.865   5.544  71.873  1.00  0.00    -0.286 C  
BRANCH  21  22
HETATM   22  C   UNL     1     -11.726   6.553  71.108  1.00  0.00    -0.392 C  
BRANCH  22  23
HETATM   23  C   UNL     1     -12.527   7.483  72.026  1.00  0.00    -0.289 C  
BRANCH  23  24
HETATM   24  C   UNL     1     -11.612   8.429  72.804  1.00  0.00    -0.174 C  
BRANCH  24  25
HETATM   25  N   UNL     1     -10.549   8.974  71.921  1.00  0.00    -0.349 NA 
HETATM   26  C   UNL     1      -9.250   8.571  72.078  1.00  0.00    -0.256 A  
HETATM   27  C   UNL     1      -8.268   9.032  71.197  1.00  0.00    -0.198 A  
HETATM   28  C   UNL     1      -8.766   7.587  73.119  1.00  0.00    -0.202 C  
HETATM   29  C   UNL     1      -8.568   9.918  70.174  1.00  0.00    -0.105 A  
HETATM   30  N   UNL     1      -7.554  10.210  69.256  1.00  0.00    -0.104 NA 
HETATM   31  C   UNL     1      -9.912  10.277  69.981  1.00  0.00    -0.123 A  
HETATM   32  H1  UNL     1      -7.774  10.861  68.503  1.00  0.00     0.000 HD 
HETATM   33  C   UNL     1     -10.903   9.825  70.895  1.00  0.00    -0.328 A  
HETATM   34  H2  UNL     1      -7.199   9.340  68.857  1.00  0.00     0.000 HD 
HETATM   35  C   UNL     1     -12.241  10.254  70.696  1.00  0.00    -0.422 A  
HETATM   36  C   UNL     1     -12.610  11.053  69.617  1.00  0.00    -0.084 A  
HETATM   37  C   UNL     1     -11.651  11.455  68.707  1.00  0.00    -0.378 A  
HETATM   38  C   UNL     1     -10.321  11.078  68.891  1.00  0.00    -0.223 A  
ENDBRANCH  24  25
ENDBRANCH  23  24
ENDBRANCH  22  23
ENDBRANCH  21  22
ENDBRANCH  20  21
ENDBRANCH  19  20
ENDBRANCH  18  19
ENDBRANCH  17  18
ENDBRANCH  16  17
ENDBRANCH  15  16
ENDBRANCH  14  15
TORSDOF 11
ENDMDL
MODEL      469
REMARK 921   NORMALIZED FREE ENERGY PREDICTED BY IDOCK:    0.16 KCAL/MOL
REMARK 922        TOTAL FREE ENERGY PREDICTED BY IDOCK:   -1.09 KCAL/MOL
REMARK 923 INTER-LIGAND FREE ENERGY PREDICTED BY IDOCK:   -1.80 KCAL/MOL
REMARK 924 INTRA-LIGAND FREE ENERGY PREDICTED BY IDOCK:    0.70 KCAL/MOL
REMARK 927      BINDING AFFINITY PREDICTED BY RF-SCORE:    0.00 PKD
ROOT
HETATM    1  C   UNL     1     -10.960  11.548  62.567  1.00  0.00     1.080 C  
HETATM    2  C   UNL     1     -11.123  12.443  63.775  1.00  0.00    -0.445 A  
HETATM    3  C   UNL     1     -11.111  13.817  63.570  1.00  0.00     0.775 A  
HETATM    4  C   UNL     1     -11.269  14.707  64.622  1.00  0.00    -0.346 A  
HETATM    5  N   UNL     1     -11.387  16.065  64.309  1.00  0.00    -0.994 NA 
HETATM    6  C   UNL     1     -11.538  14.187  65.903  1.00  0.00    -0.349 A  
HETATM    7  H2  UNL     1     -12.150  16.192  63.644  1.00  0.00     0.000 HD 
HETATM    8  C   UNL     1     -11.837  15.024  67.003  1.00  0.00    -0.124 A  
HETATM    9  H1  UNL     1     -11.503  16.719  65.083  1.00  0.00     0.000 HD 
HETATM   10  C   UNL     1     -12.088  14.512  68.275  1.00  0.00    -0.234 A  
HETATM   11  C   UNL     1     -12.035  13.148  68.488  1.00  0.00    -0.324 A  
HETATM   12  C   UNL     1     -11.749  12.292  67.420  1.00  0.00    -0.405 A  
HETATM   13  C   UNL     1     -11.525  12.782  66.108  1.00  0.00    -0.351 A  
HETATM   14  N   UNL     1     -11.319  11.944  65.033  1.00  0.00    -0.302 NA 
ENDROOT
BRANCH  14  15
HETATM   15  C   UNL     1     -11.378  10.468  65.222  1.00  0.00     1.107 C  
BRANCH  15  16
HETATM   16  C   UNL     1     -10.524  10.043  66.415  1.00  0.00    -0.199 C  
BRANCH  16  17
HETATM   17  C   UNL     1      -9.034  10.179  66.116  1.00  0.00    -0.171 C  
BRANCH  17  18
HETATM   18  C   UNL     1      -8.658  11.562  65.576  1.00  0.00     0.181 C  
BRANCH  18  19
HETATM   19  C   UNL     1      -7.227  11.953  65.932  1.00  0.00     1.074 C  
BRANCH  19  20
HETATM   20  C   UNL     1      -7.102  12.585  67.320  1.00  0.00    -0.114 C  
BRANCH  20  21
HETATM   21  C   UNL     1      -8.230  12.195  68.284  1.00  0.00    -0.168 C  
BRANCH  21  22
HETATM   22  C   UNL     1      -8.307  13.104  69.514  1.00  0.00     1.309 C  
BRANCH  22  23
HETATM   23  C   UNL     1      -8.568  14.574  69.162  1.00  0.00     0.031 C  
BRANCH  23  24
HETATM   24  C   UNL     1      -8.115  14.901  67.739  1.00  0.00    -0.152 C  
BRANCH  24  25
HETATM   25  N   UNL     1      -7.385  16.194  67.706  1.00  0.00    -0.128 NA 
HETATM   26  C   UNL     1      -6.050  16.239  68.006  1.00  0.00    -0.122 A  
HETATM   27  C   UNL     1      -5.354  17.446  67.902  1.00  0.00    -0.127 A  
HETATM   28  C   UNL     1      -5.207  15.046  68.397  1.00  0.00    -0.110 C  
HETATM   29  C   UNL     1      -5.988  18.620  67.526  1.00  0.00    -0.175 A  
HETATM   30  N   UNL     1      -5.186  19.745  67.309  1.00  0.00    -0.161 NA 
HETATM   31  C   UNL     1      -7.342  18.553  67.159  1.00  0.00    -0.219 A  
HETATM   32  H1  UNL     1      -5.652  20.609  67.032  1.00  0.00     0.000 HD 
HETATM   33  C   UNL     1      -8.052  17.328  67.291  1.00  0.00    -0.192 A  
HETATM   34  H2  UNL     1      -4.464  19.518  66.624  1.00  0.00     0.000 HD 
HETATM   35  C   UNL     1      -9.431  17.315  66.961  1.00  0.00    -0.264 A  
HETATM   36  C   UNL     1     -10.087  18.443  66.472  1.00  0.00    -0.406 A  
HETATM   37  C   UNL     1      -9.383  19.621  66.306  1.00  0.00    -0.453 A  
HETATM   38  C   UNL     1      -8.034  19.677  66.651  1.00  0.00    -0.321 A  
ENDBRANCH  24  25
ENDBRANCH  23  24
ENDBRANCH  22  23
ENDBRANCH  21  22
ENDBRANCH  20  21
ENDBRANCH  19  20
ENDBRANCH  18  19
ENDBRANCH  17  18
ENDBRANCH  16  17
ENDBRANCH  15  16
ENDBRANCH  14  15
TORSDOF 11
ENDMDL
MODEL      470
REMARK 921   NORMALIZED FREE ENERGY PREDICTED BY IDOCK:    0.81 KCAL/MOL
REMARK 922        TOTAL FREE ENERGY PREDICTED BY IDOCK:   -0.02 KCAL/MOL
REMARK 923 INTER-LIGAND FREE ENERGY PREDICTED BY IDOCK:   -5.11 KCAL/MOL
REMARK 924 INTRA-LIGAND FREE ENERGY PREDICTED BY IDOCK:    5.08 KCAL/MOL
REMARK 927      BINDING AFFINITY PREDICTED BY RF-SCORE:    0.00 PKD
ROOT
HETATM    1  C   UNL     1     -10.002   8.545  72.442  1.00  0.00    -0.365 C  
HETATM    2  C   UNL     1     -10.560   9.489  71.402  1.00  0.00    -0.237 A  
HETATM    3  C   UNL     1     -11.787  10.086  71.659  1.00  0.00    -0.315 A  
HETATM    4  C   UNL     1     -12.363  10.975  70.764  1.00  0.00    -0.398 A  
HETATM    5  N   UNL     1     -13.528  11.636  71.166  1.00  0.00     0.330 NA 
HETATM    6  C   UNL     1     -11.628  11.339  69.619  1.00  0.00    -0.401 A  
HETATM    7  H2  UNL     1     -13.355  12.114  72.051  1.00  0.00     0.000 HD 
HETATM    8  C   UNL     1     -12.084  12.333  68.722  1.00  0.00    -0.162 A  
HETATM    9  H1  UNL     1     -13.950  12.290  70.508  1.00  0.00     0.000 HD 
HETATM   10  C   UNL     1     -11.367  12.684  67.580  1.00  0.00    -0.361 A  
HETATM   11  C   UNL     1     -10.177  12.042  67.294  1.00  0.00    -0.221 A  
HETATM   12  C   UNL     1      -9.695  11.060  68.163  1.00  0.00    -0.180 A  
HETATM   13  C   UNL     1     -10.385  10.708  69.351  1.00  0.00    -0.208 A  
HETATM   14  N   UNL     1      -9.881   9.797  70.255  1.00  0.00    -0.260 NA 
ENDROOT
BRANCH  14  15
HETATM   15  C   UNL     1      -8.543   9.185  70.022  1.00  0.00    -0.163 C  
BRANCH  15  16
HETATM   16  C   UNL     1      -8.268   8.087  71.048  1.00  0.00    -0.106 C  
BRANCH  16  17
HETATM   17  C   UNL     1      -8.588   6.703  70.490  1.00  0.00    -0.143 C  
BRANCH  17  18
HETATM   18  C   UNL     1     -10.091   6.462  70.322  1.00  0.00    -0.216 C  
BRANCH  18  19
HETATM   19  C   UNL     1     -10.396   5.073  69.769  1.00  0.00    -0.286 C  
BRANCH  19  20
HETATM   20  C   UNL     1      -9.990   3.944  70.718  1.00  0.00    -0.119 C  
BRANCH  20  21
HETATM   21  C   UNL     1      -8.478   3.685  70.765  1.00  0.00    -0.101 C  
BRANCH  21  22
HETATM   22  C   UNL     1      -7.827   3.698  69.379  1.00  0.00    -0.053 C  
BRANCH  22  23
HETATM   23  C   UNL     1      -8.726   3.111  68.284  1.00  0.00    -0.139 C  
BRANCH  23  24
HETATM   24  C   UNL     1      -7.907   2.418  67.195  1.00  0.00    -0.070 C  
BRANCH  24  25
HETATM   25  N   UNL     1      -8.089   3.100  65.888  1.00  0.00    -0.085 NA 
HETATM   26  C   UNL     1      -9.037   4.078  65.748  1.00  0.00    -0.142 A  
HETATM   27  C   UNL     1      -9.153   4.765  64.537  1.00  0.00    -0.100 A  
HETATM   28  C   UNL     1      -9.968   4.547  66.843  1.00  0.00    -0.229 C  
HETATM   29  C   UNL     1      -8.347   4.464  63.450  1.00  0.00    -0.104 A  
HETATM   30  N   UNL     1      -8.435   5.298  62.332  1.00  0.00    -0.112 NA 
HETATM   31  C   UNL     1      -7.336   3.504  63.622  1.00  0.00    -0.051 A  
HETATM   32  H1  UNL     1      -7.842   5.078  61.532  1.00  0.00     0.000 HD 
HETATM   33  C   UNL     1      -7.238   2.790  64.847  1.00  0.00    -0.062 A  
HETATM   34  H2  UNL     1      -8.270   6.264  62.617  1.00  0.00     0.000 HD 
HETATM   35  C   UNL     1      -6.238   1.791  64.962  1.00  0.00    -0.018 A  
HETATM   36  C   UNL     1      -5.332   1.530  63.936  1.00  0.00    -0.004 A  
HETATM   37  C   UNL     1      -5.403   2.255  62.762  1.00  0.00    -0.007 A  
HETATM   38  C   UNL     1      -6.395   3.222  62.605  1.00  0.00    -0.018 A  
ENDBRANCH  24  25
ENDBRANCH  23  24
ENDBRANCH  22  23
ENDBRANCH  21  22
ENDBRANCH  20  21
ENDBRANCH  19  20
ENDBRANCH  18  19
ENDBRANCH  17  18
ENDBRANCH  16  17
ENDBRANCH  15  16
ENDBRANCH  14  15
TORSDOF 11
ENDMDL
MODEL      471
REMARK 921   NORMALIZED FREE ENERGY PREDICTED BY IDOCK:    0.88 KCAL/MOL
REMARK 922        TOTAL FREE ENERGY PREDICTED BY IDOCK:    0.09 KCAL/MOL
REMARK 923 INTER-LIGAND FREE ENERGY PREDICTED BY IDOCK:   -2.47 KCAL/MOL
REMARK 924 INTRA-LIGAND FREE ENERGY PREDICTED BY IDOCK:    2.56 KCAL/MOL
REMARK 927      BINDING AFFINITY PREDICTED BY RF-SCORE:    0.00 PKD
ROOT
HETATM    1  C   UNL     1     -10.036  13.935  68.919  1.00  0.00    -0.077 C  
HETATM    2  C   UNL     1     -10.346  12.466  68.739  1.00  0.00    -0.121 A  
HETATM    3  C   UNL     1     -11.334  11.909  69.541  1.00  0.00    -0.306 A  
HETATM    4  C   UNL     1     -11.689  10.573  69.429  1.00  0.00    -0.223 A  
HETATM    5  N   UNL     1     -12.788  10.131  70.173  1.00  0.00    -0.565 NA 
HETATM    6  C   UNL     1     -11.090   9.805  68.413  1.00  0.00    -0.142 A  
HETATM    7  H2  UNL     1     -13.597  10.714  69.957  1.00  0.00     0.000 HD 
HETATM    8  C   UNL     1     -11.487   8.474  68.148  1.00  0.00     1.192 A  
HETATM    9  H1  UNL     1     -13.049   9.149  70.091  1.00  0.00     0.000 HD 
HETATM   10  C   UNL     1     -10.884   7.706  67.153  1.00  0.00    -0.258 A  
HETATM   11  C   UNL     1      -9.857   8.244  66.400  1.00  0.00    -0.283 A  
HETATM   12  C   UNL     1      -9.446   9.559  66.631  1.00  0.00    -0.222 A  
HETATM   13  C   UNL     1     -10.065  10.375  67.613  1.00  0.00    -0.188 A  
HETATM   14  N   UNL     1      -9.720  11.697  67.796  1.00  0.00    -0.170 NA 
ENDROOT
BRANCH  14  15
HETATM   15  C   UNL     1      -8.700  12.327  66.913  1.00  0.00    -0.197 C  
BRANCH  15  16
HETATM   16  C   UNL     1      -8.370  11.413  65.734  1.00  0.00     0.100 C  
BRANCH  16  17
HETATM   17  C   UNL     1      -6.916  10.951  65.770  1.00  0.00     0.014 C  
BRANCH  17  18
HETATM   18  C   UNL     1      -6.769   9.476  66.156  1.00  0.00    -0.082 C  
BRANCH  18  19
HETATM   19  C   UNL     1      -6.803   8.555  64.941  1.00  0.00    -0.072 C  
BRANCH  19  20
HETATM   20  C   UNL     1      -6.605   7.079  65.296  1.00  0.00    -0.047 C  
BRANCH  20  21
HETATM   21  C   UNL     1      -6.693   6.787  66.800  1.00  0.00    -0.056 C  
BRANCH  21  22
HETATM   22  C   UNL     1      -5.457   7.257  67.573  1.00  0.00    -0.025 C  
BRANCH  22  23
HETATM   23  C   UNL     1      -5.452   6.804  69.038  1.00  0.00    -0.017 C  
BRANCH  23  24
HETATM   24  C   UNL     1      -6.033   5.398  69.194  1.00  0.00    -0.024 C  
BRANCH  24  25
HETATM   25  N   UNL     1      -6.671   5.240  70.526  1.00  0.00    -0.038 NA 
HETATM   26  C   UNL     1      -7.600   6.150  70.956  1.00  0.00    -0.097 A  
HETATM   27  C   UNL     1      -8.249   5.954  72.178  1.00  0.00    -0.108 A  
HETATM   28  C   UNL     1      -8.053   7.363  70.176  1.00  0.00    -0.131 C  
HETATM   29  C   UNL     1      -7.958   4.870  72.991  1.00  0.00    -0.101 A  
HETATM   30  N   UNL     1      -8.758   4.679  74.122  1.00  0.00    -0.107 NA 
HETATM   31  C   UNL     1      -7.052   3.909  72.513  1.00  0.00    -0.055 A  
HETATM   32  H1  UNL     1      -8.545   3.881  74.720  1.00  0.00     0.000 HD 
HETATM   33  C   UNL     1      -6.376   4.124  71.281  1.00  0.00    -0.015 A  
HETATM   34  H2  UNL     1      -9.737   4.636  73.839  1.00  0.00     0.000 HD 
HETATM   35  C   UNL     1      -5.428   3.157  70.860  1.00  0.00    -0.012 A  
HETATM   36  C   UNL     1      -5.183   1.994  71.588  1.00  0.00    -0.004 A  
HETATM   37  C   UNL     1      -5.874   1.768  72.763  1.00  0.00    -0.008 A  
HETATM   38  C   UNL     1      -6.788   2.714  73.222  1.00  0.00    -0.027 A  
ENDBRANCH  24  25
ENDBRANCH  23  24
ENDBRANCH  22  23
ENDBRANCH  21  22
ENDBRANCH  20  21
ENDBRANCH  19  20
ENDBRANCH  18  19
ENDBRANCH  17  18
ENDBRANCH  16  17
ENDBRANCH  15  16
ENDBRANCH  14  15
TORSDOF 11
ENDMDL
MODEL      472
REMARK 921   NORMALIZED FREE ENERGY PREDICTED BY IDOCK:    1.17 KCAL/MOL
REMARK 922        TOTAL FREE ENERGY PREDICTED BY IDOCK:    0.57 KCAL/MOL
REMARK 923 INTER-LIGAND FREE ENERGY PREDICTED BY IDOCK:   -1.67 KCAL/MOL
REMARK 924 INTRA-LIGAND FREE ENERGY PREDICTED BY IDOCK:    2.24 KCAL/MOL
REMARK 927      BINDING AFFINITY PREDICTED BY RF-SCORE:    0.00 PKD
ROOT
HETATM    1  C   UNL     1      -8.091   8.728  66.561  1.00  0.00    -0.103 C  
HETATM    2  C   UNL     1      -7.799   7.245  66.582  1.00  0.00    -0.102 A  
HETATM    3  C   UNL     1      -6.612   6.826  67.170  1.00  0.00    -0.047 A  
HETATM    4  C   UNL     1      -6.275   5.482  67.244  1.00  0.00    -0.031 A  
HETATM    5  N   UNL     1      -5.134   5.140  67.977  1.00  0.00    -0.003 NA 
HETATM    6  C   UNL     1      -7.212   4.533  66.791  1.00  0.00    -0.080 A  
HETATM    7  H2  UNL     1      -5.214   5.520  68.920  1.00  0.00     0.000 HD 
HETATM    8  C   UNL     1      -7.003   3.143  66.947  1.00  0.00    -0.053 A  
HETATM    9  H1  UNL     1      -4.887   4.153  68.031  1.00  0.00     0.000 HD 
HETATM   10  C   UNL     1      -7.920   2.201  66.485  1.00  0.00    -0.077 A  
HETATM   11  C   UNL     1      -9.070   2.621  65.843  1.00  0.00    -0.114 A  
HETATM   12  C   UNL     1      -9.310   3.988  65.679  1.00  0.00    -0.160 A  
HETATM   13  C   UNL     1      -8.411   4.970  66.171  1.00  0.00    -0.114 A  
HETATM   14  N   UNL     1      -8.675   6.320  66.085  1.00  0.00    -0.142 NA 
ENDROOT
BRANCH  14  15
HETATM   15  C   UNL     1      -9.965   6.787  65.504  1.00  0.00     1.310 C  
BRANCH  15  16
HETATM   16  C   UNL     1     -11.133   6.411  66.414  1.00  0.00     0.352 C  
BRANCH  16  17
HETATM   17  C   UNL     1     -10.743   5.320  67.408  1.00  0.00    -0.088 C  
BRANCH  17  18
HETATM   18  C   UNL     1     -10.194   5.882  68.723  1.00  0.00    -0.243 C  
BRANCH  18  19
HETATM   19  C   UNL     1     -11.099   6.958  69.314  1.00  0.00    -0.229 C  
BRANCH  19  20
HETATM   20  C   UNL     1     -10.604   7.490  70.662  1.00  0.00    -0.231 C  
BRANCH  20  21
HETATM   21  C   UNL     1      -9.209   8.125  70.603  1.00  0.00    -0.162 C  
BRANCH  21  22
HETATM   22  C   UNL     1      -8.139   7.168  70.070  1.00  0.00    -0.127 C  
BRANCH  22  23
HETATM   23  C   UNL     1      -6.730   7.493  70.579  1.00  0.00    -0.047 C  
BRANCH  23  24
HETATM   24  C   UNL     1      -6.637   7.361  72.099  1.00  0.00    -0.051 C  
BRANCH  24  25
HETATM   25  N   UNL     1      -7.439   6.205  72.575  1.00  0.00    -0.096 NA 
HETATM   26  C   UNL     1      -8.571   6.411  73.318  1.00  0.00    -0.121 A  
HETATM   27  C   UNL     1      -9.359   5.323  73.699  1.00  0.00    -0.133 A  
HETATM   28  C   UNL     1      -9.103   7.765  73.730  1.00  0.00    -0.333 C  
HETATM   29  C   UNL     1      -9.012   4.022  73.369  1.00  0.00    -0.103 A  
HETATM   30  N   UNL     1      -9.933   3.013  73.666  1.00  0.00    -0.104 NA 
HETATM   31  C   UNL     1      -7.885   3.825  72.554  1.00  0.00    -0.072 A  
HETATM   32  H1  UNL     1      -9.678   2.056  73.423  1.00  0.00     0.000 HD 
HETATM   33  C   UNL     1      -7.072   4.932  72.189  1.00  0.00    -0.074 A  
HETATM   34  H2  UNL     1     -10.832   3.241  73.241  1.00  0.00     0.000 HD 
HETATM   35  C   UNL     1      -5.912   4.684  71.410  1.00  0.00    -0.017 A  
HETATM   36  C   UNL     1      -5.583   3.408  70.959  1.00  0.00    -0.012 A  
HETATM   37  C   UNL     1      -6.399   2.340  71.280  1.00  0.00    -0.019 A  
HETATM   38  C   UNL     1      -7.528   2.544  72.071  1.00  0.00    -0.044 A  
ENDBRANCH  24  25
ENDBRANCH  23  24
ENDBRANCH  22  23
ENDBRANCH  21  22
ENDBRANCH  20  21
ENDBRANCH  19  20
ENDBRANCH  18  19
ENDBRANCH  17  18
ENDBRANCH  16  17
ENDBRANCH  15  16
ENDBRANCH  14  15
TORSDOF 11
ENDMDL
MODEL      473
REMARK 921   NORMALIZED FREE ENERGY PREDICTED BY IDOCK:    1.21 KCAL/MOL
REMARK 922        TOTAL FREE ENERGY PREDICTED BY IDOCK:    0.64 KCAL/MOL
REMARK 923 INTER-LIGAND FREE ENERGY PREDICTED BY IDOCK:   -2.18 KCAL/MOL
REMARK 924 INTRA-LIGAND FREE ENERGY PREDICTED BY IDOCK:    2.82 KCAL/MOL
REMARK 927      BINDING AFFINITY PREDICTED BY RF-SCORE:    0.00 PKD
ROOT
HETATM    1  C   UNL     1      -7.512   9.043  73.362  1.00  0.00     0.539 C  
HETATM    2  C   UNL     1      -7.022   7.780  72.692  1.00  0.00    -0.075 A  
HETATM    3  C   UNL     1      -7.205   6.577  73.363  1.00  0.00    -0.081 A  
HETATM    4  C   UNL     1      -6.798   5.371  72.812  1.00  0.00    -0.077 A  
HETATM    5  N   UNL     1      -7.148   4.199  73.490  1.00  0.00    -0.063 NA 
HETATM    6  C   UNL     1      -6.275   5.376  71.505  1.00  0.00    -0.034 A  
HETATM    7  H2  UNL     1      -8.158   4.180  73.631  1.00  0.00     0.000 HD 
HETATM    8  C   UNL     1      -5.956   4.180  70.821  1.00  0.00    -0.014 A  
HETATM    9  H1  UNL     1      -6.849   3.312  73.084  1.00  0.00     0.000 HD 
HETATM   10  C   UNL     1      -5.423   4.184  69.533  1.00  0.00    -0.015 A  
HETATM   11  C   UNL     1      -5.183   5.385  68.894  1.00  0.00     0.000 A  
HETATM   12  C   UNL     1      -5.494   6.585  69.538  1.00  0.00    -0.014 A  
HETATM   13  C   UNL     1      -6.070   6.611  70.835  1.00  0.00    -0.028 A  
HETATM   14  N   UNL     1      -6.453   7.784  71.448  1.00  0.00    -0.038 NA 
ENDROOT
BRANCH  14  15
HETATM   15  C   UNL     1      -6.313   9.079  70.725  1.00  0.00    -0.055 C  
BRANCH  15  16
HETATM   16  C   UNL     1      -7.464  10.019  71.076  1.00  0.00     0.708 C  
BRANCH  16  17
HETATM   17  C   UNL     1      -8.514  10.061  69.969  1.00  0.00    -0.126 C  
BRANCH  17  18
HETATM   18  C   UNL     1      -7.965   9.621  68.609  1.00  0.00    -0.089 C  
BRANCH  18  19
HETATM   19  C   UNL     1      -8.062  10.725  67.561  1.00  0.00    -0.111 C  
BRANCH  19  20
HETATM   20  C   UNL     1      -9.212  11.702  67.819  1.00  0.00    -0.178 C  
BRANCH  20  21
HETATM   21  C   UNL     1      -9.811  12.306  66.542  1.00  0.00    -0.240 C  
BRANCH  21  22
HETATM   22  C   UNL     1      -9.388  11.560  65.273  1.00  0.00    -0.155 C  
BRANCH  22  23
HETATM   23  C   UNL     1      -9.994  10.155  65.169  1.00  0.00    -0.379 C  
BRANCH  23  24
HETATM   24  C   UNL     1      -8.910   9.077  65.126  1.00  0.00    -0.182 C  
BRANCH  24  25
HETATM   25  N   UNL     1      -9.204   8.000  66.106  1.00  0.00    -0.183 NA 
HETATM   26  C   UNL     1     -10.187   8.172  67.044  1.00  0.00    -0.308 A  
HETATM   27  C   UNL     1     -10.507   7.127  67.914  1.00  0.00    -0.268 A  
HETATM   28  C   UNL     1     -11.035   9.414  67.194  1.00  0.00     0.015 C  
HETATM   29  C   UNL     1      -9.833   5.916  67.875  1.00  0.00    -0.125 A  
HETATM   30  N   UNL     1     -10.317   4.883  68.683  1.00  0.00    -0.042 NA 
HETATM   31  C   UNL     1      -8.871   5.726  66.870  1.00  0.00    -0.114 A  
HETATM   32  H1  UNL     1      -9.823   3.991  68.654  1.00  0.00     0.000 HD 
HETATM   33  C   UNL     1      -8.531   6.800  66.002  1.00  0.00    -0.142 A  
HETATM   34  H2  UNL     1     -11.304   4.726  68.476  1.00  0.00     0.000 HD 
HETATM   35  C   UNL     1      -7.516   6.584  65.035  1.00  0.00    -0.085 A  
HETATM   36  C   UNL     1      -6.889   5.350  64.884  1.00  0.00    -0.049 A  
HETATM   37  C   UNL     1      -7.252   4.296  65.700  1.00  0.00    -0.072 A  
HETATM   38  C   UNL     1      -8.223   4.483  66.682  1.00  0.00    -0.102 A  
ENDBRANCH  24  25
ENDBRANCH  23  24
ENDBRANCH  22  23
ENDBRANCH  21  22
ENDBRANCH  20  21
ENDBRANCH  19  20
ENDBRANCH  18  19
ENDBRANCH  17  18
ENDBRANCH  16  17
ENDBRANCH  15  16
ENDBRANCH  14  15
TORSDOF 11
ENDMDL
MODEL      474
REMARK 921   NORMALIZED FREE ENERGY PREDICTED BY IDOCK:    1.29 KCAL/MOL
REMARK 922        TOTAL FREE ENERGY PREDICTED BY IDOCK:    0.77 KCAL/MOL
REMARK 923 INTER-LIGAND FREE ENERGY PREDICTED BY IDOCK:   -2.56 KCAL/MOL
REMARK 924 INTRA-LIGAND FREE ENERGY PREDICTED BY IDOCK:    3.33 KCAL/MOL
REMARK 927      BINDING AFFINITY PREDICTED BY RF-SCORE:    0.00 PKD
ROOT
HETATM    1  C   UNL     1      -9.990   8.541  72.442  1.00  0.00    -0.365 C  
HETATM    2  C   UNL     1     -10.538   9.477  71.388  1.00  0.00    -0.237 A  
HETATM    3  C   UNL     1     -11.767  10.078  71.631  1.00  0.00    -0.246 A  
HETATM    4  C   UNL     1     -12.333  10.961  70.723  1.00  0.00    -0.390 A  
HETATM    5  N   UNL     1     -13.500  11.628  71.110  1.00  0.00     0.330 NA 
HETATM    6  C   UNL     1     -11.589  11.313  69.581  1.00  0.00    -0.401 A  
HETATM    7  H2  UNL     1     -13.334  12.113  71.992  1.00  0.00     0.000 HD 
HETATM    8  C   UNL     1     -12.036  12.300  68.672  1.00  0.00    -0.276 A  
HETATM    9  H1  UNL     1     -13.916  12.276  70.442  1.00  0.00     0.000 HD 
HETATM   10  C   UNL     1     -11.308  12.639  67.532  1.00  0.00    -0.361 A  
HETATM   11  C   UNL     1     -10.117  11.993  67.261  1.00  0.00    -0.208 A  
HETATM   12  C   UNL     1      -9.644  11.017  68.143  1.00  0.00    -0.175 A  
HETATM   13  C   UNL     1     -10.345  10.677  69.329  1.00  0.00    -0.218 A  
HETATM   14  N   UNL     1      -9.850   9.774  70.244  1.00  0.00    -0.260 NA 
ENDROOT
BRANCH  14  15
HETATM   15  C   UNL     1      -8.511   9.158  70.028  1.00  0.00    -0.157 C  
BRANCH  15  16
HETATM   16  C   UNL     1      -8.255   8.054  71.052  1.00  0.00    -0.106 C  
BRANCH  16  17
HETATM   17  C   UNL     1      -8.517   6.669  70.464  1.00  0.00    -0.138 C  
BRANCH  17  18
HETATM   18  C   UNL     1     -10.003   6.402  70.209  1.00  0.00    -0.199 C  
BRANCH  18  19
HETATM   19  C   UNL     1     -10.250   5.008  69.641  1.00  0.00    -0.306 C  
BRANCH  19  20
HETATM   20  C   UNL     1      -9.899   3.886  70.622  1.00  0.00    -0.193 C  
BRANCH  20  21
HETATM   21  C   UNL     1      -8.392   3.647  70.777  1.00  0.00    -0.092 C  
BRANCH  21  22
HETATM   22  C   UNL     1      -7.650   3.618  69.437  1.00  0.00    -0.052 C  
BRANCH  22  23
HETATM   23  C   UNL     1      -8.584   3.735  68.227  1.00  0.00    -0.116 C  
BRANCH  23  24
HETATM   24  C   UNL     1      -8.049   2.955  67.026  1.00  0.00    -0.079 C  
BRANCH  24  25
HETATM   25  N   UNL     1      -7.753   3.872  65.896  1.00  0.00    -0.089 NA 
HETATM   26  C   UNL     1      -6.465   4.268  65.650  1.00  0.00    -0.037 A  
HETATM   27  C   UNL     1      -6.185   5.072  64.542  1.00  0.00    -0.030 A  
HETATM   28  C   UNL     1      -5.259   3.851  66.461  1.00  0.00    -0.009 C  
HETATM   29  C   UNL     1      -7.186   5.510  63.689  1.00  0.00    -0.050 A  
HETATM   30  N   UNL     1      -6.796   6.186  62.530  1.00  0.00    -0.040 NA 
HETATM   31  C   UNL     1      -8.494   5.048  63.912  1.00  0.00    -0.129 A  
HETATM   32  H1  UNL     1      -7.532   6.508  61.902  1.00  0.00     0.000 HD 
HETATM   33  C   UNL     1      -8.779   4.251  65.055  1.00  0.00    -0.128 A  
HETATM   34  H2  UNL     1      -6.137   5.608  62.008  1.00  0.00     0.000 HD 
HETATM   35  C   UNL     1     -10.122   3.851  65.274  1.00  0.00    -0.122 A  
HETATM   36  C   UNL     1     -11.144   4.172  64.384  1.00  0.00     0.104 A  
HETATM   37  C   UNL     1     -10.856   4.911  63.253  1.00  0.00     1.375 A  
HETATM   38  C   UNL     1      -9.553   5.348  63.025  1.00  0.00     0.839 A  
ENDBRANCH  24  25
ENDBRANCH  23  24
ENDBRANCH  22  23
ENDBRANCH  21  22
ENDBRANCH  20  21
ENDBRANCH  19  20
ENDBRANCH  18  19
ENDBRANCH  17  18
ENDBRANCH  16  17
ENDBRANCH  15  16
ENDBRANCH  14  15
TORSDOF 11
ENDMDL
MODEL      475
REMARK 921   NORMALIZED FREE ENERGY PREDICTED BY IDOCK:    1.61 KCAL/MOL
REMARK 922        TOTAL FREE ENERGY PREDICTED BY IDOCK:    1.28 KCAL/MOL
REMARK 923 INTER-LIGAND FREE ENERGY PREDICTED BY IDOCK:    2.26 KCAL/MOL
REMARK 924 INTRA-LIGAND FREE ENERGY PREDICTED BY IDOCK:   -0.98 KCAL/MOL
REMARK 927      BINDING AFFINITY PREDICTED BY RF-SCORE:    0.00 PKD
ROOT
HETATM    1  C   UNL     1      -7.976  15.240  67.662  1.00  0.00    -0.177 C  
HETATM    2  C   UNL     1      -9.136  15.187  68.630  1.00  0.00    -0.195 A  
HETATM    3  C   UNL     1      -8.848  15.200  69.989  1.00  0.00     0.363 A  
HETATM    4  C   UNL     1      -9.855  15.169  70.942  1.00  0.00     1.195 A  
HETATM    5  N   UNL     1      -9.483  15.329  72.281  1.00  0.00     4.034 NA 
HETATM    6  C   UNL     1     -11.192  15.220  70.504  1.00  0.00    -0.338 A  
HETATM    7  H2  UNL     1      -8.950  16.193  72.382  1.00  0.00     0.000 HD 
HETATM    8  C   UNL     1     -12.273  15.321  71.411  1.00  0.00    -0.414 A  
HETATM    9  H1  UNL     1     -10.223  15.306  72.982  1.00  0.00     0.000 HD 
HETATM   10  C   UNL     1     -13.598  15.354  70.980  1.00  0.00    -0.465 A  
HETATM   11  C   UNL     1     -13.883  15.276  69.630  1.00  0.00     2.360 A  
HETATM   12  C   UNL     1     -12.837  15.183  68.708  1.00  0.00     0.924 A  
HETATM   13  C   UNL     1     -11.478  15.182  69.114  1.00  0.00    -0.306 A  
HETATM   14  N   UNL     1     -10.438  15.169  68.210  1.00  0.00    -0.237 NA 
ENDROOT
BRANCH  14  15
HETATM   15  C   UNL     1     -10.725  15.207  66.749  1.00  0.00    -0.311 C  
BRANCH  15  16
HETATM   16  C   UNL     1     -10.552  13.821  66.131  1.00  0.00    -0.291 C  
BRANCH  16  17
HETATM   17  C   UNL     1     -11.761  12.930  66.400  1.00  0.00    -0.454 C  
BRANCH  17  18
HETATM   18  C   UNL     1     -11.379  11.571  66.994  1.00  0.00    -0.340 C  
BRANCH  18  19
HETATM   19  C   UNL     1     -10.719  11.704  68.363  1.00  0.00    -0.248 C  
BRANCH  19  20
HETATM   20  C   UNL     1      -9.472  10.831  68.520  1.00  0.00    -0.181 C  
BRANCH  20  21
HETATM   21  C   UNL     1      -9.570   9.476  67.807  1.00  0.00    -0.156 C  
BRANCH  21  22
HETATM   22  C   UNL     1     -10.222   8.392  68.671  1.00  0.00    -0.220 C  
BRANCH  22  23
HETATM   23  C   UNL     1      -9.205   7.526  69.423  1.00  0.00    -0.149 C  
BRANCH  23  24
HETATM   24  C   UNL     1      -9.096   7.935  70.892  1.00  0.00    -0.151 C  
BRANCH  24  25
HETATM   25  N   UNL     1      -9.477   6.806  71.780  1.00  0.00    -0.151 NA 
HETATM   26  C   UNL     1     -10.774   6.366  71.815  1.00  0.00    -0.233 A  
HETATM   27  C   UNL     1     -11.110   5.258  72.597  1.00  0.00    -0.319 A  
HETATM   28  C   UNL     1     -11.911   6.951  71.010  1.00  0.00    -0.422 C  
HETATM   29  C   UNL     1     -10.165   4.599  73.368  1.00  0.00    -0.170 A  
HETATM   30  N   UNL     1     -10.561   3.417  74.002  1.00  0.00    -0.186 NA 
HETATM   31  C   UNL     1      -8.828   5.017  73.277  1.00  0.00    -0.114 A  
HETATM   32  H1  UNL     1      -9.867   2.931  74.569  1.00  0.00     0.000 HD 
HETATM   33  C   UNL     1      -8.494   6.160  72.500  1.00  0.00    -0.118 A  
HETATM   34  H2  UNL     1     -10.939   2.772  73.307  1.00  0.00     0.000 HD 
HETATM   35  C   UNL     1      -7.140   6.583  72.478  1.00  0.00    -0.074 A  
HETATM   36  C   UNL     1      -6.136   5.886  73.147  1.00  0.00    -0.053 A  
HETATM   37  C   UNL     1      -6.458   4.751  73.866  1.00  0.00    -0.061 A  
HETATM   38  C   UNL     1      -7.784   4.327  73.936  1.00  0.00    -0.081 A  
ENDBRANCH  24  25
ENDBRANCH  23  24
ENDBRANCH  22  23
ENDBRANCH  21  22
ENDBRANCH  20  21
ENDBRANCH  19  20
ENDBRANCH  18  19
ENDBRANCH  17  18
ENDBRANCH  16  17
ENDBRANCH  15  16
ENDBRANCH  14  15
TORSDOF 11
ENDMDL
MODEL      476
REMARK 921   NORMALIZED FREE ENERGY PREDICTED BY IDOCK:    2.08 KCAL/MOL
REMARK 922        TOTAL FREE ENERGY PREDICTED BY IDOCK:    2.07 KCAL/MOL
REMARK 923 INTER-LIGAND FREE ENERGY PREDICTED BY IDOCK:    1.74 KCAL/MOL
REMARK 924 INTRA-LIGAND FREE ENERGY PREDICTED BY IDOCK:    0.33 KCAL/MOL
REMARK 927      BINDING AFFINITY PREDICTED BY RF-SCORE:    0.00 PKD
ROOT
HETATM    1  C   UNL     1     -10.620  18.773  64.392  1.00  0.00     4.774 C  
HETATM    2  C   UNL     1     -10.864  17.776  65.502  1.00  0.00     0.087 A  
HETATM    3  C   UNL     1     -11.202  16.477  65.145  1.00  0.00    -0.029 A  
HETATM    4  C   UNL     1     -11.428  15.498  66.101  1.00  0.00     0.094 A  
HETATM    5  N   UNL     1     -11.622  14.187  65.652  1.00  0.00    -0.331 NA 
HETATM    6  C   UNL     1     -11.215  15.824  67.454  1.00  0.00    -0.179 A  
HETATM    7  H2  UNL     1     -10.833  13.911  65.068  1.00  0.00     0.000 HD 
HETATM    8  C   UNL     1     -11.299  14.854  68.480  1.00  0.00    -0.314 A  
HETATM    9  H1  UNL     1     -11.788  13.468  66.356  1.00  0.00     0.000 HD 
HETATM   10  C   UNL     1     -11.104  15.178  69.821  1.00  0.00    -0.295 A  
HETATM   11  C   UNL     1     -10.832  16.484  70.179  1.00  0.00    -0.208 A  
HETATM   12  C   UNL     1     -10.735  17.466  69.189  1.00  0.00    -0.034 A  
HETATM   13  C   UNL     1     -10.893  17.159  67.813  1.00  0.00    -0.270 A  
HETATM   14  N   UNL     1     -10.723  18.103  66.823  1.00  0.00    -0.272 NA 
ENDROOT
BRANCH  14  15
HETATM   15  C   UNL     1     -10.311  19.488  67.182  1.00  0.00    -0.451 C  
BRANCH  15  16
HETATM   16  C   UNL     1      -8.798  19.566  67.381  1.00  0.00    -0.363 C  
BRANCH  16  17
HETATM   17  C   UNL     1      -8.170  18.178  67.464  1.00  0.00    -0.236 C  
BRANCH  17  18
HETATM   18  C   UNL     1      -7.701  17.653  66.104  1.00  0.00    -0.293 C  
BRANCH  18  19
HETATM   19  C   UNL     1      -7.188  16.218  66.183  1.00  0.00     0.641 C  
BRANCH  19  20
HETATM   20  C   UNL     1      -5.802  16.107  66.822  1.00  0.00     0.388 C  
BRANCH  20  21
HETATM   21  C   UNL     1      -5.549  17.129  67.938  1.00  0.00    -0.124 C  
BRANCH  21  22
HETATM   22  C   UNL     1      -5.176  16.476  69.272  1.00  0.00    -0.132 C  
BRANCH  22  23
HETATM   23  C   UNL     1      -6.373  16.301  70.214  1.00  0.00     0.172 C  
BRANCH  23  24
HETATM   24  C   UNL     1      -7.388  15.304  69.655  1.00  0.00    -0.188 C  
BRANCH  24  25
HETATM   25  N   UNL     1      -6.879  13.914  69.777  1.00  0.00    -0.004 NA 
HETATM   26  C   UNL     1      -6.161  13.539  70.881  1.00  0.00     0.041 A  
HETATM   27  C   UNL     1      -5.748  12.211  71.023  1.00  0.00     0.062 A  
HETATM   28  C   UNL     1      -5.810  14.447  72.038  1.00  0.00     0.039 C  
HETATM   29  C   UNL     1      -6.022  11.257  70.056  1.00  0.00    -0.131 A  
HETATM   30  N   UNL     1      -5.698   9.929  70.350  1.00  0.00    -0.052 NA 
HETATM   31  C   UNL     1      -6.812  11.635  68.958  1.00  0.00    -0.105 A  
HETATM   32  H1  UNL     1      -5.900   9.226  69.639  1.00  0.00     0.000 HD 
HETATM   33  C   UNL     1      -7.209  12.992  68.805  1.00  0.00    -0.082 A  
HETATM   34  H2  UNL     1      -6.145   9.659  71.227  1.00  0.00     0.000 HD 
HETATM   35  C   UNL     1      -7.960  13.344  67.655  1.00  0.00    -0.174 A  
HETATM   36  C   UNL     1      -8.356  12.399  66.711  1.00  0.00    -0.060 A  
HETATM   37  C   UNL     1      -8.005  11.074  66.886  1.00  0.00    -0.143 A  
HETATM   38  C   UNL     1      -7.239  10.699  67.988  1.00  0.00    -0.087 A  
ENDBRANCH  24  25
ENDBRANCH  23  24
ENDBRANCH  22  23
ENDBRANCH  21  22
ENDBRANCH  20  21
ENDBRANCH  19  20
ENDBRANCH  18  19
ENDBRANCH  17  18
ENDBRANCH  16  17
ENDBRANCH  15  16
ENDBRANCH  14  15
TORSDOF 11
ENDMDL
MODEL      477
REMARK 921   NORMALIZED FREE ENERGY PREDICTED BY IDOCK:    2.45 KCAL/MOL
REMARK 922        TOTAL FREE ENERGY PREDICTED BY IDOCK:    2.68 KCAL/MOL
REMARK 923 INTER-LIGAND FREE ENERGY PREDICTED BY IDOCK:    3.87 KCAL/MOL
REMARK 924 INTRA-LIGAND FREE ENERGY PREDICTED BY IDOCK:   -1.19 KCAL/MOL
REMARK 927      BINDING AFFINITY PREDICTED BY RF-SCORE:    0.00 PKD
ROOT
HETATM    1  C   UNL     1      -8.197  15.054  68.442  1.00  0.00    -0.151 C  
HETATM    2  C   UNL     1      -9.452  15.035  69.285  1.00  0.00    -0.170 A  
HETATM    3  C   UNL     1      -9.308  15.128  70.664  1.00  0.00     1.302 A  
HETATM    4  C   UNL     1     -10.408  15.133  71.508  1.00  0.00     1.171 A  
HETATM    5  N   UNL     1     -10.180  15.372  72.868  1.00  0.00     3.040 NA 
HETATM    6  C   UNL     1     -11.692  15.138  70.932  1.00  0.00    -0.378 A  
HETATM    7  H2  UNL     1      -9.670  16.248  72.974  1.00  0.00     0.000 HD 
HETATM    8  C   UNL     1     -12.863  15.271  71.714  1.00  0.00    -0.457 A  
HETATM    9  H1  UNL     1     -10.989  15.375  73.488  1.00  0.00     0.000 HD 
HETATM   10  C   UNL     1     -14.137  15.259  71.147  1.00  0.00    -0.438 A  
HETATM   11  C   UNL     1     -14.278  15.103  69.782  1.00  0.00     3.146 A  
HETATM   12  C   UNL     1     -13.141  14.976  68.979  1.00  0.00     1.356 A  
HETATM   13  C   UNL     1     -11.832  15.019  69.524  1.00  0.00    -0.330 A  
HETATM   14  N   UNL     1     -10.703  14.974  68.735  1.00  0.00    -0.234 NA 
ENDROOT
BRANCH  14  15
HETATM   15  C   UNL     1     -10.836  14.927  67.252  1.00  0.00    -0.306 C  
BRANCH  15  16
HETATM   16  C   UNL     1     -10.592  13.511  66.735  1.00  0.00    -0.272 C  
BRANCH  16  17
HETATM   17  C   UNL     1     -11.803  12.611  66.965  1.00  0.00    -0.415 C  
BRANCH  17  18
HETATM   18  C   UNL     1     -11.424  11.232  67.513  1.00  0.00    -0.324 C  
BRANCH  18  19
HETATM   19  C   UNL     1     -10.911  11.300  68.948  1.00  0.00    -0.253 C  
BRANCH  19  20
HETATM   20  C   UNL     1      -9.600  10.538  69.157  1.00  0.00    -0.214 C  
BRANCH  20  21
HETATM   21  C   UNL     1      -9.791   9.113  69.696  1.00  0.00    -0.188 C  
BRANCH  21  22
HETATM   22  C   UNL     1      -9.683   9.032  71.221  1.00  0.00    -0.371 C  
BRANCH  22  23
HETATM   23  C   UNL     1      -8.275   8.674  71.709  1.00  0.00    -0.184 C  
BRANCH  23  24
HETATM   24  C   UNL     1      -8.295   8.137  73.141  1.00  0.00    -0.204 C  
BRANCH  24  25
HETATM   25  N   UNL     1      -7.749   6.757  73.190  1.00  0.00    -0.093 NA 
HETATM   26  C   UNL     1      -6.437   6.548  73.524  1.00  0.00    -0.065 A  
HETATM   27  C   UNL     1      -5.950   5.244  73.640  1.00  0.00    -0.042 A  
HETATM   28  C   UNL     1      -5.441   7.636  73.853  1.00  0.00    -0.052 C  
HETATM   29  C   UNL     1      -6.755   4.142  73.397  1.00  0.00    -0.052 A  
HETATM   30  N   UNL     1      -6.223   2.880  73.677  1.00  0.00    -0.011 NA 
HETATM   31  C   UNL     1      -8.113   4.364  73.117  1.00  0.00    -0.095 A  
HETATM   32  H1  UNL     1      -6.815   2.069  73.499  1.00  0.00     0.000 HD 
HETATM   33  C   UNL     1      -8.599   5.693  72.976  1.00  0.00    -0.121 A  
HETATM   34  H2  UNL     1      -5.902   2.856  74.646  1.00  0.00     0.000 HD 
HETATM   35  C   UNL     1      -9.965   5.873  72.639  1.00  0.00    -0.195 A  
HETATM   36  C   UNL     1     -10.841   4.799  72.495  1.00  0.00    -0.208 A  
HETATM   37  C   UNL     1     -10.374   3.511  72.675  1.00  0.00    -0.222 A  
HETATM   38  C   UNL     1      -9.030   3.297  72.974  1.00  0.00    -0.099 A  
ENDBRANCH  24  25
ENDBRANCH  23  24
ENDBRANCH  22  23
ENDBRANCH  21  22
ENDBRANCH  20  21
ENDBRANCH  19  20
ENDBRANCH  18  19
ENDBRANCH  17  18
ENDBRANCH  16  17
ENDBRANCH  15  16
ENDBRANCH  14  15
TORSDOF 11
ENDMDL
MODEL      478
REMARK 921   NORMALIZED FREE ENERGY PREDICTED BY IDOCK:    2.64 KCAL/MOL
REMARK 922        TOTAL FREE ENERGY PREDICTED BY IDOCK:    2.99 KCAL/MOL
REMARK 923 INTER-LIGAND FREE ENERGY PREDICTED BY IDOCK:    1.39 KCAL/MOL
REMARK 924 INTRA-LIGAND FREE ENERGY PREDICTED BY IDOCK:    1.60 KCAL/MOL
REMARK 927      BINDING AFFINITY PREDICTED BY RF-SCORE:    0.00 PKD
ROOT
HETATM    1  C   UNL     1      -7.176  17.333  70.492  1.00  0.00     2.587 C  
HETATM    2  C   UNL     1      -8.279  16.677  69.693  1.00  0.00     0.557 A  
HETATM    3  C   UNL     1      -8.907  15.567  70.244  1.00  0.00     0.859 A  
HETATM    4  C   UNL     1      -9.937  14.915  69.583  1.00  0.00    -0.022 A  
HETATM    5  N   UNL     1     -10.606  13.897  70.270  1.00  0.00     0.217 NA 
HETATM    6  C   UNL     1     -10.406  15.462  68.373  1.00  0.00    -0.229 A  
HETATM    7  H2  UNL     1     -10.952  14.261  71.158  1.00  0.00     0.000 HD 
HETATM    8  C   UNL     1     -11.534  14.936  67.701  1.00  0.00    -0.366 A  
HETATM    9  H1  UNL     1     -11.364  13.419  69.784  1.00  0.00     0.000 HD 
HETATM   10  C   UNL     1     -11.990  15.466  66.495  1.00  0.00     0.437 A  
HETATM   11  C   UNL     1     -11.325  16.531  65.918  1.00  0.00     0.533 A  
HETATM   12  C   UNL     1     -10.210  17.078  66.560  1.00  0.00    -0.321 A  
HETATM   13  C   UNL     1      -9.745  16.583  67.806  1.00  0.00    -0.235 A  
HETATM   14  N   UNL     1      -8.697  17.165  68.485  1.00  0.00    -0.255 NA 
ENDROOT
BRANCH  14  15
HETATM   15  C   UNL     1      -8.045  18.386  67.937  1.00  0.00    -0.259 C  
BRANCH  15  16
HETATM   16  C   UNL     1      -7.669  18.184  66.470  1.00  0.00    -0.280 C  
BRANCH  16  17
HETATM   17  C   UNL     1      -6.250  18.666  66.181  1.00  0.00    -0.224 C  
BRANCH  17  18
HETATM   18  C   UNL     1      -5.191  17.929  67.007  1.00  0.00    -0.155 C  
BRANCH  18  19
HETATM   19  C   UNL     1      -5.131  16.441  66.674  1.00  0.00     0.356 C  
BRANCH  19  20
HETATM   20  C   UNL     1      -5.311  15.541  67.898  1.00  0.00    -0.139 C  
BRANCH  20  21
HETATM   21  C   UNL     1      -6.772  15.168  68.184  1.00  0.00    -0.139 C  
BRANCH  21  22
HETATM   22  C   UNL     1      -7.241  13.942  67.395  1.00  0.00    -0.113 C  
BRANCH  22  23
HETATM   23  C   UNL     1      -6.644  12.627  67.910  1.00  0.00    -0.111 C  
BRANCH  23  24
HETATM   24  C   UNL     1      -7.719  11.717  68.504  1.00  0.00    -0.134 C  
BRANCH  24  25
HETATM   25  N   UNL     1      -7.474  10.301  68.125  1.00  0.00    -0.085 NA 
HETATM   26  C   UNL     1      -7.151   9.378  69.083  1.00  0.00    -0.062 A  
HETATM   27  C   UNL     1      -6.994   8.036  68.729  1.00  0.00    -0.066 A  
HETATM   28  C   UNL     1      -7.000   9.675  70.558  1.00  0.00    -0.133 C  
HETATM   29  C   UNL     1      -7.130   7.608  67.418  1.00  0.00    -0.086 A  
HETATM   30  N   UNL     1      -7.100   6.231  67.182  1.00  0.00    -0.072 NA 
HETATM   31  C   UNL     1      -7.524   8.550  66.453  1.00  0.00    -0.087 A  
HETATM   32  H1  UNL     1      -7.200   5.916  66.217  1.00  0.00     0.000 HD 
HETATM   33  C   UNL     1      -7.658   9.919  66.812  1.00  0.00    -0.095 A  
HETATM   34  H2  UNL     1      -7.804   5.773  67.761  1.00  0.00     0.000 HD 
HETATM   35  C   UNL     1      -8.005  10.847  65.797  1.00  0.00    -0.075 A  
HETATM   36  C   UNL     1      -8.262  10.449  64.487  1.00  0.00    -0.131 A  
HETATM   37  C   UNL     1      -8.172   9.111  64.151  1.00  0.00    -0.162 A  
HETATM   38  C   UNL     1      -7.802   8.178  65.117  1.00  0.00    -0.118 A  
ENDBRANCH  24  25
ENDBRANCH  23  24
ENDBRANCH  22  23
ENDBRANCH  21  22
ENDBRANCH  20  21
ENDBRANCH  19  20
ENDBRANCH  18  19
ENDBRANCH  17  18
ENDBRANCH  16  17
ENDBRANCH  15  16
ENDBRANCH  14  15
TORSDOF 11
ENDMDL
MODEL      479
REMARK 921   NORMALIZED FREE ENERGY PREDICTED BY IDOCK:    2.71 KCAL/MOL
REMARK 922        TOTAL FREE ENERGY PREDICTED BY IDOCK:    3.09 KCAL/MOL
REMARK 923 INTER-LIGAND FREE ENERGY PREDICTED BY IDOCK:    3.94 KCAL/MOL
REMARK 924 INTRA-LIGAND FREE ENERGY PREDICTED BY IDOCK:   -0.85 KCAL/MOL
REMARK 927      BINDING AFFINITY PREDICTED BY RF-SCORE:    0.00 PKD
ROOT
HETATM    1  C   UNL     1      -8.135  14.954  68.597  1.00  0.00    -0.151 C  
HETATM    2  C   UNL     1      -9.406  14.970  69.417  1.00  0.00    -0.116 A  
HETATM    3  C   UNL     1      -9.285  14.967  70.800  1.00  0.00     1.812 A  
HETATM    4  C   UNL     1     -10.399  14.996  71.625  1.00  0.00     1.499 A  
HETATM    5  N   UNL     1     -10.184  15.135  73.000  1.00  0.00     3.036 NA 
HETATM    6  C   UNL     1     -11.668  15.124  71.029  1.00  0.00    -0.385 A  
HETATM    7  H2  UNL     1      -9.619  15.967  73.170  1.00  0.00     0.000 HD 
HETATM    8  C   UNL     1     -12.844  15.288  71.798  1.00  0.00    -0.457 A  
HETATM    9  H1  UNL     1     -11.004  15.156  73.606  1.00  0.00     0.000 HD 
HETATM   10  C   UNL     1     -14.103  15.399  71.210  1.00  0.00    -0.463 A  
HETATM   11  C   UNL     1     -14.226  15.337  69.835  1.00  0.00     2.575 A  
HETATM   12  C   UNL     1     -13.083  15.181  69.045  1.00  0.00     1.325 A  
HETATM   13  C   UNL     1     -11.785  15.102  69.614  1.00  0.00    -0.327 A  
HETATM   14  N   UNL     1     -10.646  15.028  68.842  1.00  0.00    -0.234 NA 
ENDROOT
BRANCH  14  15
HETATM   15  C   UNL     1     -10.751  15.081  67.358  1.00  0.00    -0.289 C  
BRANCH  15  16
HETATM   16  C   UNL     1     -10.603  13.684  66.757  1.00  0.00    -0.273 C  
BRANCH  16  17
HETATM   17  C   UNL     1     -11.906  12.895  66.843  1.00  0.00    -0.444 C  
BRANCH  17  18
HETATM   18  C   UNL     1     -11.713  11.487  67.416  1.00  0.00    -0.231 C  
BRANCH  18  19
HETATM   19  C   UNL     1     -11.233  11.514  68.864  1.00  0.00    -0.308 C  
BRANCH  19  20
HETATM   20  C   UNL     1     -10.085  10.539  69.137  1.00  0.00    -0.240 C  
BRANCH  20  21
HETATM   21  C   UNL     1     -10.097   9.298  68.234  1.00  0.00    -0.214 C  
BRANCH  21  22
HETATM   22  C   UNL     1     -10.889   8.132  68.832  1.00  0.00     0.004 C  
BRANCH  22  23
HETATM   23  C   UNL     1     -10.011   7.133  69.595  1.00  0.00    -0.176 C  
BRANCH  23  24
HETATM   24  C   UNL     1     -10.716   5.789  69.777  1.00  0.00    -0.348 C  
BRANCH  24  25
HETATM   25  N   UNL     1      -9.953   4.703  69.111  1.00  0.00    -0.173 NA 
HETATM   26  C   UNL     1      -9.827   4.686  67.748  1.00  0.00    -0.128 A  
HETATM   27  C   UNL     1      -9.047   3.702  67.134  1.00  0.00    -0.189 A  
HETATM   28  C   UNL     1     -10.427   5.707  66.808  1.00  0.00    -0.353 C  
HETATM   29  C   UNL     1      -8.410   2.715  67.870  1.00  0.00    -0.076 A  
HETATM   30  N   UNL     1      -7.537   1.863  67.187  1.00  0.00    -0.060 NA 
HETATM   31  C   UNL     1      -8.492   2.777  69.271  1.00  0.00    -0.099 A  
HETATM   32  H1  UNL     1      -7.068   1.137  67.728  1.00  0.00     0.000 HD 
HETATM   33  C   UNL     1      -9.308   3.764  69.890  1.00  0.00    -0.177 A  
HETATM   34  H2  UNL     1      -6.838   2.421  66.695  1.00  0.00     0.000 HD 
HETATM   35  C   UNL     1      -9.407   3.759  71.305  1.00  0.00    -0.215 A  
HETATM   36  C   UNL     1      -8.697   2.857  72.093  1.00  0.00    -0.100 A  
HETATM   37  C   UNL     1      -7.872   1.926  71.490  1.00  0.00    -0.040 A  
HETATM   38  C   UNL     1      -7.778   1.882  70.101  1.00  0.00    -0.044 A  
ENDBRANCH  24  25
ENDBRANCH  23  24
ENDBRANCH  22  23
ENDBRANCH  21  22
ENDBRANCH  20  21
ENDBRANCH  19  20
ENDBRANCH  18  19
ENDBRANCH  17  18
ENDBRANCH  16  17
ENDBRANCH  15  16
ENDBRANCH  14  15
TORSDOF 11
ENDMDL
MODEL      480
REMARK 921   NORMALIZED FREE ENERGY PREDICTED BY IDOCK:    2.96 KCAL/MOL
REMARK 922        TOTAL FREE ENERGY PREDICTED BY IDOCK:    3.52 KCAL/MOL
REMARK 923 INTER-LIGAND FREE ENERGY PREDICTED BY IDOCK:   -0.13 KCAL/MOL
REMARK 924 INTRA-LIGAND FREE ENERGY PREDICTED BY IDOCK:    3.65 KCAL/MOL
REMARK 927      BINDING AFFINITY PREDICTED BY RF-SCORE:    0.00 PKD
ROOT
HETATM    1  C   UNL     1      -8.865   7.985  64.383  1.00  0.00     0.460 C  
HETATM    2  C   UNL     1      -8.658   7.228  65.675  1.00  0.00    -0.109 A  
HETATM    3  C   UNL     1      -9.570   7.436  66.702  1.00  0.00    -0.251 A  
HETATM    4  C   UNL     1      -9.462   6.770  67.914  1.00  0.00    -0.118 A  
HETATM    5  N   UNL     1     -10.500   6.931  68.837  1.00  0.00    -0.199 NA 
HETATM    6  C   UNL     1      -8.454   5.797  68.053  1.00  0.00    -0.106 A  
HETATM    7  H2  UNL     1     -11.385   6.683  68.395  1.00  0.00     0.000 HD 
HETATM    8  C   UNL     1      -8.353   4.983  69.205  1.00  0.00    -0.082 A  
HETATM    9  H1  UNL     1     -10.420   6.441  69.727  1.00  0.00     0.000 HD 
HETATM   10  C   UNL     1      -7.345   4.031  69.352  1.00  0.00    -0.053 A  
HETATM   11  C   UNL     1      -6.402   3.871  68.355  1.00  0.00    -0.036 A  
HETATM   12  C   UNL     1      -6.477   4.654  67.200  1.00  0.00    -0.042 A  
HETATM   13  C   UNL     1      -7.511   5.606  67.008  1.00  0.00    -0.084 A  
HETATM   14  N   UNL     1      -7.641   6.328  65.841  1.00  0.00    -0.082 NA 
ENDROOT
BRANCH  14  15
HETATM   15  C   UNL     1      -6.705   6.083  64.710  1.00  0.00    -0.046 C  
BRANCH  15  16
HETATM   16  C   UNL     1      -5.801   7.293  64.486  1.00  0.00    -0.037 C  
BRANCH  16  17
HETATM   17  C   UNL     1      -5.996   8.349  65.571  1.00  0.00    -0.045 C  
BRANCH  17  18
HETATM   18  C   UNL     1      -5.555   7.867  66.956  1.00  0.00    -0.033 C  
BRANCH  18  19
HETATM   19  C   UNL     1      -6.192   8.678  68.081  1.00  0.00    -0.051 C  
BRANCH  19  20
HETATM   20  C   UNL     1      -5.523  10.037  68.298  1.00  0.00    -0.038 C  
BRANCH  20  21
HETATM   21  C   UNL     1      -5.137  10.754  66.997  1.00  0.00    -0.045 C  
BRANCH  21  22
HETATM   22  C   UNL     1      -6.275  11.602  66.423  1.00  0.00     0.081 C  
BRANCH  22  23
HETATM   23  C   UNL     1      -7.635  11.305  67.066  1.00  0.00    -0.143 C  
BRANCH  23  24
HETATM   24  C   UNL     1      -8.554  12.526  67.029  1.00  0.00    -0.188 C  
BRANCH  24  25
HETATM   25  N   UNL     1      -9.500  12.506  68.174  1.00  0.00    -0.211 NA 
HETATM   26  C   UNL     1      -9.505  11.447  69.043  1.00  0.00     0.037 A  
HETATM   27  C   UNL     1     -10.346  11.469  70.158  1.00  0.00     1.324 A  
HETATM   28  C   UNL     1      -8.607  10.235  68.940  1.00  0.00    -0.150 C  
HETATM   29  C   UNL     1     -11.206  12.529  70.401  1.00  0.00     0.913 A  
HETATM   30  N   UNL     1     -11.902  12.531  71.613  1.00  0.00     0.779 NA 
HETATM   31  C   UNL     1     -11.149  13.637  69.540  1.00  0.00    -0.127 A  
HETATM   32  H1  UNL     1     -12.534  13.311  71.792  1.00  0.00     0.000 HD 
HETATM   33  C   UNL     1     -10.310  13.601  68.392  1.00  0.00    -0.248 A  
HETATM   34  H2  UNL     1     -11.237  12.453  72.384  1.00  0.00     0.000 HD 
HETATM   35  C   UNL     1     -10.321  14.718  67.519  1.00  0.00    -0.238 A  
HETATM   36  C   UNL     1     -11.085  15.854  67.779  1.00  0.00    -0.288 A  
HETATM   37  C   UNL     1     -11.866  15.903  68.918  1.00  0.00    -0.314 A  
HETATM   38  C   UNL     1     -11.903  14.809  69.780  1.00  0.00    -0.362 A  
ENDBRANCH  24  25
ENDBRANCH  23  24
ENDBRANCH  22  23
ENDBRANCH  21  22
ENDBRANCH  20  21
ENDBRANCH  19  20
ENDBRANCH  18  19
ENDBRANCH  17  18
ENDBRANCH  16  17
ENDBRANCH  15  16
ENDBRANCH  14  15
TORSDOF 11
ENDMDL
MODEL      481
REMARK 921   NORMALIZED FREE ENERGY PREDICTED BY IDOCK:    4.26 KCAL/MOL
REMARK 922        TOTAL FREE ENERGY PREDICTED BY IDOCK:    5.64 KCAL/MOL
REMARK 923 INTER-LIGAND FREE ENERGY PREDICTED BY IDOCK:   -3.45 KCAL/MOL
REMARK 924 INTRA-LIGAND FREE ENERGY PREDICTED BY IDOCK:    9.09 KCAL/MOL
REMARK 927      BINDING AFFINITY PREDICTED BY RF-SCORE:    0.00 PKD
ROOT
HETATM    1  C   UNL     1      -9.629  13.035  66.645  1.00  0.00    -0.259 C  
HETATM    2  C   UNL     1      -8.729  11.825  66.541  1.00  0.00    -0.173 A  
HETATM    3  C   UNL     1      -8.391  11.376  65.270  1.00  0.00     0.365 A  
HETATM    4  C   UNL     1      -7.559  10.282  65.087  1.00  0.00    -0.133 A  
HETATM    5  N   UNL     1      -7.157   9.986  63.780  1.00  0.00    -0.131 NA 
HETATM    6  C   UNL     1      -6.979   9.685  66.222  1.00  0.00    -0.092 A  
HETATM    7  H2  UNL     1      -6.724  10.812  63.366  1.00  0.00     0.000 HD 
HETATM    8  C   UNL     1      -6.022   8.649  66.118  1.00  0.00    -0.048 A  
HETATM    9  H1  UNL     1      -6.545   9.182  63.645  1.00  0.00     0.000 HD 
HETATM   10  C   UNL     1      -5.459   8.046  67.241  1.00  0.00    -0.037 A  
HETATM   11  C   UNL     1      -5.846   8.452  68.504  1.00  0.00    -0.041 A  
HETATM   12  C   UNL     1      -6.785   9.478  68.643  1.00  0.00    -0.052 A  
HETATM   13  C   UNL     1      -7.348  10.135  67.518  1.00  0.00    -0.089 A  
HETATM   14  N   UNL     1      -8.214  11.199  67.643  1.00  0.00    -0.116 NA 
ENDROOT
BRANCH  14  15
HETATM   15  C   UNL     1      -8.548  11.728  68.994  1.00  0.00     0.240 C  
BRANCH  15  16
HETATM   16  C   UNL     1      -8.930  10.590  69.939  1.00  0.00     0.272 C  
BRANCH  16  17
HETATM   17  C   UNL     1      -9.578   9.430  69.188  1.00  0.00    -0.163 C  
BRANCH  17  18
HETATM   18  C   UNL     1      -9.612   8.136  70.008  1.00  0.00    -0.171 C  
BRANCH  18  19
HETATM   19  C   UNL     1     -10.057   6.937  69.176  1.00  0.00    -0.180 C  
BRANCH  19  20
HETATM   20  C   UNL     1     -10.216   5.657  70.000  1.00  0.00    -0.321 C  
BRANCH  20  21
HETATM   21  C   UNL     1     -11.375   5.705  71.003  1.00  0.00    -0.005 C  
BRANCH  21  22
HETATM   22  C   UNL     1     -11.575   7.092  71.620  1.00  0.00    -0.309 C  
BRANCH  22  23
HETATM   23  C   UNL     1     -12.545   7.973  70.824  1.00  0.00     0.144 C  
BRANCH  23  24
HETATM   24  C   UNL     1     -11.870   9.256  70.337  1.00  0.00    -0.054 C  
BRANCH  24  25
HETATM   25  N   UNL     1     -12.496  10.447  70.964  1.00  0.00    -0.352 NA 
HETATM   26  C   UNL     1     -13.159  10.329  72.157  1.00  0.00    -0.343 A  
HETATM   27  C   UNL     1     -13.682  11.467  72.776  1.00  0.00     1.385 A  
HETATM   28  C   UNL     1     -13.333   9.041  72.929  1.00  0.00    -0.048 C  
HETATM   29  C   UNL     1     -13.575  12.724  72.200  1.00  0.00    -0.451 A  
HETATM   30  N   UNL     1     -13.998  13.819  72.959  1.00  0.00    -0.271 NA 
HETATM   31  C   UNL     1     -12.839  12.845  71.010  1.00  0.00    -0.268 A  
HETATM   32  H1  UNL     1     -13.919  14.744  72.536  1.00  0.00     0.000 HD 
HETATM   33  C   UNL     1     -12.330  11.681  70.370  1.00  0.00    -0.288 A  
HETATM   34  H2  UNL     1     -13.513  13.817  73.856  1.00  0.00     0.000 HD 
HETATM   35  C   UNL     1     -11.639  11.841  69.141  1.00  0.00    -0.372 A  
HETATM   36  C   UNL     1     -11.408  13.095  68.580  1.00  0.00    -0.321 A  
HETATM   37  C   UNL     1     -11.868  14.226  69.226  1.00  0.00    -0.372 A  
HETATM   38  C   UNL     1     -12.578  14.102  70.419  1.00  0.00    -0.397 A  
ENDBRANCH  24  25
ENDBRANCH  23  24
ENDBRANCH  22  23
ENDBRANCH  21  22
ENDBRANCH  20  21
ENDBRANCH  19  20
ENDBRANCH  18  19
ENDBRANCH  17  18
ENDBRANCH  16  17
ENDBRANCH  15  16
ENDBRANCH  14  15
TORSDOF 11
ENDMDL
MODEL      482
REMARK 921   NORMALIZED FREE ENERGY PREDICTED BY IDOCK:    4.76 KCAL/MOL
REMARK 922        TOTAL FREE ENERGY PREDICTED BY IDOCK:    6.47 KCAL/MOL
REMARK 923 INTER-LIGAND FREE ENERGY PREDICTED BY IDOCK:    5.16 KCAL/MOL
REMARK 924 INTRA-LIGAND FREE ENERGY PREDICTED BY IDOCK:    1.30 KCAL/MOL
REMARK 927      BINDING AFFINITY PREDICTED BY RF-SCORE:    0.00 PKD
ROOT
HETATM    1  C   UNL     1     -10.112  14.262  72.200  1.00  0.00     5.452 C  
HETATM    2  C   UNL     1     -10.444  14.908  70.874  1.00  0.00     0.491 A  
HETATM    3  C   UNL     1     -11.766  15.265  70.639  1.00  0.00    -0.371 A  
HETATM    4  C   UNL     1     -12.152  15.875  69.455  1.00  0.00    -0.185 A  
HETATM    5  N   UNL     1     -13.472  16.328  69.361  1.00  0.00     1.409 NA 
HETATM    6  C   UNL     1     -11.154  16.217  68.523  1.00  0.00    -0.357 A  
HETATM    7  H2  UNL     1     -13.670  16.953  70.143  1.00  0.00     0.000 HD 
HETATM    8  C   UNL     1     -11.445  16.953  67.351  1.00  0.00     0.516 A  
HETATM    9  H1  UNL     1     -13.756  16.777  68.491  1.00  0.00     0.000 HD 
HETATM   10  C   UNL     1     -10.461  17.278  66.419  1.00  0.00    -0.263 A  
HETATM   11  C   UNL     1      -9.158  16.866  66.625  1.00  0.00    -0.280 A  
HETATM   12  C   UNL     1      -8.836  16.142  67.776  1.00  0.00    -0.184 A  
HETATM   13  C   UNL     1      -9.809  15.828  68.759  1.00  0.00    -0.214 A  
HETATM   14  N   UNL     1      -9.489  15.183  69.935  1.00  0.00    -0.052 NA 
ENDROOT
BRANCH  14  15
HETATM   15  C   UNL     1      -8.070  14.838  70.228  1.00  0.00     0.912 C  
BRANCH  15  16
HETATM   16  C   UNL     1      -7.760  13.410  69.785  1.00  0.00     1.123 C  
BRANCH  16  17
HETATM   17  C   UNL     1      -7.828  13.265  68.267  1.00  0.00    -0.143 C  
BRANCH  17  18
HETATM   18  C   UNL     1      -6.541  13.713  67.568  1.00  0.00    -0.122 C  
BRANCH  18  19
HETATM   19  C   UNL     1      -5.476  12.620  67.561  1.00  0.00    -0.110 C  
BRANCH  19  20
HETATM   20  C   UNL     1      -6.062  11.207  67.571  1.00  0.00    -0.052 C  
BRANCH  20  21
HETATM   21  C   UNL     1      -7.378  11.075  66.792  1.00  0.00    -0.139 C  
BRANCH  21  22
HETATM   22  C   UNL     1      -8.562  10.685  67.681  1.00  0.00    -0.118 C  
BRANCH  22  23
HETATM   23  C   UNL     1      -8.771   9.170  67.779  1.00  0.00    -0.121 C  
BRANCH  23  24
HETATM   24  C   UNL     1      -8.061   8.582  69.000  1.00  0.00    -0.115 C  
BRANCH  24  25
HETATM   25  N   UNL     1      -8.526   7.196  69.259  1.00  0.00    -0.132 NA 
HETATM   26  C   UNL     1      -7.746   6.130  68.897  1.00  0.00    -0.093 A  
HETATM   27  C   UNL     1      -8.156   4.831  69.210  1.00  0.00    -0.074 A  
HETATM   28  C   UNL     1      -6.399   6.230  68.218  1.00  0.00    -0.047 C  
HETATM   29  C   UNL     1      -9.356   4.584  69.859  1.00  0.00    -0.148 A  
HETATM   30  N   UNL     1      -9.614   3.269  70.258  1.00  0.00    -0.163 NA 
HETATM   31  C   UNL     1     -10.119   5.685  70.281  1.00  0.00    -0.287 A  
HETATM   32  H1  UNL     1     -10.497   3.087  70.736  1.00  0.00     0.000 HD 
HETATM   33  C   UNL     1      -9.710   7.003  69.939  1.00  0.00    -0.163 A  
HETATM   34  H2  UNL     1      -8.843   2.935  70.837  1.00  0.00     0.000 HD 
HETATM   35  C   UNL     1     -10.536   8.085  70.338  1.00  0.00    -0.224 A  
HETATM   36  C   UNL     1     -11.694   7.894  71.088  1.00  0.00    -0.306 A  
HETATM   37  C   UNL     1     -12.066   6.615  71.456  1.00  0.00    -0.406 A  
HETATM   38  C   UNL     1     -11.294   5.527  71.052  1.00  0.00     0.128 A  
ENDBRANCH  24  25
ENDBRANCH  23  24
ENDBRANCH  22  23
ENDBRANCH  21  22
ENDBRANCH  20  21
ENDBRANCH  19  20
ENDBRANCH  18  19
ENDBRANCH  17  18
ENDBRANCH  16  17
ENDBRANCH  15  16
ENDBRANCH  14  15
TORSDOF 11
ENDMDL
MODEL      483
REMARK 921   NORMALIZED FREE ENERGY PREDICTED BY IDOCK:    6.30 KCAL/MOL
REMARK 922        TOTAL FREE ENERGY PREDICTED BY IDOCK:    9.00 KCAL/MOL
REMARK 923 INTER-LIGAND FREE ENERGY PREDICTED BY IDOCK:   -2.14 KCAL/MOL
REMARK 924 INTRA-LIGAND FREE ENERGY PREDICTED BY IDOCK:   11.13 KCAL/MOL
REMARK 927      BINDING AFFINITY PREDICTED BY RF-SCORE:    0.00 PKD
ROOT
HETATM    1  C   UNL     1      -8.629   8.456  63.587  1.00  0.00     0.112 C  
HETATM    2  C   UNL     1      -8.865   7.293  64.525  1.00  0.00     0.672 A  
HETATM    3  C   UNL     1      -9.846   7.433  65.498  1.00  0.00     1.151 A  
HETATM    4  C   UNL     1     -10.135   6.409  66.387  1.00  0.00    -0.014 A  
HETATM    5  N   UNL     1     -11.231   6.581  67.239  1.00  0.00    -0.718 NA 
HETATM    6  C   UNL     1      -9.474   5.177  66.226  1.00  0.00    -0.164 A  
HETATM    7  H2  UNL     1     -12.061   6.787  66.682  1.00  0.00     0.000 HD 
HETATM    8  C   UNL     1      -9.800   4.044  67.006  1.00  0.00    -0.151 A  
HETATM    9  H1  UNL     1     -11.444   5.828  67.893  1.00  0.00     0.000 HD 
HETATM   10  C   UNL     1      -9.135   2.827  66.859  1.00  0.00    -0.172 A  
HETATM   11  C   UNL     1      -8.116   2.711  65.934  1.00  0.00    -0.084 A  
HETATM   12  C   UNL     1      -7.773   3.810  65.141  1.00  0.00    -0.085 A  
HETATM   13  C   UNL     1      -8.456   5.049  65.245  1.00  0.00    -0.141 A  
HETATM   14  N   UNL     1      -8.179   6.114  64.415  1.00  0.00    -0.103 NA 
ENDROOT
BRANCH  14  15
HETATM   15  C   UNL     1      -7.166   5.968  63.333  1.00  0.00    -0.052 C  
BRANCH  15  16
HETATM   16  C   UNL     1      -5.887   6.723  63.687  1.00  0.00    -0.031 C  
BRANCH  16  17
HETATM   17  C   UNL     1      -6.013   7.448  65.024  1.00  0.00    -0.038 C  
BRANCH  17  18
HETATM   18  C   UNL     1      -7.043   6.803  65.956  1.00  0.00    -0.069 C  
BRANCH  18  19
HETATM   19  C   UNL     1      -7.615   7.798  66.962  1.00  0.00    -0.100 C  
BRANCH  19  20
HETATM   20  C   UNL     1      -6.610   8.211  68.040  1.00  0.00    -0.057 C  
BRANCH  20  21
HETATM   21  C   UNL     1      -5.235   8.608  67.488  1.00  0.00    -0.034 C  
BRANCH  21  22
HETATM   22  C   UNL     1      -5.221  10.011  66.874  1.00  0.00    -0.041 C  
BRANCH  22  23
HETATM   23  C   UNL     1      -6.594  10.461  66.361  1.00  0.00    -0.099 C  
BRANCH  23  24
HETATM   24  C   UNL     1      -7.119  11.666  67.141  1.00  0.00    -0.143 C  
BRANCH  24  25
HETATM   25  N   UNL     1      -8.457  11.375  67.716  1.00  0.00    -0.124 NA 
HETATM   26  C   UNL     1      -8.573  10.981  69.022  1.00  0.00    -0.068 A  
HETATM   27  C   UNL     1      -9.840  10.780  69.577  1.00  0.00    -0.049 A  
HETATM   28  C   UNL     1      -7.418  10.793  69.979  1.00  0.00     0.199 C  
HETATM   29  C   UNL     1     -10.996  10.943  68.829  1.00  0.00    -0.237 A  
HETATM   30  N   UNL     1     -12.218  10.862  69.503  1.00  0.00    -0.454 NA 
HETATM   31  C   UNL     1     -10.870  11.408  67.509  1.00  0.00    -0.291 A  
HETATM   32  H1  UNL     1     -13.068  10.982  68.954  1.00  0.00     0.000 HD 
HETATM   33  C   UNL     1      -9.579  11.587  66.942  1.00  0.00    -0.187 A  
HETATM   34  H2  UNL     1     -12.220  11.527  70.277  1.00  0.00     0.000 HD 
HETATM   35  C   UNL     1      -9.495  12.007  65.589  1.00  0.00    -0.150 A  
HETATM   36  C   UNL     1     -10.628  12.291  64.830  1.00  0.00    -0.329 A  
HETATM   37  C   UNL     1     -11.880  12.157  65.399  1.00  0.00    -0.357 A  
HETATM   38  C   UNL     1     -11.999  11.715  66.716  1.00  0.00     0.273 A  
ENDBRANCH  24  25
ENDBRANCH  23  24
ENDBRANCH  22  23
ENDBRANCH  21  22
ENDBRANCH  20  21
ENDBRANCH  19  20
ENDBRANCH  18  19
ENDBRANCH  17  18
ENDBRANCH  16  17
ENDBRANCH  15  16
ENDBRANCH  14  15
TORSDOF 11
ENDMDL
MODEL      484
REMARK 921   NORMALIZED FREE ENERGY PREDICTED BY IDOCK:    6.37 KCAL/MOL
REMARK 922        TOTAL FREE ENERGY PREDICTED BY IDOCK:    9.12 KCAL/MOL
REMARK 923 INTER-LIGAND FREE ENERGY PREDICTED BY IDOCK:    7.24 KCAL/MOL
REMARK 924 INTRA-LIGAND FREE ENERGY PREDICTED BY IDOCK:    1.88 KCAL/MOL
REMARK 927      BINDING AFFINITY PREDICTED BY RF-SCORE:    0.00 PKD
ROOT
HETATM    1  C   UNL     1      -7.179  17.333  70.538  1.00  0.00     2.587 C  
HETATM    2  C   UNL     1      -8.314  16.578  69.884  1.00  0.00     1.062 A  
HETATM    3  C   UNL     1      -8.830  15.475  70.554  1.00  0.00     1.456 A  
HETATM    4  C   UNL     1      -9.880  14.737  70.031  1.00  0.00     0.354 A  
HETATM    5  N   UNL     1     -10.429  13.733  70.836  1.00  0.00     2.038 NA 
HETATM    6  C   UNL     1     -10.485  15.184  68.841  1.00  0.00    -0.241 A  
HETATM    7  H2  UNL     1     -10.713  14.135  71.730  1.00  0.00     0.000 HD 
HETATM    8  C   UNL     1     -11.640  14.565  68.309  1.00  0.00    -0.358 A  
HETATM    9  H1  UNL     1     -11.202  13.190  70.451  1.00  0.00     0.000 HD 
HETATM   10  C   UNL     1     -12.230  14.997  67.123  1.00  0.00     0.276 A  
HETATM   11  C   UNL     1     -11.676  16.054  66.426  1.00  0.00     0.815 A  
HETATM   12  C   UNL     1     -10.539  16.692  66.928  1.00  0.00    -0.229 A  
HETATM   13  C   UNL     1      -9.937  16.297  68.151  1.00  0.00    -0.239 A  
HETATM   14  N   UNL     1      -8.864  16.969  68.695  1.00  0.00    -0.265 NA 
ENDROOT
BRANCH  14  15
HETATM   15  C   UNL     1      -8.329  18.183  68.018  1.00  0.00    -0.261 C  
BRANCH  15  16
HETATM   16  C   UNL     1      -8.031  17.894  66.549  1.00  0.00    -0.303 C  
BRANCH  16  17
HETATM   17  C   UNL     1      -6.735  18.561  66.095  1.00  0.00    -0.275 C  
BRANCH  17  18
HETATM   18  C   UNL     1      -5.530  18.169  66.955  1.00  0.00    -0.153 C  
BRANCH  18  19
HETATM   19  C   UNL     1      -5.145  16.703  66.775  1.00  0.00     0.006 C  
BRANCH  19  20
HETATM   20  C   UNL     1      -5.247  15.889  68.067  1.00  0.00    -0.130 C  
BRANCH  20  21
HETATM   21  C   UNL     1      -6.620  15.239  68.283  1.00  0.00    -0.116 C  
BRANCH  21  22
HETATM   22  C   UNL     1      -6.749  13.874  67.601  1.00  0.00    -0.189 C  
BRANCH  22  23
HETATM   23  C   UNL     1      -5.929  12.776  68.287  1.00  0.00    -0.075 C  
BRANCH  23  24
HETATM   24  C   UNL     1      -6.769  11.994  69.297  1.00  0.00    -0.093 C  
BRANCH  24  25
HETATM   25  N   UNL     1      -6.434  10.548  69.250  1.00  0.00    -0.049 NA 
HETATM   26  C   UNL     1      -6.228   9.928  68.047  1.00  0.00    -0.054 A  
HETATM   27  C   UNL     1      -5.842   8.585  68.014  1.00  0.00    -0.042 A  
HETATM   28  C   UNL     1      -6.325  10.600  66.696  1.00  0.00    -0.091 C  
HETATM   29  C   UNL     1      -5.684   7.845  69.175  1.00  0.00    -0.030 A  
HETATM   30  N   UNL     1      -5.156   6.557  69.052  1.00  0.00    -0.011 NA 
HETATM   31  C   UNL     1      -5.835   8.505  70.406  1.00  0.00    -0.027 A  
HETATM   32  H1  UNL     1      -5.040   6.012  69.906  1.00  0.00     0.000 HD 
HETATM   33  C   UNL     1      -6.253   9.864  70.435  1.00  0.00    -0.094 A  
HETATM   34  H2  UNL     1      -4.264   6.603  68.559  1.00  0.00     0.000 HD 
HETATM   35  C   UNL     1      -6.446  10.478  71.698  1.00  0.00     1.254 A  
HETATM   36  C   UNL     1      -6.192   9.809  72.893  1.00  0.00     0.821 A  
HETATM   37  C   UNL     1      -5.745   8.502  72.861  1.00  0.00    -0.071 A  
HETATM   38  C   UNL     1      -5.576   7.858  71.636  1.00  0.00    -0.035 A  
ENDBRANCH  24  25
ENDBRANCH  23  24
ENDBRANCH  22  23
ENDBRANCH  21  22
ENDBRANCH  20  21
ENDBRANCH  19  20
ENDBRANCH  18  19
ENDBRANCH  17  18
ENDBRANCH  16  17
ENDBRANCH  15  16
ENDBRANCH  14  15
TORSDOF 11
ENDMDL
MODEL      485
REMARK 921   NORMALIZED FREE ENERGY PREDICTED BY IDOCK:    6.53 KCAL/MOL
REMARK 922        TOTAL FREE ENERGY PREDICTED BY IDOCK:    9.38 KCAL/MOL
REMARK 923 INTER-LIGAND FREE ENERGY PREDICTED BY IDOCK:    7.63 KCAL/MOL
REMARK 924 INTRA-LIGAND FREE ENERGY PREDICTED BY IDOCK:    1.75 KCAL/MOL
REMARK 927      BINDING AFFINITY PREDICTED BY RF-SCORE:    0.00 PKD
ROOT
HETATM    1  C   UNL     1     -10.831  19.509  69.068  1.00  0.00     0.846 C  
HETATM    2  C   UNL     1      -9.409  19.044  69.287  1.00  0.00    -0.030 A  
HETATM    3  C   UNL     1      -8.382  19.873  68.853  1.00  0.00    -0.046 A  
HETATM    4  C   UNL     1      -7.050  19.527  69.028  1.00  0.00    -0.364 A  
HETATM    5  N   UNL     1      -6.084  20.481  68.691  1.00  0.00    -0.315 NA 
HETATM    6  C   UNL     1      -6.753  18.353  69.746  1.00  0.00     0.057 A  
HETATM    7  H2  UNL     1      -6.276  21.348  69.194  1.00  0.00     0.000 HD 
HETATM    8  C   UNL     1      -5.426  17.995  70.079  1.00  0.00    -0.237 A  
HETATM    9  H1  UNL     1      -5.105  20.227  68.819  1.00  0.00     0.000 HD 
HETATM   10  C   UNL     1      -5.128  16.825  70.776  1.00  0.00    -0.224 A  
HETATM   11  C   UNL     1      -6.149  15.972  71.150  1.00  0.00     0.876 A  
HETATM   12  C   UNL     1      -7.472  16.299  70.842  1.00  0.00     3.330 A  
HETATM   13  C   UNL     1      -7.807  17.501  70.165  1.00  0.00     2.242 A  
HETATM   14  N   UNL     1      -9.113  17.872  69.926  1.00  0.00     1.268 NA 
ENDROOT
BRANCH  14  15
HETATM   15  C   UNL     1     -10.229  17.023  70.429  1.00  0.00     1.086 C  
BRANCH  15  16
HETATM   16  C   UNL     1     -10.427  15.806  69.528  1.00  0.00    -0.270 C  
BRANCH  16  17
HETATM   17  C   UNL     1     -11.127  16.178  68.224  1.00  0.00    -0.348 C  
BRANCH  17  18
HETATM   18  C   UNL     1     -12.040  15.066  67.699  1.00  0.00     0.037 C  
BRANCH  18  19
HETATM   19  C   UNL     1     -11.453  13.678  67.933  1.00  0.00    -0.348 C  
BRANCH  19  20
HETATM   20  C   UNL     1     -11.958  12.633  66.935  1.00  0.00    -0.345 C  
BRANCH  20  21
HETATM   21  C   UNL     1     -12.938  13.192  65.895  1.00  0.00     0.339 C  
BRANCH  21  22
HETATM   22  C   UNL     1     -13.106  12.276  64.679  1.00  0.00     0.221 C  
BRANCH  22  23
HETATM   23  C   UNL     1     -11.941  11.297  64.495  1.00  0.00     0.462 C  
BRANCH  23  24
HETATM   24  C   UNL     1     -11.457  10.740  65.834  1.00  0.00     0.785 C  
BRANCH  24  25
HETATM   25  N   UNL     1     -10.138  10.074  65.679  1.00  0.00    -0.277 NA 
HETATM   26  C   UNL     1      -9.146  10.674  64.950  1.00  0.00    -0.204 A  
HETATM   27  C   UNL     1      -7.885  10.076  64.870  1.00  0.00    -0.141 A  
HETATM   28  C   UNL     1      -9.270  12.005  64.245  1.00  0.00     0.400 C  
HETATM   29  C   UNL     1      -7.613   8.866  65.489  1.00  0.00    -0.087 A  
HETATM   30  N   UNL     1      -6.289   8.419  65.475  1.00  0.00    -0.048 NA 
HETATM   31  C   UNL     1      -8.616   8.291  66.286  1.00  0.00    -0.152 A  
HETATM   32  H1  UNL     1      -6.088   7.529  65.931  1.00  0.00     0.000 HD 
HETATM   33  C   UNL     1      -9.904   8.889  66.345  1.00  0.00    -0.283 A  
HETATM   34  H2  UNL     1      -5.684   9.141  65.866  1.00  0.00     0.000 HD 
HETATM   35  C   UNL     1     -10.906   8.247  67.118  1.00  0.00    -0.095 A  
HETATM   36  C   UNL     1     -10.648   7.089  67.849  1.00  0.00    -0.276 A  
HETATM   37  C   UNL     1      -9.383   6.535  67.823  1.00  0.00    -0.118 A  
HETATM   38  C   UNL     1      -8.385   7.122  67.048  1.00  0.00    -0.118 A  
ENDBRANCH  24  25
ENDBRANCH  23  24
ENDBRANCH  22  23
ENDBRANCH  21  22
ENDBRANCH  20  21
ENDBRANCH  19  20
ENDBRANCH  18  19
ENDBRANCH  17  18
ENDBRANCH  16  17
ENDBRANCH  15  16
ENDBRANCH  14  15
TORSDOF 11
ENDMDL
MODEL      486
REMARK 921   NORMALIZED FREE ENERGY PREDICTED BY IDOCK:    7.19 KCAL/MOL
REMARK 922        TOTAL FREE ENERGY PREDICTED BY IDOCK:   10.47 KCAL/MOL
REMARK 923 INTER-LIGAND FREE ENERGY PREDICTED BY IDOCK:    0.90 KCAL/MOL
REMARK 924 INTRA-LIGAND FREE ENERGY PREDICTED BY IDOCK:    9.56 KCAL/MOL
REMARK 927      BINDING AFFINITY PREDICTED BY RF-SCORE:    0.00 PKD
ROOT
HETATM    1  C   UNL     1     -10.253   9.351  69.404  1.00  0.00    -0.214 C  
HETATM    2  C   UNL     1     -10.157   8.341  70.525  1.00  0.00    -0.195 A  
HETATM    3  C   UNL     1     -10.087   8.821  71.826  1.00  0.00    -0.403 A  
HETATM    4  C   UNL     1     -10.012   7.962  72.912  1.00  0.00    -0.294 A  
HETATM    5  N   UNL     1     -10.088   8.526  74.190  1.00  0.00     2.012 NA 
HETATM    6  C   UNL     1     -10.104   6.577  72.676  1.00  0.00    -0.190 A  
HETATM    7  H2  UNL     1     -10.938   9.085  74.261  1.00  0.00     0.000 HD 
HETATM    8  C   UNL     1     -10.165   5.640  73.734  1.00  0.00    -0.245 A  
HETATM    9  H1  UNL     1     -10.033   7.894  74.988  1.00  0.00     0.000 HD 
HETATM   10  C   UNL     1     -10.240   4.268  73.503  1.00  0.00    -0.217 A  
HETATM   11  C   UNL     1     -10.245   3.790  72.206  1.00  0.00    -0.201 A  
HETATM   12  C   UNL     1     -10.193   4.690  71.138  1.00  0.00    -0.199 A  
HETATM   13  C   UNL     1     -10.152   6.093  71.343  1.00  0.00    -0.194 A  
HETATM   14  N   UNL     1     -10.180   6.992  70.298  1.00  0.00    -0.191 NA 
ENDROOT
BRANCH  14  15
HETATM   15  C   UNL     1     -10.307   6.498  68.899  1.00  0.00    -0.196 C  
BRANCH  15  16
HETATM   16  C   UNL     1     -11.330   5.367  68.817  1.00  0.00     1.226 C  
BRANCH  16  17
HETATM   17  C   UNL     1     -10.753   4.135  68.127  1.00  0.00     1.708 C  
BRANCH  17  18
HETATM   18  C   UNL     1      -9.249   4.250  67.863  1.00  0.00    -0.179 C  
BRANCH  18  19
HETATM   19  C   UNL     1      -8.764   3.234  66.833  1.00  0.00    -0.134 C  
BRANCH  19  20
HETATM   20  C   UNL     1      -9.385   3.435  65.449  1.00  0.00    -0.153 C  
BRANCH  20  21
HETATM   21  C   UNL     1      -8.625   4.433  64.566  1.00  0.00    -0.135 C  
BRANCH  21  22
HETATM   22  C   UNL     1      -7.121   4.461  64.854  1.00  0.00    -0.062 C  
BRANCH  22  23
HETATM   23  C   UNL     1      -6.326   5.288  63.837  1.00  0.00    -0.022 C  
BRANCH  23  24
HETATM   24  C   UNL     1      -7.176   6.408  63.236  1.00  0.00    -0.059 C  
BRANCH  24  25
HETATM   25  N   UNL     1      -7.534   7.408  64.274  1.00  0.00    -0.090 NA 
HETATM   26  C   UNL     1      -8.464   7.103  65.232  1.00  0.00    -0.051 A  
HETATM   27  C   UNL     1      -8.741   8.022  66.247  1.00  0.00    -0.174 A  
HETATM   28  C   UNL     1      -9.205   5.790  65.335  1.00  0.00     0.077 C  
HETATM   29  C   UNL     1      -8.117   9.259  66.301  1.00  0.00    -0.107 A  
HETATM   30  N   UNL     1      -8.349  10.050  67.429  1.00  0.00    -0.118 NA 
HETATM   31  C   UNL     1      -7.120   9.538  65.352  1.00  0.00    -0.095 A  
HETATM   32  H1  UNL     1      -7.890  10.960  67.469  1.00  0.00     0.000 HD 
HETATM   33  C   UNL     1      -6.858   8.611  64.306  1.00  0.00    -0.074 A  
HETATM   34  H2  UNL     1      -8.116   9.518  68.268  1.00  0.00     0.000 HD 
HETATM   35  C   UNL     1      -5.881   8.954  63.336  1.00  0.00    -0.077 A  
HETATM   36  C   UNL     1      -5.148  10.136  63.411  1.00  0.00    -0.103 A  
HETATM   37  C   UNL     1      -5.375  11.014  64.453  1.00  0.00     0.240 A  
HETATM   38  C   UNL     1      -6.351  10.723  65.404  1.00  0.00     0.015 A  
ENDBRANCH  24  25
ENDBRANCH  23  24
ENDBRANCH  22  23
ENDBRANCH  21  22
ENDBRANCH  20  21
ENDBRANCH  19  20
ENDBRANCH  18  19
ENDBRANCH  17  18
ENDBRANCH  16  17
ENDBRANCH  15  16
ENDBRANCH  14  15
TORSDOF 11
ENDMDL
MODEL      487
REMARK 921   NORMALIZED FREE ENERGY PREDICTED BY IDOCK:    7.60 KCAL/MOL
REMARK 922        TOTAL FREE ENERGY PREDICTED BY IDOCK:   11.14 KCAL/MOL
REMARK 923 INTER-LIGAND FREE ENERGY PREDICTED BY IDOCK:    4.11 KCAL/MOL
REMARK 924 INTRA-LIGAND FREE ENERGY PREDICTED BY IDOCK:    7.03 KCAL/MOL
REMARK 927      BINDING AFFINITY PREDICTED BY RF-SCORE:    0.00 PKD
ROOT
HETATM    1  C   UNL     1      -7.179  17.333  70.538  1.00  0.00     2.587 C  
HETATM    2  C   UNL     1      -8.314  16.578  69.884  1.00  0.00     1.062 A  
HETATM    3  C   UNL     1      -8.830  15.475  70.554  1.00  0.00     1.456 A  
HETATM    4  C   UNL     1      -9.880  14.737  70.031  1.00  0.00     0.354 A  
HETATM    5  N   UNL     1     -10.429  13.733  70.836  1.00  0.00     2.038 NA 
HETATM    6  C   UNL     1     -10.485  15.184  68.841  1.00  0.00    -0.241 A  
HETATM    7  H2  UNL     1     -10.713  14.135  71.730  1.00  0.00     0.000 HD 
HETATM    8  C   UNL     1     -11.640  14.565  68.309  1.00  0.00    -0.358 A  
HETATM    9  H1  UNL     1     -11.202  13.190  70.451  1.00  0.00     0.000 HD 
HETATM   10  C   UNL     1     -12.230  14.997  67.123  1.00  0.00     0.276 A  
HETATM   11  C   UNL     1     -11.676  16.054  66.426  1.00  0.00     0.815 A  
HETATM   12  C   UNL     1     -10.539  16.692  66.928  1.00  0.00    -0.229 A  
HETATM   13  C   UNL     1      -9.937  16.297  68.151  1.00  0.00    -0.239 A  
HETATM   14  N   UNL     1      -8.864  16.969  68.695  1.00  0.00    -0.265 NA 
ENDROOT
BRANCH  14  15
HETATM   15  C   UNL     1      -8.329  18.183  68.018  1.00  0.00    -0.261 C  
BRANCH  15  16
HETATM   16  C   UNL     1      -8.031  17.894  66.549  1.00  0.00    -0.303 C  
BRANCH  16  17
HETATM   17  C   UNL     1      -6.735  18.561  66.095  1.00  0.00    -0.275 C  
BRANCH  17  18
HETATM   18  C   UNL     1      -5.530  18.169  66.955  1.00  0.00    -0.153 C  
BRANCH  18  19
HETATM   19  C   UNL     1      -5.145  16.703  66.775  1.00  0.00     0.006 C  
BRANCH  19  20
HETATM   20  C   UNL     1      -5.247  15.889  68.067  1.00  0.00    -0.130 C  
BRANCH  20  21
HETATM   21  C   UNL     1      -6.620  15.239  68.283  1.00  0.00    -0.116 C  
BRANCH  21  22
HETATM   22  C   UNL     1      -6.749  13.874  67.601  1.00  0.00    -0.189 C  
BRANCH  22  23
HETATM   23  C   UNL     1      -5.929  12.776  68.287  1.00  0.00    -0.075 C  
BRANCH  23  24
HETATM   24  C   UNL     1      -6.750  12.039  69.346  1.00  0.00    -0.070 C  
BRANCH  24  25
HETATM   25  N   UNL     1      -7.937  11.392  68.732  1.00  0.00    -0.141 NA 
HETATM   26  C   UNL     1      -8.662  12.051  67.775  1.00  0.00    -0.161 A  
HETATM   27  C   UNL     1      -9.734  11.408  67.150  1.00  0.00    -0.200 A  
HETATM   28  C   UNL     1      -8.364  13.444  67.266  1.00  0.00    -0.183 C  
HETATM   29  C   UNL     1     -10.107  10.118  67.492  1.00  0.00    -0.201 A  
HETATM   30  N   UNL     1     -11.095   9.505  66.715  1.00  0.00     0.059 NA 
HETATM   31  C   UNL     1      -9.320   9.427  68.428  1.00  0.00    -0.137 A  
HETATM   32  H1  UNL     1     -11.370   8.556  66.966  1.00  0.00     0.000 HD 
HETATM   33  C   UNL     1      -8.246  10.094  69.080  1.00  0.00    -0.132 A  
HETATM   34  H2  UNL     1     -10.814   9.526  65.734  1.00  0.00     0.000 HD 
HETATM   35  C   UNL     1      -7.510   9.378  70.058  1.00  0.00    -0.107 A  
HETATM   36  C   UNL     1      -7.776   8.044  70.356  1.00  0.00    -0.085 A  
HETATM   37  C   UNL     1      -8.793   7.387  69.689  1.00  0.00    -0.141 A  
HETATM   38  C   UNL     1      -9.558   8.070  68.746  1.00  0.00    -0.149 A  
ENDBRANCH  24  25
ENDBRANCH  23  24
ENDBRANCH  22  23
ENDBRANCH  21  22
ENDBRANCH  20  21
ENDBRANCH  19  20
ENDBRANCH  18  19
ENDBRANCH  17  18
ENDBRANCH  16  17
ENDBRANCH  15  16
ENDBRANCH  14  15
TORSDOF 11
ENDMDL
MODEL      488
REMARK 921   NORMALIZED FREE ENERGY PREDICTED BY IDOCK:    9.14 KCAL/MOL
REMARK 922        TOTAL FREE ENERGY PREDICTED BY IDOCK:   13.67 KCAL/MOL
REMARK 923 INTER-LIGAND FREE ENERGY PREDICTED BY IDOCK:   13.63 KCAL/MOL
REMARK 924 INTRA-LIGAND FREE ENERGY PREDICTED BY IDOCK:    0.03 KCAL/MOL
REMARK 927      BINDING AFFINITY PREDICTED BY RF-SCORE:    0.00 PKD
ROOT
HETATM    1  C   UNL     1     -10.132  14.122  72.333  1.00  0.00     6.575 C  
HETATM    2  C   UNL     1     -10.532  14.673  70.983  1.00  0.00     1.064 A  
HETATM    3  C   UNL     1     -11.862  15.024  70.794  1.00  0.00    -0.372 A  
HETATM    4  C   UNL     1     -12.309  15.550  69.591  1.00  0.00    -0.191 A  
HETATM    5  N   UNL     1     -13.630  16.007  69.535  1.00  0.00     1.056 NA 
HETATM    6  C   UNL     1     -11.361  15.813  68.584  1.00  0.00    -0.369 A  
HETATM    7  H2  UNL     1     -13.782  16.689  70.278  1.00  0.00     0.000 HD 
HETATM    8  C   UNL     1     -11.711  16.465  67.379  1.00  0.00     0.623 A  
HETATM    9  H1  UNL     1     -13.958  16.393  68.650  1.00  0.00     0.000 HD 
HETATM   10  C   UNL     1     -10.777  16.712  66.374  1.00  0.00    -0.123 A  
HETATM   11  C   UNL     1      -9.467  16.304  66.539  1.00  0.00    -0.289 A  
HETATM   12  C   UNL     1      -9.087  15.663  67.721  1.00  0.00    -0.181 A  
HETATM   13  C   UNL     1     -10.007  15.430  68.776  1.00  0.00    -0.208 A  
HETATM   14  N   UNL     1      -9.627  14.870  69.976  1.00  0.00     0.199 NA 
ENDROOT
BRANCH  14  15
HETATM   15  C   UNL     1      -8.196  14.535  70.217  1.00  0.00     1.282 C  
BRANCH  15  16
HETATM   16  C   UNL     1      -7.911  13.084  69.833  1.00  0.00     2.027 C  
BRANCH  16  17
HETATM   17  C   UNL     1      -8.131  12.843  68.342  1.00  0.00    -0.130 C  
BRANCH  17  18
HETATM   18  C   UNL     1      -6.992  13.390  67.476  1.00  0.00    -0.153 C  
BRANCH  18  19
HETATM   19  C   UNL     1      -5.790  12.451  67.442  1.00  0.00    -0.149 C  
BRANCH  19  20
HETATM   20  C   UNL     1      -6.142  11.006  67.803  1.00  0.00    -0.047 C  
BRANCH  20  21
HETATM   21  C   UNL     1      -5.307   9.959  67.054  1.00  0.00    -0.041 C  
BRANCH  21  22
HETATM   22  C   UNL     1      -6.146   9.082  66.121  1.00  0.00    -0.059 C  
BRANCH  22  23
HETATM   23  C   UNL     1      -6.670   7.809  66.796  1.00  0.00    -0.067 C  
BRANCH  23  24
HETATM   24  C   UNL     1      -8.064   8.021  67.389  1.00  0.00    -0.122 C  
BRANCH  24  25
HETATM   25  N   UNL     1      -8.665   6.723  67.790  1.00  0.00    -0.120 NA 
HETATM   26  C   UNL     1      -8.705   6.362  69.111  1.00  0.00    -0.127 A  
HETATM   27  C   UNL     1      -9.337   5.174  69.487  1.00  0.00    -0.181 A  
HETATM   28  C   UNL     1      -8.162   7.189  70.253  1.00  0.00    -0.131 C  
HETATM   29  C   UNL     1      -9.907   4.326  68.551  1.00  0.00    -0.044 A  
HETATM   30  N   UNL     1     -10.642   3.237  69.030  1.00  0.00     2.262 NA 
HETATM   31  C   UNL     1      -9.917   4.734  67.207  1.00  0.00    -0.214 A  
HETATM   32  H1  UNL     1     -11.062   2.613  68.342  1.00  0.00     0.000 HD 
HETATM   33  C   UNL     1      -9.252   5.931  66.825  1.00  0.00    -0.133 A  
HETATM   34  H2  UNL     1     -11.365   3.572  69.667  1.00  0.00     0.000 HD 
HETATM   35  C   UNL     1      -9.238   6.281  65.450  1.00  0.00     0.252 A  
HETATM   36  C   UNL     1      -9.894   5.518  64.486  1.00  0.00     1.135 A  
HETATM   37  C   UNL     1     -10.576   4.378  64.867  1.00  0.00    -0.120 A  
HETATM   38  C   UNL     1     -10.581   3.989  66.205  1.00  0.00     0.730 A  
ENDBRANCH  24  25
ENDBRANCH  23  24
ENDBRANCH  22  23
ENDBRANCH  21  22
ENDBRANCH  20  21
ENDBRANCH  19  20
ENDBRANCH  18  19
ENDBRANCH  17  18
ENDBRANCH  16  17
ENDBRANCH  15  16
ENDBRANCH  14  15
TORSDOF 11
ENDMDL
MODEL      489
REMARK 921   NORMALIZED FREE ENERGY PREDICTED BY IDOCK:    9.18 KCAL/MOL
REMARK 922        TOTAL FREE ENERGY PREDICTED BY IDOCK:   13.73 KCAL/MOL
REMARK 923 INTER-LIGAND FREE ENERGY PREDICTED BY IDOCK:   -0.21 KCAL/MOL
REMARK 924 INTRA-LIGAND FREE ENERGY PREDICTED BY IDOCK:   13.94 KCAL/MOL
REMARK 927      BINDING AFFINITY PREDICTED BY RF-SCORE:    0.00 PKD
ROOT
HETATM    1  C   UNL     1      -9.809   8.103  68.906  1.00  0.00    -0.178 C  
HETATM    2  C   UNL     1      -9.188   7.500  67.666  1.00  0.00    -0.127 A  
HETATM    3  C   UNL     1      -9.628   6.245  67.265  1.00  0.00    -0.138 A  
HETATM    4  C   UNL     1      -9.121   5.629  66.131  1.00  0.00    -0.152 A  
HETATM    5  N   UNL     1      -9.720   4.433  65.722  1.00  0.00    -0.191 NA 
HETATM    6  C   UNL     1      -8.210   6.345  65.331  1.00  0.00    -0.142 A  
HETATM    7  H2  UNL     1     -10.722   4.581  65.605  1.00  0.00     0.000 HD 
HETATM    8  C   UNL     1      -7.744   5.843  64.094  1.00  0.00    -0.106 A  
HETATM    9  H1  UNL     1      -9.347   3.980  64.888  1.00  0.00     0.000 HD 
HETATM   10  C   UNL     1      -6.830   6.543  63.309  1.00  0.00    -0.046 A  
HETATM   11  C   UNL     1      -6.346   7.763  63.742  1.00  0.00    -0.058 A  
HETATM   12  C   UNL     1      -6.792   8.291  64.957  1.00  0.00    -0.067 A  
HETATM   13  C   UNL     1      -7.748   7.617  65.760  1.00  0.00    -0.100 A  
HETATM   14  N   UNL     1      -8.254   8.164  66.920  1.00  0.00    -0.110 NA 
ENDROOT
BRANCH  14  15
HETATM   15  C   UNL     1      -7.834   9.530  67.340  1.00  0.00    -0.102 C  
BRANCH  15  16
HETATM   16  C   UNL     1      -7.471  10.380  66.123  1.00  0.00    -0.131 C  
BRANCH  16  17
HETATM   17  C   UNL     1      -7.461  11.868  66.459  1.00  0.00     0.158 C  
BRANCH  17  18
HETATM   18  C   UNL     1      -8.836  12.524  66.299  1.00  0.00     0.059 C  
BRANCH  18  19
HETATM   19  C   UNL     1      -9.462  12.889  67.642  1.00  0.00    -0.197 C  
BRANCH  19  20
HETATM   20  C   UNL     1      -8.426  13.199  68.726  1.00  0.00     0.142 C  
BRANCH  20  21
HETATM   21  C   UNL     1      -8.988  13.997  69.910  1.00  0.00     1.558 C  
BRANCH  21  22
HETATM   22  C   UNL     1      -8.234  15.305  70.162  1.00  0.00     0.546 C  
BRANCH  22  23
HETATM   23  C   UNL     1      -9.161  16.514  70.335  1.00  0.00     2.289 C  
BRANCH  23  24
HETATM   24  C   UNL     1     -10.504  16.297  69.637  1.00  0.00    -0.294 C  
BRANCH  24  25
HETATM   25  N   UNL     1     -11.178  15.083  70.166  1.00  0.00    -0.255 NA 
HETATM   26  C   UNL     1     -11.209  13.934  69.422  1.00  0.00    -0.224 A  
HETATM   27  C   UNL     1     -11.781  12.777  69.956  1.00  0.00    -0.282 A  
HETATM   28  C   UNL     1     -10.605  13.775  68.045  1.00  0.00    -0.258 C  
HETATM   29  C   UNL     1     -12.350  12.762  71.220  1.00  0.00    -0.059 A  
HETATM   30  N   UNL     1     -12.766  11.528  71.726  1.00  0.00    -0.299 NA 
HETATM   31  C   UNL     1     -12.258  13.927  72.000  1.00  0.00     0.036 A  
HETATM   32  H1  UNL     1     -13.184  11.517  72.656  1.00  0.00     0.000 HD 
HETATM   33  C   UNL     1     -11.697  15.109  71.444  1.00  0.00    -0.374 A  
HETATM   34  H2  UNL     1     -11.985  10.872  71.700  1.00  0.00     0.000 HD 
HETATM   35  C   UNL     1     -11.672  16.279  72.246  1.00  0.00    -0.530 A  
HETATM   36  C   UNL     1     -12.129  16.285  73.561  1.00  0.00    -0.557 A  
HETATM   37  C   UNL     1     -12.634  15.122  74.112  1.00  0.00    -0.585 A  
HETATM   38  C   UNL     1     -12.704  13.964  73.341  1.00  0.00     0.568 A  
ENDBRANCH  24  25
ENDBRANCH  23  24
ENDBRANCH  22  23
ENDBRANCH  21  22
ENDBRANCH  20  21
ENDBRANCH  19  20
ENDBRANCH  18  19
ENDBRANCH  17  18
ENDBRANCH  16  17
ENDBRANCH  15  16
ENDBRANCH  14  15
TORSDOF 11
ENDMDL
MODEL      490
REMARK 921   NORMALIZED FREE ENERGY PREDICTED BY IDOCK:   10.25 KCAL/MOL
REMARK 922        TOTAL FREE ENERGY PREDICTED BY IDOCK:   15.48 KCAL/MOL
REMARK 923 INTER-LIGAND FREE ENERGY PREDICTED BY IDOCK:   -3.93 KCAL/MOL
REMARK 924 INTRA-LIGAND FREE ENERGY PREDICTED BY IDOCK:   19.41 KCAL/MOL
REMARK 927      BINDING AFFINITY PREDICTED BY RF-SCORE:    0.00 PKD
ROOT
HETATM    1  C   UNL     1      -9.447   8.426  71.266  1.00  0.00    -0.240 C  
HETATM    2  C   UNL     1     -10.321   9.533  70.721  1.00  0.00    -0.306 A  
HETATM    3  C   UNL     1     -11.301  10.055  71.555  1.00  0.00    -0.124 A  
HETATM    4  C   UNL     1     -12.135  11.082  71.138  1.00  0.00    -0.244 A  
HETATM    5  N   UNL     1     -12.995  11.643  72.087  1.00  0.00    -0.340 NA 
HETATM    6  C   UNL     1     -11.907  11.656  69.873  1.00  0.00    -0.434 A  
HETATM    7  H2  UNL     1     -12.451  11.957  72.891  1.00  0.00     0.000 HD 
HETATM    8  C   UNL     1     -12.626  12.788  69.424  1.00  0.00     0.453 A  
HETATM    9  H1  UNL     1     -13.608  12.398  71.780  1.00  0.00     0.000 HD 
HETATM   10  C   UNL     1     -12.413  13.348  68.165  1.00  0.00     0.341 A  
HETATM   11  C   UNL     1     -11.482  12.786  67.313  1.00  0.00    -0.393 A  
HETATM   12  C   UNL     1     -10.749  11.671  67.729  1.00  0.00    -0.244 A  
HETATM   13  C   UNL     1     -10.919  11.101  69.017  1.00  0.00    -0.235 A  
HETATM   14  N   UNL     1     -10.147  10.052  69.467  1.00  0.00    -0.214 NA 
ENDROOT
BRANCH  14  15
HETATM   15  C   UNL     1      -9.058   9.511  68.608  1.00  0.00    -0.132 C  
BRANCH  15  16
HETATM   16  C   UNL     1      -8.232   8.478  69.372  1.00  0.00    -0.114 C  
BRANCH  16  17
HETATM   17  C   UNL     1      -8.982   7.157  69.521  1.00  0.00    -0.140 C  
BRANCH  17  18
HETATM   18  C   UNL     1     -10.352   7.322  70.185  1.00  0.00    -0.221 C  
BRANCH  18  19
HETATM   19  C   UNL     1     -11.131   6.011  70.237  1.00  0.00    -0.415 C  
BRANCH  19  20
HETATM   20  C   UNL     1     -10.646   5.065  71.339  1.00  0.00    -0.161 C  
BRANCH  20  21
HETATM   21  C   UNL     1      -9.131   4.823  71.326  1.00  0.00    -0.179 C  
BRANCH  21  22
HETATM   22  C   UNL     1      -8.525   4.906  69.922  1.00  0.00    -0.088 C  
BRANCH  22  23
HETATM   23  C   UNL     1      -9.495   4.468  68.818  1.00  0.00    -0.221 C  
BRANCH  23  24
HETATM   24  C   UNL     1      -8.795   3.614  67.760  1.00  0.00    -0.118 C  
BRANCH  24  25
HETATM   25  N   UNL     1      -8.732   4.335  66.463  1.00  0.00    -0.112 NA 
HETATM   26  C   UNL     1      -9.328   3.804  65.351  1.00  0.00    -0.159 A  
HETATM   27  C   UNL     1      -9.326   4.522  64.152  1.00  0.00    -0.079 A  
HETATM   28  C   UNL     1     -10.070   2.487  65.309  1.00  0.00     0.670 C  
HETATM   29  C   UNL     1      -8.709   5.759  64.046  1.00  0.00     0.223 A  
HETATM   30  N   UNL     1      -8.884   6.466  62.852  1.00  0.00    -0.141 NA 
HETATM   31  C   UNL     1      -8.156   6.324  65.206  1.00  0.00    -0.132 A  
HETATM   32  H1  UNL     1      -8.430   7.376  62.774  1.00  0.00     0.000 HD 
HETATM   33  C   UNL     1      -8.137   5.579  66.417  1.00  0.00    -0.105 A  
HETATM   34  H2  UNL     1      -9.881   6.570  62.664  1.00  0.00     0.000 HD 
HETATM   35  C   UNL     1      -7.521   6.164  67.553  1.00  0.00    -0.082 A  
HETATM   36  C   UNL     1      -6.986   7.450  67.525  1.00  0.00    -0.079 A  
HETATM   37  C   UNL     1      -7.045   8.187  66.358  1.00  0.00    -0.075 A  
HETATM   38  C   UNL     1      -7.614   7.630  65.215  1.00  0.00    -0.089 A  
ENDBRANCH  24  25
ENDBRANCH  23  24
ENDBRANCH  22  23
ENDBRANCH  21  22
ENDBRANCH  20  21
ENDBRANCH  19  20
ENDBRANCH  18  19
ENDBRANCH  17  18
ENDBRANCH  16  17
ENDBRANCH  15  16
ENDBRANCH  14  15
TORSDOF 11
ENDMDL
MODEL      491
REMARK 921   NORMALIZED FREE ENERGY PREDICTED BY IDOCK:   10.32 KCAL/MOL
REMARK 922        TOTAL FREE ENERGY PREDICTED BY IDOCK:   15.61 KCAL/MOL
REMARK 923 INTER-LIGAND FREE ENERGY PREDICTED BY IDOCK:   13.41 KCAL/MOL
REMARK 924 INTRA-LIGAND FREE ENERGY PREDICTED BY IDOCK:    2.19 KCAL/MOL
REMARK 927      BINDING AFFINITY PREDICTED BY RF-SCORE:    0.00 PKD
ROOT
HETATM    1  C   UNL     1     -11.747  11.703  71.584  1.00  0.00     1.754 C  
HETATM    2  C   UNL     1     -11.674  10.575  70.580  1.00  0.00    -0.350 A  
HETATM    3  C   UNL     1     -12.215   9.348  70.942  1.00  0.00    -0.297 A  
HETATM    4  C   UNL     1     -12.202   8.266  70.075  1.00  0.00     0.911 A  
HETATM    5  N   UNL     1     -12.894   7.115  70.466  1.00  0.00    -0.502 NA 
HETATM    6  C   UNL     1     -11.711   8.462  68.770  1.00  0.00     1.585 A  
HETATM    7  H2  UNL     1     -13.859   7.360  70.685  1.00  0.00     0.000 HD 
HETATM    8  C   UNL     1     -11.779   7.450  67.785  1.00  0.00     1.460 A  
HETATM    9  H1  UNL     1     -12.884   6.320  69.828  1.00  0.00     0.000 HD 
HETATM   10  C   UNL     1     -11.278   7.635  66.498  1.00  0.00     1.537 A  
HETATM   11  C   UNL     1     -10.683   8.836  66.160  1.00  0.00     0.931 A  
HETATM   12  C   UNL     1     -10.606   9.860  67.108  1.00  0.00    -0.295 A  
HETATM   13  C   UNL     1     -11.138   9.711  68.415  1.00  0.00    -0.037 A  
HETATM   14  N   UNL     1     -11.138  10.740  69.332  1.00  0.00    -0.248 NA 
ENDROOT
BRANCH  14  15
HETATM   15  C   UNL     1     -10.609  12.078  68.946  1.00  0.00    -0.159 C  
BRANCH  15  16
HETATM   16  C   UNL     1     -11.515  13.188  69.475  1.00  0.00    -0.291 C  
BRANCH  16  17
HETATM   17  C   UNL     1     -10.762  14.130  70.411  1.00  0.00     0.679 C  
BRANCH  17  18
HETATM   18  C   UNL     1     -11.297  15.564  70.368  1.00  0.00    -0.360 C  
BRANCH  18  19
HETATM   19  C   UNL     1     -11.977  15.889  69.041  1.00  0.00    -0.243 C  
BRANCH  19  20
HETATM   20  C   UNL     1     -12.456  17.339  68.948  1.00  0.00     3.953 C  
BRANCH  20  21
HETATM   21  C   UNL     1     -11.848  18.119  67.775  1.00  0.00     2.128 C  
BRANCH  21  22
HETATM   22  C   UNL     1     -12.171  19.615  67.821  1.00  0.00     3.292 C  
BRANCH  22  23
HETATM   23  C   UNL     1     -11.149  20.478  67.071  1.00  0.00     1.170 C  
BRANCH  23  24
HETATM   24  C   UNL     1     -10.634  19.775  65.814  1.00  0.00    -0.419 C  
BRANCH  24  25
HETATM   25  N   UNL     1      -9.678  18.696  66.172  1.00  0.00    -0.484 NA 
HETATM   26  C   UNL     1      -8.517  18.997  66.834  1.00  0.00    -0.290 A  
HETATM   27  C   UNL     1      -7.658  17.969  67.231  1.00  0.00    -0.213 A  
HETATM   28  C   UNL     1      -8.088  20.387  67.246  1.00  0.00    -0.384 C  
HETATM   29  C   UNL     1      -7.933  16.641  66.948  1.00  0.00    -0.220 A  
HETATM   30  N   UNL     1      -7.093  15.674  67.509  1.00  0.00    -0.168 NA 
HETATM   31  C   UNL     1      -9.155  16.336  66.326  1.00  0.00    -0.366 A  
HETATM   32  H1  UNL     1      -7.296  14.697  67.302  1.00  0.00     0.000 HD 
HETATM   33  C   UNL     1     -10.015  17.386  65.901  1.00  0.00    -0.149 A  
HETATM   34  H2  UNL     1      -7.058  15.804  68.521  1.00  0.00     0.000 HD 
HETATM   35  C   UNL     1     -11.214  17.039  65.228  1.00  0.00     0.273 A  
HETATM   36  C   UNL     1     -11.588  15.713  65.020  1.00  0.00    -0.079 A  
HETATM   37  C   UNL     1     -10.771  14.695  65.472  1.00  0.00    -0.360 A  
HETATM   38  C   UNL     1      -9.569  15.002  66.108  1.00  0.00    -0.345 A  
ENDBRANCH  24  25
ENDBRANCH  23  24
ENDBRANCH  22  23
ENDBRANCH  21  22
ENDBRANCH  20  21
ENDBRANCH  19  20
ENDBRANCH  18  19
ENDBRANCH  17  18
ENDBRANCH  16  17
ENDBRANCH  15  16
ENDBRANCH  14  15
TORSDOF 11
ENDMDL
MODEL      492
REMARK 921   NORMALIZED FREE ENERGY PREDICTED BY IDOCK:   12.30 KCAL/MOL
REMARK 922        TOTAL FREE ENERGY PREDICTED BY IDOCK:   18.85 KCAL/MOL
REMARK 923 INTER-LIGAND FREE ENERGY PREDICTED BY IDOCK:   18.70 KCAL/MOL
REMARK 924 INTRA-LIGAND FREE ENERGY PREDICTED BY IDOCK:    0.15 KCAL/MOL
REMARK 927      BINDING AFFINITY PREDICTED BY RF-SCORE:    0.00 PKD
ROOT
HETATM    1  C   UNL     1      -9.677  14.447  72.896  1.00  0.00     7.589 C  
HETATM    2  C   UNL     1     -10.783  14.743  71.908  1.00  0.00     1.389 A  
HETATM    3  C   UNL     1     -12.064  14.937  72.407  1.00  0.00    -0.394 A  
HETATM    4  C   UNL     1     -13.131  15.228  71.571  1.00  0.00    -0.438 A  
HETATM    5  N   UNL     1     -14.355  15.548  72.169  1.00  0.00    -0.545 NA 
HETATM    6  C   UNL     1     -12.873  15.419  70.200  1.00  0.00    -0.196 A  
HETATM    7  H2  UNL     1     -14.219  16.320  72.822  1.00  0.00     0.000 HD 
HETATM    8  C   UNL     1     -13.879  15.842  69.300  1.00  0.00     4.080 A  
HETATM    9  H1  UNL     1     -15.139  15.762  71.553  1.00  0.00     0.000 HD 
HETATM   10  C   UNL     1     -13.629  16.015  67.940  1.00  0.00     6.054 A  
HETATM   11  C   UNL     1     -12.368  15.760  67.436  1.00  0.00     1.333 A  
HETATM   12  C   UNL     1     -11.350  15.347  68.300  1.00  0.00    -0.354 A  
HETATM   13  C   UNL     1     -11.566  15.196  69.694  1.00  0.00    -0.311 A  
HETATM   14  N   UNL     1     -10.550  14.865  70.565  1.00  0.00     0.001 NA 
ENDROOT
BRANCH  14  15
HETATM   15  C   UNL     1      -9.160  14.704  70.057  1.00  0.00     0.799 C  
BRANCH  15  16
HETATM   16  C   UNL     1      -8.851  13.232  69.792  1.00  0.00     2.211 C  
BRANCH  16  17
HETATM   17  C   UNL     1      -8.900  12.906  68.302  1.00  0.00    -0.168 C  
BRANCH  17  18
HETATM   18  C   UNL     1      -7.785  13.590  67.505  1.00  0.00    -0.182 C  
BRANCH  18  19
HETATM   19  C   UNL     1      -6.432  12.915  67.709  1.00  0.00    -0.143 C  
BRANCH  19  20
HETATM   20  C   UNL     1      -6.540  11.525  68.340  1.00  0.00    -0.060 C  
BRANCH  20  21
HETATM   21  C   UNL     1      -5.482  10.532  67.838  1.00  0.00    -0.040 C  
BRANCH  21  22
HETATM   22  C   UNL     1      -6.092   9.284  67.194  1.00  0.00    -0.057 C  
BRANCH  22  23
HETATM   23  C   UNL     1      -6.283   8.127  68.181  1.00  0.00    -0.050 C  
BRANCH  23  24
HETATM   24  C   UNL     1      -7.664   8.167  68.835  1.00  0.00    -0.103 C  
BRANCH  24  25
HETATM   25  N   UNL     1      -7.907   6.931  69.622  1.00  0.00    -0.116 NA 
HETATM   26  C   UNL     1      -7.419   5.729  69.184  1.00  0.00    -0.084 A  
HETATM   27  C   UNL     1      -7.589   4.584  69.966  1.00  0.00    -0.054 A  
HETATM   28  C   UNL     1      -6.629   5.525  67.911  1.00  0.00    -0.053 C  
HETATM   29  C   UNL     1      -8.269   4.622  71.173  1.00  0.00    -0.092 A  
HETATM   30  N   UNL     1      -8.264   3.461  71.953  1.00  0.00    -0.062 NA 
HETATM   31  C   UNL     1      -8.711   5.869  71.645  1.00  0.00    -0.136 A  
HETATM   32  H1  UNL     1      -8.764   3.489  72.841  1.00  0.00     0.000 HD 
HETATM   33  C   UNL     1      -8.558   7.027  70.835  1.00  0.00    -0.139 A  
HETATM   34  H2  UNL     1      -7.300   3.170  72.117  1.00  0.00     0.000 HD 
HETATM   35  C   UNL     1      -9.066   8.258  71.324  1.00  0.00    -0.202 A  
HETATM   36  C   UNL     1      -9.657   8.368  72.581  1.00  0.00    -0.337 A  
HETATM   37  C   UNL     1      -9.765   7.248  73.383  1.00  0.00    -0.297 A  
HETATM   38  C   UNL     1      -9.306   6.016  72.919  1.00  0.00    -0.147 A  
ENDBRANCH  24  25
ENDBRANCH  23  24
ENDBRANCH  22  23
ENDBRANCH  21  22
ENDBRANCH  20  21
ENDBRANCH  19  20
ENDBRANCH  18  19
ENDBRANCH  17  18
ENDBRANCH  16  17
ENDBRANCH  15  16
ENDBRANCH  14  15
TORSDOF 11
ENDMDL
MODEL      493
REMARK 921   NORMALIZED FREE ENERGY PREDICTED BY IDOCK:   12.80 KCAL/MOL
REMARK 922        TOTAL FREE ENERGY PREDICTED BY IDOCK:   19.68 KCAL/MOL
REMARK 923 INTER-LIGAND FREE ENERGY PREDICTED BY IDOCK:   20.34 KCAL/MOL
REMARK 924 INTRA-LIGAND FREE ENERGY PREDICTED BY IDOCK:   -0.66 KCAL/MOL
REMARK 927      BINDING AFFINITY PREDICTED BY RF-SCORE:    0.00 PKD
ROOT
HETATM    1  C   UNL     1      -9.675  14.449  72.895  1.00  0.00     7.589 C  
HETATM    2  C   UNL     1     -10.771  14.729  71.892  1.00  0.00     1.389 A  
HETATM    3  C   UNL     1     -12.060  14.914  72.374  1.00  0.00    -0.394 A  
HETATM    4  C   UNL     1     -13.119  15.190  71.523  1.00  0.00    -0.403 A  
HETATM    5  N   UNL     1     -14.353  15.502  72.104  1.00  0.00    -0.545 NA 
HETATM    6  C   UNL     1     -12.846  15.375  70.154  1.00  0.00    -0.196 A  
HETATM    7  H2  UNL     1     -14.232  16.279  72.753  1.00  0.00     0.000 HD 
HETATM    8  C   UNL     1     -13.844  15.783  69.240  1.00  0.00     3.866 A  
HETATM    9  H1  UNL     1     -15.131  15.705  71.477  1.00  0.00     0.000 HD 
HETATM   10  C   UNL     1     -13.579  15.950  67.881  1.00  0.00     5.958 A  
HETATM   11  C   UNL     1     -12.310  15.704  67.395  1.00  0.00     1.193 A  
HETATM   12  C   UNL     1     -11.298  15.305  68.273  1.00  0.00    -0.344 A  
HETATM   13  C   UNL     1     -11.530  15.161  69.665  1.00  0.00    -0.293 A  
HETATM   14  N   UNL     1     -10.523  14.845  70.552  1.00  0.00     0.072 NA 
ENDROOT
BRANCH  14  15
HETATM   15  C   UNL     1      -9.125  14.693  70.061  1.00  0.00     0.799 C  
BRANCH  15  16
HETATM   16  C   UNL     1      -8.797  13.222  69.816  1.00  0.00     2.211 C  
BRANCH  16  17
HETATM   17  C   UNL     1      -8.084  13.019  68.482  1.00  0.00    -0.082 C  
BRANCH  17  18
HETATM   18  C   UNL     1      -6.665  13.596  68.471  1.00  0.00    -0.095 C  
BRANCH  18  19
HETATM   19  C   UNL     1      -5.686  12.736  69.264  1.00  0.00    -0.081 C  
BRANCH  19  20
HETATM   20  C   UNL     1      -6.224  11.337  69.573  1.00  0.00    -0.099 C  
BRANCH  20  21
HETATM   21  C   UNL     1      -5.146  10.245  69.577  1.00  0.00    -0.038 C  
BRANCH  21  22
HETATM   22  C   UNL     1      -5.423   9.128  68.568  1.00  0.00    -0.037 C  
BRANCH  22  23
HETATM   23  C   UNL     1      -6.195   7.948  69.170  1.00  0.00    -0.035 C  
BRANCH  23  24
HETATM   24  C   UNL     1      -7.706   8.128  69.020  1.00  0.00    -0.099 C  
BRANCH  24  25
HETATM   25  N   UNL     1      -8.423   6.890  69.418  1.00  0.00    -0.132 NA 
HETATM   26  C   UNL     1      -9.068   6.826  70.625  1.00  0.00    -0.155 A  
HETATM   27  C   UNL     1      -9.801   5.685  70.961  1.00  0.00    -0.231 A  
HETATM   28  C   UNL     1      -9.114   7.941  71.644  1.00  0.00    -0.175 C  
HETATM   29  C   UNL     1      -9.875   4.592  70.112  1.00  0.00    -0.226 A  
HETATM   30  N   UNL     1     -10.747   3.558  70.466  1.00  0.00     1.783 NA 
HETATM   31  C   UNL     1      -9.264   4.691  68.851  1.00  0.00    -0.181 A  
HETATM   32  H1  UNL     1     -10.801   2.753  69.842  1.00  0.00     0.000 HD 
HETATM   33  C   UNL     1      -8.498   5.843  68.523  1.00  0.00    -0.111 A  
HETATM   34  H2  UNL     1     -11.683   3.939  70.607  1.00  0.00     0.000 HD 
HETATM   35  C   UNL     1      -7.852   5.881  67.261  1.00  0.00    -0.102 A  
HETATM   36  C   UNL     1      -7.988   4.854  66.329  1.00  0.00    -0.107 A  
HETATM   37  C   UNL     1      -8.768   3.755  66.634  1.00  0.00    -0.118 A  
HETATM   38  C   UNL     1      -9.390   3.672  67.879  1.00  0.00    -0.241 A  
ENDBRANCH  24  25
ENDBRANCH  23  24
ENDBRANCH  22  23
ENDBRANCH  21  22
ENDBRANCH  20  21
ENDBRANCH  19  20
ENDBRANCH  18  19
ENDBRANCH  17  18
ENDBRANCH  16  17
ENDBRANCH  15  16
ENDBRANCH  14  15
TORSDOF 11
ENDMDL
MODEL      494
REMARK 921   NORMALIZED FREE ENERGY PREDICTED BY IDOCK:   13.80 KCAL/MOL
REMARK 922        TOTAL FREE ENERGY PREDICTED BY IDOCK:   21.32 KCAL/MOL
REMARK 923 INTER-LIGAND FREE ENERGY PREDICTED BY IDOCK:    8.77 KCAL/MOL
REMARK 924 INTRA-LIGAND FREE ENERGY PREDICTED BY IDOCK:   12.56 KCAL/MOL
REMARK 927      BINDING AFFINITY PREDICTED BY RF-SCORE:    0.00 PKD
ROOT
HETATM    1  C   UNL     1     -11.403   9.241  69.549  1.00  0.00     0.077 C  
HETATM    2  C   UNL     1     -10.739  10.590  69.390  1.00  0.00    -0.241 A  
HETATM    3  C   UNL     1      -9.670  10.889  70.225  1.00  0.00     1.299 A  
HETATM    4  C   UNL     1      -8.996  12.098  70.135  1.00  0.00     3.987 A  
HETATM    5  N   UNL     1      -7.846  12.258  70.914  1.00  0.00     4.788 NA 
HETATM    6  C   UNL     1      -9.358  12.989  69.106  1.00  0.00     0.634 A  
HETATM    7  H2  UNL     1      -7.197  11.496  70.718  1.00  0.00     0.000 HD 
HETATM    8  C   UNL     1      -8.640  14.183  68.864  1.00  0.00     0.011 A  
HETATM    9  H1  UNL     1      -7.351  13.147  70.847  1.00  0.00     0.000 HD 
HETATM   10  C   UNL     1      -9.007  15.075  67.857  1.00  0.00    -0.175 A  
HETATM   11  C   UNL     1     -10.109  14.804  67.069  1.00  0.00    -0.245 A  
HETATM   12  C   UNL     1     -10.837  13.629  67.279  1.00  0.00    -0.292 A  
HETATM   13  C   UNL     1     -10.466  12.687  68.272  1.00  0.00    -0.239 A  
HETATM   14  N   UNL     1     -11.128  11.489  68.435  1.00  0.00    -0.215 NA 
ENDROOT
BRANCH  14  15
HETATM   15  C   UNL     1     -12.243  11.127  67.517  1.00  0.00     1.144 C  
BRANCH  15  16
HETATM   16  C   UNL     1     -11.853  11.393  66.065  1.00  0.00     0.586 C  
BRANCH  16  17
HETATM   17  C   UNL     1     -10.472  12.036  65.962  1.00  0.00    -0.284 C  
BRANCH  17  18
HETATM   18  C   UNL     1     -10.408  13.144  64.906  1.00  0.00    -0.352 C  
BRANCH  18  19
HETATM   19  C   UNL     1     -10.790  12.642  63.517  1.00  0.00    -0.373 C  
BRANCH  19  20
HETATM   20  C   UNL     1     -10.259  11.238  63.216  1.00  0.00    -0.417 C  
BRANCH  20  21
HETATM   21  C   UNL     1     -10.495  10.230  64.348  1.00  0.00     0.291 C  
BRANCH  21  22
HETATM   22  C   UNL     1      -9.320   9.268  64.546  1.00  0.00     0.042 C  
BRANCH  22  23
HETATM   23  C   UNL     1      -8.337   9.730  65.629  1.00  0.00    -0.138 C  
BRANCH  23  24
HETATM   24  C   UNL     1      -7.917   8.573  66.537  1.00  0.00    -0.099 C  
BRANCH  24  25
HETATM   25  N   UNL     1      -7.467   9.082  67.858  1.00  0.00    -0.084 NA 
HETATM   26  C   UNL     1      -7.530   8.275  68.963  1.00  0.00    -0.091 A  
HETATM   27  C   UNL     1      -7.037   8.736  70.187  1.00  0.00    -0.045 A  
HETATM   28  C   UNL     1      -8.046   6.855  68.973  1.00  0.00    -0.117 C  
HETATM   29  C   UNL     1      -6.506  10.008  70.325  1.00  0.00    -0.117 A  
HETATM   30  N   UNL     1      -5.908  10.328  71.548  1.00  0.00    -0.306 NA 
HETATM   31  C   UNL     1      -6.388  10.805  69.174  1.00  0.00    -0.055 A  
HETATM   32  H1  UNL     1      -5.517  11.265  71.650  1.00  0.00     0.000 HD 
HETATM   33  C   UNL     1      -6.913  10.343  67.936  1.00  0.00    -0.082 A  
HETATM   34  H2  UNL     1      -5.188   9.638  71.762  1.00  0.00     0.000 HD 
HETATM   35  C   UNL     1      -6.823  11.199  66.809  1.00  0.00    -0.134 A  
HETATM   36  C   UNL     1      -6.197  12.442  66.873  1.00  0.00     0.175 A  
HETATM   37  C   UNL     1      -5.651  12.870  68.068  1.00  0.00    -0.101 A  
HETATM   38  C   UNL     1      -5.751  12.067  69.202  1.00  0.00    -0.064 A  
ENDBRANCH  24  25
ENDBRANCH  23  24
ENDBRANCH  22  23
ENDBRANCH  21  22
ENDBRANCH  20  21
ENDBRANCH  19  20
ENDBRANCH  18  19
ENDBRANCH  17  18
ENDBRANCH  16  17
ENDBRANCH  15  16
ENDBRANCH  14  15
TORSDOF 11
ENDMDL
MODEL      495
REMARK 921   NORMALIZED FREE ENERGY PREDICTED BY IDOCK:   23.50 KCAL/MOL
REMARK 922        TOTAL FREE ENERGY PREDICTED BY IDOCK:   37.26 KCAL/MOL
REMARK 923 INTER-LIGAND FREE ENERGY PREDICTED BY IDOCK:    2.15 KCAL/MOL
REMARK 924 INTRA-LIGAND FREE ENERGY PREDICTED BY IDOCK:   35.11 KCAL/MOL
REMARK 927      BINDING AFFINITY PREDICTED BY RF-SCORE:    0.00 PKD
ROOT
HETATM    1  C   UNL     1     -10.939  11.855  62.347  1.00  0.00     1.897 C  
HETATM    2  C   UNL     1     -11.252  12.726  63.542  1.00  0.00    -0.373 A  
HETATM    3  C   UNL     1     -11.664  14.031  63.303  1.00  0.00     0.728 A  
HETATM    4  C   UNL     1     -11.985  14.890  64.343  1.00  0.00    -0.394 A  
HETATM    5  N   UNL     1     -12.525  16.137  64.010  1.00  0.00    -0.726 NA 
HETATM    6  C   UNL     1     -11.976  14.383  65.656  1.00  0.00    -0.356 A  
HETATM    7  H2  UNL     1     -13.347  16.001  63.420  1.00  0.00     0.000 HD 
HETATM    8  C   UNL     1     -12.412  15.154  66.760  1.00  0.00     0.845 A  
HETATM    9  H1  UNL     1     -12.761  16.769  64.774  1.00  0.00     0.000 HD 
HETATM   10  C   UNL     1     -12.388  14.659  68.063  1.00  0.00     0.074 A  
HETATM   11  C   UNL     1     -11.918  13.382  68.303  1.00  0.00    -0.352 A  
HETATM   12  C   UNL     1     -11.486  12.592  67.234  1.00  0.00    -0.402 A  
HETATM   13  C   UNL     1     -11.531  13.056  65.894  1.00  0.00    -0.337 A  
HETATM   14  N   UNL     1     -11.183  12.259  64.826  1.00  0.00    -0.309 NA 
ENDROOT
BRANCH  14  15
HETATM   15  C   UNL     1     -10.788  10.841  65.056  1.00  0.00     0.015 C  
BRANCH  15  16
HETATM   16  C   UNL     1     -10.089  10.690  66.406  1.00  0.00    -0.279 C  
BRANCH  16  17
HETATM   17  C   UNL     1      -8.883  11.618  66.523  1.00  0.00    -0.188 C  
BRANCH  17  18
HETATM   18  C   UNL     1      -9.269  13.100  66.512  1.00  0.00    -0.185 C  
BRANCH  18  19
HETATM   19  C   UNL     1      -8.514  13.902  67.568  1.00  0.00    -0.200 C  
BRANCH  19  20
HETATM   20  C   UNL     1      -9.388  14.306  68.758  1.00  0.00    -0.119 C  
BRANCH  20  21
HETATM   21  C   UNL     1     -10.887  14.363  68.436  1.00  0.00    -0.256 C  
BRANCH  21  22
HETATM   22  C   UNL     1     -11.628  15.443  69.230  1.00  0.00    -0.354 C  
BRANCH  22  23
HETATM   23  C   UNL     1     -11.022  16.841  69.061  1.00  0.00    -0.239 C  
BRANCH  23  24
HETATM   24  C   UNL     1      -9.723  16.797  68.256  1.00  0.00    -0.252 C  
BRANCH  24  25
HETATM   25  N   UNL     1      -8.574  17.232  69.091  1.00  0.00    -0.054 NA 
HETATM   26  C   UNL     1      -8.097  16.418  70.083  1.00  0.00     1.582 A  
HETATM   27  C   UNL     1      -6.971  16.802  70.816  1.00  0.00     2.561 A  
HETATM   28  C   UNL     1      -8.658  15.059  70.436  1.00  0.00     1.135 C  
HETATM   29  C   UNL     1      -6.331  18.010  70.585  1.00  0.00     0.902 A  
HETATM   30  N   UNL     1      -5.132  18.244  71.264  1.00  0.00    -0.474 NA 
HETATM   31  C   UNL     1      -6.788  18.809  69.525  1.00  0.00    -0.139 A  
HETATM   32  H1  UNL     1      -4.660  19.132  71.095  1.00  0.00     0.000 HD 
HETATM   33  C   UNL     1      -7.949  18.426  68.798  1.00  0.00    -0.256 A  
HETATM   34  H2  UNL     1      -4.484  17.478  71.078  1.00  0.00     0.000 HD 
HETATM   35  C   UNL     1      -8.410  19.288  67.770  1.00  0.00    -0.335 A  
HETATM   36  C   UNL     1      -7.735  20.458  67.427  1.00  0.00    -0.364 A  
HETATM   37  C   UNL     1      -6.583  20.805  68.107  1.00  0.00    -0.302 A  
HETATM   38  C   UNL     1      -6.122  19.997  69.144  1.00  0.00    -0.345 A  
ENDBRANCH  24  25
ENDBRANCH  23  24
ENDBRANCH  22  23
ENDBRANCH  21  22
ENDBRANCH  20  21
ENDBRANCH  19  20
ENDBRANCH  18  19
ENDBRANCH  17  18
ENDBRANCH  16  17
ENDBRANCH  15  16
ENDBRANCH  14  15
TORSDOF 11
ENDMDL
MODEL      496
REMARK 921   NORMALIZED FREE ENERGY PREDICTED BY IDOCK:   28.09 KCAL/MOL
REMARK 922        TOTAL FREE ENERGY PREDICTED BY IDOCK:   44.80 KCAL/MOL
REMARK 923 INTER-LIGAND FREE ENERGY PREDICTED BY IDOCK:   44.79 KCAL/MOL
REMARK 924 INTRA-LIGAND FREE ENERGY PREDICTED BY IDOCK:    0.02 KCAL/MOL
REMARK 927      BINDING AFFINITY PREDICTED BY RF-SCORE:    0.00 PKD
ROOT
HETATM    1  C   UNL     1      -9.796   8.123  68.919  1.00  0.00    -0.178 C  
HETATM    2  C   UNL     1      -9.157   7.562  67.669  1.00  0.00    -0.125 A  
HETATM    3  C   UNL     1      -9.578   6.312  67.231  1.00  0.00    -0.138 A  
HETATM    4  C   UNL     1      -9.053   5.732  66.086  1.00  0.00    -0.153 A  
HETATM    5  N   UNL     1      -9.634   4.541  65.639  1.00  0.00    -0.174 NA 
HETATM    6  C   UNL     1      -8.144   6.481  65.314  1.00  0.00    -0.133 A  
HETATM    7  H2  UNL     1     -10.637   4.680  65.517  1.00  0.00     0.000 HD 
HETATM    8  C   UNL     1      -7.660   6.017  64.069  1.00  0.00    -0.087 A  
HETATM    9  H1  UNL     1      -9.248   4.114  64.797  1.00  0.00     0.000 HD 
HETATM   10  C   UNL     1      -6.748   6.749  63.311  1.00  0.00    -0.043 A  
HETATM   11  C   UNL     1      -6.283   7.962  63.781  1.00  0.00    -0.062 A  
HETATM   12  C   UNL     1      -6.746   8.452  65.005  1.00  0.00    -0.063 A  
HETATM   13  C   UNL     1      -7.701   7.746  65.781  1.00  0.00    -0.099 A  
HETATM   14  N   UNL     1      -8.224   8.256  66.950  1.00  0.00    -0.103 NA 
ENDROOT
BRANCH  14  15
HETATM   15  C   UNL     1      -7.824   9.615  67.409  1.00  0.00    -0.095 C  
BRANCH  15  16
HETATM   16  C   UNL     1      -7.527  10.522  66.217  1.00  0.00    -0.133 C  
BRANCH  16  17
HETATM   17  C   UNL     1      -7.503  11.993  66.620  1.00  0.00     0.115 C  
BRANCH  17  18
HETATM   18  C   UNL     1      -8.898  12.625  66.652  1.00  0.00    -0.129 C  
BRANCH  18  19
HETATM   19  C   UNL     1      -9.329  13.005  68.065  1.00  0.00    -0.213 C  
BRANCH  19  20
HETATM   20  C   UNL     1      -8.158  13.402  68.967  1.00  0.00     0.274 C  
BRANCH  20  21
HETATM   21  C   UNL     1      -8.569  14.243  70.183  1.00  0.00     1.601 C  
BRANCH  21  22
HETATM   22  C   UNL     1      -7.871  15.605  70.231  1.00  0.00     0.868 C  
BRANCH  22  23
HETATM   23  C   UNL     1      -8.849  16.782  70.333  1.00  0.00     2.899 C  
BRANCH  23  24
HETATM   24  C   UNL     1     -10.218  16.427  69.753  1.00  0.00    -0.142 C  
BRANCH  24  25
HETATM   25  N   UNL     1     -10.994  17.657  69.451  1.00  0.00     0.504 NA 
HETATM   26  C   UNL     1     -11.870  18.162  70.374  1.00  0.00     6.888 A  
HETATM   27  C   UNL     1     -12.541  19.360  70.112  1.00  0.00    17.136 A  
HETATM   28  C   UNL     1     -12.146  17.557  71.731  1.00  0.00     3.994 C  
HETATM   29  C   UNL     1     -12.366  20.045  68.920  1.00  0.00     6.651 A  
HETATM   30  N   UNL     1     -12.965  21.303  68.806  1.00  0.00     5.481 NA 
HETATM   31  C   UNL     1     -11.419  19.553  68.006  1.00  0.00     1.058 A  
HETATM   32  H1  UNL     1     -12.836  21.808  67.929  1.00  0.00     0.000 HD 
HETATM   33  C   UNL     1     -10.757  18.322  68.266  1.00  0.00    -0.122 A  
HETATM   34  H2  UNL     1     -12.662  21.893  69.581  1.00  0.00     0.000 HD 
HETATM   35  C   UNL     1      -9.849  17.832  67.293  1.00  0.00    -0.312 A  
HETATM   36  C   UNL     1      -9.556  18.542  66.130  1.00  0.00    -0.203 A  
HETATM   37  C   UNL     1     -10.169  19.759  65.902  1.00  0.00    -0.556 A  
HETATM   38  C   UNL     1     -11.092  20.253  66.822  1.00  0.00     0.579 A  
ENDBRANCH  24  25
ENDBRANCH  23  24
ENDBRANCH  22  23
ENDBRANCH  21  22
ENDBRANCH  20  21
ENDBRANCH  19  20
ENDBRANCH  18  19
ENDBRANCH  17  18
ENDBRANCH  16  17
ENDBRANCH  15  16
ENDBRANCH  14  15
TORSDOF 11
ENDMDL
MODEL      497
REMARK 921   NORMALIZED FREE ENERGY PREDICTED BY IDOCK:   28.29 KCAL/MOL
REMARK 922        TOTAL FREE ENERGY PREDICTED BY IDOCK:   45.13 KCAL/MOL
REMARK 923 INTER-LIGAND FREE ENERGY PREDICTED BY IDOCK:   -2.76 KCAL/MOL
REMARK 924 INTRA-LIGAND FREE ENERGY PREDICTED BY IDOCK:   47.88 KCAL/MOL
REMARK 927      BINDING AFFINITY PREDICTED BY RF-SCORE:    0.00 PKD
ROOT
HETATM    1  C   UNL     1      -9.800   8.124  68.922  1.00  0.00    -0.178 C  
HETATM    2  C   UNL     1      -9.140   7.615  67.660  1.00  0.00    -0.129 A  
HETATM    3  C   UNL     1      -9.512   6.359  67.196  1.00  0.00    -0.145 A  
HETATM    4  C   UNL     1      -8.966   5.824  66.039  1.00  0.00    -0.151 A  
HETATM    5  N   UNL     1      -9.499   4.620  65.568  1.00  0.00    -0.166 NA 
HETATM    6  C   UNL     1      -8.088   6.624  65.282  1.00  0.00    -0.130 A  
HETATM    7  H2  UNL     1     -10.507   4.721  65.449  1.00  0.00     0.000 HD 
HETATM    8  C   UNL     1      -7.588   6.206  64.027  1.00  0.00    -0.093 A  
HETATM    9  H1  UNL     1      -9.097   4.227  64.717  1.00  0.00     0.000 HD 
HETATM   10  C   UNL     1      -6.707   6.989  63.284  1.00  0.00    -0.048 A  
HETATM   11  C   UNL     1      -6.290   8.210  63.779  1.00  0.00    -0.071 A  
HETATM   12  C   UNL     1      -6.771   8.656  65.013  1.00  0.00    -0.068 A  
HETATM   13  C   UNL     1      -7.696   7.896  65.775  1.00  0.00    -0.090 A  
HETATM   14  N   UNL     1      -8.237   8.361  66.954  1.00  0.00    -0.102 NA 
ENDROOT
BRANCH  14  15
HETATM   15  C   UNL     1      -7.892   9.725  67.442  1.00  0.00    -0.099 C  
BRANCH  15  16
HETATM   16  C   UNL     1      -7.652  10.672  66.268  1.00  0.00    -0.137 C  
BRANCH  16  17
HETATM   17  C   UNL     1      -7.718  12.134  66.702  1.00  0.00     0.122 C  
BRANCH  17  18
HETATM   18  C   UNL     1      -9.149  12.677  66.751  1.00  0.00    -0.214 C  
BRANCH  18  19
HETATM   19  C   UNL     1      -9.601  12.989  68.174  1.00  0.00    -0.227 C  
BRANCH  19  20
HETATM   20  C   UNL     1      -8.459  13.455  69.081  1.00  0.00     0.540 C  
BRANCH  20  21
HETATM   21  C   UNL     1      -7.128  12.737  68.822  1.00  0.00    -0.089 C  
BRANCH  21  22
HETATM   22  C   UNL     1      -6.599  11.998  70.055  1.00  0.00     0.132 C  
BRANCH  22  23
HETATM   23  C   UNL     1      -6.297  10.518  69.789  1.00  0.00    -0.091 C  
BRANCH  23  24
HETATM   24  C   UNL     1      -7.127   9.975  68.625  1.00  0.00    -0.078 C  
BRANCH  24  25
HETATM   25  N   UNL     1      -7.160   8.490  68.653  1.00  0.00    -0.071 NA 
HETATM   26  C   UNL     1      -6.251   7.768  67.926  1.00  0.00    -0.050 A  
HETATM   27  C   UNL     1      -6.242   6.374  68.015  1.00  0.00    -0.032 A  
HETATM   28  C   UNL     1      -5.174   8.362  67.047  1.00  0.00    -0.036 C  
HETATM   29  C   UNL     1      -7.152   5.689  68.805  1.00  0.00    -0.072 A  
HETATM   30  N   UNL     1      -6.975   4.309  68.945  1.00  0.00    -0.050 NA 
HETATM   31  C   UNL     1      -8.039   6.439  69.595  1.00  0.00    -0.124 A  
HETATM   32  H1  UNL     1      -7.645   3.805  69.526  1.00  0.00     0.000 HD 
HETATM   33  C   UNL     1      -8.062   7.856  69.483  1.00  0.00    -0.121 A  
HETATM   34  H2  UNL     1      -6.030   4.123  69.281  1.00  0.00     0.000 HD 
HETATM   35  C   UNL     1      -9.008   8.574  70.258  1.00  0.00    -0.153 A  
HETATM   36  C   UNL     1      -9.869   7.938  71.150  1.00  0.00    -0.190 A  
HETATM   37  C   UNL     1      -9.814   6.564  71.288  1.00  0.00    -0.197 A  
HETATM   38  C   UNL     1      -8.918   5.826  70.517  1.00  0.00    -0.152 A  
ENDBRANCH  24  25
ENDBRANCH  23  24
ENDBRANCH  22  23
ENDBRANCH  21  22
ENDBRANCH  20  21
ENDBRANCH  19  20
ENDBRANCH  18  19
ENDBRANCH  17  18
ENDBRANCH  16  17
ENDBRANCH  15  16
ENDBRANCH  14  15
TORSDOF 11
ENDMDL
MODEL      498
REMARK 921   NORMALIZED FREE ENERGY PREDICTED BY IDOCK:   43.70 KCAL/MOL
REMARK 922        TOTAL FREE ENERGY PREDICTED BY IDOCK:   70.44 KCAL/MOL
REMARK 923 INTER-LIGAND FREE ENERGY PREDICTED BY IDOCK:   -1.63 KCAL/MOL
REMARK 924 INTRA-LIGAND FREE ENERGY PREDICTED BY IDOCK:   72.07 KCAL/MOL
REMARK 927      BINDING AFFINITY PREDICTED BY RF-SCORE:    0.00 PKD
ROOT
HETATM    1  C   UNL     1     -10.941  11.856  62.348  1.00  0.00     1.897 C  
HETATM    2  C   UNL     1     -11.275  12.715  63.546  1.00  0.00    -0.429 A  
HETATM    3  C   UNL     1     -11.669  14.027  63.313  1.00  0.00     0.728 A  
HETATM    4  C   UNL     1     -12.007  14.877  64.356  1.00  0.00    -0.394 A  
HETATM    5  N   UNL     1     -12.528  16.132  64.024  1.00  0.00    -0.726 NA 
HETATM    6  C   UNL     1     -12.034  14.354  65.662  1.00  0.00    -0.356 A  
HETATM    7  H2  UNL     1     -13.335  16.011  63.413  1.00  0.00     0.000 HD 
HETATM    8  C   UNL     1     -12.489  15.116  66.764  1.00  0.00     0.845 A  
HETATM    9  H1  UNL     1     -12.776  16.757  64.791  1.00  0.00     0.000 HD 
HETATM   10  C   UNL     1     -12.502  14.605  68.061  1.00  0.00     0.289 A  
HETATM   11  C   UNL     1     -12.049  13.321  68.298  1.00  0.00    -0.246 A  
HETATM   12  C   UNL     1     -11.599  12.540  67.230  1.00  0.00    -0.434 A  
HETATM   13  C   UNL     1     -11.608  13.020  65.895  1.00  0.00    -0.363 A  
HETATM   14  N   UNL     1     -11.240  12.232  64.825  1.00  0.00    -0.309 NA 
ENDROOT
BRANCH  14  15
HETATM   15  C   UNL     1     -10.864  10.809  65.048  1.00  0.00     0.015 C  
BRANCH  15  16
HETATM   16  C   UNL     1     -10.231  10.628  66.427  1.00  0.00    -0.291 C  
BRANCH  16  17
HETATM   17  C   UNL     1      -9.045  11.568  66.628  1.00  0.00    -0.193 C  
BRANCH  17  18
HETATM   18  C   UNL     1      -9.296  12.972  66.071  1.00  0.00    -0.024 C  
BRANCH  18  19
HETATM   19  C   UNL     1      -8.844  14.065  67.034  1.00  0.00    -0.234 C  
BRANCH  19  20
HETATM   20  C   UNL     1     -10.008  14.784  67.721  1.00  0.00    -0.223 C  
BRANCH  20  21
HETATM   21  C   UNL     1     -11.328  14.711  66.941  1.00  0.00    -0.361 C  
BRANCH  21  22
HETATM   22  C   UNL     1     -12.199  15.957  67.124  1.00  0.00     1.338 C  
BRANCH  22  23
HETATM   23  C   UNL     1     -11.470  17.260  66.774  1.00  0.00     1.126 C  
BRANCH  23  24
HETATM   24  C   UNL     1     -10.131  16.989  66.088  1.00  0.00    -0.319 C  
BRANCH  24  25
HETATM   25  N   UNL     1      -9.005  17.475  66.926  1.00  0.00    -0.244 NA 
HETATM   26  C   UNL     1      -8.709  18.811  66.974  1.00  0.00    -0.283 A  
HETATM   27  C   UNL     1      -7.696  19.268  67.820  1.00  0.00    -0.307 A  
HETATM   28  C   UNL     1      -9.445  19.891  66.213  1.00  0.00    -0.505 C  
HETATM   29  C   UNL     1      -6.953  18.398  68.602  1.00  0.00    -0.269 A  
HETATM   30  N   UNL     1      -6.063  18.957  69.523  1.00  0.00    -0.264 NA 
HETATM   31  C   UNL     1      -7.305  17.038  68.595  1.00  0.00    -0.229 A  
HETATM   32  H1  UNL     1      -5.516  18.317  70.099  1.00  0.00     0.000 HD 
HETATM   33  C   UNL     1      -8.319  16.573  67.713  1.00  0.00    -0.170 A  
HETATM   34  H2  UNL     1      -6.566  19.607  70.127  1.00  0.00     0.000 HD 
HETATM   35  C   UNL     1      -8.607  15.184  67.697  1.00  0.00    -0.180 A  
HETATM   36  C   UNL     1      -7.965  14.285  68.545  1.00  0.00    -0.145 A  
HETATM   37  C   UNL     1      -7.010  14.747  69.430  1.00  0.00    -0.167 A  
HETATM   38  C   UNL     1      -6.680  16.101  69.449  1.00  0.00    -0.205 A  
ENDBRANCH  24  25
ENDBRANCH  23  24
ENDBRANCH  22  23
ENDBRANCH  21  22
ENDBRANCH  20  21
ENDBRANCH  19  20
ENDBRANCH  18  19
ENDBRANCH  17  18
ENDBRANCH  16  17
ENDBRANCH  15  16
ENDBRANCH  14  15
TORSDOF 11
ENDMDL
MODEL      499
REMARK 921   NORMALIZED FREE ENERGY PREDICTED BY IDOCK:   47.18 KCAL/MOL
REMARK 922        TOTAL FREE ENERGY PREDICTED BY IDOCK:   76.17 KCAL/MOL
REMARK 923 INTER-LIGAND FREE ENERGY PREDICTED BY IDOCK:   18.30 KCAL/MOL
REMARK 924 INTRA-LIGAND FREE ENERGY PREDICTED BY IDOCK:   57.87 KCAL/MOL
REMARK 927      BINDING AFFINITY PREDICTED BY RF-SCORE:    0.00 PKD
ROOT
HETATM    1  C   UNL     1     -10.942  11.856  62.348  1.00  0.00     1.897 C  
HETATM    2  C   UNL     1     -11.305  12.707  63.544  1.00  0.00    -0.463 A  
HETATM    3  C   UNL     1     -11.708  14.016  63.310  1.00  0.00     0.728 A  
HETATM    4  C   UNL     1     -12.072  14.858  64.350  1.00  0.00    -0.401 A  
HETATM    5  N   UNL     1     -12.600  16.109  64.015  1.00  0.00    -0.498 NA 
HETATM    6  C   UNL     1     -12.117  14.329  65.654  1.00  0.00    -0.399 A  
HETATM    7  H2  UNL     1     -13.396  15.983  63.390  1.00  0.00     0.000 HD 
HETATM    8  C   UNL     1     -12.598  15.081  66.751  1.00  0.00     0.890 A  
HETATM    9  H1  UNL     1     -12.867  16.728  64.780  1.00  0.00     0.000 HD 
HETATM   10  C   UNL     1     -12.628  14.564  68.045  1.00  0.00     0.539 A  
HETATM   11  C   UNL     1     -12.166  13.284  68.284  1.00  0.00    -0.094 A  
HETATM   12  C   UNL     1     -11.690  12.512  67.220  1.00  0.00    -0.431 A  
HETATM   13  C   UNL     1     -11.681  12.998  65.888  1.00  0.00    -0.394 A  
HETATM   14  N   UNL     1     -11.287  12.219  64.821  1.00  0.00    -0.314 NA 
ENDROOT
BRANCH  14  15
HETATM   15  C   UNL     1     -10.901  10.798  65.044  1.00  0.00     0.015 C  
BRANCH  15  16
HETATM   16  C   UNL     1     -10.306  10.614  66.439  1.00  0.00    -0.291 C  
BRANCH  16  17
HETATM   17  C   UNL     1      -9.154  11.583  66.692  1.00  0.00    -0.193 C  
BRANCH  17  18
HETATM   18  C   UNL     1      -9.427  12.988  66.145  1.00  0.00    -0.159 C  
BRANCH  18  19
HETATM   19  C   UNL     1      -9.053  14.079  67.142  1.00  0.00    -0.239 C  
BRANCH  19  20
HETATM   20  C   UNL     1     -10.268  14.745  67.792  1.00  0.00    -0.232 C  
BRANCH  20  21
HETATM   21  C   UNL     1     -11.553  14.635  66.962  1.00  0.00    -0.385 C  
BRANCH  21  22
HETATM   22  C   UNL     1     -12.477  15.846  67.126  1.00  0.00     1.971 C  
BRANCH  22  23
HETATM   23  C   UNL     1     -11.784  17.179  66.822  1.00  0.00     1.740 C  
BRANCH  23  24
HETATM   24  C   UNL     1     -10.350  17.202  67.353  1.00  0.00    -0.333 C  
BRANCH  24  25
HETATM   25  N   UNL     1     -10.201  18.229  68.416  1.00  0.00    -0.382 NA 
HETATM   26  C   UNL     1     -10.099  19.553  68.084  1.00  0.00    -0.429 A  
HETATM   27  C   UNL     1     -10.032  20.519  69.092  1.00  0.00     0.263 A  
HETATM   28  C   UNL     1     -10.112  20.098  66.674  1.00  0.00    -0.584 C  
HETATM   29  C   UNL     1     -10.039  20.171  70.434  1.00  0.00     1.041 A  
HETATM   30  N   UNL     1     -10.116  21.208  71.368  1.00  0.00     2.484 NA 
HETATM   31  C   UNL     1     -10.208  18.817  70.765  1.00  0.00     2.202 A  
HETATM   32  H1  UNL     1     -10.121  20.953  72.355  1.00  0.00     0.000 HD 
HETATM   33  C   UNL     1     -10.250  17.836  69.737  1.00  0.00     0.465 A  
HETATM   34  H2  UNL     1     -10.932  21.786  71.165  1.00  0.00     0.000 HD 
HETATM   35  C   UNL     1     -10.367  16.474  70.116  1.00  0.00     0.172 A  
HETATM   36  C   UNL     1     -10.490  16.084  71.448  1.00  0.00     1.148 A  
HETATM   37  C   UNL     1     -10.492  17.044  72.441  1.00  0.00     4.575 A  
HETATM   38  C   UNL     1     -10.346  18.388  72.106  1.00  0.00     4.388 A  
ENDBRANCH  24  25
ENDBRANCH  23  24
ENDBRANCH  22  23
ENDBRANCH  21  22
ENDBRANCH  20  21
ENDBRANCH  19  20
ENDBRANCH  18  19
ENDBRANCH  17  18
ENDBRANCH  16  17
ENDBRANCH  15  16
ENDBRANCH  14  15
TORSDOF 11
ENDMDL
MODEL      500
REMARK 921   NORMALIZED FREE ENERGY PREDICTED BY IDOCK:   49.66 KCAL/MOL
REMARK 922        TOTAL FREE ENERGY PREDICTED BY IDOCK:   80.24 KCAL/MOL
REMARK 923 INTER-LIGAND FREE ENERGY PREDICTED BY IDOCK:   75.03 KCAL/MOL
REMARK 924 INTRA-LIGAND FREE ENERGY PREDICTED BY IDOCK:    5.21 KCAL/MOL
REMARK 927      BINDING AFFINITY PREDICTED BY RF-SCORE:    0.00 PKD
ROOT
HETATM    1  C   UNL     1     -10.182   4.178  65.581  1.00  0.00    -0.157 C  
HETATM    2  C   UNL     1     -10.928   4.643  66.812  1.00  0.00     1.011 A  
HETATM    3  C   UNL     1     -11.898   3.800  67.340  1.00  0.00    11.488 A  
HETATM    4  C   UNL     1     -12.616   4.144  68.475  1.00  0.00    20.689 A  
HETATM    5  N   UNL     1     -13.470   3.179  69.018  1.00  0.00    26.557 NA 
HETATM    6  C   UNL     1     -12.276   5.335  69.145  1.00  0.00     6.863 A  
HETATM    7  H2  UNL     1     -12.940   2.326  69.201  1.00  0.00     0.000 HD 
HETATM    8  C   UNL     1     -12.870   5.696  70.377  1.00  0.00     4.772 A  
HETATM    9  H1  UNL     1     -13.998   3.432  69.853  1.00  0.00     0.000 HD 
HETATM   10  C   UNL     1     -12.547   6.881  71.035  1.00  0.00    -0.319 A  
HETATM   11  C   UNL     1     -11.628   7.748  70.474  1.00  0.00    -0.173 A  
HETATM   12  C   UNL     1     -11.018   7.418  69.261  1.00  0.00    -0.091 A  
HETATM   13  C   UNL     1     -11.301   6.202  68.587  1.00  0.00    -0.013 A  
HETATM   14  N   UNL     1     -10.648   5.830  67.432  1.00  0.00    -0.256 NA 
ENDROOT
BRANCH  14  15
HETATM   15  C   UNL     1      -9.569   6.695  66.879  1.00  0.00    -0.157 C  
BRANCH  15  16
HETATM   16  C   UNL     1      -8.222   6.346  67.509  1.00  0.00    -0.117 C  
BRANCH  16  17
HETATM   17  C   UNL     1      -8.278   6.422  69.033  1.00  0.00    -0.115 C  
BRANCH  17  18
HETATM   18  C   UNL     1      -7.444   7.573  69.602  1.00  0.00    -0.092 C  
BRANCH  18  19
HETATM   19  C   UNL     1      -6.918   7.269  71.002  1.00  0.00    -0.060 C  
BRANCH  19  20
HETATM   20  C   UNL     1      -7.612   8.083  72.097  1.00  0.00    -0.124 C  
BRANCH  20  21
HETATM   21  C   UNL     1      -9.135   8.171  71.934  1.00  0.00    -0.230 C  
BRANCH  21  22
HETATM   22  C   UNL     1      -9.558   8.962  70.693  1.00  0.00    -0.262 C  
BRANCH  22  23
HETATM   23  C   UNL     1      -8.845  10.314  70.566  1.00  0.00     0.891 C  
BRANCH  23  24
HETATM   24  C   UNL     1      -9.805  11.415  70.115  1.00  0.00     1.906 C  
BRANCH  24  25
HETATM   25  N   UNL     1      -9.052  12.582  69.587  1.00  0.00     1.709 NA 
HETATM   26  C   UNL     1      -7.709  12.700  69.827  1.00  0.00     1.408 A  
HETATM   27  C   UNL     1      -6.995  13.762  69.267  1.00  0.00    -0.042 A  
HETATM   28  C   UNL     1      -6.880  11.718  70.623  1.00  0.00     1.640 C  
HETATM   29  C   UNL     1      -7.615  14.726  68.488  1.00  0.00    -0.120 A  
HETATM   30  N   UNL     1      -6.798  15.666  67.853  1.00  0.00    -0.129 NA 
HETATM   31  C   UNL     1      -8.979  14.563  68.195  1.00  0.00    -0.182 A  
HETATM   32  H1  UNL     1      -7.255  16.375  67.280  1.00  0.00     0.000 HD 
HETATM   33  C   UNL     1      -9.708  13.495  68.788  1.00  0.00    -0.009 A  
HETATM   34  H2  UNL     1      -6.098  15.180  67.292  1.00  0.00     0.000 HD 
HETATM   35  C   UNL     1     -11.096  13.397  68.510  1.00  0.00    -0.299 A  
HETATM   36  C   UNL     1     -11.741  14.276  67.644  1.00  0.00    -0.421 A  
HETATM   37  C   UNL     1     -11.020  15.287  67.037  1.00  0.00    -0.324 A  
HETATM   38  C   UNL     1      -9.662  15.432  67.314  1.00  0.00    -0.212 A  
ENDBRANCH  24  25
ENDBRANCH  23  24
ENDBRANCH  22  23
ENDBRANCH  21  22
ENDBRANCH  20  21
ENDBRANCH  19  20
ENDBRANCH  18  19
ENDBRANCH  17  18
ENDBRANCH  16  17
ENDBRANCH  15  16
ENDBRANCH  14  15
TORSDOF 11
ENDMDL
MODEL      501
REMARK 921   NORMALIZED FREE ENERGY PREDICTED BY IDOCK:   63.33 KCAL/MOL
REMARK 922        TOTAL FREE ENERGY PREDICTED BY IDOCK:  102.71 KCAL/MOL
REMARK 923 INTER-LIGAND FREE ENERGY PREDICTED BY IDOCK:   50.76 KCAL/MOL
REMARK 924 INTRA-LIGAND FREE ENERGY PREDICTED BY IDOCK:   51.95 KCAL/MOL
REMARK 927      BINDING AFFINITY PREDICTED BY RF-SCORE:    0.00 PKD
ROOT
HETATM    1  C   UNL     1     -10.643   9.234  69.330  1.00  0.00    -0.234 C  
HETATM    2  C   UNL     1      -9.637  10.216  68.775  1.00  0.00    -0.170 A  
HETATM    3  C   UNL     1      -8.353  10.199  69.306  1.00  0.00    -0.160 A  
HETATM    4  C   UNL     1      -7.367  11.057  68.843  1.00  0.00    -0.111 A  
HETATM    5  N   UNL     1      -6.069  10.876  69.333  1.00  0.00    -0.050 NA 
HETATM    6  C   UNL     1      -7.665  11.890  67.748  1.00  0.00    -0.136 A  
HETATM    7  H2  UNL     1      -5.780   9.911  69.170  1.00  0.00     0.000 HD 
HETATM    8  C   UNL     1      -6.682  12.700  67.134  1.00  0.00    -0.025 A  
HETATM    9  H1  UNL     1      -5.344  11.506  68.992  1.00  0.00     0.000 HD 
HETATM   10  C   UNL     1      -6.980  13.538  66.060  1.00  0.00     4.747 A  
HETATM   11  C   UNL     1      -8.273  13.600  65.576  1.00  0.00     3.405 A  
HETATM   12  C   UNL     1      -9.266  12.807  66.156  1.00  0.00    -0.040 A  
HETATM   13  C   UNL     1      -8.985  11.919  67.227  1.00  0.00    -0.176 A  
HETATM   14  N   UNL     1      -9.939  11.076  67.754  1.00  0.00    -0.171 NA 
ENDROOT
BRANCH  14  15
HETATM   15  C   UNL     1     -11.307  11.042  67.165  1.00  0.00    -0.136 C  
BRANCH  15  16
HETATM   16  C   UNL     1     -11.310  10.252  65.858  1.00  0.00     1.122 C  
BRANCH  16  17
HETATM   17  C   UNL     1     -10.026   9.446  65.684  1.00  0.00    -0.210 C  
BRANCH  17  18
HETATM   18  C   UNL     1      -9.567   9.365  64.225  1.00  0.00     0.365 C  
BRANCH  18  19
HETATM   19  C   UNL     1     -10.666   8.850  63.301  1.00  0.00     8.083 C  
BRANCH  19  20
HETATM   20  C   UNL     1     -11.497   7.724  63.920  1.00  0.00    19.413 C  
BRANCH  20  21
HETATM   21  C   UNL     1     -11.998   8.030  65.338  1.00  0.00    12.010 C  
BRANCH  21  22
HETATM   22  C   UNL     1     -12.178   6.772  66.193  1.00  0.00     5.804 C  
BRANCH  22  23
HETATM   23  C   UNL     1     -10.969   6.472  67.088  1.00  0.00    -0.480 C  
BRANCH  23  24
HETATM   24  C   UNL     1     -11.300   6.674  68.567  1.00  0.00    -0.034 C  
BRANCH  24  25
HETATM   25  N   UNL     1     -10.307   7.572  69.208  1.00  0.00    -0.206 NA 
HETATM   26  C   UNL     1     -10.529   8.055  70.470  1.00  0.00    -0.214 A  
HETATM   27  C   UNL     1      -9.556   8.840  71.095  1.00  0.00    -0.309 A  
HETATM   28  C   UNL     1     -11.750   7.757  71.311  1.00  0.00    -0.311 C  
HETATM   29  C   UNL     1      -8.371   9.172  70.458  1.00  0.00    -0.194 A  
HETATM   30  N   UNL     1      -7.399   9.837  71.212  1.00  0.00    -0.232 NA 
HETATM   31  C   UNL     1      -8.124   8.622  69.190  1.00  0.00    -0.116 A  
HETATM   32  H1  UNL     1      -6.526  10.082  70.744  1.00  0.00     0.000 HD 
HETATM   33  C   UNL     1      -9.127   7.844  68.548  1.00  0.00    -0.132 A  
HETATM   34  H2  UNL     1      -7.190   9.293  72.049  1.00  0.00     0.000 HD 
HETATM   35  C   UNL     1      -8.859   7.352  67.245  1.00  0.00    -0.124 A  
HETATM   36  C   UNL     1      -7.639   7.565  66.609  1.00  0.00    -0.097 A  
HETATM   37  C   UNL     1      -6.651   8.285  67.254  1.00  0.00    -0.058 A  
HETATM   38  C   UNL     1      -6.893   8.811  68.521  1.00  0.00    -0.064 A  
ENDBRANCH  24  25
ENDBRANCH  23  24
ENDBRANCH  22  23
ENDBRANCH  21  22
ENDBRANCH  20  21
ENDBRANCH  19  20
ENDBRANCH  18  19
ENDBRANCH  17  18
ENDBRANCH  16  17
ENDBRANCH  15  16
ENDBRANCH  14  15
TORSDOF 11
ENDMDL
MODEL      502
REMARK 921   NORMALIZED FREE ENERGY PREDICTED BY IDOCK:   65.44 KCAL/MOL
REMARK 922        TOTAL FREE ENERGY PREDICTED BY IDOCK:  106.17 KCAL/MOL
REMARK 923 INTER-LIGAND FREE ENERGY PREDICTED BY IDOCK:  100.93 KCAL/MOL
REMARK 924 INTRA-LIGAND FREE ENERGY PREDICTED BY IDOCK:    5.23 KCAL/MOL
REMARK 927      BINDING AFFINITY PREDICTED BY RF-SCORE:    0.00 PKD
ROOT
HETATM    1  C   UNL     1     -10.591   9.440  69.662  1.00  0.00    -0.239 C  
HETATM    2  C   UNL     1     -10.075  10.489  70.621  1.00  0.00     0.965 A  
HETATM    3  C   UNL     1      -9.452  10.053  71.784  1.00  0.00     3.035 A  
HETATM    4  C   UNL     1      -8.937  10.949  72.709  1.00  0.00    15.026 A  
HETATM    5  N   UNL     1      -8.202  10.425  73.777  1.00  0.00     7.142 NA 
HETATM    6  C   UNL     1      -8.975  12.322  72.401  1.00  0.00    23.570 A  
HETATM    7  H2  UNL     1      -7.446   9.846  73.414  1.00  0.00     0.000 HD 
HETATM    8  C   UNL     1      -8.360  13.291  73.228  1.00  0.00    14.665 A  
HETATM    9  H1  UNL     1      -7.824  11.084  74.458  1.00  0.00     0.000 HD 
HETATM   10  C   UNL     1      -8.410  14.653  72.934  1.00  0.00     8.283 A  
HETATM   11  C   UNL     1      -9.086  15.088  71.809  1.00  0.00     4.687 A  
HETATM   12  C   UNL     1      -9.698  14.155  70.968  1.00  0.00     4.089 A  
HETATM   13  C   UNL     1      -9.634  12.761  71.223  1.00  0.00    12.138 A  
HETATM   14  N   UNL     1     -10.166  11.828  70.359  1.00  0.00     2.369 NA 
ENDROOT
BRANCH  14  15
HETATM   15  C   UNL     1     -10.793  12.272  69.083  1.00  0.00    -0.099 C  
BRANCH  15  16
HETATM   16  C   UNL     1      -9.783  13.026  68.221  1.00  0.00    -0.221 C  
BRANCH  16  17
HETATM   17  C   UNL     1      -8.354  12.811  68.711  1.00  0.00     0.139 C  
BRANCH  17  18
HETATM   18  C   UNL     1      -7.596  14.124  68.932  1.00  0.00    -0.098 C  
BRANCH  18  19
HETATM   19  C   UNL     1      -7.710  15.066  67.737  1.00  0.00    -0.168 C  
BRANCH  19  20
HETATM   20  C   UNL     1      -7.308  14.412  66.413  1.00  0.00     2.257 C  
BRANCH  20  21
HETATM   21  C   UNL     1      -7.926  13.025  66.193  1.00  0.00     1.470 C  
BRANCH  21  22
HETATM   22  C   UNL     1      -7.040  12.102  65.351  1.00  0.00     3.149 C  
BRANCH  22  23
HETATM   23  C   UNL     1      -6.137  11.196  66.196  1.00  0.00    -0.084 C  
BRANCH  23  24
HETATM   24  C   UNL     1      -6.478   9.719  65.997  1.00  0.00    -0.080 C  
BRANCH  24  25
HETATM   25  N   UNL     1      -6.910   9.104  67.279  1.00  0.00    -0.076 NA 
HETATM   26  C   UNL     1      -6.364   9.524  68.462  1.00  0.00    -0.048 A  
HETATM   27  C   UNL     1      -6.828   8.992  69.668  1.00  0.00    -0.050 A  
HETATM   28  C   UNL     1      -5.305  10.595  68.598  1.00  0.00    -0.041 C  
HETATM   29  C   UNL     1      -7.817   8.022  69.703  1.00  0.00    -0.104 A  
HETATM   30  N   UNL     1      -8.318   7.656  70.956  1.00  0.00    -0.110 NA 
HETATM   31  C   UNL     1      -8.416   7.644  68.490  1.00  0.00    -0.129 A  
HETATM   32  H1  UNL     1      -9.046   6.943  70.982  1.00  0.00     0.000 HD 
HETATM   33  C   UNL     1      -7.924   8.169  67.263  1.00  0.00    -0.113 A  
HETATM   34  H2  UNL     1      -8.646   8.490  71.445  1.00  0.00     0.000 HD 
HETATM   35  C   UNL     1      -8.520   7.720  66.057  1.00  0.00    -0.146 A  
HETATM   36  C   UNL     1      -9.592   6.831  66.046  1.00  0.00     0.085 A  
HETATM   37  C   UNL     1     -10.095   6.356  67.243  1.00  0.00    -0.207 A  
HETATM   38  C   UNL     1      -9.511   6.751  68.445  1.00  0.00    -0.126 A  
ENDBRANCH  24  25
ENDBRANCH  23  24
ENDBRANCH  22  23
ENDBRANCH  21  22
ENDBRANCH  20  21
ENDBRANCH  19  20
ENDBRANCH  18  19
ENDBRANCH  17  18
ENDBRANCH  16  17
ENDBRANCH  15  16
ENDBRANCH  14  15
TORSDOF 11
ENDMDL
MODEL      503
REMARK 921   NORMALIZED FREE ENERGY PREDICTED BY IDOCK:   67.96 KCAL/MOL
REMARK 922        TOTAL FREE ENERGY PREDICTED BY IDOCK:  110.31 KCAL/MOL
REMARK 923 INTER-LIGAND FREE ENERGY PREDICTED BY IDOCK:   65.51 KCAL/MOL
REMARK 924 INTRA-LIGAND FREE ENERGY PREDICTED BY IDOCK:   44.79 KCAL/MOL
REMARK 927      BINDING AFFINITY PREDICTED BY RF-SCORE:    0.00 PKD
ROOT
HETATM    1  C   UNL     1     -10.394  14.548  69.480  1.00  0.00    -0.028 C  
HETATM    2  C   UNL     1      -9.717  13.440  70.255  1.00  0.00     3.472 A  
HETATM    3  C   UNL     1      -8.455  13.691  70.777  1.00  0.00     5.446 A  
HETATM    4  C   UNL     1      -7.771  12.734  71.512  1.00  0.00     9.640 A  
HETATM    5  N   UNL     1      -6.572  13.119  72.120  1.00  0.00     1.977 NA 
HETATM    6  C   UNL     1      -8.426  11.522  71.803  1.00  0.00    13.294 A  
HETATM    7  H2  UNL     1      -6.738  13.937  72.706  1.00  0.00     0.000 HD 
HETATM    8  C   UNL     1      -7.853  10.546  72.652  1.00  0.00     8.004 A  
HETATM    9  H1  UNL     1      -6.070  12.415  72.660  1.00  0.00     0.000 HD 
HETATM   10  C   UNL     1      -8.492   9.339  72.927  1.00  0.00     1.687 A  
HETATM   11  C   UNL     1      -9.720   9.065  72.354  1.00  0.00     0.233 A  
HETATM   12  C   UNL     1     -10.317  10.012  71.517  1.00  0.00     1.083 A  
HETATM   13  C   UNL     1      -9.706  11.263  71.246  1.00  0.00     7.351 A  
HETATM   14  N   UNL     1     -10.321  12.234  70.486  1.00  0.00     3.150 NA 
ENDROOT
BRANCH  14  15
HETATM   15  C   UNL     1     -11.695  12.004  69.959  1.00  0.00    -0.267 C  
BRANCH  15  16
HETATM   16  C   UNL     1     -12.671  13.029  70.534  1.00  0.00    -0.111 C  
BRANCH  16  17
HETATM   17  C   UNL     1     -12.370  14.438  70.029  1.00  0.00    -0.391 C  
BRANCH  17  18
HETATM   18  C   UNL     1     -13.428  14.958  69.051  1.00  0.00     2.961 C  
BRANCH  18  19
HETATM   19  C   UNL     1     -12.827  15.856  67.974  1.00  0.00     2.413 C  
BRANCH  19  20
HETATM   20  C   UNL     1     -12.007  15.088  66.935  1.00  0.00    -0.005 C  
BRANCH  20  21
HETATM   21  C   UNL     1     -10.526  15.488  66.895  1.00  0.00    -0.301 C  
BRANCH  21  22
HETATM   22  C   UNL     1      -9.654  14.649  67.833  1.00  0.00    -0.212 C  
BRANCH  22  23
HETATM   23  C   UNL     1      -8.235  15.205  67.998  1.00  0.00    -0.144 C  
BRANCH  23  24
HETATM   24  C   UNL     1      -7.195  14.299  67.338  1.00  0.00    -0.112 C  
BRANCH  24  25
HETATM   25  N   UNL     1      -7.487  12.871  67.626  1.00  0.00    -0.135 NA 
HETATM   26  C   UNL     1      -8.163  12.522  68.765  1.00  0.00     0.116 A  
HETATM   27  C   UNL     1      -8.496  11.185  68.992  1.00  0.00    -0.044 A  
HETATM   28  C   UNL     1      -8.656  13.494  69.813  1.00  0.00     1.863 C  
HETATM   29  C   UNL     1      -8.136  10.184  68.104  1.00  0.00    -0.105 A  
HETATM   30  N   UNL     1      -8.637   8.900  68.340  1.00  0.00    -0.133 NA 
HETATM   31  C   UNL     1      -7.499  10.557  66.909  1.00  0.00    -0.110 A  
HETATM   32  H1  UNL     1      -8.372   8.164  67.687  1.00  0.00     0.000 HD 
HETATM   33  C   UNL     1      -7.139  11.916  66.693  1.00  0.00     0.082 A  
HETATM   34  H2  UNL     1      -9.654   8.942  68.407  1.00  0.00     0.000 HD 
HETATM   35  C   UNL     1      -6.449  12.244  65.498  1.00  0.00     3.738 A  
HETATM   36  C   UNL     1      -6.163  11.291  64.523  1.00  0.00     1.327 A  
HETATM   37  C   UNL     1      -6.552   9.979  64.718  1.00  0.00    -0.127 A  
HETATM   38  C   UNL     1      -7.203   9.617  65.895  1.00  0.00    -0.099 A  
ENDBRANCH  24  25
ENDBRANCH  23  24
ENDBRANCH  22  23
ENDBRANCH  21  22
ENDBRANCH  20  21
ENDBRANCH  19  20
ENDBRANCH  18  19
ENDBRANCH  17  18
ENDBRANCH  16  17
ENDBRANCH  15  16
ENDBRANCH  14  15
TORSDOF 11
ENDMDL
