MODEL        1
REMARK 921   NORMALIZED FREE ENERGY PREDICTED BY IDOCK:   -6.26 KCAL/MOL
REMARK 922        TOTAL FREE ENERGY PREDICTED BY IDOCK:  -12.19 KCAL/MOL
REMARK 923 INTER-LIGAND FREE ENERGY PREDICTED BY IDOCK:   -9.55 KCAL/MOL
REMARK 924 INTRA-LIGAND FREE ENERGY PREDICTED BY IDOCK:   -2.63 KCAL/MOL
REMARK 927      BINDING AFFINITY PREDICTED BY RF-SCORE:    0.00 PKD
ROOT
HETATM    1  C   UNL     1     -10.128   9.542  66.422  1.00  0.00    -0.328 C  
HETATM    2  C   UNL     1      -8.609   9.381  66.312  1.00  0.00    -0.142 C  
HETATM    3  C   UNL     1      -7.920   8.495  67.413  1.00  0.00    -0.102 C  
HETATM    4  C   UNL     1     -12.276  13.794  70.265  1.00  0.00    -0.429 A  
HETATM    5  C   UNL     1      -8.339   7.095  66.980  1.00  0.00    -0.118 C  
HETATM    6  C   UNL     1     -12.615  15.152  70.444  1.00  0.00    -0.405 A  
HETATM    7  C   UNL     1     -13.446  15.527  71.512  1.00  0.00    -0.582 A  
HETATM    8  C   UNL     1      -9.899   7.052  67.247  1.00  0.00    -0.214 C  
HETATM    9  C   UNL     1     -13.930  14.565  72.384  1.00  0.00    -0.580 A  
HETATM   10  C   UNL     1     -13.615  13.203  72.217  1.00  0.00    -0.677 A  
HETATM   11  H   UNL     1     -12.544  10.710  71.179  1.00  0.00     0.000 HD 
HETATM   12  C   UNL     1     -10.706   8.507  67.409  1.00  0.00    -0.215 C  
HETATM   13  C   UNL     1     -12.781  12.841  71.140  1.00  0.00    -0.263 A  
HETATM   14  N   UNL     1     -12.298  11.599  70.744  1.00  0.00    -0.385 NA 
HETATM   15  C   UNL     1     -11.439  11.745  69.679  1.00  0.00    -0.270 A  
HETATM   16  C   UNL     1     -11.423  13.100  69.371  1.00  0.00    -0.321 A  
HETATM   17  C   UNL     1     -11.134   9.269  68.752  1.00  0.00     0.054 C  
HETATM   18  C   UNL     1     -10.513  13.656  68.339  1.00  0.00    -0.251 C  
HETATM   19  C   UNL     1     -10.497  10.687  69.096  1.00  0.00    -0.222 C  
HETATM   20  C   UNL     1      -9.334  12.688  68.173  1.00  0.00    -0.210 C  
HETATM   21  C   UNL     1     -10.383  11.021  66.720  1.00  0.00    -0.238 C  
HETATM   22  N   UNL     1      -9.734  11.281  67.987  1.00  0.00    -0.174 NA 
ENDROOT
BRANCH   3  23
HETATM   23  O   UNL     1      -8.298   8.648  68.837  1.00  0.00    -0.121 OA 
BRANCH  23  24
HETATM   24  C   UNL     1      -7.431   8.049  69.720  1.00  0.00    -0.089 C  
HETATM   25  O   UNL     1      -6.216   8.028  69.550  1.00  0.00    -0.033 OA 
BRANCH  24  26
HETATM   26  C   UNL     1      -7.972   7.328  70.921  1.00  0.00    -0.098 A  
HETATM   27  C   UNL     1      -9.556   5.954  72.838  1.00  0.00    -0.155 A  
HETATM   28  C   UNL     1      -7.668   6.024  71.287  1.00  0.00    -0.110 A  
HETATM   29  C   UNL     1      -8.983   7.986  71.638  1.00  0.00    -0.192 A  
HETATM   30  C   UNL     1      -9.796   7.312  72.557  1.00  0.00    -0.159 A  
HETATM   31  C   UNL     1      -8.464   5.320  72.214  1.00  0.00    -0.125 A  
BRANCH  30  32
HETATM   32  O   UNL     1     -10.871   7.913  73.175  1.00  0.00    -0.375 OA 
HETATM   33  C   UNL     1     -11.929   8.323  72.309  1.00  0.00    -0.386 C  
ENDBRANCH  30  32
BRANCH  27  34
HETATM   34  O   UNL     1     -10.414   5.361  73.734  1.00  0.00    -0.228 OA 
HETATM   35  C   UNL     1     -11.517   4.643  73.186  1.00  0.00    -0.224 C  
ENDBRANCH  27  34
BRANCH  31  36
HETATM   36  O   UNL     1      -8.196   4.014  72.544  1.00  0.00    -0.094 OA 
HETATM   37  C   UNL     1      -8.500   3.046  71.544  1.00  0.00    -0.064 C  
ENDBRANCH  31  36
ENDBRANCH  24  26
ENDBRANCH  23  24
ENDBRANCH   3  23
BRANCH   5  38
HETATM   38  O   UNL     1      -7.965   6.949  65.594  1.00  0.00    -0.105 OA 
HETATM   39  C   UNL     1      -8.253   5.730  64.938  1.00  0.00    -0.137 C  
ENDBRANCH   5  38
BRANCH   8  40
HETATM   40  C   UNL     1     -10.115   5.996  68.312  1.00  0.00    -0.164 C  
HETATM   41  O   UNL     1     -11.026   6.004  69.125  1.00  0.00    -0.328 OA 
BRANCH  40  42
HETATM   42  O   UNL     1      -9.104   5.085  68.296  1.00  0.00    -0.109 OA 
HETATM   43  C   UNL     1      -9.368   3.729  67.907  1.00  0.00    -0.186 C  
ENDBRANCH  40  42
ENDBRANCH   8  40
TORSDOF 9
ENDMDL
MODEL        2
REMARK 921   NORMALIZED FREE ENERGY PREDICTED BY IDOCK:   -6.19 KCAL/MOL
REMARK 922        TOTAL FREE ENERGY PREDICTED BY IDOCK:  -12.08 KCAL/MOL
REMARK 923 INTER-LIGAND FREE ENERGY PREDICTED BY IDOCK:   -9.66 KCAL/MOL
REMARK 924 INTRA-LIGAND FREE ENERGY PREDICTED BY IDOCK:   -2.42 KCAL/MOL
REMARK 927      BINDING AFFINITY PREDICTED BY RF-SCORE:    0.00 PKD
ROOT
HETATM    1  C   UNL     1     -10.143  10.435  66.070  1.00  0.00    -0.307 C  
HETATM    2  C   UNL     1      -8.625  10.392  65.875  1.00  0.00    -0.165 C  
HETATM    3  C   UNL     1      -7.822   9.464  66.858  1.00  0.00    -0.105 C  
HETATM    4  C   UNL     1     -12.362  14.173  70.379  1.00  0.00    -0.428 A  
HETATM    5  C   UNL     1      -8.170   8.081  66.319  1.00  0.00    -0.116 C  
HETATM    6  C   UNL     1     -12.780  15.483  70.696  1.00  0.00    -0.487 A  
HETATM    7  C   UNL     1     -13.577  15.703  71.831  1.00  0.00    -0.521 A  
HETATM    8  C   UNL     1      -9.707   7.906  66.654  1.00  0.00    -0.305 C  
HETATM    9  C   UNL     1     -13.949  14.637  72.633  1.00  0.00    -0.408 A  
HETATM   10  C   UNL     1     -13.555  13.321  72.329  1.00  0.00    -0.703 A  
HETATM   11  H   UNL     1     -12.377  11.009  71.020  1.00  0.00     0.000 HD 
HETATM   12  C   UNL     1     -10.599   9.280  66.984  1.00  0.00    -0.263 C  
HETATM   13  C   UNL     1     -12.756  13.114  71.186  1.00  0.00    -0.300 A  
HETATM   14  N   UNL     1     -12.214  11.949  70.657  1.00  0.00    -0.374 NA 
HETATM   15  C   UNL     1     -11.424  12.247  69.571  1.00  0.00    -0.249 A  
HETATM   16  C   UNL     1     -11.513  13.622  69.387  1.00  0.00    -0.343 A  
HETATM   17  C   UNL     1     -11.005   9.889  68.410  1.00  0.00    -0.235 C  
HETATM   18  C   UNL     1     -10.697  14.329  68.369  1.00  0.00    -0.257 C  
HETATM   19  C   UNL     1     -10.446  11.313  68.852  1.00  0.00    -0.206 C  
HETATM   20  C   UNL     1      -9.467  13.464  68.061  1.00  0.00    -0.218 C  
HETATM   21  C   UNL     1     -10.479  11.861  66.512  1.00  0.00    -0.221 C  
HETATM   22  N   UNL     1      -9.783  12.054  67.767  1.00  0.00    -0.187 NA 
ENDROOT
BRANCH   3  23
HETATM   23  O   UNL     1      -8.134   9.465  68.306  1.00  0.00    -0.107 OA 
BRANCH  23  24
HETATM   24  C   UNL     1      -7.178   8.866  69.091  1.00  0.00    -0.067 C  
HETATM   25  O   UNL     1      -5.984   8.863  68.803  1.00  0.00    -0.043 OA 
BRANCH  24  26
HETATM   26  C   UNL     1      -7.589   8.122  70.329  1.00  0.00    -0.080 A  
HETATM   27  C   UNL     1      -8.939   6.638  72.341  1.00  0.00    -0.135 A  
HETATM   28  C   UNL     1      -7.134   6.866  70.708  1.00  0.00    -0.068 A  
HETATM   29  C   UNL     1      -8.634   8.688  71.076  1.00  0.00    -0.211 A  
HETATM   30  C   UNL     1      -9.333   7.955  72.043  1.00  0.00    -0.162 A  
HETATM   31  C   UNL     1      -7.813   6.106  71.683  1.00  0.00    -0.102 A  
BRANCH  30  32
HETATM   32  O   UNL     1     -10.438   8.456  72.695  1.00  0.00    -0.326 OA 
HETATM   33  C   UNL     1     -11.569   8.731  71.868  1.00  0.00    -0.361 C  
ENDBRANCH  30  32
BRANCH  27  34
HETATM   34  O   UNL     1      -9.692   5.980  73.286  1.00  0.00    -0.153 OA 
HETATM   35  C   UNL     1     -10.699   5.096  72.799  1.00  0.00    -0.241 C  
ENDBRANCH  27  34
BRANCH  31  36
HETATM   36  O   UNL     1      -7.395   4.844  72.027  1.00  0.00    -0.076 OA 
HETATM   37  C   UNL     1      -7.444   3.869  70.989  1.00  0.00    -0.040 C  
ENDBRANCH  31  36
ENDBRANCH  24  26
ENDBRANCH  23  24
ENDBRANCH   3  23
BRANCH   5  38
HETATM   38  O   UNL     1      -7.861   8.083  64.911  1.00  0.00    -0.113 OA 
HETATM   39  C   UNL     1      -7.939   6.866  64.196  1.00  0.00    -0.078 C  
ENDBRANCH   5  38
BRANCH   8  40
HETATM   40  C   UNL     1      -9.797   6.747  67.627  1.00  0.00    -0.128 C  
HETATM   41  O   UNL     1      -8.873   5.999  67.904  1.00  0.00    -0.112 OA 
BRANCH  40  42
HETATM   42  O   UNL     1     -11.071   6.602  68.083  1.00  0.00    -0.257 OA 
HETATM   43  C   UNL     1     -11.306   6.257  69.456  1.00  0.00    -0.404 C  
ENDBRANCH  40  42
ENDBRANCH   8  40
TORSDOF 9
ENDMDL
MODEL        3
REMARK 921   NORMALIZED FREE ENERGY PREDICTED BY IDOCK:   -6.17 KCAL/MOL
REMARK 922        TOTAL FREE ENERGY PREDICTED BY IDOCK:  -12.05 KCAL/MOL
REMARK 923 INTER-LIGAND FREE ENERGY PREDICTED BY IDOCK:  -10.10 KCAL/MOL
REMARK 924 INTRA-LIGAND FREE ENERGY PREDICTED BY IDOCK:   -1.96 KCAL/MOL
REMARK 927      BINDING AFFINITY PREDICTED BY RF-SCORE:    0.00 PKD
ROOT
HETATM    1  C   UNL     1      -8.201   8.504  66.569  1.00  0.00    -0.108 C  
HETATM    2  C   UNL     1      -9.218   8.807  65.464  1.00  0.00    -0.202 C  
HETATM    3  C   UNL     1     -10.045  10.135  65.622  1.00  0.00    -0.254 C  
HETATM    4  C   UNL     1     -10.253   5.856  71.690  1.00  0.00    -0.249 A  
HETATM    5  C   UNL     1      -8.997  11.185  65.273  1.00  0.00    -0.121 C  
HETATM    6  C   UNL     1     -10.576   4.644  72.339  1.00  0.00    -0.225 A  
HETATM    7  C   UNL     1     -10.689   4.613  73.738  1.00  0.00    -0.356 A  
HETATM    8  C   UNL     1      -7.967  11.125  66.474  1.00  0.00    -0.158 C  
HETATM    9  C   UNL     1     -10.483   5.767  74.476  1.00  0.00    -0.143 A  
HETATM   10  C   UNL     1     -10.147   6.983  73.852  1.00  0.00    -0.386 A  
HETATM   11  H   UNL     1      -9.489   8.988  71.854  1.00  0.00     0.000 HD 
HETATM   12  C   UNL     1      -7.964   9.758  67.435  1.00  0.00    -0.102 C  
HETATM   13  C   UNL     1     -10.036   7.000  72.446  1.00  0.00    -0.174 A  
HETATM   14  N   UNL     1      -9.739   8.039  71.572  1.00  0.00    -0.161 NA 
HETATM   15  C   UNL     1      -9.831   7.602  70.271  1.00  0.00    -0.180 A  
HETATM   16  C   UNL     1     -10.143   6.249  70.333  1.00  0.00    -0.226 A  
HETATM   17  C   UNL     1      -8.670   9.534  68.857  1.00  0.00    -0.133 C  
HETATM   18  C   UNL     1     -10.436   5.457  69.113  1.00  0.00    -0.277 C  
HETATM   19  C   UNL     1      -9.836   8.461  69.003  1.00  0.00    -0.183 C  
HETATM   20  C   UNL     1     -10.884   6.429  68.012  1.00  0.00    -0.316 C  
HETATM   21  C   UNL     1      -8.696   7.241  67.275  1.00  0.00    -0.121 C  
HETATM   22  N   UNL     1      -9.988   7.585  67.830  1.00  0.00    -0.161 NA 
ENDROOT
BRANCH   3  23
HETATM   23  O   UNL     1     -10.619  10.503  66.936  1.00  0.00    -0.248 OA 
BRANCH  23  24
HETATM   24  C   UNL     1     -11.529  11.533  66.887  1.00  0.00    -0.184 C  
HETATM   25  O   UNL     1     -11.945  12.005  65.833  1.00  0.00    -0.540 OA 
BRANCH  24  26
HETATM   26  C   UNL     1     -12.005  12.167  68.162  1.00  0.00    -0.242 A  
HETATM   27  C   UNL     1     -12.319  13.160  70.805  1.00  0.00    -0.321 A  
HETATM   28  C   UNL     1     -12.109  13.531  68.398  1.00  0.00    -0.293 A  
HETATM   29  C   UNL     1     -12.215  11.301  69.247  1.00  0.00    -0.290 A  
HETATM   30  C   UNL     1     -12.332  11.775  70.559  1.00  0.00    -0.299 A  
HETATM   31  C   UNL     1     -12.233  14.040  69.708  1.00  0.00    -0.341 A  
BRANCH  30  32
HETATM   32  O   UNL     1     -12.413  10.933  71.646  1.00  0.00    -0.335 OA 
HETATM   33  C   UNL     1     -13.048   9.678  71.406  1.00  0.00    -0.385 C  
ENDBRANCH  30  32
BRANCH  27  34
HETATM   34  O   UNL     1     -12.416  13.542  72.123  1.00  0.00    -0.072 OA 
HETATM   35  C   UNL     1     -13.697  13.980  72.570  1.00  0.00    -0.547 C  
ENDBRANCH  27  34
BRANCH  31  36
HETATM   36  O   UNL     1     -12.288  15.390  69.951  1.00  0.00    -0.341 OA 
HETATM   37  C   UNL     1     -11.084  16.113  69.714  1.00  0.00    -0.350 C  
ENDBRANCH  31  36
ENDBRANCH  24  26
ENDBRANCH  23  24
ENDBRANCH   3  23
BRANCH   5  38
HETATM   38  O   UNL     1      -8.443  10.825  63.991  1.00  0.00    -0.107 OA 
HETATM   39  C   UNL     1      -9.060  11.324  62.821  1.00  0.00    -0.291 C  
ENDBRANCH   5  38
BRANCH   8  40
HETATM   40  C   UNL     1      -8.037  12.476  67.157  1.00  0.00    -0.156 C  
HETATM   41  O   UNL     1      -7.422  12.776  68.168  1.00  0.00    -0.102 OA 
BRANCH  40  42
HETATM   42  O   UNL     1      -8.947  13.278  66.541  1.00  0.00    -0.175 OA 
HETATM   43  C   UNL     1      -8.907  14.697  66.748  1.00  0.00    -0.241 C  
ENDBRANCH  40  42
ENDBRANCH   8  40
TORSDOF 9
ENDMDL
MODEL        4
REMARK 921   NORMALIZED FREE ENERGY PREDICTED BY IDOCK:   -6.04 KCAL/MOL
REMARK 922        TOTAL FREE ENERGY PREDICTED BY IDOCK:  -11.86 KCAL/MOL
REMARK 923 INTER-LIGAND FREE ENERGY PREDICTED BY IDOCK:   -9.73 KCAL/MOL
REMARK 924 INTRA-LIGAND FREE ENERGY PREDICTED BY IDOCK:   -2.13 KCAL/MOL
REMARK 927      BINDING AFFINITY PREDICTED BY RF-SCORE:    0.00 PKD
ROOT
HETATM    1  C   UNL     1     -10.054  14.953  65.620  1.00  0.00    -0.387 C  
HETATM    2  C   UNL     1     -11.469  15.190  66.155  1.00  0.00    -0.157 C  
HETATM    3  C   UNL     1     -11.714  14.830  67.665  1.00  0.00    -0.341 C  
HETATM    4  C   UNL     1      -8.591   9.287  63.830  1.00  0.00    -0.208 A  
HETATM    5  C   UNL     1     -10.999  15.977  68.369  1.00  0.00    -0.331 C  
HETATM    6  C   UNL     1      -8.613   8.344  62.780  1.00  0.00    -0.006 A  
HETATM    7  C   UNL     1      -7.764   7.226  62.830  1.00  0.00    -0.127 A  
HETATM    8  C   UNL     1      -9.466  15.728  68.066  1.00  0.00    -0.202 C  
HETATM    9  C   UNL     1      -6.909   7.055  63.907  1.00  0.00    -0.051 A  
HETATM   10  C   UNL     1      -6.861   7.989  64.959  1.00  0.00    -0.055 A  
HETATM   11  H   UNL     1      -7.355  10.314  66.629  1.00  0.00     0.000 HD 
HETATM   12  C   UNL     1      -9.072  14.727  66.788  1.00  0.00    -0.291 C  
HETATM   13  C   UNL     1      -7.719   9.106  64.894  1.00  0.00    -0.110 A  
HETATM   14  N   UNL     1      -7.898  10.164  65.778  1.00  0.00    -0.132 NA 
HETATM   15  C   UNL     1      -8.915  10.979  65.338  1.00  0.00    -0.178 A  
HETATM   16  C   UNL     1      -9.348  10.447  64.129  1.00  0.00    -0.323 A  
HETATM   17  C   UNL     1      -8.670  13.175  66.819  1.00  0.00    -0.095 C  
HETATM   18  C   UNL     1     -10.521  10.999  63.408  1.00  0.00    -0.320 C  
HETATM   19  C   UNL     1      -9.609  12.098  66.119  1.00  0.00    -0.240 C  
HETATM   20  C   UNL     1     -11.402  11.737  64.426  1.00  0.00    -0.301 C  
HETATM   21  C   UNL     1     -10.171  13.847  64.570  1.00  0.00    -0.111 C  
HETATM   22  N   UNL     1     -10.665  12.687  65.280  1.00  0.00    -0.282 NA 
ENDROOT
BRANCH   3  23
HETATM   23  O   UNL     1     -11.180  13.567  68.225  1.00  0.00    -0.248 OA 
BRANCH  23  24
HETATM   24  C   UNL     1     -11.893  13.075  69.293  1.00  0.00    -0.316 C  
HETATM   25  O   UNL     1     -12.536  13.794  70.053  1.00  0.00    -0.314 OA 
BRANCH  24  26
HETATM   26  C   UNL     1     -11.851  11.607  69.604  1.00  0.00    -0.419 A  
HETATM   27  C   UNL     1     -11.125   8.945  70.279  1.00  0.00    -0.228 A  
HETATM   28  C   UNL     1     -12.347  11.008  70.753  1.00  0.00    -0.496 A  
HETATM   29  C   UNL     1     -11.112  10.805  68.719  1.00  0.00    -0.312 A  
HETATM   30  C   UNL     1     -10.715   9.506  69.056  1.00  0.00    -0.202 A  
HETATM   31  C   UNL     1     -11.970   9.698  71.117  1.00  0.00    -0.367 A  
BRANCH  30  32
HETATM   32  O   UNL     1      -9.886   8.754  68.253  1.00  0.00    -0.155 OA 
HETATM   33  C   UNL     1     -10.513   8.133  67.131  1.00  0.00    -0.326 C  
ENDBRANCH  30  32
BRANCH  27  34
HETATM   34  O   UNL     1     -10.672   7.673  70.544  1.00  0.00    -0.226 OA 
HETATM   35  C   UNL     1     -11.578   6.604  70.280  1.00  0.00    -0.395 C  
ENDBRANCH  27  34
BRANCH  31  36
HETATM   36  O   UNL     1     -12.420   9.119  72.278  1.00  0.00    -0.368 OA 
HETATM   37  C   UNL     1     -13.829   8.932  72.374  1.00  0.00    -0.454 C  
ENDBRANCH  31  36
ENDBRANCH  24  26
ENDBRANCH  23  24
ENDBRANCH   3  23
BRANCH   5  38
HETATM   38  O   UNL     1     -11.525  17.204  67.824  1.00  0.00     0.093 OA 
HETATM   39  C   UNL     1     -10.663  18.318  67.703  1.00  0.00    -0.348 C  
ENDBRANCH   5  38
BRANCH   8  40
HETATM   40  C   UNL     1      -8.809  15.462  69.407  1.00  0.00    -0.251 C  
HETATM   41  O   UNL     1      -9.413  15.240  70.444  1.00  0.00     0.198 OA 
BRANCH  40  42
HETATM   42  O   UNL     1      -7.458  15.593  69.313  1.00  0.00    -0.186 OA 
HETATM   43  C   UNL     1      -6.604  14.515  69.722  1.00  0.00    -0.158 C  
ENDBRANCH  40  42
ENDBRANCH   8  40
TORSDOF 9
ENDMDL
MODEL        5
REMARK 921   NORMALIZED FREE ENERGY PREDICTED BY IDOCK:   -5.99 KCAL/MOL
REMARK 922        TOTAL FREE ENERGY PREDICTED BY IDOCK:  -11.77 KCAL/MOL
REMARK 923 INTER-LIGAND FREE ENERGY PREDICTED BY IDOCK:  -10.31 KCAL/MOL
REMARK 924 INTRA-LIGAND FREE ENERGY PREDICTED BY IDOCK:   -1.46 KCAL/MOL
REMARK 927      BINDING AFFINITY PREDICTED BY RF-SCORE:    0.00 PKD
ROOT
HETATM    1  C   UNL     1     -11.763  12.027  68.724  1.00  0.00    -0.377 C  
HETATM    2  C   UNL     1     -10.970  13.181  69.344  1.00  0.00    -0.056 C  
HETATM    3  C   UNL     1     -10.132  14.065  68.349  1.00  0.00    -0.236 C  
HETATM    4  C   UNL     1      -8.791   6.797  67.602  1.00  0.00    -0.117 A  
HETATM    5  C   UNL     1     -11.229  14.872  67.665  1.00  0.00    -0.323 C  
HETATM    6  C   UNL     1      -8.350   5.560  68.122  1.00  0.00    -0.099 A  
HETATM    7  C   UNL     1      -7.979   4.529  67.245  1.00  0.00    -0.101 A  
HETATM    8  C   UNL     1     -12.019  13.806  66.801  1.00  0.00    -0.465 C  
HETATM    9  C   UNL     1      -8.048   4.726  65.875  1.00  0.00    -0.107 A  
HETATM   10  C   UNL     1      -8.497   5.946  65.334  1.00  0.00    -0.153 A  
HETATM   11  H   UNL     1      -9.519   8.652  65.064  1.00  0.00     0.000 HD 
HETATM   12  C   UNL     1     -11.839  12.192  67.192  1.00  0.00    -0.292 C  
HETATM   13  C   UNL     1      -8.867   6.972  66.227  1.00  0.00    -0.148 A  
HETATM   14  N   UNL     1      -9.324   8.263  65.986  1.00  0.00    -0.183 NA 
HETATM   15  C   UNL     1      -9.474   8.940  67.175  1.00  0.00    -0.157 A  
HETATM   16  C   UNL     1      -9.151   8.038  68.182  1.00  0.00    -0.134 A  
HETATM   17  C   UNL     1     -10.882  11.099  66.516  1.00  0.00    -0.302 C  
HETATM   18  C   UNL     1      -9.088   8.448  69.607  1.00  0.00    -0.153 C  
HETATM   19  C   UNL     1      -9.706  10.441  67.363  1.00  0.00    -0.163 C  
HETATM   20  C   UNL     1      -8.854   9.964  69.656  1.00  0.00    -0.208 C  
HETATM   21  C   UNL     1     -11.143  10.738  69.266  1.00  0.00    -0.256 C  
HETATM   22  N   UNL     1      -9.771  10.741  68.803  1.00  0.00    -0.185 NA 
ENDROOT
BRANCH   3  23
HETATM   23  O   UNL     1      -9.325  13.426  67.284  1.00  0.00    -0.216 OA 
BRANCH  23  24
HETATM   24  C   UNL     1      -7.995  13.774  67.297  1.00  0.00    -0.119 C  
HETATM   25  O   UNL     1      -7.089  12.947  67.254  1.00  0.00    -0.144 OA 
BRANCH  24  26
HETATM   26  C   UNL     1      -7.605  15.218  67.432  1.00  0.00    -0.229 A  
HETATM   27  C   UNL     1      -7.505  18.027  67.847  1.00  0.00    -0.222 A  
HETATM   28  C   UNL     1      -6.833  15.756  68.453  1.00  0.00    -0.116 A  
HETATM   29  C   UNL     1      -8.201  16.110  66.528  1.00  0.00    -0.343 A  
HETATM   30  C   UNL     1      -8.193  17.494  66.741  1.00  0.00    -0.244 A  
HETATM   31  C   UNL     1      -6.799  17.146  68.690  1.00  0.00    -0.197 A  
BRANCH  30  32
HETATM   32  O   UNL     1      -8.879  18.372  65.931  1.00  0.00    -0.491 OA 
HETATM   33  C   UNL     1     -10.291  18.425  66.138  1.00  0.00    -0.407 C  
ENDBRANCH  30  32
BRANCH  27  34
HETATM   34  O   UNL     1      -7.565  19.393  67.997  1.00  0.00    -0.271 OA 
HETATM   35  C   UNL     1      -6.515  20.149  67.399  1.00  0.00    -0.211 C  
ENDBRANCH  27  34
BRANCH  31  36
HETATM   36  O   UNL     1      -6.076  17.680  69.728  1.00  0.00    -0.246 OA 
HETATM   37  C   UNL     1      -5.301  16.754  70.486  1.00  0.00    -0.203 C  
ENDBRANCH  31  36
ENDBRANCH  24  26
ENDBRANCH  23  24
ENDBRANCH   3  23
BRANCH   5  38
HETATM   38  O   UNL     1     -12.010  15.495  68.705  1.00  0.00    -0.336 OA 
HETATM   39  C   UNL     1     -11.384  16.439  69.552  1.00  0.00    -0.192 C  
ENDBRANCH   5  38
BRANCH   8  40
HETATM   40  C   UNL     1     -11.827  14.213  65.353  1.00  0.00    -0.362 C  
HETATM   41  O   UNL     1     -11.076  15.097  64.973  1.00  0.00    -0.375 OA 
BRANCH  40  42
HETATM   42  O   UNL     1     -12.672  13.517  64.544  1.00  0.00    -0.635 OA 
HETATM   43  C   UNL     1     -12.154  12.806  63.411  1.00  0.00    -0.534 C  
ENDBRANCH  40  42
ENDBRANCH   8  40
TORSDOF 9
ENDMDL
MODEL        6
REMARK 921   NORMALIZED FREE ENERGY PREDICTED BY IDOCK:   -5.95 KCAL/MOL
REMARK 922        TOTAL FREE ENERGY PREDICTED BY IDOCK:  -11.71 KCAL/MOL
REMARK 923 INTER-LIGAND FREE ENERGY PREDICTED BY IDOCK:   -9.23 KCAL/MOL
REMARK 924 INTRA-LIGAND FREE ENERGY PREDICTED BY IDOCK:   -2.47 KCAL/MOL
REMARK 927      BINDING AFFINITY PREDICTED BY RF-SCORE:    0.00 PKD
ROOT
HETATM    1  C   UNL     1     -10.218   7.257  72.107  1.00  0.00    -0.216 C  
HETATM    2  C   UNL     1     -10.829   6.014  71.454  1.00  0.00    -0.328 C  
HETATM    3  C   UNL     1     -10.555   5.827  69.917  1.00  0.00    -0.318 C  
HETATM    4  C   UNL     1     -13.259  12.542  71.583  1.00  0.00    -0.381 A  
HETATM    5  C   UNL     1      -9.092   5.398  69.922  1.00  0.00    -0.135 C  
HETATM    6  C   UNL     1     -14.273  13.371  72.109  1.00  0.00    -0.320 A  
HETATM    7  C   UNL     1     -14.311  14.731  71.760  1.00  0.00    -0.656 A  
HETATM    8  C   UNL     1      -8.306   6.690  70.388  1.00  0.00    -0.127 C  
HETATM    9  C   UNL     1     -13.354  15.253  70.905  1.00  0.00    -0.475 A  
HETATM   10  C   UNL     1     -12.326  14.448  70.379  1.00  0.00    -0.406 A  
HETATM   11  H   UNL     1     -10.600  12.187  69.788  1.00  0.00     0.000 HD 
HETATM   12  C   UNL     1      -9.165   7.889  71.173  1.00  0.00    -0.165 C  
HETATM   13  C   UNL     1     -12.300  13.085  70.739  1.00  0.00    -0.310 A  
HETATM   14  N   UNL     1     -11.430  12.066  70.369  1.00  0.00     0.081 NA 
HETATM   15  C   UNL     1     -11.852  10.869  70.901  1.00  0.00    -0.258 A  
HETATM   16  C   UNL     1     -12.981  11.155  71.659  1.00  0.00    -0.548 A  
HETATM   17  C   UNL     1      -9.771   9.245  70.569  1.00  0.00    -0.316 C  
HETATM   18  C   UNL     1     -13.785  10.083  72.299  1.00  0.00    -0.197 C  
HETATM   19  C   UNL     1     -11.347   9.468  70.546  1.00  0.00    -0.283 C  
HETATM   20  C   UNL     1     -13.527   8.776  71.535  1.00  0.00    -0.316 C  
HETATM   21  C   UNL     1     -11.392   8.134  72.545  1.00  0.00    -0.401 C  
HETATM   22  N   UNL     1     -12.100   8.473  71.328  1.00  0.00    -0.292 NA 
ENDROOT
BRANCH   3  23
HETATM   23  O   UNL     1     -10.674   6.978  68.994  1.00  0.00    -0.218 OA 
BRANCH  23  24
HETATM   24  C   UNL     1     -10.640   6.641  67.662  1.00  0.00    -0.263 C  
HETATM   25  O   UNL     1     -11.130   5.604  67.224  1.00  0.00    -0.106 OA 
BRANCH  24  26
HETATM   26  C   UNL     1      -9.925   7.531  66.686  1.00  0.00    -0.270 A  
HETATM   27  C   UNL     1      -8.226   9.395  65.378  1.00  0.00    -0.125 A  
HETATM   28  C   UNL     1      -9.028   7.110  65.714  1.00  0.00    -0.043 A  
HETATM   29  C   UNL     1     -10.069   8.913  66.885  1.00  0.00    -0.343 A  
HETATM   30  C   UNL     1      -9.213   9.840  66.276  1.00  0.00    -0.164 A  
HETATM   31  C   UNL     1      -8.157   8.020  65.079  1.00  0.00    -0.145 A  
BRANCH  30  32
HETATM   32  O   UNL     1      -9.262  11.188  66.558  1.00  0.00    -0.170 OA 
HETATM   33  C   UNL     1      -8.868  11.555  67.880  1.00  0.00    -0.152 C  
ENDBRANCH  30  32
BRANCH  27  34
HETATM   34  O   UNL     1      -7.413  10.367  64.842  1.00  0.00    -0.137 OA 
HETATM   35  C   UNL     1      -6.138  10.543  65.454  1.00  0.00    -0.122 C  
ENDBRANCH  27  34
BRANCH  31  36
HETATM   36  O   UNL     1      -7.235   7.603  64.151  1.00  0.00    -0.070 OA 
HETATM   37  C   UNL     1      -7.715   7.466  62.817  1.00  0.00    -0.128 C  
ENDBRANCH  31  36
ENDBRANCH  24  26
ENDBRANCH  23  24
ENDBRANCH   3  23
BRANCH   5  38
HETATM   38  O   UNL     1      -8.981   4.274  70.818  1.00  0.00    -0.092 OA 
HETATM   39  C   UNL     1      -8.591   3.021  70.292  1.00  0.00    -0.060 C  
ENDBRANCH   5  38
BRANCH   8  40
HETATM   40  C   UNL     1      -7.427   7.093  69.220  1.00  0.00    -0.093 C  
HETATM   41  O   UNL     1      -7.262   8.240  68.837  1.00  0.00    -0.074 OA 
BRANCH  40  42
HETATM   42  O   UNL     1      -6.918   5.992  68.602  1.00  0.00    -0.070 OA 
HETATM   43  C   UNL     1      -5.830   6.130  67.677  1.00  0.00    -0.016 C  
ENDBRANCH  40  42
ENDBRANCH   8  40
TORSDOF 9
ENDMDL
MODEL        7
REMARK 921   NORMALIZED FREE ENERGY PREDICTED BY IDOCK:   -5.87 KCAL/MOL
REMARK 922        TOTAL FREE ENERGY PREDICTED BY IDOCK:  -11.60 KCAL/MOL
REMARK 923 INTER-LIGAND FREE ENERGY PREDICTED BY IDOCK:   -9.28 KCAL/MOL
REMARK 924 INTRA-LIGAND FREE ENERGY PREDICTED BY IDOCK:   -2.31 KCAL/MOL
REMARK 927      BINDING AFFINITY PREDICTED BY RF-SCORE:    0.00 PKD
ROOT
HETATM    1  C   UNL     1     -11.947  12.070  66.740  1.00  0.00    -0.087 C  
HETATM    2  C   UNL     1     -10.954  11.077  66.128  1.00  0.00    -0.157 C  
HETATM    3  C   UNL     1      -9.800  10.574  67.069  1.00  0.00    -0.183 C  
HETATM    4  C   UNL     1     -10.362  17.979  66.873  1.00  0.00    -0.377 A  
HETATM    5  C   UNL     1     -10.554   9.619  67.987  1.00  0.00    -0.243 C  
HETATM    6  C   UNL     1     -10.331  19.203  66.171  1.00  0.00    -0.561 A  
HETATM    7  C   UNL     1     -10.147  20.405  66.875  1.00  0.00    -0.503 A  
HETATM    8  C   UNL     1     -11.491  10.561  68.849  1.00  0.00    -0.292 C  
HETATM    9  C   UNL     1      -9.998  20.384  68.252  1.00  0.00    -0.273 A  
HETATM   10  C   UNL     1     -10.039  19.176  68.974  1.00  0.00    -0.365 A  
HETATM   11  H   UNL     1     -10.265  16.363  69.665  1.00  0.00     0.000 HD 
HETATM   12  C   UNL     1     -11.795  12.101  68.274  1.00  0.00    -0.361 C  
HETATM   13  C   UNL     1     -10.225  17.979  68.254  1.00  0.00    -0.395 A  
HETATM   14  N   UNL     1     -10.291  16.660  68.689  1.00  0.00    -0.284 NA 
HETATM   15  C   UNL     1     -10.395  15.812  67.611  1.00  0.00    -0.281 A  
HETATM   16  C   UNL     1     -10.445  16.620  66.481  1.00  0.00    -0.262 A  
HETATM   17  C   UNL     1     -11.090  13.480  68.687  1.00  0.00    -0.299 C  
HETATM   18  C   UNL     1     -10.444  16.049  65.111  1.00  0.00    -0.331 C  
HETATM   19  C   UNL     1     -10.240  14.288  67.611  1.00  0.00    -0.237 C  
HETATM   20  C   UNL     1      -9.823  14.647  65.181  1.00  0.00    -0.121 C  
HETATM   21  C   UNL     1     -11.761  13.386  65.984  1.00  0.00    -0.362 C  
HETATM   22  N   UNL     1     -10.393  13.789  66.235  1.00  0.00    -0.287 NA 
ENDROOT
BRANCH   3  23
HETATM   23  O   UNL     1      -9.072  11.533  67.932  1.00  0.00    -0.156 OA 
BRANCH  23  24
HETATM   24  C   UNL     1      -7.710  11.539  67.746  1.00  0.00    -0.124 C  
HETATM   25  O   UNL     1      -7.113  10.641  67.159  1.00  0.00    -0.086 OA 
BRANCH  24  26
HETATM   26  C   UNL     1      -6.884  12.650  68.329  1.00  0.00    -0.084 A  
HETATM   27  C   UNL     1      -5.848  15.121  69.275  1.00  0.00    -0.097 A  
HETATM   28  C   UNL     1      -6.609  12.832  69.677  1.00  0.00     0.015 A  
HETATM   29  C   UNL     1      -6.489  13.663  67.441  1.00  0.00     0.042 A  
HETATM   30  C   UNL     1      -6.014  14.900  67.895  1.00  0.00    -0.146 A  
HETATM   31  C   UNL     1      -6.125  14.064  70.165  1.00  0.00    -0.154 A  
BRANCH  30  32
HETATM   32  O   UNL     1      -5.741  15.946  67.042  1.00  0.00    -0.332 OA 
HETATM   33  C   UNL     1      -6.879  16.665  66.567  1.00  0.00    -0.102 C  
ENDBRANCH  30  32
BRANCH  27  34
HETATM   34  O   UNL     1      -5.399  16.369  69.638  1.00  0.00    -0.124 OA 
HETATM   35  C   UNL     1      -6.394  17.341  69.950  1.00  0.00    -0.041 C  
ENDBRANCH  27  34
BRANCH  31  36
HETATM   36  O   UNL     1      -5.897  14.266  71.504  1.00  0.00    -0.207 OA 
HETATM   37  C   UNL     1      -5.137  13.257  72.164  1.00  0.00    -0.105 C  
ENDBRANCH  31  36
ENDBRANCH  24  26
ENDBRANCH  23  24
ENDBRANCH   3  23
BRANCH   5  38
HETATM   38  O   UNL     1     -11.258   8.686  67.144  1.00  0.00     0.264 OA 
HETATM   39  C   UNL     1     -10.773   7.362  67.043  1.00  0.00    -0.319 C  
ENDBRANCH   5  38
BRANCH   8  40
HETATM   40  C   UNL     1     -11.028  10.416  70.285  1.00  0.00    -0.284 C  
HETATM   41  O   UNL     1     -10.083   9.732  70.645  1.00  0.00    -0.272 OA 
BRANCH  40  42
HETATM   42  O   UNL     1     -11.864  11.082  71.127  1.00  0.00    -0.239 OA 
HETATM   43  C   UNL     1     -12.950  10.387  71.756  1.00  0.00    -0.475 C  
ENDBRANCH  40  42
ENDBRANCH   8  40
TORSDOF 9
ENDMDL
MODEL        8
REMARK 921   NORMALIZED FREE ENERGY PREDICTED BY IDOCK:   -5.81 KCAL/MOL
REMARK 922        TOTAL FREE ENERGY PREDICTED BY IDOCK:  -11.49 KCAL/MOL
REMARK 923 INTER-LIGAND FREE ENERGY PREDICTED BY IDOCK:   -9.57 KCAL/MOL
REMARK 924 INTRA-LIGAND FREE ENERGY PREDICTED BY IDOCK:   -1.93 KCAL/MOL
REMARK 927      BINDING AFFINITY PREDICTED BY RF-SCORE:    0.00 PKD
ROOT
HETATM    1  C   UNL     1     -10.134   7.403  72.004  1.00  0.00    -0.212 C  
HETATM    2  C   UNL     1     -10.721   6.178  71.297  1.00  0.00    -0.310 C  
HETATM    3  C   UNL     1     -10.431   6.055  69.756  1.00  0.00    -0.255 C  
HETATM    4  C   UNL     1     -13.246  12.661  71.659  1.00  0.00    -0.394 A  
HETATM    5  C   UNL     1      -8.962   5.647  69.758  1.00  0.00    -0.127 C  
HETATM    6  C   UNL     1     -14.277  13.455  72.207  1.00  0.00    -0.403 A  
HETATM    7  C   UNL     1     -14.330  14.827  71.912  1.00  0.00    -0.657 A  
HETATM    8  C   UNL     1      -8.199   6.931  70.282  1.00  0.00    -0.129 C  
HETATM    9  C   UNL     1     -13.374  15.395  71.087  1.00  0.00    -0.580 A  
HETATM   10  C   UNL     1     -12.330  14.626  70.540  1.00  0.00    -0.400 A  
HETATM   11  H   UNL     1     -10.567  12.414  69.876  1.00  0.00     0.000 HD 
HETATM   12  C   UNL     1      -9.082   8.086  71.105  1.00  0.00    -0.172 C  
HETATM   13  C   UNL     1     -12.288  13.250  70.846  1.00  0.00    -0.329 A  
HETATM   14  N   UNL     1     -11.400  12.259  70.444  1.00  0.00     0.346 NA 
HETATM   15  C   UNL     1     -11.809  11.036  70.925  1.00  0.00    -0.196 A  
HETATM   16  C   UNL     1     -12.949  11.276  71.684  1.00  0.00    -0.537 A  
HETATM   17  C   UNL     1      -9.702   9.455  70.549  1.00  0.00    -0.331 C  
HETATM   18  C   UNL     1     -13.743  10.168  72.272  1.00  0.00    -0.132 C  
HETATM   19  C   UNL     1     -11.281   9.657  70.521  1.00  0.00    -0.297 C  
HETATM   20  C   UNL     1     -13.460   8.897  71.461  1.00  0.00    -0.332 C  
HETATM   21  C   UNL     1     -11.324   8.245  72.464  1.00  0.00    -0.385 C  
HETATM   22  N   UNL     1     -12.026   8.622  71.255  1.00  0.00    -0.289 NA 
ENDROOT
BRANCH   3  23
HETATM   23  O   UNL     1     -10.559   7.241  68.878  1.00  0.00    -0.208 OA 
BRANCH  23  24
HETATM   24  C   UNL     1     -10.514   6.956  67.534  1.00  0.00    -0.247 C  
HETATM   25  O   UNL     1     -11.054   5.969  67.043  1.00  0.00    -0.303 OA 
BRANCH  24  26
HETATM   26  C   UNL     1      -9.723   7.839  66.612  1.00  0.00    -0.292 A  
HETATM   27  C   UNL     1      -8.521   9.148  64.396  1.00  0.00    -0.184 A  
HETATM   28  C   UNL     1      -9.978   9.180  66.358  1.00  0.00    -0.358 A  
HETATM   29  C   UNL     1      -8.741   7.205  65.835  1.00  0.00    -0.146 A  
HETATM   30  C   UNL     1      -8.169   7.825  64.717  1.00  0.00    -0.096 A  
HETATM   31  C   UNL     1      -9.413   9.834  65.244  1.00  0.00    -0.279 A  
BRANCH  30  32
HETATM   32  O   UNL     1      -7.297   7.171  63.874  1.00  0.00    -0.074 OA 
HETATM   33  C   UNL     1      -6.601   6.064  64.445  1.00  0.00    -0.034 C  
ENDBRANCH  30  32
BRANCH  27  34
HETATM   34  O   UNL     1      -7.932   9.675  63.270  1.00  0.00    -0.129 OA 
HETATM   35  C   UNL     1      -6.621  10.214  63.426  1.00  0.00    -0.132 C  
ENDBRANCH  27  34
BRANCH  31  36
HETATM   36  O   UNL     1      -9.700  11.147  64.961  1.00  0.00    -0.228 OA 
HETATM   37  C   UNL     1     -10.860  11.371  64.164  1.00  0.00    -0.365 C  
ENDBRANCH  31  36
ENDBRANCH  24  26
ENDBRANCH  23  24
ENDBRANCH   3  23
BRANCH   5  38
HETATM   38  O   UNL     1      -8.843   4.491  70.611  1.00  0.00    -0.095 OA 
HETATM   39  C   UNL     1      -7.551   4.046  70.976  1.00  0.00    -0.048 C  
ENDBRANCH   5  38
BRANCH   8  40
HETATM   40  C   UNL     1      -7.316   7.392  69.139  1.00  0.00    -0.090 C  
HETATM   41  O   UNL     1      -7.194   8.551  68.778  1.00  0.00    -0.075 OA 
BRANCH  40  42
HETATM   42  O   UNL     1      -6.745   6.325  68.514  1.00  0.00    -0.059 OA 
HETATM   43  C   UNL     1      -5.355   6.362  68.161  1.00  0.00    -0.008 C  
ENDBRANCH  40  42
ENDBRANCH   8  40
TORSDOF 9
ENDMDL
MODEL        9
REMARK 921   NORMALIZED FREE ENERGY PREDICTED BY IDOCK:   -5.80 KCAL/MOL
REMARK 922        TOTAL FREE ENERGY PREDICTED BY IDOCK:  -11.48 KCAL/MOL
REMARK 923 INTER-LIGAND FREE ENERGY PREDICTED BY IDOCK:   -9.22 KCAL/MOL
REMARK 924 INTRA-LIGAND FREE ENERGY PREDICTED BY IDOCK:   -2.27 KCAL/MOL
REMARK 927      BINDING AFFINITY PREDICTED BY RF-SCORE:    0.00 PKD
ROOT
HETATM    1  C   UNL     1     -10.156  10.267  65.975  1.00  0.00    -0.311 C  
HETATM    2  C   UNL     1      -8.640  10.227  65.758  1.00  0.00    -0.163 C  
HETATM    3  C   UNL     1      -7.817   9.327  66.751  1.00  0.00    -0.104 C  
HETATM    4  C   UNL     1     -12.332  14.095  70.225  1.00  0.00    -0.421 A  
HETATM    5  C   UNL     1      -8.166   7.930  66.250  1.00  0.00    -0.117 C  
HETATM    6  C   UNL     1     -12.753  15.411  70.517  1.00  0.00    -0.455 A  
HETATM    7  C   UNL     1     -13.534  15.654  71.658  1.00  0.00    -0.522 A  
HETATM    8  C   UNL     1      -9.697   7.755  66.612  1.00  0.00    -0.292 C  
HETATM    9  C   UNL     1     -13.888  14.605  72.491  1.00  0.00    -0.561 A  
HETATM   10  C   UNL     1     -13.491  13.284  72.213  1.00  0.00    -0.679 A  
HETATM   11  H   UNL     1     -12.320  10.948  70.942  1.00  0.00     0.000 HD 
HETATM   12  C   UNL     1     -10.591   9.131  66.923  1.00  0.00    -0.237 C  
HETATM   13  C   UNL     1     -12.708  13.055  71.063  1.00  0.00    -0.262 A  
HETATM   14  N   UNL     1     -12.167  11.879  70.554  1.00  0.00    -0.363 NA 
HETATM   15  C   UNL     1     -11.395  12.156  69.449  1.00  0.00    -0.245 A  
HETATM   16  C   UNL     1     -11.495  13.525  69.234  1.00  0.00    -0.345 A  
HETATM   17  C   UNL     1     -10.979   9.773  68.339  1.00  0.00    -0.200 C  
HETATM   18  C   UNL     1     -10.699  14.212  68.187  1.00  0.00    -0.251 C  
HETATM   19  C   UNL     1     -10.423  11.210  68.738  1.00  0.00    -0.203 C  
HETATM   20  C   UNL     1      -9.468  13.347  67.881  1.00  0.00    -0.216 C  
HETATM   21  C   UNL     1     -10.494  11.701  66.387  1.00  0.00    -0.244 C  
HETATM   22  N   UNL     1      -9.780  11.928  67.626  1.00  0.00    -0.181 NA 
ENDROOT
BRANCH   3  23
HETATM   23  O   UNL     1      -8.108   9.362  68.203  1.00  0.00    -0.108 OA 
BRANCH  23  24
HETATM   24  C   UNL     1      -7.118   8.825  68.990  1.00  0.00    -0.065 C  
HETATM   25  O   UNL     1      -5.926   8.897  68.705  1.00  0.00    -0.044 OA 
BRANCH  24  26
HETATM   26  C   UNL     1      -7.485   8.057  70.228  1.00  0.00    -0.072 A  
HETATM   27  C   UNL     1      -7.627   6.883  72.811  1.00  0.00    -0.089 A  
HETATM   28  C   UNL     1      -8.535   8.357  71.084  1.00  0.00    -0.178 A  
HETATM   29  C   UNL     1      -6.593   7.047  70.620  1.00  0.00    -0.052 A  
HETATM   30  C   UNL     1      -6.628   6.488  71.903  1.00  0.00    -0.058 A  
HETATM   31  C   UNL     1      -8.602   7.805  72.381  1.00  0.00    -0.132 A  
BRANCH  30  32
HETATM   32  O   UNL     1      -5.683   5.587  72.344  1.00  0.00    -0.021 OA 
HETATM   33  C   UNL     1      -5.664   4.332  71.664  1.00  0.00    -0.012 C  
ENDBRANCH  30  32
BRANCH  27  34
HETATM   34  O   UNL     1      -7.577   6.303  74.057  1.00  0.00    -0.087 OA 
HETATM   35  C   UNL     1      -8.370   5.133  74.251  1.00  0.00    -0.105 C  
ENDBRANCH  27  34
BRANCH  31  36
HETATM   36  O   UNL     1      -9.613   8.135  73.250  1.00  0.00    -0.267 OA 
HETATM   37  C   UNL     1     -10.910   7.658  72.904  1.00  0.00    -0.389 C  
ENDBRANCH  31  36
ENDBRANCH  24  26
ENDBRANCH  23  24
ENDBRANCH   3  23
BRANCH   5  38
HETATM   38  O   UNL     1      -7.877   7.900  64.838  1.00  0.00    -0.111 OA 
HETATM   39  C   UNL     1      -7.713   6.647  64.204  1.00  0.00    -0.109 C  
ENDBRANCH   5  38
BRANCH   8  40
HETATM   40  C   UNL     1      -9.765   6.620  67.614  1.00  0.00    -0.124 C  
HETATM   41  O   UNL     1      -8.825   5.904  67.919  1.00  0.00    -0.108 OA 
BRANCH  40  42
HETATM   42  O   UNL     1     -11.040   6.452  68.062  1.00  0.00    -0.317 OA 
HETATM   43  C   UNL     1     -11.281   6.185  69.451  1.00  0.00    -0.396 C  
ENDBRANCH  40  42
ENDBRANCH   8  40
TORSDOF 9
ENDMDL
MODEL       10
REMARK 921   NORMALIZED FREE ENERGY PREDICTED BY IDOCK:   -5.77 KCAL/MOL
REMARK 922        TOTAL FREE ENERGY PREDICTED BY IDOCK:  -11.43 KCAL/MOL
REMARK 923 INTER-LIGAND FREE ENERGY PREDICTED BY IDOCK:   -8.78 KCAL/MOL
REMARK 924 INTRA-LIGAND FREE ENERGY PREDICTED BY IDOCK:   -2.66 KCAL/MOL
REMARK 927      BINDING AFFINITY PREDICTED BY RF-SCORE:    0.00 PKD
ROOT
HETATM    1  C   UNL     1     -11.989  12.612  68.806  1.00  0.00    -0.279 C  
HETATM    2  C   UNL     1     -10.948  13.621  69.301  1.00  0.00    -0.189 C  
HETATM    3  C   UNL     1      -9.923  14.147  68.231  1.00  0.00    -0.241 C  
HETATM    4  C   UNL     1     -10.326   6.733  68.462  1.00  0.00    -0.210 A  
HETATM    5  C   UNL     1     -10.797  15.090  67.413  1.00  0.00    -0.305 C  
HETATM    6  C   UNL     1     -10.190   5.508  69.150  1.00  0.00    -0.309 A  
HETATM    7  C   UNL     1     -10.070   4.312  68.424  1.00  0.00     0.089 A  
HETATM    8  C   UNL     1     -11.812  14.133  66.664  1.00  0.00    -0.447 C  
HETATM    9  C   UNL     1     -10.086   4.338  67.039  1.00  0.00    -0.079 A  
HETATM   10  C   UNL     1     -10.234   5.546  66.332  1.00  0.00    -0.247 A  
HETATM   11  H   UNL     1     -10.590   8.356  65.684  1.00  0.00     0.000 HD 
HETATM   12  C   UNL     1     -12.019  12.587  67.264  1.00  0.00    -0.286 C  
HETATM   13  C   UNL     1     -10.354   6.739  67.074  1.00  0.00    -0.268 A  
HETATM   14  N   UNL     1     -10.494   8.057  66.655  1.00  0.00    -0.248 NA 
HETATM   15  C   UNL     1     -10.484   8.901  67.742  1.00  0.00    -0.239 A  
HETATM   16  C   UNL     1     -10.387   8.090  68.867  1.00  0.00    -0.222 A  
HETATM   17  C   UNL     1     -11.343  11.222  66.766  1.00  0.00    -0.187 C  
HETATM   18  C   UNL     1     -10.233   8.658  70.229  1.00  0.00    -0.213 C  
HETATM   19  C   UNL     1     -10.358  10.427  67.730  1.00  0.00    -0.206 C  
HETATM   20  C   UNL     1      -9.649  10.070  70.092  1.00  0.00    -0.097 C  
HETATM   21  C   UNL     1     -11.691  11.298  69.529  1.00  0.00    -0.345 C  
HETATM   22  N   UNL     1     -10.355  10.920  69.116  1.00  0.00    -0.217 NA 
ENDROOT
BRANCH   3  23
HETATM   23  O   UNL     1      -9.285  13.203  67.284  1.00  0.00    -0.204 OA 
BRANCH  23  24
HETATM   24  C   UNL     1      -7.913  13.161  67.366  1.00  0.00    -0.171 C  
HETATM   25  O   UNL     1      -7.224  14.163  67.533  1.00  0.00    -0.172 OA 
BRANCH  24  26
HETATM   26  C   UNL     1      -7.197  11.854  67.184  1.00  0.00    -0.144 A  
HETATM   27  C   UNL     1      -6.259   9.175  67.313  1.00  0.00    -0.058 A  
HETATM   28  C   UNL     1      -7.320  11.008  66.091  1.00  0.00    -0.060 A  
HETATM   29  C   UNL     1      -6.461  11.391  68.286  1.00  0.00    -0.056 A  
HETATM   30  C   UNL     1      -6.027  10.062  68.379  1.00  0.00    -0.042 A  
HETATM   31  C   UNL     1      -6.888   9.666  66.152  1.00  0.00    -0.091 A  
BRANCH  30  32
HETATM   32  O   UNL     1      -5.414   9.561  69.507  1.00  0.00    -0.034 OA 
HETATM   33  C   UNL     1      -6.102   9.793  70.736  1.00  0.00    -0.092 C  
ENDBRANCH  30  32
BRANCH  27  34
HETATM   34  O   UNL     1      -5.822   7.883  67.493  1.00  0.00    -0.036 OA 
HETATM   35  C   UNL     1      -6.795   6.932  67.917  1.00  0.00    -0.081 C  
ENDBRANCH  27  34
BRANCH  31  36
HETATM   36  O   UNL     1      -7.051   8.811  65.089  1.00  0.00    -0.084 OA 
HETATM   37  C   UNL     1      -7.812   9.317  63.996  1.00  0.00    -0.126 C  
ENDBRANCH  31  36
ENDBRANCH  24  26
ENDBRANCH  23  24
ENDBRANCH   3  23
BRANCH   5  38
HETATM   38  O   UNL     1     -11.413  16.009  68.338  1.00  0.00    -0.369 OA 
HETATM   39  C   UNL     1     -10.738  17.211  68.652  1.00  0.00    -0.306 C  
ENDBRANCH   5  38
BRANCH   8  40
HETATM   40  C   UNL     1     -11.525  14.290  65.184  1.00  0.00    -0.351 C  
HETATM   41  O   UNL     1     -10.613  14.955  64.719  1.00  0.00    -0.407 OA 
BRANCH  40  42
HETATM   42  O   UNL     1     -12.476  13.659  64.442  1.00  0.00    -0.588 OA 
HETATM   43  C   UNL     1     -12.094  12.657  63.489  1.00  0.00    -0.561 C  
ENDBRANCH  40  42
ENDBRANCH   8  40
TORSDOF 9
ENDMDL
MODEL       11
REMARK 921   NORMALIZED FREE ENERGY PREDICTED BY IDOCK:   -5.63 KCAL/MOL
REMARK 922        TOTAL FREE ENERGY PREDICTED BY IDOCK:  -11.22 KCAL/MOL
REMARK 923 INTER-LIGAND FREE ENERGY PREDICTED BY IDOCK:   -9.55 KCAL/MOL
REMARK 924 INTRA-LIGAND FREE ENERGY PREDICTED BY IDOCK:   -1.67 KCAL/MOL
REMARK 927      BINDING AFFINITY PREDICTED BY RF-SCORE:    0.00 PKD
ROOT
HETATM    1  C   UNL     1      -9.156   5.440  71.101  1.00  0.00    -0.163 C  
HETATM    2  C   UNL     1      -8.403   6.694  71.553  1.00  0.00    -0.120 C  
HETATM    3  C   UNL     1      -9.126   8.069  71.306  1.00  0.00    -0.139 C  
HETATM    4  C   UNL     1      -8.763   3.845  65.206  1.00  0.00    -0.116 A  
HETATM    5  C   UNL     1     -10.206   8.039  72.381  1.00  0.00    -0.280 C  
HETATM    6  C   UNL     1      -8.023   3.154  64.222  1.00  0.00    -0.082 A  
HETATM    7  C   UNL     1      -8.634   2.811  63.005  1.00  0.00    -0.085 A  
HETATM    8  C   UNL     1     -11.194   6.895  71.913  1.00  0.00    -0.287 C  
HETATM    9  C   UNL     1      -9.957   3.149  62.775  1.00  0.00    -0.100 A  
HETATM   10  C   UNL     1     -10.718   3.826  63.746  1.00  0.00    -0.246 A  
HETATM   11  H   UNL     1     -11.545   5.147  66.199  1.00  0.00     0.000 HD 
HETATM   12  C   UNL     1     -10.631   5.779  70.804  1.00  0.00    -0.337 C  
HETATM   13  C   UNL     1     -10.092   4.163  64.964  1.00  0.00    -0.208 A  
HETATM   14  N   UNL     1     -10.581   4.833  66.080  1.00  0.00    -0.316 NA 
HETATM   15  C   UNL     1      -9.574   5.012  67.001  1.00  0.00    -0.152 A  
HETATM   16  C   UNL     1      -8.445   4.398  66.471  1.00  0.00    -0.112 A  
HETATM   17  C   UNL     1     -10.850   5.748  69.217  1.00  0.00    -0.374 C  
HETATM   18  C   UNL     1      -7.123   4.485  67.139  1.00  0.00    -0.068 C  
HETATM   19  C   UNL     1      -9.602   5.909  68.242  1.00  0.00    -0.121 C  
HETATM   20  C   UNL     1      -7.125   5.729  68.038  1.00  0.00    -0.071 C  
HETATM   21  C   UNL     1      -8.330   4.827  69.969  1.00  0.00    -0.068 C  
HETATM   22  N   UNL     1      -8.300   5.828  68.923  1.00  0.00    -0.101 NA 
ENDROOT
BRANCH   3  23
HETATM   23  O   UNL     1      -9.798   8.335  70.013  1.00  0.00    -0.179 OA 
BRANCH  23  24
HETATM   24  C   UNL     1      -9.309   9.427  69.336  1.00  0.00    -0.169 C  
HETATM   25  O   UNL     1      -8.145   9.804  69.431  1.00  0.00    -0.104 OA 
BRANCH  24  26
HETATM   26  C   UNL     1     -10.234  10.251  68.486  1.00  0.00    -0.192 A  
HETATM   27  C   UNL     1     -11.570  12.301  67.043  1.00  0.00    -0.349 A  
HETATM   28  C   UNL     1     -10.322  10.199  67.102  1.00  0.00    -0.295 A  
HETATM   29  C   UNL     1     -10.955  11.257  69.148  1.00  0.00    -0.292 A  
HETATM   30  C   UNL     1     -11.585  12.295  68.450  1.00  0.00    -0.326 A  
HETATM   31  C   UNL     1     -10.955  11.226  66.371  1.00  0.00    -0.227 A  
BRANCH  30  32
HETATM   32  O   UNL     1     -12.189  13.356  69.088  1.00  0.00    -0.292 OA 
HETATM   33  C   UNL     1     -12.347  13.216  70.500  1.00  0.00    -0.304 C  
ENDBRANCH  30  32
BRANCH  27  34
HETATM   34  O   UNL     1     -12.192  13.367  66.436  1.00  0.00    -0.406 OA 
HETATM   35  C   UNL     1     -11.345  14.390  65.917  1.00  0.00    -0.332 C  
ENDBRANCH  27  34
BRANCH  31  36
HETATM   36  O   UNL     1     -11.003  11.205  64.999  1.00  0.00    -0.218 OA 
HETATM   37  C   UNL     1      -9.813  10.776  64.342  1.00  0.00    -0.315 C  
ENDBRANCH  31  36
ENDBRANCH  24  26
ENDBRANCH  23  24
ENDBRANCH   3  23
BRANCH   5  38
HETATM   38  O   UNL     1      -9.548   7.784  73.639  1.00  0.00    -0.286 OA 
HETATM   39  C   UNL     1     -10.004   6.713  74.440  1.00  0.00    -0.332 C  
ENDBRANCH   5  38
BRANCH   8  40
HETATM   40  C   UNL     1     -12.520   7.572  71.630  1.00  0.00    -0.342 C  
HETATM   41  O   UNL     1     -13.516   7.004  71.212  1.00  0.00    -0.333 OA 
BRANCH  40  42
HETATM   42  O   UNL     1     -12.422   8.917  71.821  1.00  0.00    -0.319 OA 
HETATM   43  C   UNL     1     -13.580   9.672  72.201  1.00  0.00    -0.389 C  
ENDBRANCH  40  42
ENDBRANCH   8  40
TORSDOF 9
ENDMDL
MODEL       12
REMARK 921   NORMALIZED FREE ENERGY PREDICTED BY IDOCK:   -5.62 KCAL/MOL
REMARK 922        TOTAL FREE ENERGY PREDICTED BY IDOCK:  -11.20 KCAL/MOL
REMARK 923 INTER-LIGAND FREE ENERGY PREDICTED BY IDOCK:   -8.97 KCAL/MOL
REMARK 924 INTRA-LIGAND FREE ENERGY PREDICTED BY IDOCK:   -2.24 KCAL/MOL
REMARK 927      BINDING AFFINITY PREDICTED BY RF-SCORE:    0.00 PKD
ROOT
HETATM    1  C   UNL     1      -6.538   8.397  66.271  1.00  0.00    -0.058 C  
HETATM    2  C   UNL     1      -6.650   7.597  67.572  1.00  0.00    -0.063 C  
HETATM    3  C   UNL     1      -7.793   6.520  67.633  1.00  0.00    -0.110 C  
HETATM    4  C   UNL     1     -10.233  13.224  65.561  1.00  0.00    -0.298 A  
HETATM    5  C   UNL     1      -7.228   5.429  66.731  1.00  0.00    -0.078 C  
HETATM    6  C   UNL     1     -10.430  14.599  65.810  1.00  0.00    -0.338 A  
HETATM    7  C   UNL     1     -11.380  15.313  65.060  1.00  0.00    -0.359 A  
HETATM    8  C   UNL     1      -7.254   6.065  65.282  1.00  0.00    -0.070 C  
HETATM    9  C   UNL     1     -12.116  14.667  64.081  1.00  0.00    -0.346 A  
HETATM   10  C   UNL     1     -11.926  13.299  63.806  1.00  0.00    -0.551 A  
HETATM   11  H   UNL     1     -10.931  10.570  63.861  1.00  0.00     0.000 HD 
HETATM   12  C   UNL     1      -7.370   7.727  65.158  1.00  0.00    -0.071 C  
HETATM   13  C   UNL     1     -10.970  12.596  64.566  1.00  0.00    -0.332 A  
HETATM   14  N   UNL     1     -10.585  11.260  64.529  1.00  0.00    -0.331 NA 
HETATM   15  C   UNL     1      -9.672  11.004  65.525  1.00  0.00    -0.229 A  
HETATM   16  C   UNL     1      -9.442  12.216  66.167  1.00  0.00    -0.231 A  
HETATM   17  C   UNL     1      -8.672   8.622  64.889  1.00  0.00    -0.126 C  
HETATM   18  C   UNL     1      -8.591  12.310  67.378  1.00  0.00    -0.178 C  
HETATM   19  C   UNL     1      -9.183   9.635  66.005  1.00  0.00    -0.182 C  
HETATM   20  C   UNL     1      -8.553  10.926  68.041  1.00  0.00    -0.131 C  
HETATM   21  C   UNL     1      -6.872   9.847  66.627  1.00  0.00    -0.084 C  
HETATM   22  N   UNL     1      -8.235   9.825  67.115  1.00  0.00    -0.120 NA 
ENDROOT
BRANCH   3  23
HETATM   23  O   UNL     1      -9.150   6.845  67.135  1.00  0.00    -0.126 OA 
BRANCH  23  24
HETATM   24  C   UNL     1     -10.168   6.240  67.832  1.00  0.00    -0.169 C  
HETATM   25  O   UNL     1     -10.828   5.310  67.376  1.00  0.00    -0.108 OA 
BRANCH  24  26
HETATM   26  C   UNL     1     -10.553   6.759  69.188  1.00  0.00    -0.261 A  
HETATM   27  C   UNL     1     -11.787   8.012  71.419  1.00  0.00    -0.295 A  
HETATM   28  C   UNL     1     -11.074   6.000  70.227  1.00  0.00    -0.415 A  
HETATM   29  C   UNL     1     -10.520   8.152  69.352  1.00  0.00    -0.223 A  
HETATM   30  C   UNL     1     -11.157   8.785  70.427  1.00  0.00    -0.236 A  
HETATM   31  C   UNL     1     -11.716   6.608  71.326  1.00  0.00    -0.334 A  
BRANCH  30  32
HETATM   32  O   UNL     1     -11.240  10.156  70.535  1.00  0.00    -0.294 OA 
HETATM   33  C   UNL     1     -11.985  10.811  69.508  1.00  0.00    -0.292 C  
ENDBRANCH  30  32
BRANCH  27  34
HETATM   34  O   UNL     1     -12.408   8.711  72.427  1.00  0.00    -0.379 OA 
HETATM   35  C   UNL     1     -13.807   8.945  72.276  1.00  0.00    -0.474 C  
ENDBRANCH  27  34
BRANCH  31  36
HETATM   36  O   UNL     1     -12.276   5.861  72.333  1.00  0.00    -0.239 OA 
HETATM   37  C   UNL     1     -11.371   5.057  73.085  1.00  0.00    -0.321 C  
ENDBRANCH  31  36
ENDBRANCH  24  26
ENDBRANCH  23  24
ENDBRANCH   3  23
BRANCH   5  38
HETATM   38  O   UNL     1      -5.909   5.113  67.222  1.00  0.00    -0.023 OA 
HETATM   39  C   UNL     1      -5.254   3.966  66.719  1.00  0.00    -0.012 C  
ENDBRANCH   5  38
BRANCH   8  40
HETATM   40  C   UNL     1      -8.217   5.222  64.469  1.00  0.00    -0.135 C  
HETATM   41  O   UNL     1      -8.625   5.512  63.356  1.00  0.00    -0.077 OA 
BRANCH  40  42
HETATM   42  O   UNL     1      -8.632   4.143  65.187  1.00  0.00    -0.112 OA 
HETATM   43  C   UNL     1      -9.731   3.350  64.717  1.00  0.00    -0.152 C  
ENDBRANCH  40  42
ENDBRANCH   8  40
TORSDOF 9
ENDMDL
MODEL       13
REMARK 921   NORMALIZED FREE ENERGY PREDICTED BY IDOCK:   -5.58 KCAL/MOL
REMARK 922        TOTAL FREE ENERGY PREDICTED BY IDOCK:  -11.15 KCAL/MOL
REMARK 923 INTER-LIGAND FREE ENERGY PREDICTED BY IDOCK:   -9.43 KCAL/MOL
REMARK 924 INTRA-LIGAND FREE ENERGY PREDICTED BY IDOCK:   -1.72 KCAL/MOL
REMARK 927      BINDING AFFINITY PREDICTED BY RF-SCORE:    0.00 PKD
ROOT
HETATM    1  C   UNL     1      -8.612   5.950  70.660  1.00  0.00    -0.133 C  
HETATM    2  C   UNL     1      -7.807   7.228  70.911  1.00  0.00    -0.094 C  
HETATM    3  C   UNL     1      -8.545   8.586  70.617  1.00  0.00    -0.148 C  
HETATM    4  C   UNL     1      -8.869   3.818  64.929  1.00  0.00    -0.121 A  
HETATM    5  C   UNL     1      -9.502   8.671  71.800  1.00  0.00    -0.284 C  
HETATM    6  C   UNL     1      -8.243   3.029  63.939  1.00  0.00    -0.086 A  
HETATM    7  C   UNL     1      -8.984   2.587  62.831  1.00  0.00    -0.088 A  
HETATM    8  C   UNL     1     -10.542   7.504  71.548  1.00  0.00    -0.236 C  
HETATM    9  C   UNL     1     -10.323   2.924  62.714  1.00  0.00    -0.135 A  
HETATM   10  C   UNL     1     -10.970   3.698  63.695  1.00  0.00    -0.100 A  
HETATM   11  H   UNL     1     -11.519   5.249  66.090  1.00  0.00     0.000 HD 
HETATM   12  C   UNL     1     -10.108   6.283  70.493  1.00  0.00    -0.230 C  
HETATM   13  C   UNL     1     -10.214   4.135  64.802  1.00  0.00    -0.195 A  
HETATM   14  N   UNL     1     -10.575   4.911  65.898  1.00  0.00    -0.277 NA 
HETATM   15  C   UNL     1      -9.474   5.157  66.685  1.00  0.00    -0.144 A  
HETATM   16  C   UNL     1      -8.413   4.480  66.096  1.00  0.00    -0.113 A  
HETATM   17  C   UNL     1     -10.498   6.112  68.948  1.00  0.00    -0.293 C  
HETATM   18  C   UNL     1      -7.025   4.606  66.607  1.00  0.00    -0.063 C  
HETATM   19  C   UNL     1      -9.362   6.164  67.834  1.00  0.00    -0.113 C  
HETATM   20  C   UNL     1      -6.923   5.926  67.383  1.00  0.00    -0.069 C  
HETATM   21  C   UNL     1      -7.917   5.224  69.507  1.00  0.00    -0.088 C  
HETATM   22  N   UNL     1      -7.995   6.124  68.376  1.00  0.00    -0.107 NA 
ENDROOT
BRANCH   3  23
HETATM   23  O   UNL     1      -9.351   8.743  69.384  1.00  0.00    -0.154 OA 
BRANCH  23  24
HETATM   24  C   UNL     1      -8.788   9.572  68.443  1.00  0.00    -0.124 C  
HETATM   25  O   UNL     1      -7.602   9.519  68.130  1.00  0.00    -0.079 OA 
BRANCH  24  26
HETATM   26  C   UNL     1      -9.623  10.642  67.799  1.00  0.00    -0.172 A  
HETATM   27  C   UNL     1     -11.601  12.155  66.432  1.00  0.00    -0.364 A  
HETATM   28  C   UNL     1     -10.370  11.600  68.470  1.00  0.00    -0.224 A  
HETATM   29  C   UNL     1      -9.771  10.559  66.406  1.00  0.00    -0.245 A  
HETATM   30  C   UNL     1     -10.768  11.270  65.725  1.00  0.00    -0.223 A  
HETATM   31  C   UNL     1     -11.376  12.337  67.811  1.00  0.00    -0.301 A  
BRANCH  30  32
HETATM   32  O   UNL     1     -11.006  11.104  64.378  1.00  0.00    -0.322 OA 
HETATM   33  C   UNL     1     -10.055  11.713  63.505  1.00  0.00    -0.425 C  
ENDBRANCH  30  32
BRANCH  27  34
HETATM   34  O   UNL     1     -12.568  12.797  65.694  1.00  0.00    -0.596 OA 
HETATM   35  C   UNL     1     -12.335  14.170  65.390  1.00  0.00    -0.463 C  
ENDBRANCH  27  34
BRANCH  31  36
HETATM   36  O   UNL     1     -12.151  13.252  68.481  1.00  0.00    -0.341 OA 
HETATM   37  C   UNL     1     -11.932  13.340  69.886  1.00  0.00    -0.330 C  
ENDBRANCH  31  36
ENDBRANCH  24  26
ENDBRANCH  23  24
ENDBRANCH   3  23
BRANCH   5  38
HETATM   38  O   UNL     1      -8.713   8.522  72.997  1.00  0.00    -0.343 OA 
HETATM   39  C   UNL     1      -9.156   7.624  73.996  1.00  0.00    -0.225 C  
ENDBRANCH   5  38
BRANCH   8  40
HETATM   40  C   UNL     1     -11.886   8.174  71.348  1.00  0.00    -0.295 C  
HETATM   41  O   UNL     1     -12.927   7.585  71.103  1.00  0.00    -0.292 OA 
BRANCH  40  42
HETATM   42  O   UNL     1     -11.758   9.529  71.389  1.00  0.00    -0.336 OA 
HETATM   43  C   UNL     1     -12.883  10.344  71.746  1.00  0.00    -0.456 C  
ENDBRANCH  40  42
ENDBRANCH   8  40
TORSDOF 9
ENDMDL
MODEL       14
REMARK 921   NORMALIZED FREE ENERGY PREDICTED BY IDOCK:   -5.54 KCAL/MOL
REMARK 922        TOTAL FREE ENERGY PREDICTED BY IDOCK:  -11.09 KCAL/MOL
REMARK 923 INTER-LIGAND FREE ENERGY PREDICTED BY IDOCK:   -8.61 KCAL/MOL
REMARK 924 INTRA-LIGAND FREE ENERGY PREDICTED BY IDOCK:   -2.48 KCAL/MOL
REMARK 927      BINDING AFFINITY PREDICTED BY RF-SCORE:    0.00 PKD
ROOT
HETATM    1  C   UNL     1     -11.089   9.175  71.557  1.00  0.00    -0.436 C  
HETATM    2  C   UNL     1     -11.954   8.061  70.961  1.00  0.00    -0.260 C  
HETATM    3  C   UNL     1     -11.207   6.989  70.086  1.00  0.00    -0.284 C  
HETATM    4  C   UNL     1      -9.751  13.966  67.992  1.00  0.00    -0.226 A  
HETATM    5  C   UNL     1     -10.481   6.180  71.156  1.00  0.00    -0.230 C  
HETATM    6  C   UNL     1     -10.169  15.225  67.510  1.00  0.00    -0.239 A  
HETATM    7  C   UNL     1      -9.230  16.096  66.934  1.00  0.00    -0.246 A  
HETATM    8  C   UNL     1      -9.388   7.173  71.724  1.00  0.00    -0.155 C  
HETATM    9  C   UNL     1      -7.900  15.719  66.843  1.00  0.00    -0.271 A  
HETATM   10  C   UNL     1      -7.458  14.474  67.328  1.00  0.00    -0.126 A  
HETATM   11  H   UNL     1      -7.388  11.840  68.553  1.00  0.00     0.000 HD 
HETATM   12  C   UNL     1      -9.595   8.808  71.448  1.00  0.00    -0.337 C  
HETATM   13  C   UNL     1      -8.412  13.610  67.904  1.00  0.00    -0.177 A  
HETATM   14  N   UNL     1      -8.273  12.336  68.444  1.00  0.00    -0.162 NA 
HETATM   15  C   UNL     1      -9.504  11.841  68.809  1.00  0.00    -0.026 A  
HETATM   16  C   UNL     1     -10.426  12.846  68.538  1.00  0.00    -0.260 A  
HETATM   17  C   UNL     1      -8.929   9.724  70.314  1.00  0.00    -0.198 C  
HETATM   18  C   UNL     1     -11.885  12.631  68.699  1.00  0.00    -0.342 C  
HETATM   19  C   UNL     1      -9.844  10.401  69.202  1.00  0.00    -0.223 C  
HETATM   20  C   UNL     1     -12.156  11.123  68.614  1.00  0.00    -0.110 C  
HETATM   21  C   UNL     1     -11.548  10.476  70.895  1.00  0.00    -0.292 C  
HETATM   22  N   UNL     1     -11.286  10.307  69.481  1.00  0.00    -0.249 NA 
ENDROOT
BRANCH   3  23
HETATM   23  O   UNL     1     -10.195   7.414  69.092  1.00  0.00    -0.185 OA 
BRANCH  23  24
HETATM   24  C   UNL     1     -10.481   7.043  67.800  1.00  0.00    -0.223 C  
HETATM   25  O   UNL     1     -11.279   6.152  67.523  1.00  0.00    -0.292 OA 
BRANCH  24  26
HETATM   26  C   UNL     1      -9.754   7.696  66.659  1.00  0.00    -0.283 A  
HETATM   27  C   UNL     1      -8.169   9.345  64.975  1.00  0.00    -0.138 A  
HETATM   28  C   UNL     1      -8.644   7.180  66.005  1.00  0.00    -0.158 A  
HETATM   29  C   UNL     1     -10.149   9.003  66.338  1.00  0.00    -0.351 A  
HETATM   30  C   UNL     1      -9.358   9.840  65.541  1.00  0.00    -0.240 A  
HETATM   31  C   UNL     1      -7.830   7.995  65.191  1.00  0.00    -0.116 A  
BRANCH  30  32
HETATM   32  O   UNL     1      -9.670  11.163  65.320  1.00  0.00    -0.218 OA 
HETATM   33  C   UNL     1     -10.964  11.407  64.768  1.00  0.00    -0.234 C  
ENDBRANCH  30  32
BRANCH  27  34
HETATM   34  O   UNL     1      -7.439  10.237  64.224  1.00  0.00    -0.136 OA 
HETATM   35  C   UNL     1      -7.651  10.211  62.814  1.00  0.00    -0.140 C  
ENDBRANCH  27  34
BRANCH  31  36
HETATM   36  O   UNL     1      -6.703   7.502  64.580  1.00  0.00    -0.049 OA 
HETATM   37  C   UNL     1      -6.920   6.491  63.600  1.00  0.00    -0.051 C  
ENDBRANCH  31  36
ENDBRANCH  24  26
ENDBRANCH  23  24
ENDBRANCH   3  23
BRANCH   5  38
HETATM   38  O   UNL     1     -11.471   5.765  72.119  1.00  0.00    -0.282 OA 
HETATM   39  C   UNL     1     -11.101   4.833  73.115  1.00  0.00    -0.310 C  
ENDBRANCH   5  38
BRANCH   8  40
HETATM   40  C   UNL     1      -8.044   6.559  71.384  1.00  0.00    -0.112 C  
HETATM   41  O   UNL     1      -6.963   7.048  71.672  1.00  0.00    -0.066 OA 
BRANCH  40  42
HETATM   42  O   UNL     1      -8.207   5.433  70.636  1.00  0.00    -0.109 OA 
HETATM   43  C   UNL     1      -7.390   5.220  69.477  1.00  0.00    -0.061 C  
ENDBRANCH  40  42
ENDBRANCH   8  40
TORSDOF 9
ENDMDL
MODEL       15
REMARK 921   NORMALIZED FREE ENERGY PREDICTED BY IDOCK:   -5.53 KCAL/MOL
REMARK 922        TOTAL FREE ENERGY PREDICTED BY IDOCK:  -11.08 KCAL/MOL
REMARK 923 INTER-LIGAND FREE ENERGY PREDICTED BY IDOCK:   -9.32 KCAL/MOL
REMARK 924 INTRA-LIGAND FREE ENERGY PREDICTED BY IDOCK:   -1.76 KCAL/MOL
REMARK 927      BINDING AFFINITY PREDICTED BY RF-SCORE:    0.00 PKD
ROOT
HETATM    1  C   UNL     1      -6.316  11.756  67.080  1.00  0.00    -0.145 C  
HETATM    2  C   UNL     1      -6.274  10.794  68.272  1.00  0.00    -0.053 C  
HETATM    3  C   UNL     1      -7.615  10.052  68.617  1.00  0.00    -0.088 C  
HETATM    4  C   UNL     1      -8.439  17.413  68.053  1.00  0.00    -0.235 A  
HETATM    5  C   UNL     1      -7.693   9.029  67.490  1.00  0.00    -0.096 C  
HETATM    6  C   UNL     1      -8.134  18.727  68.469  1.00  0.00    -0.379 A  
HETATM    7  C   UNL     1      -9.004  19.780  68.141  1.00  0.00    -0.367 A  
HETATM    8  C   UNL     1      -7.954   9.896  66.192  1.00  0.00    -0.109 C  
HETATM    9  C   UNL     1     -10.154  19.526  67.411  1.00  0.00    -0.525 A  
HETATM   10  C   UNL     1     -10.471  18.226  66.974  1.00  0.00    -0.407 A  
HETATM   11  H   UNL     1     -10.365  15.368  66.463  1.00  0.00     0.000 HD 
HETATM   12  C   UNL     1      -7.599  11.528  66.255  1.00  0.00     0.098 C  
HETATM   13  C   UNL     1      -9.588  17.179  67.310  1.00  0.00    -0.245 A  
HETATM   14  N   UNL     1      -9.649  15.818  67.034  1.00  0.00    -0.223 NA 
HETATM   15  C   UNL     1      -8.602  15.166  67.644  1.00  0.00    -0.172 A  
HETATM   16  C   UNL     1      -7.844  16.146  68.273  1.00  0.00    -0.153 A  
HETATM   17  C   UNL     1      -8.593  12.758  66.511  1.00  0.00     0.078 C  
HETATM   18  C   UNL     1      -6.685  15.804  69.135  1.00  0.00    -0.154 C  
HETATM   19  C   UNL     1      -8.426  13.655  67.816  1.00  0.00    -0.183 C  
HETATM   20  C   UNL     1      -6.869  14.362  69.628  1.00  0.00    -0.118 C  
HETATM   21  C   UNL     1      -6.082  13.156  67.649  1.00  0.00    -0.146 C  
HETATM   22  N   UNL     1      -7.182  13.397  68.558  1.00  0.00    -0.104 NA 
ENDROOT
BRANCH   3  23
HETATM   23  O   UNL     1      -8.896  10.795  68.629  1.00  0.00    -0.139 OA 
BRANCH  23  24
HETATM   24  C   UNL     1      -9.870  10.231  69.418  1.00  0.00    -0.227 C  
HETATM   25  O   UNL     1      -9.855   9.051  69.755  1.00  0.00    -0.170 OA 
BRANCH  24  26
HETATM   26  C   UNL     1     -11.049  11.056  69.850  1.00  0.00    -0.276 A  
HETATM   27  C   UNL     1     -12.976  12.598  71.257  1.00  0.00    -0.214 A  
HETATM   28  C   UNL     1     -11.272  12.385  69.517  1.00  0.00    -0.171 A  
HETATM   29  C   UNL     1     -11.908  10.467  70.790  1.00  0.00    -0.465 A  
HETATM   30  C   UNL     1     -12.836  11.222  71.519  1.00  0.00    -0.414 A  
HETATM   31  C   UNL     1     -12.203  13.170  70.228  1.00  0.00    -0.306 A  
BRANCH  30  32
HETATM   32  O   UNL     1     -13.598  10.682  72.531  1.00  0.00    -0.027 OA 
HETATM   33  C   UNL     1     -13.836   9.278  72.440  1.00  0.00    -0.416 C  
ENDBRANCH  30  32
BRANCH  27  34
HETATM   34  O   UNL     1     -13.892  13.271  72.032  1.00  0.00    -0.450 OA 
HETATM   35  C   UNL     1     -13.373  14.246  72.934  1.00  0.00    -0.462 C  
ENDBRANCH  27  34
BRANCH  31  36
HETATM   36  O   UNL     1     -12.394  14.499  69.934  1.00  0.00    -0.320 OA 
HETATM   37  C   UNL     1     -11.286  15.356  70.190  1.00  0.00    -0.302 C  
ENDBRANCH  31  36
ENDBRANCH  24  26
ENDBRANCH  23  24
ENDBRANCH   3  23
BRANCH   5  38
HETATM   38  O   UNL     1      -6.446   8.305  67.485  1.00  0.00    -0.055 OA 
HETATM   39  C   UNL     1      -6.240   7.301  68.459  1.00  0.00    -0.035 C  
ENDBRANCH   5  38
BRANCH   8  40
HETATM   40  C   UNL     1      -9.319   9.484  65.677  1.00  0.00    -0.241 C  
HETATM   41  O   UNL     1     -10.107   8.777  66.285  1.00  0.00    -0.291 OA 
BRANCH  40  42
HETATM   42  O   UNL     1      -9.510   9.937  64.408  1.00  0.00    -0.283 OA 
HETATM   43  C   UNL     1     -10.498  10.944  64.147  1.00  0.00    -0.327 C  
ENDBRANCH  40  42
ENDBRANCH   8  40
TORSDOF 9
ENDMDL
MODEL       16
REMARK 921   NORMALIZED FREE ENERGY PREDICTED BY IDOCK:   -5.50 KCAL/MOL
REMARK 922        TOTAL FREE ENERGY PREDICTED BY IDOCK:  -11.02 KCAL/MOL
REMARK 923 INTER-LIGAND FREE ENERGY PREDICTED BY IDOCK:   -9.37 KCAL/MOL
REMARK 924 INTRA-LIGAND FREE ENERGY PREDICTED BY IDOCK:   -1.65 KCAL/MOL
REMARK 927      BINDING AFFINITY PREDICTED BY RF-SCORE:    0.00 PKD
ROOT
HETATM    1  C   UNL     1     -11.573  11.219  68.635  1.00  0.00    -0.384 C  
HETATM    2  C   UNL     1     -10.957  12.404  69.384  1.00  0.00    -0.072 C  
HETATM    3  C   UNL     1     -10.311  13.530  68.497  1.00  0.00    -0.240 C  
HETATM    4  C   UNL     1      -7.825   6.734  66.819  1.00  0.00    -0.107 A  
HETATM    5  C   UNL     1     -11.550  14.220  67.936  1.00  0.00    -0.336 C  
HETATM    6  C   UNL     1      -7.170   5.535  67.172  1.00  0.00    -0.075 A  
HETATM    7  C   UNL     1      -6.666   4.695  66.166  1.00  0.00    -0.050 A  
HETATM    8  C   UNL     1     -12.184  13.152  66.956  1.00  0.00    -0.271 C  
HETATM    9  C   UNL     1      -6.815   5.044  64.834  1.00  0.00    -0.049 A  
HETATM   10  C   UNL     1      -7.476   6.228  64.457  1.00  0.00    -0.087 A  
HETATM   11  H   UNL     1      -8.937   8.738  64.545  1.00  0.00     0.000 HD 
HETATM   12  C   UNL     1     -11.729  11.554  67.138  1.00  0.00    -0.140 C  
HETATM   13  C   UNL     1      -7.977   7.061  65.478  1.00  0.00    -0.130 A  
HETATM   14  N   UNL     1      -8.648   8.277  65.409  1.00  0.00    -0.168 NA 
HETATM   15  C   UNL     1      -8.864   8.769  66.675  1.00  0.00    -0.131 A  
HETATM   16  C   UNL     1      -8.363   7.818  67.556  1.00  0.00    -0.120 A  
HETATM   17  C   UNL     1     -10.630  10.727  66.315  1.00  0.00    -0.257 C  
HETATM   18  C   UNL     1      -8.318   8.056  69.020  1.00  0.00    -0.129 C  
HETATM   19  C   UNL     1      -9.333  10.177  67.055  1.00  0.00    -0.154 C  
HETATM   20  C   UNL     1      -8.333   9.572  69.256  1.00  0.00    -0.129 C  
HETATM   21  C   UNL     1     -10.731   9.995  69.001  1.00  0.00    -0.220 C  
HETATM   22  N   UNL     1      -9.395  10.283  68.522  1.00  0.00    -0.149 NA 
ENDROOT
BRANCH   3  23
HETATM   23  O   UNL     1      -9.448  13.170  67.348  1.00  0.00    -0.201 OA 
BRANCH  23  24
HETATM   24  C   UNL     1      -8.203  13.751  67.372  1.00  0.00    -0.184 C  
HETATM   25  O   UNL     1      -7.163  13.100  67.339  1.00  0.00    -0.155 OA 
BRANCH  24  26
HETATM   26  C   UNL     1      -8.079  15.242  67.509  1.00  0.00    -0.192 A  
HETATM   27  C   UNL     1      -7.230  17.952  67.546  1.00  0.00    -0.196 A  
HETATM   28  C   UNL     1      -8.680  16.183  66.684  1.00  0.00    -0.300 A  
HETATM   29  C   UNL     1      -7.156  15.704  68.460  1.00  0.00    -0.116 A  
HETATM   30  C   UNL     1      -6.700  17.028  68.465  1.00  0.00    -0.172 A  
HETATM   31  C   UNL     1      -8.247  17.525  66.670  1.00  0.00    -0.256 A  
BRANCH  30  32
HETATM   32  O   UNL     1      -5.704  17.465  69.310  1.00  0.00    -0.178 OA 
HETATM   33  C   UNL     1      -5.487  16.663  70.471  1.00  0.00    -0.160 C  
ENDBRANCH  30  32
BRANCH  27  34
HETATM   34  O   UNL     1      -6.712  19.225  67.601  1.00  0.00    -0.214 OA 
HETATM   35  C   UNL     1      -5.762  19.574  66.597  1.00  0.00    -0.169 C  
ENDBRANCH  27  34
BRANCH  31  36
HETATM   36  O   UNL     1      -8.805  18.450  65.822  1.00  0.00    -0.433 OA 
HETATM   37  C   UNL     1     -10.063  18.984  66.226  1.00  0.00    -0.422 C  
ENDBRANCH  31  36
ENDBRANCH  24  26
ENDBRANCH  23  24
ENDBRANCH   3  23
BRANCH   5  38
HETATM   38  O   UNL     1     -12.384  14.573  69.058  1.00  0.00    -0.225 OA 
HETATM   39  C   UNL     1     -12.027  15.691  69.846  1.00  0.00    -0.360 C  
ENDBRANCH   5  38
BRANCH   8  40
HETATM   40  C   UNL     1     -12.112  13.758  65.568  1.00  0.00    -0.410 C  
HETATM   41  O   UNL     1     -11.477  14.759  65.279  1.00  0.00    -0.342 OA 
BRANCH  40  42
HETATM   42  O   UNL     1     -12.925  13.085  64.709  1.00  0.00    -0.735 OA 
HETATM   43  C   UNL     1     -12.362  12.383  63.592  1.00  0.00    -0.548 C  
ENDBRANCH  40  42
ENDBRANCH   8  40
TORSDOF 9
ENDMDL
MODEL       17
REMARK 921   NORMALIZED FREE ENERGY PREDICTED BY IDOCK:   -5.49 KCAL/MOL
REMARK 922        TOTAL FREE ENERGY PREDICTED BY IDOCK:  -11.01 KCAL/MOL
REMARK 923 INTER-LIGAND FREE ENERGY PREDICTED BY IDOCK:   -9.34 KCAL/MOL
REMARK 924 INTRA-LIGAND FREE ENERGY PREDICTED BY IDOCK:   -1.67 KCAL/MOL
REMARK 927      BINDING AFFINITY PREDICTED BY RF-SCORE:    0.00 PKD
ROOT
HETATM    1  C   UNL     1     -11.780  11.767  66.704  1.00  0.00    -0.174 C  
HETATM    2  C   UNL     1     -10.844  10.852  65.909  1.00  0.00    -0.132 C  
HETATM    3  C   UNL     1      -9.539  10.378  66.647  1.00  0.00    -0.177 C  
HETATM    4  C   UNL     1     -10.475  17.745  66.857  1.00  0.00    -0.308 A  
HETATM    5  C   UNL     1     -10.100   9.352  67.624  1.00  0.00    -0.211 C  
HETATM    6  C   UNL     1     -10.608  18.993  66.212  1.00  0.00    -0.493 A  
HETATM    7  C   UNL     1     -10.378  20.177  66.933  1.00  0.00    -0.503 A  
HETATM    8  C   UNL     1     -10.940  10.211  68.654  1.00  0.00    -0.273 C  
HETATM    9  C   UNL     1     -10.023  20.115  68.271  1.00  0.00    -0.452 A  
HETATM   10  C   UNL     1      -9.898  18.881  68.938  1.00  0.00    -0.447 A  
HETATM   11  H   UNL     1      -9.883  16.038  69.532  1.00  0.00     0.000 HD 
HETATM   12  C   UNL     1     -11.400  11.752  68.199  1.00  0.00    -0.348 C  
HETATM   13  C   UNL     1     -10.133  17.702  68.202  1.00  0.00    -0.347 A  
HETATM   14  N   UNL     1     -10.069  16.367  68.584  1.00  0.00    -0.232 NA 
HETATM   15  C   UNL     1     -10.294  15.554  67.497  1.00  0.00    -0.271 A  
HETATM   16  C   UNL     1     -10.552  16.398  66.423  1.00  0.00    -0.236 A  
HETATM   17  C   UNL     1     -10.708  13.151  68.562  1.00  0.00    -0.277 C  
HETATM   18  C   UNL     1     -10.729  15.877  65.045  1.00  0.00    -0.426 C  
HETATM   19  C   UNL     1     -10.068  14.042  67.408  1.00  0.00    -0.244 C  
HETATM   20  C   UNL     1     -10.038  14.510  64.961  1.00  0.00    -0.290 C  
HETATM   21  C   UNL     1     -11.771  13.118  65.987  1.00  0.00    -0.379 C  
HETATM   22  N   UNL     1     -10.402  13.585  66.050  1.00  0.00    -0.296 NA 
ENDROOT
BRANCH   3  23
HETATM   23  O   UNL     1      -8.735  11.343  67.433  1.00  0.00    -0.140 OA 
BRANCH  23  24
HETATM   24  C   UNL     1      -7.436  11.478  67.005  1.00  0.00    -0.151 C  
HETATM   25  O   UNL     1      -6.788  12.510  67.156  1.00  0.00    -0.140 OA 
BRANCH  24  26
HETATM   26  C   UNL     1      -6.776  10.352  66.261  1.00  0.00    -0.112 A  
HETATM   27  C   UNL     1      -6.019   7.863  65.120  1.00  0.00    -0.038 A  
HETATM   28  C   UNL     1      -6.796  10.170  64.885  1.00  0.00    -0.129 A  
HETATM   29  C   UNL     1      -6.226   9.327  67.046  1.00  0.00    -0.061 A  
HETATM   30  C   UNL     1      -5.885   8.082  66.503  1.00  0.00    -0.041 A  
HETATM   31  C   UNL     1      -6.453   8.930  64.307  1.00  0.00    -0.071 A  
BRANCH  30  32
HETATM   32  O   UNL     1      -5.462   7.027  67.280  1.00  0.00    -0.015 OA 
HETATM   33  C   UNL     1      -6.421   6.525  68.211  1.00  0.00    -0.049 C  
ENDBRANCH  30  32
BRANCH  27  34
HETATM   34  O   UNL     1      -5.684   6.607  64.671  1.00  0.00    -0.029 OA 
HETATM   35  C   UNL     1      -6.759   5.695  64.461  1.00  0.00    -0.046 C  
ENDBRANCH  27  34
BRANCH  31  36
HETATM   36  O   UNL     1      -6.517   8.728  62.950  1.00  0.00    -0.091 OA 
HETATM   37  C   UNL     1      -7.827   8.657  62.394  1.00  0.00    -0.135 C  
ENDBRANCH  31  36
ENDBRANCH  24  26
ENDBRANCH  23  24
ENDBRANCH   3  23
BRANCH   5  38
HETATM   38  O   UNL     1     -10.878   8.413  66.854  1.00  0.00    -0.211 OA 
HETATM   39  C   UNL     1     -10.932   7.066  67.279  1.00  0.00    -0.302 C  
ENDBRANCH   5  38
BRANCH   8  40
HETATM   40  C   UNL     1     -10.260  10.039  69.998  1.00  0.00    -0.255 C  
HETATM   41  O   UNL     1      -9.090   9.730  70.151  1.00  0.00    -0.227 OA 
BRANCH  40  42
HETATM   42  O   UNL     1     -11.157  10.191  71.012  1.00  0.00    -0.323 OA 
HETATM   43  C   UNL     1     -12.318   9.350  71.072  1.00  0.00    -0.258 C  
ENDBRANCH  40  42
ENDBRANCH   8  40
TORSDOF 9
ENDMDL
MODEL       18
REMARK 921   NORMALIZED FREE ENERGY PREDICTED BY IDOCK:   -5.49 KCAL/MOL
REMARK 922        TOTAL FREE ENERGY PREDICTED BY IDOCK:  -11.01 KCAL/MOL
REMARK 923 INTER-LIGAND FREE ENERGY PREDICTED BY IDOCK:   -9.13 KCAL/MOL
REMARK 924 INTRA-LIGAND FREE ENERGY PREDICTED BY IDOCK:   -1.88 KCAL/MOL
REMARK 927      BINDING AFFINITY PREDICTED BY RF-SCORE:    0.00 PKD
ROOT
HETATM    1  C   UNL     1      -8.581   8.238  66.379  1.00  0.00    -0.144 C  
HETATM    2  C   UNL     1      -9.768   8.975  65.751  1.00  0.00    -0.254 C  
HETATM    3  C   UNL     1     -10.079  10.408  66.318  1.00  0.00    -0.231 C  
HETATM    4  C   UNL     1      -9.534   5.246  71.632  1.00  0.00    -0.187 A  
HETATM    5  C   UNL     1      -8.944  11.225  65.710  1.00  0.00    -0.181 C  
HETATM    6  C   UNL     1      -9.964   4.047  72.240  1.00  0.00    -0.236 A  
HETATM    7  C   UNL     1      -9.622   3.782  73.576  1.00  0.00    -0.135 A  
HETATM    8  C   UNL     1      -7.645  10.698  66.445  1.00  0.00    -0.138 C  
HETATM    9  C   UNL     1      -8.864   4.696  74.290  1.00  0.00    -0.109 A  
HETATM   10  C   UNL     1      -8.413   5.892  73.701  1.00  0.00    -0.119 A  
HETATM   11  H   UNL     1      -7.890   8.019  71.792  1.00  0.00     0.000 HD 
HETATM   12  C   UNL     1      -7.725   9.216  67.211  1.00  0.00    -0.095 C  
HETATM   13  C   UNL     1      -8.764   6.144  72.359  1.00  0.00    -0.125 A  
HETATM   14  N   UNL     1      -8.480   7.227  71.535  1.00  0.00    -0.113 NA 
HETATM   15  C   UNL     1      -9.110   7.075  70.321  1.00  0.00    -0.156 A  
HETATM   16  C   UNL     1      -9.761   5.848  70.369  1.00  0.00    -0.217 A  
HETATM   17  C   UNL     1      -7.965   8.904  68.765  1.00  0.00    -0.102 C  
HETATM   18  C   UNL     1     -10.648   5.391  69.271  1.00  0.00    -0.271 C  
HETATM   19  C   UNL     1      -9.278   8.131  69.225  1.00  0.00    -0.151 C  
HETATM   20  C   UNL     1     -11.129   6.628  68.502  1.00  0.00    -0.206 C  
HETATM   21  C   UNL     1      -9.162   7.020  67.098  1.00  0.00    -0.137 C  
HETATM   22  N   UNL     1     -10.047   7.552  68.113  1.00  0.00    -0.176 NA 
ENDROOT
BRANCH   3  23
HETATM   23  O   UNL     1     -10.065  10.650  67.779  1.00  0.00    -0.167 OA 
BRANCH  23  24
HETATM   24  C   UNL     1     -11.222  11.205  68.271  1.00  0.00    -0.279 C  
HETATM   25  O   UNL     1     -12.123  10.535  68.769  1.00  0.00    -0.306 OA 
BRANCH  24  26
HETATM   26  C   UNL     1     -11.449  12.684  68.151  1.00  0.00    -0.359 A  
HETATM   27  C   UNL     1     -11.284  15.520  68.214  1.00  0.00    -0.343 A  
HETATM   28  C   UNL     1     -11.404  13.417  66.973  1.00  0.00    -0.346 A  
HETATM   29  C   UNL     1     -11.567  13.395  69.355  1.00  0.00    -0.365 A  
HETATM   30  C   UNL     1     -11.448  14.789  69.405  1.00  0.00    -0.301 A  
HETATM   31  C   UNL     1     -11.290  14.823  66.990  1.00  0.00    -0.353 A  
BRANCH  30  32
HETATM   32  O   UNL     1     -11.436  15.489  70.592  1.00  0.00    -0.292 OA 
HETATM   33  C   UNL     1     -12.003  14.810  71.713  1.00  0.00    -0.339 C  
ENDBRANCH  30  32
BRANCH  27  34
HETATM   34  O   UNL     1     -11.153  16.882  68.353  1.00  0.00    -0.341 OA 
HETATM   35  C   UNL     1      -9.833  17.411  68.246  1.00  0.00    -0.310 C  
ENDBRANCH  27  34
BRANCH  31  36
HETATM   36  O   UNL     1     -11.196  15.549  65.828  1.00  0.00    -0.259 OA 
HETATM   37  C   UNL     1     -10.293  15.042  64.850  1.00  0.00    -0.282 C  
ENDBRANCH  31  36
ENDBRANCH  24  26
ENDBRANCH  23  24
ENDBRANCH   3  23
BRANCH   5  38
HETATM   38  O   UNL     1      -8.965  10.989  64.288  1.00  0.00    -0.146 OA 
HETATM   39  C   UNL     1      -9.911  11.681  63.498  1.00  0.00    -0.405 C  
ENDBRANCH   5  38
BRANCH   8  40
HETATM   40  C   UNL     1      -7.097  11.875  67.227  1.00  0.00    -0.143 C  
HETATM   41  O   UNL     1      -6.192  11.807  68.043  1.00  0.00    -0.049 OA 
BRANCH  40  42
HETATM   42  O   UNL     1      -7.813  13.002  66.961  1.00  0.00    -0.103 OA 
HETATM   43  C   UNL     1      -7.916  14.035  67.951  1.00  0.00    -0.158 C  
ENDBRANCH  40  42
ENDBRANCH   8  40
TORSDOF 9
ENDMDL
MODEL       19
REMARK 921   NORMALIZED FREE ENERGY PREDICTED BY IDOCK:   -5.46 KCAL/MOL
REMARK 922        TOTAL FREE ENERGY PREDICTED BY IDOCK:  -10.96 KCAL/MOL
REMARK 923 INTER-LIGAND FREE ENERGY PREDICTED BY IDOCK:   -8.89 KCAL/MOL
REMARK 924 INTRA-LIGAND FREE ENERGY PREDICTED BY IDOCK:   -2.07 KCAL/MOL
REMARK 927      BINDING AFFINITY PREDICTED BY RF-SCORE:    0.00 PKD
ROOT
HETATM    1  C   UNL     1      -6.331   8.349  66.099  1.00  0.00    -0.050 C  
HETATM    2  C   UNL     1      -6.328   7.618  67.445  1.00  0.00    -0.054 C  
HETATM    3  C   UNL     1      -7.425   6.507  67.638  1.00  0.00    -0.097 C  
HETATM    4  C   UNL     1     -10.242  13.001  65.387  1.00  0.00    -0.301 A  
HETATM    5  C   UNL     1      -6.878   5.388  66.759  1.00  0.00    -0.063 C  
HETATM    6  C   UNL     1     -10.474  14.381  65.576  1.00  0.00    -0.366 A  
HETATM    7  C   UNL     1     -11.496  15.020  64.854  1.00  0.00    -0.399 A  
HETATM    8  C   UNL     1      -7.022   5.943  65.284  1.00  0.00    -0.063 C  
HETATM    9  C   UNL     1     -12.270  14.297  63.962  1.00  0.00    -0.336 A  
HETATM   10  C   UNL     1     -12.048  12.923  63.747  1.00  0.00    -0.583 A  
HETATM   11  H   UNL     1     -10.949  10.237  63.879  1.00  0.00     0.000 HD 
HETATM   12  C   UNL     1      -7.208   7.591  65.081  1.00  0.00    -0.066 C  
HETATM   13  C   UNL     1     -11.018  12.296  64.477  1.00  0.00    -0.315 A  
HETATM   14  N   UNL     1     -10.587  10.973  64.485  1.00  0.00    -0.339 NA 
HETATM   15  C   UNL     1      -9.602  10.804  65.429  1.00  0.00    -0.223 A  
HETATM   16  C   UNL     1      -9.376  12.056  65.990  1.00  0.00    -0.196 A  
HETATM   17  C   UNL     1      -8.557   8.425  64.853  1.00  0.00    -0.108 C  
HETATM   18  C   UNL     1      -8.452  12.244  67.135  1.00  0.00    -0.184 C  
HETATM   19  C   UNL     1      -9.032   9.480  65.947  1.00  0.00    -0.173 C  
HETATM   20  C   UNL     1      -8.320  10.901  67.866  1.00  0.00    -0.119 C  
HETATM   21  C   UNL     1      -6.695   9.803  66.401  1.00  0.00    -0.080 C  
HETATM   22  N   UNL     1      -8.021   9.762  66.979  1.00  0.00    -0.105 NA 
ENDROOT
BRANCH   3  23
HETATM   23  O   UNL     1      -8.822   6.759  67.216  1.00  0.00    -0.117 OA 
BRANCH  23  24
HETATM   24  C   UNL     1      -9.768   6.132  67.991  1.00  0.00    -0.120 C  
HETATM   25  O   UNL     1     -10.052   4.944  67.866  1.00  0.00    -0.144 OA 
BRANCH  24  26
HETATM   26  C   UNL     1     -10.549   6.925  69.000  1.00  0.00    -0.240 A  
HETATM   27  C   UNL     1     -11.594   8.160  71.335  1.00  0.00    -0.278 A  
HETATM   28  C   UNL     1     -10.515   8.305  69.146  1.00  0.00    -0.217 A  
HETATM   29  C   UNL     1     -11.249   6.185  69.964  1.00  0.00    -0.471 A  
HETATM   30  C   UNL     1     -11.735   6.774  71.138  1.00  0.00    -0.345 A  
HETATM   31  C   UNL     1     -11.002   8.929  70.314  1.00  0.00    -0.241 A  
BRANCH  30  32
HETATM   32  O   UNL     1     -12.314   6.040  72.150  1.00  0.00    -0.254 OA 
HETATM   33  C   UNL     1     -11.406   5.332  72.994  1.00  0.00    -0.309 C  
ENDBRANCH  30  32
BRANCH  27  34
HETATM   34  O   UNL     1     -12.077   8.655  72.523  1.00  0.00    -0.374 OA 
HETATM   35  C   UNL     1     -13.402   9.181  72.505  1.00  0.00    -0.417 C  
ENDBRANCH  27  34
BRANCH  31  36
HETATM   36  O   UNL     1     -10.927  10.289  70.485  1.00  0.00    -0.307 OA 
HETATM   37  C   UNL     1     -11.874  11.060  69.750  1.00  0.00    -0.347 C  
ENDBRANCH  31  36
ENDBRANCH  24  26
ENDBRANCH  23  24
ENDBRANCH   3  23
BRANCH   5  38
HETATM   38  O   UNL     1      -5.520   5.144  67.177  1.00  0.00    -0.011 OA 
HETATM   39  C   UNL     1      -5.272   4.120  68.120  1.00  0.00    -0.008 C  
ENDBRANCH   5  38
BRANCH   8  40
HETATM   40  C   UNL     1      -8.004   5.025  64.583  1.00  0.00    -0.102 C  
HETATM   41  O   UNL     1      -8.584   5.292  63.542  1.00  0.00    -0.125 OA 
BRANCH  40  42
HETATM   42  O   UNL     1      -8.217   3.899  65.318  1.00  0.00    -0.100 OA 
HETATM   43  C   UNL     1      -9.286   3.009  64.971  1.00  0.00    -0.142 C  
ENDBRANCH  40  42
ENDBRANCH   8  40
TORSDOF 9
ENDMDL
MODEL       20
REMARK 921   NORMALIZED FREE ENERGY PREDICTED BY IDOCK:   -5.40 KCAL/MOL
REMARK 922        TOTAL FREE ENERGY PREDICTED BY IDOCK:  -10.87 KCAL/MOL
REMARK 923 INTER-LIGAND FREE ENERGY PREDICTED BY IDOCK:   -8.52 KCAL/MOL
REMARK 924 INTRA-LIGAND FREE ENERGY PREDICTED BY IDOCK:   -2.36 KCAL/MOL
REMARK 927      BINDING AFFINITY PREDICTED BY RF-SCORE:    0.00 PKD
ROOT
HETATM    1  C   UNL     1     -11.061   9.197  71.471  1.00  0.00    -0.436 C  
HETATM    2  C   UNL     1     -11.876   8.058  70.851  1.00  0.00    -0.236 C  
HETATM    3  C   UNL     1     -11.074   7.009  69.998  1.00  0.00    -0.278 C  
HETATM    4  C   UNL     1      -9.764  14.027  67.944  1.00  0.00    -0.229 A  
HETATM    5  C   UNL     1     -10.355   6.221  71.088  1.00  0.00    -0.209 C  
HETATM    6  C   UNL     1     -10.204  15.274  67.450  1.00  0.00    -0.243 A  
HETATM    7  C   UNL     1      -9.275  16.172  66.901  1.00  0.00    -0.246 A  
HETATM    8  C   UNL     1      -9.307   7.245  71.686  1.00  0.00    -0.160 C  
HETATM    9  C   UNL     1      -7.933  15.834  66.846  1.00  0.00    -0.285 A  
HETATM   10  C   UNL     1      -7.469  14.602  67.345  1.00  0.00    -0.212 A  
HETATM   11  H   UNL     1      -7.356  11.970  68.571  1.00  0.00     0.000 HD 
HETATM   12  C   UNL     1      -9.554   8.874  71.404  1.00  0.00    -0.359 C  
HETATM   13  C   UNL     1      -8.413  13.710  67.894  1.00  0.00    -0.177 A  
HETATM   14  N   UNL     1      -8.252  12.440  68.437  1.00  0.00    -0.163 NA 
HETATM   15  C   UNL     1      -9.478  11.910  68.768  1.00  0.00     0.009 A  
HETATM   16  C   UNL     1     -10.420  12.887  68.471  1.00  0.00    -0.260 A  
HETATM   17  C   UNL     1      -8.883   9.809  70.289  1.00  0.00    -0.188 C  
HETATM   18  C   UNL     1     -11.877  12.630  68.591  1.00  0.00    -0.342 C  
HETATM   19  C   UNL     1      -9.787  10.460  69.152  1.00  0.00    -0.223 C  
HETATM   20  C   UNL     1     -12.101  11.115  68.500  1.00  0.00    -0.058 C  
HETATM   21  C   UNL     1     -11.538  10.484  70.797  1.00  0.00    -0.338 C  
HETATM   22  N   UNL     1     -11.233  10.324  69.391  1.00  0.00    -0.240 NA 
ENDROOT
BRANCH   3  23
HETATM   23  O   UNL     1     -10.047   7.464  69.032  1.00  0.00    -0.182 OA 
BRANCH  23  24
HETATM   24  C   UNL     1     -10.382   7.261  67.715  1.00  0.00    -0.209 C  
HETATM   25  O   UNL     1     -11.230   6.448  67.359  1.00  0.00    -0.352 OA 
BRANCH  24  26
HETATM   26  C   UNL     1      -9.649   8.008  66.637  1.00  0.00    -0.297 A  
HETATM   27  C   UNL     1      -8.455   8.910  64.222  1.00  0.00    -0.149 A  
HETATM   28  C   UNL     1     -10.077   9.181  66.031  1.00  0.00    -0.204 A  
HETATM   29  C   UNL     1      -8.515   7.376  66.104  1.00  0.00    -0.147 A  
HETATM   30  C   UNL     1      -7.940   7.786  64.895  1.00  0.00    -0.139 A  
HETATM   31  C   UNL     1      -9.515   9.624  64.816  1.00  0.00    -0.188 A  
BRANCH  30  32
HETATM   32  O   UNL     1      -6.906   7.101  64.296  1.00  0.00    -0.045 OA 
HETATM   33  C   UNL     1      -5.704   7.011  65.060  1.00  0.00    -0.032 C  
ENDBRANCH  30  32
BRANCH  27  34
HETATM   34  O   UNL     1      -7.849   9.232  63.031  1.00  0.00    -0.124 OA 
HETATM   35  C   UNL     1      -6.895  10.292  63.064  1.00  0.00    -0.125 C  
ENDBRANCH  27  34
BRANCH  31  36
HETATM   36  O   UNL     1      -9.967  10.758  64.186  1.00  0.00    -0.292 OA 
HETATM   37  C   UNL     1      -9.916  11.956  64.955  1.00  0.00    -0.241 C  
ENDBRANCH  31  36
ENDBRANCH  24  26
ENDBRANCH  23  24
ENDBRANCH   3  23
BRANCH   5  38
HETATM   38  O   UNL     1     -11.359   5.777  72.023  1.00  0.00    -0.271 OA 
HETATM   39  C   UNL     1     -10.952   5.375  73.316  1.00  0.00    -0.307 C  
ENDBRANCH   5  38
BRANCH   8  40
HETATM   40  C   UNL     1      -7.937   6.670  71.383  1.00  0.00    -0.107 C  
HETATM   41  O   UNL     1      -6.881   7.172  71.731  1.00  0.00    -0.058 OA 
BRANCH  40  42
HETATM   42  O   UNL     1      -8.045   5.566  70.595  1.00  0.00    -0.109 OA 
HETATM   43  C   UNL     1      -7.206   5.427  69.439  1.00  0.00    -0.065 C  
ENDBRANCH  40  42
ENDBRANCH   8  40
TORSDOF 9
ENDMDL
MODEL       21
REMARK 921   NORMALIZED FREE ENERGY PREDICTED BY IDOCK:   -5.36 KCAL/MOL
REMARK 922        TOTAL FREE ENERGY PREDICTED BY IDOCK:  -10.82 KCAL/MOL
REMARK 923 INTER-LIGAND FREE ENERGY PREDICTED BY IDOCK:   -8.79 KCAL/MOL
REMARK 924 INTRA-LIGAND FREE ENERGY PREDICTED BY IDOCK:   -2.02 KCAL/MOL
REMARK 927      BINDING AFFINITY PREDICTED BY RF-SCORE:    0.00 PKD
ROOT
HETATM    1  C   UNL     1     -10.078   6.760  68.455  1.00  0.00    -0.166 C  
HETATM    2  C   UNL     1      -8.621   6.427  68.789  1.00  0.00    -0.123 C  
HETATM    3  C   UNL     1      -7.986   7.206  69.998  1.00  0.00    -0.118 C  
HETATM    4  C   UNL     1     -11.161  11.696  65.004  1.00  0.00    -0.275 A  
HETATM    5  C   UNL     1      -8.662   6.525  71.183  1.00  0.00    -0.138 C  
HETATM    6  C   UNL     1     -11.261  12.216  63.695  1.00  0.00    -0.540 A  
HETATM    7  C   UNL     1     -11.922  13.437  63.481  1.00  0.00    -0.467 A  
HETATM    8  C   UNL     1     -10.177   6.969  71.078  1.00  0.00    -0.209 C  
HETATM    9  C   UNL     1     -12.472  14.124  64.550  1.00  0.00    -0.350 A  
HETATM   10  C   UNL     1     -12.397  13.618  65.861  1.00  0.00    -0.516 A  
HETATM   11  H   UNL     1     -11.837  11.921  68.152  1.00  0.00     0.000 HD 
HETATM   12  C   UNL     1     -10.723   7.553  69.610  1.00  0.00    -0.236 C  
HETATM   13  C   UNL     1     -11.731  12.391  66.062  1.00  0.00    -0.410 A  
HETATM   14  N   UNL     1     -11.492  11.669  67.226  1.00  0.00    -0.466 NA 
HETATM   15  C   UNL     1     -10.720  10.565  66.945  1.00  0.00    -0.219 A  
HETATM   16  C   UNL     1     -10.515  10.570  65.571  1.00  0.00    -0.220 A  
HETATM   17  C   UNL     1     -10.900   9.076  69.143  1.00  0.00    -0.110 C  
HETATM   18  C   UNL     1      -9.624   9.583  64.910  1.00  0.00    -0.158 C  
HETATM   19  C   UNL     1     -10.016   9.647  67.949  1.00  0.00    -0.166 C  
HETATM   20  C   UNL     1      -8.635   9.058  65.960  1.00  0.00    -0.142 C  
HETATM   21  C   UNL     1     -10.065   7.411  67.071  1.00  0.00    -0.258 C  
HETATM   22  N   UNL     1      -9.271   8.613  67.214  1.00  0.00    -0.138 NA 
ENDROOT
BRANCH   3  23
HETATM   23  O   UNL     1      -8.205   8.664  70.142  1.00  0.00    -0.111 OA 
BRANCH  23  24
HETATM   24  C   UNL     1      -7.150   9.341  70.706  1.00  0.00    -0.117 C  
HETATM   25  O   UNL     1      -6.730   9.101  71.835  1.00  0.00    -0.268 OA 
BRANCH  24  26
HETATM   26  C   UNL     1      -6.504  10.471  69.956  1.00  0.00    -0.135 A  
HETATM   27  C   UNL     1      -5.901  12.714  68.321  1.00  0.00    -0.069 A  
HETATM   28  C   UNL     1      -6.028  11.647  70.517  1.00  0.00    -0.078 A  
HETATM   29  C   UNL     1      -6.528  10.380  68.556  1.00  0.00    -0.051 A  
HETATM   30  C   UNL     1      -6.270  11.488  67.739  1.00  0.00    -0.052 A  
HETATM   31  C   UNL     1      -5.754  12.779  69.721  1.00  0.00    -0.110 A  
BRANCH  30  32
HETATM   32  O   UNL     1      -6.411  11.447  66.369  1.00  0.00    -0.116 OA 
HETATM   33  C   UNL     1      -5.304  10.902  65.653  1.00  0.00    -0.138 C  
ENDBRANCH  30  32
BRANCH  27  34
HETATM   34  O   UNL     1      -5.688  13.758  67.451  1.00  0.00    -0.354 OA 
HETATM   35  C   UNL     1      -6.685  14.777  67.418  1.00  0.00    -0.029 C  
ENDBRANCH  27  34
BRANCH  31  36
HETATM   36  O   UNL     1      -5.329  13.961  70.276  1.00  0.00    -0.097 OA 
HETATM   37  C   UNL     1      -5.588  14.122  71.668  1.00  0.00    -0.217 C  
ENDBRANCH  31  36
ENDBRANCH  24  26
ENDBRANCH  23  24
ENDBRANCH   3  23
BRANCH   5  38
HETATM   38  O   UNL     1      -8.442   5.107  71.040  1.00  0.00    -0.116 OA 
HETATM   39  C   UNL     1      -9.262   4.216  71.770  1.00  0.00    -0.127 C  
ENDBRANCH   5  38
BRANCH   8  40
HETATM   40  C   UNL     1     -10.463   7.789  72.320  1.00  0.00    -0.246 C  
HETATM   41  O   UNL     1      -9.620   8.393  72.964  1.00  0.00    -0.246 OA 
BRANCH  40  42
HETATM   42  O   UNL     1     -11.775   7.686  72.671  1.00  0.00    -0.322 OA 
HETATM   43  C   UNL     1     -12.666   8.786  72.440  1.00  0.00    -0.368 C  
ENDBRANCH  40  42
ENDBRANCH   8  40
TORSDOF 9
ENDMDL
MODEL       22
REMARK 921   NORMALIZED FREE ENERGY PREDICTED BY IDOCK:   -5.32 KCAL/MOL
REMARK 922        TOTAL FREE ENERGY PREDICTED BY IDOCK:  -10.75 KCAL/MOL
REMARK 923 INTER-LIGAND FREE ENERGY PREDICTED BY IDOCK:   -8.70 KCAL/MOL
REMARK 924 INTRA-LIGAND FREE ENERGY PREDICTED BY IDOCK:   -2.05 KCAL/MOL
REMARK 927      BINDING AFFINITY PREDICTED BY RF-SCORE:    0.00 PKD
ROOT
HETATM    1  C   UNL     1     -10.034  15.079  65.678  1.00  0.00    -0.387 C  
HETATM    2  C   UNL     1     -11.393  15.254  66.363  1.00  0.00    -0.161 C  
HETATM    3  C   UNL     1     -11.462  14.866  67.885  1.00  0.00    -0.340 C  
HETATM    4  C   UNL     1      -8.557   9.496  63.654  1.00  0.00    -0.222 A  
HETATM    5  C   UNL     1     -10.720  16.033  68.528  1.00  0.00    -0.287 C  
HETATM    6  C   UNL     1      -8.655   8.565  62.597  1.00  0.00    -0.078 A  
HETATM    7  C   UNL     1      -7.763   7.482  62.540  1.00  0.00    -0.120 A  
HETATM    8  C   UNL     1      -9.219  15.848  68.061  1.00  0.00    -0.192 C  
HETATM    9  C   UNL     1      -6.793   7.331  63.517  1.00  0.00    -0.053 A  
HETATM   10  C   UNL     1      -6.668   8.254  64.573  1.00  0.00    -0.068 A  
HETATM   11  H   UNL     1      -7.070  10.538  66.323  1.00  0.00     0.000 HD 
HETATM   12  C   UNL     1      -8.926  14.878  66.732  1.00  0.00    -0.295 C  
HETATM   13  C   UNL     1      -7.570   9.337  64.617  1.00  0.00    -0.106 A  
HETATM   14  N   UNL     1      -7.694  10.377  65.532  1.00  0.00    -0.149 NA 
HETATM   15  C   UNL     1      -8.783  11.156  65.215  1.00  0.00    -0.026 A  
HETATM   16  C   UNL     1      -9.321  10.622  64.050  1.00  0.00    -0.303 A  
HETATM   17  C   UNL     1      -8.464  13.343  66.696  1.00  0.00     0.137 C  
HETATM   18  C   UNL     1     -10.584  11.136  63.466  1.00  0.00    -0.393 C  
HETATM   19  C   UNL     1      -9.432  12.239  66.082  1.00  0.00    -0.217 C  
HETATM   20  C   UNL     1     -11.379  11.826  64.583  1.00  0.00    -0.256 C  
HETATM   21  C   UNL     1     -10.220  13.982  64.629  1.00  0.00    -0.210 C  
HETATM   22  N   UNL     1     -10.593  12.795  65.369  1.00  0.00    -0.281 NA 
ENDROOT
BRANCH   3  23
HETATM   23  O   UNL     1     -10.824  13.619  68.366  1.00  0.00    -0.241 OA 
BRANCH  23  24
HETATM   24  C   UNL     1     -11.585  12.903  69.259  1.00  0.00    -0.310 C  
HETATM   25  O   UNL     1     -12.529  13.391  69.873  1.00  0.00    -0.222 OA 
BRANCH  24  26
HETATM   26  C   UNL     1     -11.228  11.476  69.564  1.00  0.00    -0.305 A  
HETATM   27  C   UNL     1     -11.199   8.673  70.024  1.00  0.00    -0.094 A  
HETATM   28  C   UNL     1     -10.493  10.632  68.743  1.00  0.00    -0.215 A  
HETATM   29  C   UNL     1     -11.822  10.918  70.707  1.00  0.00    -0.424 A  
HETATM   30  C   UNL     1     -11.849   9.535  70.925  1.00  0.00    -0.309 A  
HETATM   31  C   UNL     1     -10.495   9.236  68.941  1.00  0.00    -0.215 A  
BRANCH  30  32
HETATM   32  O   UNL     1     -12.534   8.965  71.975  1.00  0.00    -0.342 OA 
HETATM   33  C   UNL     1     -13.848   9.475  72.203  1.00  0.00    -0.303 C  
ENDBRANCH  30  32
BRANCH  27  34
HETATM   34  O   UNL     1     -11.292   7.328  70.298  1.00  0.00    -0.273 OA 
HETATM   35  C   UNL     1     -10.209   6.746  71.020  1.00  0.00    -0.197 C  
ENDBRANCH  27  34
BRANCH  31  36
HETATM   36  O   UNL     1      -9.808   8.392  68.103  1.00  0.00    -0.158 OA 
HETATM   37  C   UNL     1     -10.468   8.052  66.887  1.00  0.00    -0.317 C  
ENDBRANCH  31  36
ENDBRANCH  24  26
ENDBRANCH  23  24
ENDBRANCH   3  23
BRANCH   5  38
HETATM   38  O   UNL     1     -11.347  17.245  68.061  1.00  0.00    -0.067 OA 
HETATM   39  C   UNL     1     -10.538  18.377  67.813  1.00  0.00    -0.391 C  
ENDBRANCH   5  38
BRANCH   8  40
HETATM   40  C   UNL     1      -8.415  15.592  69.320  1.00  0.00    -0.265 C  
HETATM   41  O   UNL     1      -8.852  15.062  70.329  1.00  0.00     0.385 OA 
BRANCH  40  42
HETATM   42  O   UNL     1      -7.164  16.115  69.203  1.00  0.00    -0.189 OA 
HETATM   43  C   UNL     1      -6.993  17.483  68.806  1.00  0.00    -0.237 C  
ENDBRANCH  40  42
ENDBRANCH   8  40
TORSDOF 9
ENDMDL
MODEL       23
REMARK 921   NORMALIZED FREE ENERGY PREDICTED BY IDOCK:   -5.26 KCAL/MOL
REMARK 922        TOTAL FREE ENERGY PREDICTED BY IDOCK:  -10.66 KCAL/MOL
REMARK 923 INTER-LIGAND FREE ENERGY PREDICTED BY IDOCK:   -9.22 KCAL/MOL
REMARK 924 INTRA-LIGAND FREE ENERGY PREDICTED BY IDOCK:   -1.43 KCAL/MOL
REMARK 927      BINDING AFFINITY PREDICTED BY RF-SCORE:    0.00 PKD
ROOT
HETATM    1  C   UNL     1     -11.948  11.788  69.078  1.00  0.00    -0.341 C  
HETATM    2  C   UNL     1     -10.960  12.884  69.489  1.00  0.00     0.048 C  
HETATM    3  C   UNL     1     -10.002  13.418  68.362  1.00  0.00    -0.231 C  
HETATM    4  C   UNL     1      -9.920   6.015  68.963  1.00  0.00    -0.199 A  
HETATM    5  C   UNL     1     -10.960  14.262  67.528  1.00  0.00    -0.289 C  
HETATM    6  C   UNL     1      -9.685   4.837  69.705  1.00  0.00    -0.272 A  
HETATM    7  C   UNL     1      -9.509   3.615  69.033  1.00  0.00    -0.226 A  
HETATM    8  C   UNL     1     -11.932  13.207  66.861  1.00  0.00    -0.421 C  
HETATM    9  C   UNL     1      -9.568   3.571  67.650  1.00  0.00    -0.180 A  
HETATM   10  C   UNL     1      -9.814   4.730  66.891  1.00  0.00    -0.225 A  
HETATM   11  H   UNL     1     -10.369   7.476  66.121  1.00  0.00     0.000 HD 
HETATM   12  C   UNL     1     -12.021  11.683  67.541  1.00  0.00    -0.044 C  
HETATM   13  C   UNL     1      -9.989   5.949  67.578  1.00  0.00    -0.143 A  
HETATM   14  N   UNL     1     -10.226   7.233  67.101  1.00  0.00    -0.239 NA 
HETATM   15  C   UNL     1     -10.239   8.129  68.145  1.00  0.00    -0.209 A  
HETATM   16  C   UNL     1     -10.056   7.383  69.304  1.00  0.00    -0.186 A  
HETATM   17  C   UNL     1     -11.274  10.340  67.087  1.00  0.00    -0.022 C  
HETATM   18  C   UNL     1      -9.899   8.028  70.631  1.00  0.00    -0.192 C  
HETATM   19  C   UNL     1     -10.211   9.658  68.055  1.00  0.00    -0.194 C  
HETATM   20  C   UNL     1      -9.412   9.466  70.408  1.00  0.00    -0.268 C  
HETATM   21  C   UNL     1     -11.544  10.532  69.853  1.00  0.00    -0.307 C  
HETATM   22  N   UNL     1     -10.200  10.219  69.415  1.00  0.00    -0.223 NA 
ENDROOT
BRANCH   3  23
HETATM   23  O   UNL     1      -9.333  12.470  67.442  1.00  0.00    -0.177 OA 
BRANCH  23  24
HETATM   24  C   UNL     1      -7.965  12.594  67.399  1.00  0.00    -0.177 C  
HETATM   25  O   UNL     1      -7.232  11.733  66.923  1.00  0.00    -0.144 OA 
BRANCH  24  26
HETATM   26  C   UNL     1      -7.307  13.798  68.012  1.00  0.00    -0.134 A  
HETATM   27  C   UNL     1      -6.688  16.264  69.278  1.00  0.00    -0.203 A  
HETATM   28  C   UNL     1      -6.628  13.821  69.222  1.00  0.00    -0.113 A  
HETATM   29  C   UNL     1      -7.534  15.024  67.369  1.00  0.00    -0.234 A  
HETATM   30  C   UNL     1      -7.270  16.248  67.998  1.00  0.00    -0.132 A  
HETATM   31  C   UNL     1      -6.342  15.037  69.877  1.00  0.00    -0.162 A  
BRANCH  30  32
HETATM   32  O   UNL     1      -7.603  17.458  67.430  1.00  0.00    -0.184 OA 
HETATM   33  C   UNL     1      -7.858  17.431  66.026  1.00  0.00    -0.183 C  
ENDBRANCH  30  32
BRANCH  27  34
HETATM   34  O   UNL     1      -6.482  17.505  69.834  1.00  0.00    -0.150 OA 
HETATM   35  C   UNL     1      -5.167  18.045  69.725  1.00  0.00    -0.204 C  
ENDBRANCH  27  34
BRANCH  31  36
HETATM   36  O   UNL     1      -5.714  15.064  71.098  1.00  0.00    -0.080 OA 
HETATM   37  C   UNL     1      -5.358  13.796  71.641  1.00  0.00    -0.212 C  
ENDBRANCH  31  36
ENDBRANCH  24  26
ENDBRANCH  23  24
ENDBRANCH   3  23
BRANCH   5  38
HETATM   38  O   UNL     1     -11.606  15.186  68.428  1.00  0.00    -0.318 OA 
HETATM   39  C   UNL     1     -11.359  16.570  68.273  1.00  0.00    -0.180 C  
ENDBRANCH   5  38
BRANCH   8  40
HETATM   40  C   UNL     1     -11.700  13.307  65.366  1.00  0.00    -0.343 C  
HETATM   41  O   UNL     1     -10.817  13.967  64.842  1.00  0.00    -0.364 OA 
BRANCH  40  42
HETATM   42  O   UNL     1     -12.665  12.630  64.685  1.00  0.00    -0.643 OA 
HETATM   43  C   UNL     1     -12.355  12.017  63.425  1.00  0.00    -0.523 C  
ENDBRANCH  40  42
ENDBRANCH   8  40
TORSDOF 9
ENDMDL
MODEL       24
REMARK 921   NORMALIZED FREE ENERGY PREDICTED BY IDOCK:   -5.24 KCAL/MOL
REMARK 922        TOTAL FREE ENERGY PREDICTED BY IDOCK:  -10.62 KCAL/MOL
REMARK 923 INTER-LIGAND FREE ENERGY PREDICTED BY IDOCK:   -9.98 KCAL/MOL
REMARK 924 INTRA-LIGAND FREE ENERGY PREDICTED BY IDOCK:   -0.65 KCAL/MOL
REMARK 927      BINDING AFFINITY PREDICTED BY RF-SCORE:    0.00 PKD
ROOT
HETATM    1  C   UNL     1      -6.980  12.156  67.336  1.00  0.00    -0.146 C  
HETATM    2  C   UNL     1      -7.167  11.316  68.602  1.00  0.00    -0.098 C  
HETATM    3  C   UNL     1      -8.589  10.679  68.814  1.00  0.00    -0.150 C  
HETATM    4  C   UNL     1      -8.852  17.981  67.475  1.00  0.00    -0.252 A  
HETATM    5  C   UNL     1      -8.573   9.556  67.784  1.00  0.00    -0.115 C  
HETATM    6  C   UNL     1      -8.525  19.313  67.811  1.00  0.00    -0.340 A  
HETATM    7  C   UNL     1      -9.271  20.371  67.266  1.00  0.00    -0.525 A  
HETATM    8  C   UNL     1      -8.593  10.303  66.389  1.00  0.00    -0.138 C  
HETATM    9  C   UNL     1     -10.320  20.105  66.402  1.00  0.00    -0.510 A  
HETATM   10  C   UNL     1     -10.656  18.786  66.042  1.00  0.00    -0.442 A  
HETATM   11  H   UNL     1     -10.663  15.890  65.812  1.00  0.00     0.000 HD 
HETATM   12  C   UNL     1      -8.146  11.913  66.356  1.00  0.00     0.091 C  
HETATM   13  C   UNL     1      -9.898  17.734  66.596  1.00  0.00    -0.322 A  
HETATM   14  N   UNL     1     -10.007  16.357  66.438  1.00  0.00    -0.286 NA 
HETATM   15  C   UNL     1      -9.100  15.716  67.250  1.00  0.00    -0.205 A  
HETATM   16  C   UNL     1      -8.376  16.714  67.893  1.00  0.00    -0.187 A  
HETATM   17  C   UNL     1      -9.086  13.212  66.352  1.00  0.00    -0.069 C  
HETATM   18  C   UNL     1      -7.375  16.400  68.942  1.00  0.00    -0.214 C  
HETATM   19  C   UNL     1      -9.046  14.222  67.581  1.00  0.00    -0.192 C  
HETATM   20  C   UNL     1      -7.718  15.025  69.531  1.00  0.00    -0.168 C  
HETATM   21  C   UNL     1      -6.739  13.592  67.804  1.00  0.00    -0.168 C  
HETATM   22  N   UNL     1      -7.938  13.976  68.518  1.00  0.00    -0.140 NA 
ENDROOT
BRANCH   3  23
HETATM   23  O   UNL     1      -9.808  11.484  68.571  1.00  0.00    -0.192 OA 
BRANCH  23  24
HETATM   24  C   UNL     1     -10.965  10.916  69.051  1.00  0.00    -0.235 C  
HETATM   25  O   UNL     1     -12.051  11.040  68.492  1.00  0.00    -0.573 OA 
BRANCH  24  26
HETATM   26  C   UNL     1     -10.940  10.160  70.349  1.00  0.00    -0.386 A  
HETATM   27  C   UNL     1     -11.219   8.269  72.451  1.00  0.00    -0.381 A  
HETATM   28  C   UNL     1      -9.823   9.564  70.917  1.00  0.00    -0.279 A  
HETATM   29  C   UNL     1     -12.185   9.915  70.949  1.00  0.00    -0.420 A  
HETATM   30  C   UNL     1     -12.343   8.958  71.959  1.00  0.00    -0.390 A  
HETATM   31  C   UNL     1      -9.948   8.600  71.940  1.00  0.00    -0.322 A  
BRANCH  30  32
HETATM   32  O   UNL     1     -13.576   8.617  72.470  1.00  0.00    -0.359 OA 
HETATM   33  C   UNL     1     -14.361   7.747  71.654  1.00  0.00    -0.481 C  
ENDBRANCH  30  32
BRANCH  27  34
HETATM   34  O   UNL     1     -11.463   7.331  73.426  1.00  0.00    -0.057 OA 
HETATM   35  C   UNL     1     -11.405   5.963  73.026  1.00  0.00    -0.170 C  
ENDBRANCH  27  34
BRANCH  31  36
HETATM   36  O   UNL     1      -8.849   7.972  72.472  1.00  0.00    -0.140 OA 
HETATM   37  C   UNL     1      -7.758   7.767  71.580  1.00  0.00    -0.086 C  
ENDBRANCH  31  36
ENDBRANCH  24  26
ENDBRANCH  23  24
ENDBRANCH   3  23
BRANCH   5  38
HETATM   38  O   UNL     1      -7.386   8.773  68.027  1.00  0.00    -0.086 OA 
HETATM   39  C   UNL     1      -7.377   7.414  67.637  1.00  0.00    -0.092 C  
ENDBRANCH   5  38
BRANCH   8  40
HETATM   40  C   UNL     1      -9.895   9.912  65.720  1.00  0.00    -0.287 C  
HETATM   41  O   UNL     1     -10.689   9.099  66.166  1.00  0.00     0.130 OA 
BRANCH  40  42
HETATM   42  O   UNL     1     -10.016  10.525  64.511  1.00  0.00    -0.314 OA 
HETATM   43  C   UNL     1      -9.268  10.044  63.386  1.00  0.00    -0.281 C  
ENDBRANCH  40  42
ENDBRANCH   8  40
TORSDOF 9
ENDMDL
MODEL       25
REMARK 921   NORMALIZED FREE ENERGY PREDICTED BY IDOCK:   -5.23 KCAL/MOL
REMARK 922        TOTAL FREE ENERGY PREDICTED BY IDOCK:  -10.62 KCAL/MOL
REMARK 923 INTER-LIGAND FREE ENERGY PREDICTED BY IDOCK:   -8.79 KCAL/MOL
REMARK 924 INTRA-LIGAND FREE ENERGY PREDICTED BY IDOCK:   -1.83 KCAL/MOL
REMARK 927      BINDING AFFINITY PREDICTED BY RF-SCORE:    0.00 PKD
ROOT
HETATM    1  C   UNL     1     -11.649  11.505  66.794  1.00  0.00    -0.133 C  
HETATM    2  C   UNL     1     -10.666  10.599  66.046  1.00  0.00    -0.127 C  
HETATM    3  C   UNL     1      -9.372  10.174  66.832  1.00  0.00    -0.158 C  
HETATM    4  C   UNL     1     -10.503  17.516  66.859  1.00  0.00    -0.285 A  
HETATM    5  C   UNL     1      -9.937   9.154  67.813  1.00  0.00    -0.189 C  
HETATM    6  C   UNL     1     -10.648  18.748  66.185  1.00  0.00    -0.435 A  
HETATM    7  C   UNL     1     -10.470  19.951  66.887  1.00  0.00    -0.577 A  
HETATM    8  C   UNL     1     -10.829  10.011  68.800  1.00  0.00    -0.252 C  
HETATM    9  C   UNL     1     -10.154  19.925  68.236  1.00  0.00    -0.571 A  
HETATM   10  C   UNL     1     -10.018  18.709  68.932  1.00  0.00    -0.399 A  
HETATM   11  H   UNL     1      -9.949  15.880  69.586  1.00  0.00     0.000 HD 
HETATM   12  C   UNL     1     -11.314  11.529  68.299  1.00  0.00    -0.352 C  
HETATM   13  C   UNL     1     -10.200  17.510  68.214  1.00  0.00    -0.365 A  
HETATM   14  N   UNL     1     -10.114  16.184  68.626  1.00  0.00    -0.223 NA 
HETATM   15  C   UNL     1     -10.285  15.344  67.550  1.00  0.00    -0.244 A  
HETATM   16  C   UNL     1     -10.532  16.159  66.452  1.00  0.00    -0.304 A  
HETATM   17  C   UNL     1     -10.669  12.953  68.653  1.00  0.00    -0.273 C  
HETATM   18  C   UNL     1     -10.654  15.606  65.080  1.00  0.00    -0.449 C  
HETATM   19  C   UNL     1     -10.018  13.837  67.500  1.00  0.00    -0.233 C  
HETATM   20  C   UNL     1      -9.926  14.256  65.045  1.00  0.00    -0.173 C  
HETATM   21  C   UNL     1     -11.653  12.841  66.049  1.00  0.00    -0.383 C  
HETATM   22  N   UNL     1     -10.299  13.344  66.142  1.00  0.00    -0.289 NA 
ENDROOT
BRANCH   3  23
HETATM   23  O   UNL     1      -8.618  11.175  67.621  1.00  0.00    -0.124 OA 
BRANCH  23  24
HETATM   24  C   UNL     1      -7.254  11.109  67.463  1.00  0.00    -0.101 C  
HETATM   25  O   UNL     1      -6.609  11.968  66.868  1.00  0.00    -0.134 OA 
BRANCH  24  26
HETATM   26  C   UNL     1      -6.502   9.914  67.975  1.00  0.00    -0.056 A  
HETATM   27  C   UNL     1      -5.573   7.631  69.387  1.00  0.00    -0.023 A  
HETATM   28  C   UNL     1      -6.422   8.678  67.348  1.00  0.00    -0.058 A  
HETATM   29  C   UNL     1      -5.967  10.024  69.268  1.00  0.00    -0.037 A  
HETATM   30  C   UNL     1      -5.542   8.902  69.990  1.00  0.00    -0.028 A  
HETATM   31  C   UNL     1      -5.993   7.530  68.046  1.00  0.00    -0.035 A  
BRANCH  30  32
HETATM   32  O   UNL     1      -5.132   8.978  71.302  1.00  0.00    -0.028 OA 
HETATM   33  C   UNL     1      -6.153   9.293  72.249  1.00  0.00     0.102 C  
ENDBRANCH  30  32
BRANCH  27  34
HETATM   34  O   UNL     1      -5.161   6.579  70.171  1.00  0.00    -0.013 OA 
HETATM   35  C   UNL     1      -6.184   5.802  70.791  1.00  0.00    -0.031 C  
ENDBRANCH  27  34
BRANCH  31  36
HETATM   36  O   UNL     1      -5.957   6.296  67.445  1.00  0.00    -0.016 OA 
HETATM   37  C   UNL     1      -7.184   5.848  66.874  1.00  0.00    -0.071 C  
ENDBRANCH  31  36
ENDBRANCH  24  26
ENDBRANCH  23  24
ENDBRANCH   3  23
BRANCH   5  38
HETATM   38  O   UNL     1     -10.666   8.179  67.041  1.00  0.00    -0.321 OA 
HETATM   39  C   UNL     1     -10.763   6.857  67.532  1.00  0.00    -0.298 C  
ENDBRANCH   5  38
BRANCH   8  40
HETATM   40  C   UNL     1     -10.186   9.884  70.167  1.00  0.00    -0.273 C  
HETATM   41  O   UNL     1      -9.086   9.398  70.376  1.00  0.00    -0.223 OA 
BRANCH  40  42
HETATM   42  O   UNL     1     -11.040  10.307  71.139  1.00  0.00    -0.223 OA 
HETATM   43  C   UNL     1     -12.137   9.474  71.540  1.00  0.00    -0.389 C  
ENDBRANCH  40  42
ENDBRANCH   8  40
TORSDOF 9
ENDMDL
MODEL       26
REMARK 921   NORMALIZED FREE ENERGY PREDICTED BY IDOCK:   -5.18 KCAL/MOL
REMARK 922        TOTAL FREE ENERGY PREDICTED BY IDOCK:  -10.53 KCAL/MOL
REMARK 923 INTER-LIGAND FREE ENERGY PREDICTED BY IDOCK:   -7.99 KCAL/MOL
REMARK 924 INTRA-LIGAND FREE ENERGY PREDICTED BY IDOCK:   -2.54 KCAL/MOL
REMARK 927      BINDING AFFINITY PREDICTED BY RF-SCORE:    0.00 PKD
ROOT
HETATM    1  C   UNL     1      -6.653  10.474  66.840  1.00  0.00    -0.081 C  
HETATM    2  C   UNL     1      -5.868   9.624  67.844  1.00  0.00    -0.040 C  
HETATM    3  C   UNL     1      -6.713   8.898  68.954  1.00  0.00    -0.053 C  
HETATM    4  C   UNL     1      -8.176  16.166  68.492  1.00  0.00    -0.186 A  
HETATM    5  C   UNL     1      -7.364   7.776  68.151  1.00  0.00    -0.106 C  
HETATM    6  C   UNL     1      -7.771  17.516  68.566  1.00  0.00    -0.272 A  
HETATM    7  C   UNL     1      -8.735  18.524  68.737  1.00  0.00    -0.268 A  
HETATM    8  C   UNL     1      -8.381   8.519  67.193  1.00  0.00    -0.111 C  
HETATM    9  C   UNL     1     -10.076  18.190  68.830  1.00  0.00    -0.354 A  
HETATM   10  C   UNL     1     -10.504  16.852  68.745  1.00  0.00    -0.343 A  
HETATM   11  H   UNL     1     -10.533  13.961  68.457  1.00  0.00     0.000 HD 
HETATM   12  C   UNL     1      -8.159  10.155  66.931  1.00  0.00    -0.121 C  
HETATM   13  C   UNL     1      -9.526  15.851  68.573  1.00  0.00    -0.209 A  
HETATM   14  N   UNL     1      -9.649  14.470  68.474  1.00  0.00    -0.216 NA 
HETATM   15  C   UNL     1      -8.403  13.890  68.403  1.00  0.00    -0.157 A  
HETATM   16  C   UNL     1      -7.484  14.932  68.408  1.00  0.00    -0.115 A  
HETATM   17  C   UNL     1      -8.898  11.390  67.636  1.00  0.00    -0.139 C  
HETATM   18  C   UNL     1      -6.022  14.685  68.456  1.00  0.00    -0.093 C  
HETATM   19  C   UNL     1      -8.065  12.402  68.539  1.00  0.00    -0.096 C  
HETATM   20  C   UNL     1      -5.795  13.291  69.057  1.00  0.00    -0.079 C  
HETATM   21  C   UNL     1      -6.222  11.923  67.073  1.00  0.00    -0.145 C  
HETATM   22  N   UNL     1      -6.607  12.230  68.435  1.00  0.00    -0.056 NA 
ENDROOT
BRANCH   3  23
HETATM   23  O   UNL     1      -7.796   9.622  69.659  1.00  0.00    -0.099 OA 
BRANCH  23  24
HETATM   24  C   UNL     1      -8.065   9.147  70.920  1.00  0.00    -0.162 C  
HETATM   25  O   UNL     1      -7.185   8.853  71.724  1.00  0.00    -0.237 OA 
BRANCH  24  26
HETATM   26  C   UNL     1      -9.488   8.909  71.338  1.00  0.00    -0.344 A  
HETATM   27  C   UNL     1     -12.275   8.375  71.479  1.00  0.00    -0.302 A  
HETATM   28  C   UNL     1      -9.960   7.783  71.999  1.00  0.00    -0.231 A  
HETATM   29  C   UNL     1     -10.433   9.842  70.885  1.00  0.00    -0.298 A  
HETATM   30  C   UNL     1     -11.808   9.575  70.912  1.00  0.00    -0.309 A  
HETATM   31  C   UNL     1     -11.339   7.489  72.049  1.00  0.00    -0.273 A  
BRANCH  30  32
HETATM   32  O   UNL     1     -12.738  10.425  70.357  1.00  0.00    -0.305 OA 
HETATM   33  C   UNL     1     -12.211  11.447  69.511  1.00  0.00    -0.235 C  
ENDBRANCH  30  32
BRANCH  27  34
HETATM   34  O   UNL     1     -13.636   8.179  71.445  1.00  0.00    -0.299 OA 
HETATM   35  C   UNL     1     -14.380   8.667  72.560  1.00  0.00    -0.259 C  
ENDBRANCH  27  34
BRANCH  31  36
HETATM   36  O   UNL     1     -11.808   6.352  72.659  1.00  0.00    -0.176 OA 
HETATM   37  C   UNL     1     -10.817   5.480  73.195  1.00  0.00    -0.285 C  
ENDBRANCH  31  36
ENDBRANCH  24  26
ENDBRANCH  23  24
ENDBRANCH   3  23
BRANCH   5  38
HETATM   38  O   UNL     1      -6.306   7.072  67.470  1.00  0.00    -0.042 OA 
HETATM   39  C   UNL     1      -6.639   6.231  66.384  1.00  0.00    -0.048 C  
ENDBRANCH   5  38
BRANCH   8  40
HETATM   40  C   UNL     1      -9.763   8.044  67.597  1.00  0.00    -0.158 C  
HETATM   41  O   UNL     1     -10.806   8.601  67.293  1.00  0.00    -0.217 OA 
BRANCH  40  42
HETATM   42  O   UNL     1      -9.677   6.962  68.418  1.00  0.00    -0.136 OA 
HETATM   43  C   UNL     1     -10.844   6.172  68.685  1.00  0.00    -0.332 C  
ENDBRANCH  40  42
ENDBRANCH   8  40
TORSDOF 9
ENDMDL
MODEL       27
REMARK 921   NORMALIZED FREE ENERGY PREDICTED BY IDOCK:   -5.15 KCAL/MOL
REMARK 922        TOTAL FREE ENERGY PREDICTED BY IDOCK:  -10.50 KCAL/MOL
REMARK 923 INTER-LIGAND FREE ENERGY PREDICTED BY IDOCK:   -7.75 KCAL/MOL
REMARK 924 INTRA-LIGAND FREE ENERGY PREDICTED BY IDOCK:   -2.75 KCAL/MOL
REMARK 927      BINDING AFFINITY PREDICTED BY RF-SCORE:    0.00 PKD
ROOT
HETATM    1  C   UNL     1     -11.009   6.001  68.858  1.00  0.00    -0.395 C  
HETATM    2  C   UNL     1      -9.653   5.290  68.871  1.00  0.00    -0.189 C  
HETATM    3  C   UNL     1      -8.719   5.592  70.099  1.00  0.00    -0.137 C  
HETATM    4  C   UNL     1     -11.203  11.748  66.764  1.00  0.00    -0.388 A  
HETATM    5  C   UNL     1      -9.410   4.803  71.205  1.00  0.00    -0.148 C  
HETATM    6  C   UNL     1     -11.311  12.583  65.631  1.00  0.00    -0.372 A  
HETATM    7  C   UNL     1     -11.668  13.932  65.792  1.00  0.00    -0.369 A  
HETATM    8  C   UNL     1     -10.771   5.575  71.445  1.00  0.00    -0.290 C  
HETATM    9  C   UNL     1     -11.913  14.436  67.058  1.00  0.00    -0.424 A  
HETATM   10  C   UNL     1     -11.824  13.619  68.201  1.00  0.00    -0.407 A  
HETATM   11  H   UNL     1     -11.458  11.332  69.955  1.00  0.00     0.000 HD 
HETATM   12  C   UNL     1     -11.309   6.606  70.245  1.00  0.00    -0.431 C  
HETATM   13  C   UNL     1     -11.466  12.267  68.024  1.00  0.00    -0.321 A  
HETATM   14  N   UNL     1     -11.288  11.247  68.952  1.00  0.00    -0.247 NA 
HETATM   15  C   UNL     1     -10.849  10.107  68.321  1.00  0.00    -0.252 A  
HETATM   16  C   UNL     1     -10.798  10.405  66.964  1.00  0.00    -0.269 A  
HETATM   17  C   UNL     1     -11.154   8.198  70.149  1.00  0.00    -0.187 C  
HETATM   18  C   UNL     1     -10.256   9.443  65.972  1.00  0.00    -0.204 C  
HETATM   19  C   UNL     1     -10.290   8.841  68.977  1.00  0.00    -0.213 C  
HETATM   20  C   UNL     1      -9.321   8.476  66.711  1.00  0.00    -0.182 C  
HETATM   21  C   UNL     1     -10.985   6.954  67.662  1.00  0.00    -0.233 C  
HETATM   22  N   UNL     1      -9.907   7.884  67.927  1.00  0.00    -0.159 NA 
ENDROOT
BRANCH   3  23
HETATM   23  O   UNL     1      -8.553   6.982  70.585  1.00  0.00    -0.144 OA 
BRANCH  23  24
HETATM   24  C   UNL     1      -7.245   7.384  70.714  1.00  0.00    -0.068 C  
HETATM   25  O   UNL     1      -6.569   7.145  71.710  1.00  0.00    -0.047 OA 
BRANCH  24  26
HETATM   26  C   UNL     1      -6.609   8.206  69.630  1.00  0.00    -0.037 A  
HETATM   27  C   UNL     1      -5.876   9.487  67.202  1.00  0.00    -0.052 A  
HETATM   28  C   UNL     1      -6.699   9.585  69.502  1.00  0.00    -0.049 A  
HETATM   29  C   UNL     1      -6.003   7.494  68.584  1.00  0.00    -0.027 A  
HETATM   30  C   UNL     1      -5.672   8.105  67.368  1.00  0.00    -0.039 A  
HETATM   31  C   UNL     1      -6.368  10.231  68.292  1.00  0.00    -0.048 A  
BRANCH  30  32
HETATM   32  O   UNL     1      -5.193   7.395  66.289  1.00  0.00    -0.023 OA 
HETATM   33  C   UNL     1      -5.956   6.247  65.919  1.00  0.00    -0.025 C  
ENDBRANCH  30  32
BRANCH  27  34
HETATM   34  O   UNL     1      -5.547  10.004  65.971  1.00  0.00    -0.053 OA 
HETATM   35  C   UNL     1      -6.619  10.203  65.053  1.00  0.00    -0.128 C  
ENDBRANCH  27  34
BRANCH  31  36
HETATM   36  O   UNL     1      -6.501  11.590  68.144  1.00  0.00    -0.052 OA 
HETATM   37  C   UNL     1      -7.820  12.105  68.301  1.00  0.00    -0.153 C  
ENDBRANCH  31  36
ENDBRANCH  24  26
ENDBRANCH  23  24
ENDBRANCH   3  23
BRANCH   5  38
HETATM   38  O   UNL     1      -9.565   3.451  70.729  1.00  0.00    -0.161 OA 
HETATM   39  C   UNL     1      -9.600   2.399  71.673  1.00  0.00    -0.143 C  
ENDBRANCH   5  38
BRANCH   8  40
HETATM   40  C   UNL     1     -10.709   6.106  72.864  1.00  0.00    -0.247 C  
HETATM   41  O   UNL     1     -11.342   7.065  73.276  1.00  0.00    -0.161 OA 
BRANCH  40  42
HETATM   42  O   UNL     1      -9.784   5.422  73.592  1.00  0.00    -0.140 OA 
HETATM   43  C   UNL     1      -8.869   6.133  74.436  1.00  0.00    -0.135 C  
ENDBRANCH  40  42
ENDBRANCH   8  40
TORSDOF 9
ENDMDL
MODEL       28
REMARK 921   NORMALIZED FREE ENERGY PREDICTED BY IDOCK:   -5.12 KCAL/MOL
REMARK 922        TOTAL FREE ENERGY PREDICTED BY IDOCK:  -10.45 KCAL/MOL
REMARK 923 INTER-LIGAND FREE ENERGY PREDICTED BY IDOCK:   -8.01 KCAL/MOL
REMARK 924 INTRA-LIGAND FREE ENERGY PREDICTED BY IDOCK:   -2.44 KCAL/MOL
REMARK 927      BINDING AFFINITY PREDICTED BY RF-SCORE:    0.00 PKD
ROOT
HETATM    1  C   UNL     1      -5.929   7.967  67.864  1.00  0.00    -0.042 C  
HETATM    2  C   UNL     1      -6.257   8.097  66.374  1.00  0.00    -0.046 C  
HETATM    3  C   UNL     1      -7.361   9.150  65.992  1.00  0.00    -0.094 C  
HETATM    4  C   UNL     1      -9.564   4.430  71.289  1.00  0.00    -0.242 A  
HETATM    5  C   UNL     1      -6.607  10.461  66.185  1.00  0.00    -0.112 C  
HETATM    6  C   UNL     1      -9.843   3.123  71.742  1.00  0.00    -0.229 A  
HETATM    7  C   UNL     1     -10.657   2.937  72.872  1.00  0.00    -0.214 A  
HETATM    8  C   UNL     1      -6.382  10.557  67.749  1.00  0.00    -0.059 C  
HETATM    9  C   UNL     1     -11.180   4.034  73.536  1.00  0.00    -0.325 A  
HETATM   10  C   UNL     1     -10.904   5.347  73.110  1.00  0.00    -0.333 A  
HETATM   11  H   UNL     1      -9.858   7.625  71.641  1.00  0.00     0.000 HD 
HETATM   12  C   UNL     1      -6.520   9.156  68.648  1.00  0.00    -0.053 C  
HETATM   13  C   UNL     1     -10.085   5.518  71.975  1.00  0.00    -0.186 A  
HETATM   14  N   UNL     1      -9.663   6.674  71.328  1.00  0.00    -0.173 NA 
HETATM   15  C   UNL     1      -8.943   6.347  70.202  1.00  0.00    -0.154 A  
HETATM   16  C   UNL     1      -8.871   4.959  70.172  1.00  0.00    -0.134 A  
HETATM   17  C   UNL     1      -7.774   8.631  69.497  1.00  0.00    -0.090 C  
HETATM   18  C   UNL     1      -8.262   4.233  69.030  1.00  0.00    -0.077 C  
HETATM   19  C   UNL     1      -8.512   7.287  69.072  1.00  0.00    -0.129 C  
HETATM   20  C   UNL     1      -8.309   5.152  67.802  1.00  0.00    -0.105 C  
HETATM   21  C   UNL     1      -6.364   6.560  68.278  1.00  0.00    -0.037 C  
HETATM   22  N   UNL     1      -7.792   6.511  68.049  1.00  0.00    -0.104 NA 
ENDROOT
BRANCH   3  23
HETATM   23  O   UNL     1      -8.610   9.239  66.783  1.00  0.00    -0.125 OA 
BRANCH  23  24
HETATM   24  C   UNL     1      -9.665   9.811  66.112  1.00  0.00    -0.246 C  
HETATM   25  O   UNL     1      -9.852   9.657  64.908  1.00  0.00    -0.232 OA 
BRANCH  24  26
HETATM   26  C   UNL     1     -10.609  10.720  66.845  1.00  0.00    -0.312 A  
HETATM   27  C   UNL     1     -11.850  12.603  68.572  1.00  0.00    -0.300 A  
HETATM   28  C   UNL     1     -11.175  11.881  66.336  1.00  0.00    -0.387 A  
HETATM   29  C   UNL     1     -10.809  10.440  68.206  1.00  0.00    -0.299 A  
HETATM   30  C   UNL     1     -11.384  11.375  69.076  1.00  0.00    -0.280 A  
HETATM   31  C   UNL     1     -11.766  12.839  67.186  1.00  0.00    -0.380 A  
BRANCH  30  32
HETATM   32  O   UNL     1     -11.472  11.166  70.434  1.00  0.00    -0.290 OA 
HETATM   33  C   UNL     1     -11.134   9.852  70.878  1.00  0.00    -0.348 C  
ENDBRANCH  30  32
BRANCH  27  34
HETATM   34  O   UNL     1     -12.380  13.474  69.495  1.00  0.00    -0.268 OA 
HETATM   35  C   UNL     1     -11.539  14.544  69.922  1.00  0.00    -0.287 C  
ENDBRANCH  27  34
BRANCH  31  36
HETATM   36  O   UNL     1     -12.284  14.012  66.693  1.00  0.00    -0.442 OA 
HETATM   37  C   UNL     1     -11.333  14.954  66.205  1.00  0.00    -0.306 C  
ENDBRANCH  31  36
ENDBRANCH  24  26
ENDBRANCH  23  24
ENDBRANCH   3  23
BRANCH   5  38
HETATM   38  O   UNL     1      -5.394  10.371  65.410  1.00  0.00    -0.072 OA 
HETATM   39  C   UNL     1      -5.462  10.583  64.014  1.00  0.00    -0.138 C  
ENDBRANCH   5  38
BRANCH   8  40
HETATM   40  C   UNL     1      -7.153  11.778  68.210  1.00  0.00    -0.079 C  
HETATM   41  O   UNL     1      -7.402  12.043  69.375  1.00  0.00     0.045 OA 
BRANCH  40  42
HETATM   42  O   UNL     1      -7.605  12.491  67.143  1.00  0.00    -0.148 OA 
HETATM   43  C   UNL     1      -8.186  13.788  67.342  1.00  0.00    -0.184 C  
ENDBRANCH  40  42
ENDBRANCH   8  40
TORSDOF 9
ENDMDL
MODEL       29
REMARK 921   NORMALIZED FREE ENERGY PREDICTED BY IDOCK:   -5.12 KCAL/MOL
REMARK 922        TOTAL FREE ENERGY PREDICTED BY IDOCK:  -10.45 KCAL/MOL
REMARK 923 INTER-LIGAND FREE ENERGY PREDICTED BY IDOCK:   -8.69 KCAL/MOL
REMARK 924 INTRA-LIGAND FREE ENERGY PREDICTED BY IDOCK:   -1.76 KCAL/MOL
REMARK 927      BINDING AFFINITY PREDICTED BY RF-SCORE:    0.00 PKD
ROOT
HETATM    1  C   UNL     1      -6.817   8.625  68.369  1.00  0.00    -0.065 C  
HETATM    2  C   UNL     1      -7.275   7.605  69.416  1.00  0.00    -0.081 C  
HETATM    3  C   UNL     1      -7.858   6.253  68.864  1.00  0.00    -0.105 C  
HETATM    4  C   UNL     1     -11.070  12.239  65.857  1.00  0.00    -0.360 A  
HETATM    5  C   UNL     1      -6.592   5.551  68.385  1.00  0.00    -0.049 C  
HETATM    6  C   UNL     1     -11.816  13.431  65.973  1.00  0.00    -0.423 A  
HETATM    7  C   UNL     1     -12.452  13.967  64.841  1.00  0.00    -0.420 A  
HETATM    8  C   UNL     1      -6.118   6.405  67.140  1.00  0.00    -0.025 C  
HETATM    9  C   UNL     1     -12.344  13.326  63.618  1.00  0.00    -0.456 A  
HETATM   10  C   UNL     1     -11.594  12.143  63.476  1.00  0.00    -0.562 A  
HETATM   11  H   UNL     1      -9.898   9.850  64.029  1.00  0.00     0.000 HD 
HETATM   12  C   UNL     1      -6.713   7.958  66.982  1.00  0.00    -0.068 C  
HETATM   13  C   UNL     1     -10.961  11.617  64.620  1.00  0.00    -0.301 A  
HETATM   14  N   UNL     1     -10.182  10.477  64.783  1.00  0.00    -0.341 NA 
HETATM   15  C   UNL     1      -9.850  10.317  66.108  1.00  0.00    -0.225 A  
HETATM   16  C   UNL     1     -10.391  11.407  66.781  1.00  0.00    -0.271 A  
HETATM   17  C   UNL     1      -7.929   8.477  66.076  1.00  0.00    -0.107 C  
HETATM   18  C   UNL     1     -10.333  11.519  68.260  1.00  0.00    -0.211 C  
HETATM   19  C   UNL     1      -9.230   9.081  66.766  1.00  0.00    -0.157 C  
HETATM   20  C   UNL     1     -10.160  10.108  68.838  1.00  0.00    -0.200 C  
HETATM   21  C   UNL     1      -7.751   9.829  68.506  1.00  0.00    -0.081 C  
HETATM   22  N   UNL     1      -9.077   9.330  68.209  1.00  0.00    -0.129 NA 
ENDROOT
BRANCH   3  23
HETATM   23  O   UNL     1      -8.813   6.261  67.732  1.00  0.00    -0.114 OA 
BRANCH  23  24
HETATM   24  C   UNL     1      -9.990   5.595  67.980  1.00  0.00    -0.143 C  
HETATM   25  O   UNL     1     -10.649   5.055  67.096  1.00  0.00    -0.174 OA 
BRANCH  24  26
HETATM   26  C   UNL     1     -10.549   5.565  69.373  1.00  0.00    -0.349 A  
HETATM   27  C   UNL     1     -10.988   5.679  72.178  1.00  0.00    -0.250 A  
HETATM   28  C   UNL     1     -11.424   6.496  69.915  1.00  0.00    -0.467 A  
HETATM   29  C   UNL     1     -10.016   4.593  70.235  1.00  0.00    -0.309 A  
HETATM   30  C   UNL     1     -10.193   4.660  71.623  1.00  0.00    -0.163 A  
HETATM   31  C   UNL     1     -11.627   6.585  71.308  1.00  0.00    -0.327 A  
BRANCH  30  32
HETATM   32  O   UNL     1      -9.574   3.787  72.490  1.00  0.00    -0.122 OA 
HETATM   33  C   UNL     1     -10.223   2.528  72.664  1.00  0.00    -0.161 C  
ENDBRANCH  30  32
BRANCH  27  34
HETATM   34  O   UNL     1     -11.092   5.688  73.549  1.00  0.00    -0.256 OA 
HETATM   35  C   UNL     1     -10.199   6.548  74.253  1.00  0.00    -0.350 C  
ENDBRANCH  27  34
BRANCH  31  36
HETATM   36  O   UNL     1     -12.455   7.536  71.853  1.00  0.00    -0.306 OA 
HETATM   37  C   UNL     1     -11.914   8.850  71.946  1.00  0.00    -0.371 C  
ENDBRANCH  31  36
ENDBRANCH  24  26
ENDBRANCH  23  24
ENDBRANCH   3  23
BRANCH   5  38
HETATM   38  O   UNL     1      -5.667   5.542  69.492  1.00  0.00    -0.011 OA 
HETATM   39  C   UNL     1      -5.277   4.299  70.040  1.00  0.00    -0.004 C  
ENDBRANCH   5  38
BRANCH   8  40
HETATM   40  C   UNL     1      -6.207   5.484  65.939  1.00  0.00    -0.034 C  
HETATM   41  O   UNL     1      -6.001   5.824  64.785  1.00  0.00    -0.024 OA 
BRANCH  40  42
HETATM   42  O   UNL     1      -6.635   4.247  66.315  1.00  0.00    -0.040 OA 
HETATM   43  C   UNL     1      -7.618   3.560  65.529  1.00  0.00    -0.078 C  
ENDBRANCH  40  42
ENDBRANCH   8  40
TORSDOF 9
ENDMDL
MODEL       30
REMARK 921   NORMALIZED FREE ENERGY PREDICTED BY IDOCK:   -5.09 KCAL/MOL
REMARK 922        TOTAL FREE ENERGY PREDICTED BY IDOCK:  -10.40 KCAL/MOL
REMARK 923 INTER-LIGAND FREE ENERGY PREDICTED BY IDOCK:   -8.93 KCAL/MOL
REMARK 924 INTRA-LIGAND FREE ENERGY PREDICTED BY IDOCK:   -1.47 KCAL/MOL
REMARK 927      BINDING AFFINITY PREDICTED BY RF-SCORE:    0.00 PKD
ROOT
HETATM    1  C   UNL     1      -6.977   9.115  66.978  1.00  0.00    -0.081 C  
HETATM    2  C   UNL     1      -6.788   8.774  68.459  1.00  0.00    -0.064 C  
HETATM    3  C   UNL     1      -7.968   8.003  69.154  1.00  0.00    -0.114 C  
HETATM    4  C   UNL     1     -10.204  14.128  65.594  1.00  0.00    -0.357 A  
HETATM    5  C   UNL     1      -7.804   6.606  68.565  1.00  0.00    -0.110 C  
HETATM    6  C   UNL     1     -10.179  15.526  65.404  1.00  0.00    -0.409 A  
HETATM    7  C   UNL     1     -11.227  16.153  64.710  1.00  0.00    -0.313 A  
HETATM    8  C   UNL     1      -8.185   6.777  67.039  1.00  0.00    -0.113 C  
HETATM    9  C   UNL     1     -12.278  15.399  64.215  1.00  0.00    -0.140 A  
HETATM   10  C   UNL     1     -12.318  14.002  64.381  1.00  0.00    -0.401 A  
HETATM   11  H   UNL     1     -11.634  11.274  65.113  1.00  0.00     0.000 HD 
HETATM   12  C   UNL     1      -8.160   8.318  66.392  1.00  0.00    -0.105 C  
HETATM   13  C   UNL     1     -11.258  13.386  65.079  1.00  0.00    -0.317 A  
HETATM   14  N   UNL     1     -11.041  12.052  65.404  1.00  0.00    -0.312 NA 
HETATM   15  C   UNL     1      -9.908  11.933  66.176  1.00  0.00    -0.232 A  
HETATM   16  C   UNL     1      -9.379  13.213  66.295  1.00  0.00    -0.138 A  
HETATM   17  C   UNL     1      -9.386   9.324  66.159  1.00  0.00    -0.270 C  
HETATM   18  C   UNL     1      -8.207  13.497  67.160  1.00  0.00    -0.126 C  
HETATM   19  C   UNL     1      -9.444  10.701  66.957  1.00  0.00    -0.164 C  
HETATM   20  C   UNL     1      -8.121  12.392  68.221  1.00  0.00    -0.166 C  
HETATM   21  C   UNL     1      -7.043  10.641  66.893  1.00  0.00    -0.109 C  
HETATM   22  N   UNL     1      -8.200  11.026  67.673  1.00  0.00    -0.115 NA 
ENDROOT
BRANCH   3  23
HETATM   23  O   UNL     1      -9.370   8.419  68.918  1.00  0.00    -0.147 OA 
BRANCH  23  24
HETATM   24  C   UNL     1     -10.178   8.337  70.028  1.00  0.00    -0.202 C  
HETATM   25  O   UNL     1     -10.137   7.396  70.815  1.00  0.00    -0.190 OA 
BRANCH  24  26
HETATM   26  C   UNL     1     -11.208   9.401  70.278  1.00  0.00    -0.286 A  
HETATM   27  C   UNL     1     -12.922  11.385  71.372  1.00  0.00    -0.365 A  
HETATM   28  C   UNL     1     -11.135  10.717  69.844  1.00  0.00    -0.339 A  
HETATM   29  C   UNL     1     -12.252   9.061  71.153  1.00  0.00    -0.331 A  
HETATM   30  C   UNL     1     -13.079  10.033  71.729  1.00  0.00    -0.457 A  
HETATM   31  C   UNL     1     -11.958  11.718  70.401  1.00  0.00    -0.332 A  
BRANCH  30  32
HETATM   32  O   UNL     1     -14.025   9.729  72.683  1.00  0.00    -0.192 OA 
HETATM   33  C   UNL     1     -14.398   8.353  72.763  1.00  0.00     0.081 C  
ENDBRANCH  30  32
BRANCH  27  34
HETATM   34  O   UNL     1     -13.759  12.278  72.001  1.00  0.00    -0.301 OA 
HETATM   35  C   UNL     1     -13.171  13.495  72.453  1.00  0.00    -0.477 C  
ENDBRANCH  27  34
BRANCH  31  36
HETATM   36  O   UNL     1     -11.857  13.031  70.009  1.00  0.00    -0.322 OA 
HETATM   37  C   UNL     1     -12.057  13.282  68.621  1.00  0.00    -0.222 C  
ENDBRANCH  31  36
ENDBRANCH  24  26
ENDBRANCH  23  24
ENDBRANCH   3  23
BRANCH   5  38
HETATM   38  O   UNL     1      -6.439   6.204  68.800  1.00  0.00    -0.042 OA 
HETATM   39  C   UNL     1      -5.852   5.255  67.933  1.00  0.00    -0.017 C  
ENDBRANCH   5  38
BRANCH   8  40
HETATM   40  C   UNL     1      -9.423   5.931  66.816  1.00  0.00    -0.142 C  
HETATM   41  O   UNL     1     -10.569   6.345  66.890  1.00  0.00    -0.258 OA 
BRANCH  40  42
HETATM   42  O   UNL     1      -9.084   4.629  66.612  1.00  0.00    -0.114 OA 
HETATM   43  C   UNL     1      -8.582   4.213  65.334  1.00  0.00    -0.118 C  
ENDBRANCH  40  42
ENDBRANCH   8  40
TORSDOF 9
ENDMDL
MODEL       31
REMARK 921   NORMALIZED FREE ENERGY PREDICTED BY IDOCK:   -5.03 KCAL/MOL
REMARK 922        TOTAL FREE ENERGY PREDICTED BY IDOCK:  -10.31 KCAL/MOL
REMARK 923 INTER-LIGAND FREE ENERGY PREDICTED BY IDOCK:   -8.01 KCAL/MOL
REMARK 924 INTRA-LIGAND FREE ENERGY PREDICTED BY IDOCK:   -2.30 KCAL/MOL
REMARK 927      BINDING AFFINITY PREDICTED BY RF-SCORE:    0.00 PKD
ROOT
HETATM    1  C   UNL     1     -12.027  11.369  68.662  1.00  0.00    -0.317 C  
HETATM    2  C   UNL     1     -11.264  12.594  69.174  1.00  0.00    -0.300 C  
HETATM    3  C   UNL     1      -9.951  12.973  68.396  1.00  0.00    -0.216 C  
HETATM    4  C   UNL     1     -10.125   5.849  70.495  1.00  0.00    -0.254 A  
HETATM    5  C   UNL     1     -10.520  13.568  67.113  1.00  0.00    -0.256 C  
HETATM    6  C   UNL     1     -10.191   4.856  71.496  1.00  0.00    -0.264 A  
HETATM    7  C   UNL     1      -9.779   3.546  71.204  1.00  0.00    -0.237 A  
HETATM    8  C   UNL     1     -11.173  12.334  66.366  1.00  0.00    -0.370 C  
HETATM    9  C   UNL     1      -9.312   3.232  69.938  1.00  0.00    -0.234 A  
HETATM   10  C   UNL     1      -9.250   4.203  68.921  1.00  0.00    -0.208 A  
HETATM   11  H   UNL     1      -9.465   6.701  67.452  1.00  0.00     0.000 HD 
HETATM   12  C   UNL     1     -11.517  10.967  67.263  1.00  0.00    -0.164 C  
HETATM   13  C   UNL     1      -9.667   5.514  69.228  1.00  0.00    -0.159 A  
HETATM   14  N   UNL     1      -9.703   6.662  68.444  1.00  0.00    -0.126 NA 
HETATM   15  C   UNL     1     -10.105   7.738  69.201  1.00  0.00    -0.196 A  
HETATM   16  C   UNL     1     -10.375   7.244  70.472  1.00  0.00    -0.215 A  
HETATM   17  C   UNL     1     -10.658   9.621  67.404  1.00  0.00    -0.333 C  
HETATM   18  C   UNL     1     -10.728   8.141  71.600  1.00  0.00    -0.299 C  
HETATM   19  C   UNL     1     -10.041   9.218  68.815  1.00  0.00    -0.195 C  
HETATM   20  C   UNL     1     -10.188   9.541  71.281  1.00  0.00    -0.175 C  
HETATM   21  C   UNL     1     -11.950  10.320  69.772  1.00  0.00    -0.106 C  
HETATM   22  N   UNL     1     -10.541  10.030  69.936  1.00  0.00    -0.263 NA 
ENDROOT
BRANCH   3  23
HETATM   23  O   UNL     1      -8.987  11.919  68.004  1.00  0.00    -0.171 OA 
BRANCH  23  24
HETATM   24  C   UNL     1      -7.729  12.078  68.535  1.00  0.00    -0.127 C  
HETATM   25  O   UNL     1      -7.246  13.177  68.789  1.00  0.00    -0.102 OA 
BRANCH  24  26
HETATM   26  C   UNL     1      -6.861  10.874  68.765  1.00  0.00    -0.070 A  
HETATM   27  C   UNL     1      -5.759   8.363  69.507  1.00  0.00    -0.030 A  
HETATM   28  C   UNL     1      -6.474   9.957  67.797  1.00  0.00    -0.063 A  
HETATM   29  C   UNL     1      -6.547  10.581  70.102  1.00  0.00    -0.149 A  
HETATM   30  C   UNL     1      -6.040   9.334  70.486  1.00  0.00    -0.050 A  
HETATM   31  C   UNL     1      -5.955   8.695  68.152  1.00  0.00    -0.046 A  
BRANCH  30  32
HETATM   32  O   UNL     1      -5.844   8.988  71.805  1.00  0.00    -0.057 OA 
HETATM   33  C   UNL     1      -6.989   8.469  72.481  1.00  0.00    -0.042 C  
ENDBRANCH  30  32
BRANCH  27  34
HETATM   34  O   UNL     1      -5.285   7.157  69.969  1.00  0.00    -0.018 OA 
HETATM   35  C   UNL     1      -6.174   6.045  69.883  1.00  0.00    -0.027 C  
ENDBRANCH  27  34
BRANCH  31  36
HETATM   36  O   UNL     1      -5.615   7.765  67.200  1.00  0.00    -0.030 OA 
HETATM   37  C   UNL     1      -6.661   7.372  66.315  1.00  0.00    -0.060 C  
ENDBRANCH  31  36
ENDBRANCH  24  26
ENDBRANCH  23  24
ENDBRANCH   3  23
BRANCH   5  38
HETATM   38  O   UNL     1     -11.455  14.596  67.500  1.00  0.00    -0.332 OA 
HETATM   39  C   UNL     1     -10.986  15.923  67.636  1.00  0.00    -0.298 C  
ENDBRANCH   5  38
BRANCH   8  40
HETATM   40  C   UNL     1     -10.394  12.163  65.077  1.00  0.00    -0.287 C  
HETATM   41  O   UNL     1      -9.459  11.393  64.927  1.00  0.00    -0.223 OA 
BRANCH  40  42
HETATM   42  O   UNL     1     -10.823  13.048  64.136  1.00  0.00    -0.378 OA 
HETATM   43  C   UNL     1     -12.088  12.848  63.490  1.00  0.00    -0.555 C  
ENDBRANCH  40  42
ENDBRANCH   8  40
TORSDOF 9
ENDMDL
MODEL       32
REMARK 921   NORMALIZED FREE ENERGY PREDICTED BY IDOCK:   -4.99 KCAL/MOL
REMARK 922        TOTAL FREE ENERGY PREDICTED BY IDOCK:  -10.25 KCAL/MOL
REMARK 923 INTER-LIGAND FREE ENERGY PREDICTED BY IDOCK:   -7.83 KCAL/MOL
REMARK 924 INTRA-LIGAND FREE ENERGY PREDICTED BY IDOCK:   -2.42 KCAL/MOL
REMARK 927      BINDING AFFINITY PREDICTED BY RF-SCORE:    0.00 PKD
ROOT
HETATM    1  C   UNL     1     -11.033   5.975  68.976  1.00  0.00    -0.409 C  
HETATM    2  C   UNL     1      -9.699   5.272  68.709  1.00  0.00    -0.203 C  
HETATM    3  C   UNL     1      -8.599   5.417  69.822  1.00  0.00    -0.100 C  
HETATM    4  C   UNL     1     -11.425  11.942  67.673  1.00  0.00    -0.387 A  
HETATM    5  C   UNL     1      -9.142   4.492  70.905  1.00  0.00    -0.131 C  
HETATM    6  C   UNL     1     -11.676  12.914  66.681  1.00  0.00    -0.452 A  
HETATM    7  C   UNL     1     -11.986  14.231  67.060  1.00  0.00    -0.463 A  
HETATM    8  C   UNL     1     -10.444   5.224  71.429  1.00  0.00    -0.273 C  
HETATM    9  C   UNL     1     -12.045  14.570  68.402  1.00  0.00    -0.249 A  
HETATM   10  C   UNL     1     -11.811  13.614  69.408  1.00  0.00    -0.392 A  
HETATM   11  H   UNL     1     -11.241  11.122  70.790  1.00  0.00     0.000 HD 
HETATM   12  C   UNL     1     -11.128   6.398  70.456  1.00  0.00    -0.388 C  
HETATM   13  C   UNL     1     -11.502  12.296  69.013  1.00  0.00    -0.297 A  
HETATM   14  N   UNL     1     -11.213  11.166  69.771  1.00  0.00    -0.260 NA 
HETATM   15  C   UNL     1     -10.884  10.117  68.945  1.00  0.00    -0.223 A  
HETATM   16  C   UNL     1     -11.017  10.585  67.643  1.00  0.00    -0.375 A  
HETATM   17  C   UNL     1     -10.962   7.990  70.542  1.00  0.00    -0.247 C  
HETATM   18  C   UNL     1     -10.633   9.759  66.472  1.00  0.00    -0.150 C  
HETATM   19  C   UNL     1     -10.260   8.779  69.351  1.00  0.00    -0.210 C  
HETATM   20  C   UNL     1      -9.620   8.707  66.944  1.00  0.00    -0.194 C  
HETATM   21  C   UNL     1     -11.160   7.073  67.918  1.00  0.00    -0.060 C  
HETATM   22  N   UNL     1     -10.042   7.964  68.145  1.00  0.00    -0.184 NA 
ENDROOT
BRANCH   3  23
HETATM   23  O   UNL     1      -8.346   6.733  70.452  1.00  0.00    -0.126 OA 
BRANCH  23  24
HETATM   24  C   UNL     1      -7.025   7.115  70.453  1.00  0.00    -0.058 C  
HETATM   25  O   UNL     1      -6.135   6.438  70.960  1.00  0.00    -0.030 OA 
BRANCH  24  26
HETATM   26  C   UNL     1      -6.634   8.443  69.870  1.00  0.00    -0.038 A  
HETATM   27  C   UNL     1      -6.491  10.918  68.482  1.00  0.00    -0.054 A  
HETATM   28  C   UNL     1      -6.557   9.641  70.567  1.00  0.00    -0.107 A  
HETATM   29  C   UNL     1      -6.483   8.489  68.476  1.00  0.00    -0.055 A  
HETATM   30  C   UNL     1      -6.450   9.702  67.776  1.00  0.00    -0.058 A  
HETATM   31  C   UNL     1      -6.517  10.879  69.890  1.00  0.00    -0.144 A  
BRANCH  30  32
HETATM   32  O   UNL     1      -6.428   9.761  66.400  1.00  0.00    -0.068 OA 
HETATM   33  C   UNL     1      -6.047   8.556  65.737  1.00  0.00    -0.048 C  
ENDBRANCH  30  32
BRANCH  27  34
HETATM   34  O   UNL     1      -6.478  12.062  67.719  1.00  0.00    -0.069 OA 
HETATM   35  C   UNL     1      -7.729  12.718  67.529  1.00  0.00    -0.168 C  
ENDBRANCH  27  34
BRANCH  31  36
HETATM   36  O   UNL     1      -6.489  12.069  70.574  1.00  0.00    -0.098 OA 
HETATM   37  C   UNL     1      -5.207  12.496  71.026  1.00  0.00    -0.159 C  
ENDBRANCH  31  36
ENDBRANCH  24  26
ENDBRANCH  23  24
ENDBRANCH   3  23
BRANCH   5  38
HETATM   38  O   UNL     1      -9.383   3.211  70.289  1.00  0.00    -0.141 OA 
HETATM   39  C   UNL     1      -9.725   2.114  71.112  1.00  0.00    -0.112 C  
ENDBRANCH   5  38
BRANCH   8  40
HETATM   40  C   UNL     1     -10.178   5.569  72.881  1.00  0.00    -0.186 C  
HETATM   41  O   UNL     1     -11.032   5.913  73.682  1.00  0.00    -0.225 OA 
BRANCH  40  42
HETATM   42  O   UNL     1      -8.843   5.530  73.146  1.00  0.00    -0.120 OA 
HETATM   43  C   UNL     1      -8.256   6.511  74.012  1.00  0.00    -0.118 C  
ENDBRANCH  40  42
ENDBRANCH   8  40
TORSDOF 9
ENDMDL
MODEL       33
REMARK 921   NORMALIZED FREE ENERGY PREDICTED BY IDOCK:   -4.90 KCAL/MOL
REMARK 922        TOTAL FREE ENERGY PREDICTED BY IDOCK:  -10.11 KCAL/MOL
REMARK 923 INTER-LIGAND FREE ENERGY PREDICTED BY IDOCK:   -8.21 KCAL/MOL
REMARK 924 INTRA-LIGAND FREE ENERGY PREDICTED BY IDOCK:   -1.90 KCAL/MOL
REMARK 927      BINDING AFFINITY PREDICTED BY RF-SCORE:    0.00 PKD
ROOT
HETATM    1  C   UNL     1      -6.133   9.059  66.618  1.00  0.00    -0.060 C  
HETATM    2  C   UNL     1      -7.020   7.959  67.209  1.00  0.00    -0.074 C  
HETATM    3  C   UNL     1      -8.539   7.995  66.805  1.00  0.00    -0.130 C  
HETATM    4  C   UNL     1      -6.080  14.498  69.423  1.00  0.00    -0.106 A  
HETATM    5  C   UNL     1      -8.479   7.503  65.363  1.00  0.00    -0.094 C  
HETATM    6  C   UNL     1      -5.518  15.284  70.452  1.00  0.00    -0.135 A  
HETATM    7  C   UNL     1      -5.653  16.681  70.413  1.00  0.00    -0.161 A  
HETATM    8  C   UNL     1      -7.754   8.671  64.580  1.00  0.00    -0.121 C  
HETATM    9  C   UNL     1      -6.334  17.282  69.367  1.00  0.00    -0.244 A  
HETATM   10  C   UNL     1      -6.890  16.519  68.323  1.00  0.00    -0.143 A  
HETATM   11  H   UNL     1      -7.681  14.296  66.627  1.00  0.00     0.000 HD 
HETATM   12  C   UNL     1      -6.866   9.776  65.466  1.00  0.00    -0.095 C  
HETATM   13  C   UNL     1      -6.747  15.118  68.375  1.00  0.00    -0.110 A  
HETATM   14  N   UNL     1      -7.197  14.127  67.510  1.00  0.00    -0.181 NA 
HETATM   15  C   UNL     1      -6.894  12.884  68.017  1.00  0.00    -0.108 A  
HETATM   16  C   UNL     1      -6.197  13.103  69.200  1.00  0.00    -0.100 A  
HETATM   17  C   UNL     1      -7.300  11.234  65.970  1.00  0.00     0.128 C  
HETATM   18  C   UNL     1      -5.802  11.986  70.092  1.00  0.00    -0.162 C  
HETATM   19  C   UNL     1      -7.419  11.531  67.529  1.00  0.00    -0.116 C  
HETATM   20  C   UNL     1      -6.735  10.800  69.811  1.00  0.00    -0.139 C  
HETATM   21  C   UNL     1      -5.664   9.913  67.797  1.00  0.00    -0.039 C  
HETATM   22  N   UNL     1      -6.867  10.466  68.381  1.00  0.00    -0.064 NA 
ENDROOT
BRANCH   3  23
HETATM   23  O   UNL     1      -9.279   9.278  66.803  1.00  0.00    -0.138 OA 
BRANCH  23  24
HETATM   24  C   UNL     1     -10.317   9.334  67.702  1.00  0.00    -0.253 C  
HETATM   25  O   UNL     1     -10.720   8.351  68.317  1.00  0.00    -0.148 OA 
BRANCH  24  26
HETATM   26  C   UNL     1     -11.051  10.627  67.914  1.00  0.00    -0.371 A  
HETATM   27  C   UNL     1     -11.933  13.203  68.724  1.00  0.00    -0.280 A  
HETATM   28  C   UNL     1     -11.144  11.664  66.996  1.00  0.00    -0.359 A  
HETATM   29  C   UNL     1     -11.550  10.854  69.206  1.00  0.00    -0.388 A  
HETATM   30  C   UNL     1     -11.951  12.127  69.630  1.00  0.00    -0.284 A  
HETATM   31  C   UNL     1     -11.551  12.956  67.391  1.00  0.00    -0.360 A  
BRANCH  30  32
HETATM   32  O   UNL     1     -12.325  12.390  70.929  1.00  0.00    -0.377 OA 
HETATM   33  C   UNL     1     -12.985  11.322  71.608  1.00  0.00    -0.432 C  
ENDBRANCH  30  32
BRANCH  27  34
HETATM   34  O   UNL     1     -12.320  14.423  69.226  1.00  0.00    -0.273 OA 
HETATM   35  C   UNL     1     -11.278  15.317  69.611  1.00  0.00    -0.278 C  
ENDBRANCH  27  34
BRANCH  31  36
HETATM   36  O   UNL     1     -11.599  13.998  66.497  1.00  0.00    -0.341 OA 
HETATM   37  C   UNL     1     -12.659  13.951  65.546  1.00  0.00    -0.526 C  
ENDBRANCH  31  36
ENDBRANCH  24  26
ENDBRANCH  23  24
ENDBRANCH   3  23
BRANCH   5  38
HETATM   38  O   UNL     1      -7.762   6.252  65.371  1.00  0.00    -0.087 OA 
HETATM   39  C   UNL     1      -7.069   5.859  64.203  1.00  0.00    -0.053 C  
ENDBRANCH   5  38
BRANCH   8  40
HETATM   40  C   UNL     1      -8.767   9.205  63.587  1.00  0.00    -0.125 C  
HETATM   41  O   UNL     1      -8.791   8.926  62.399  1.00  0.00    -0.216 OA 
BRANCH  40  42
HETATM   42  O   UNL     1      -9.592  10.109  64.184  1.00  0.00    -0.290 OA 
HETATM   43  C   UNL     1     -10.183  11.161  63.408  1.00  0.00    -0.380 C  
ENDBRANCH  40  42
ENDBRANCH   8  40
TORSDOF 9
ENDMDL
MODEL       34
REMARK 921   NORMALIZED FREE ENERGY PREDICTED BY IDOCK:   -4.89 KCAL/MOL
REMARK 922        TOTAL FREE ENERGY PREDICTED BY IDOCK:  -10.10 KCAL/MOL
REMARK 923 INTER-LIGAND FREE ENERGY PREDICTED BY IDOCK:   -8.47 KCAL/MOL
REMARK 924 INTRA-LIGAND FREE ENERGY PREDICTED BY IDOCK:   -1.63 KCAL/MOL
REMARK 927      BINDING AFFINITY PREDICTED BY RF-SCORE:    0.00 PKD
ROOT
HETATM    1  C   UNL     1      -6.978   8.697  66.821  1.00  0.00    -0.077 C  
HETATM    2  C   UNL     1      -6.782   8.325  68.293  1.00  0.00    -0.065 C  
HETATM    3  C   UNL     1      -7.948   7.516  68.969  1.00  0.00    -0.122 C  
HETATM    4  C   UNL     1     -10.298  13.679  65.552  1.00  0.00    -0.319 A  
HETATM    5  C   UNL     1      -7.758   6.137  68.349  1.00  0.00    -0.103 C  
HETATM    6  C   UNL     1     -10.299  15.082  65.394  1.00  0.00    -0.410 A  
HETATM    7  C   UNL     1     -11.359  15.704  64.714  1.00  0.00    -0.348 A  
HETATM    8  C   UNL     1      -8.141   6.335  66.826  1.00  0.00    -0.109 C  
HETATM    9  C   UNL     1     -12.395  14.942  64.201  1.00  0.00    -0.212 A  
HETATM   10  C   UNL     1     -12.409  13.541  64.335  1.00  0.00    -0.391 A  
HETATM   11  H   UNL     1     -11.674  10.811  65.003  1.00  0.00     0.000 HD 
HETATM   12  C   UNL     1      -8.146   7.891  66.216  1.00  0.00    -0.110 C  
HETATM   13  C   UNL     1     -11.338  12.930  65.019  1.00  0.00    -0.305 A  
HETATM   14  N   UNL     1     -11.095  11.592  65.313  1.00  0.00    -0.271 NA 
HETATM   15  C   UNL     1      -9.961  11.477  66.082  1.00  0.00    -0.224 A  
HETATM   16  C   UNL     1      -9.456  12.764  66.231  1.00  0.00    -0.198 A  
HETATM   17  C   UNL     1      -9.390   8.880  66.006  1.00  0.00    -0.306 C  
HETATM   18  C   UNL     1      -8.290  13.050  67.104  1.00  0.00    -0.153 C  
HETATM   19  C   UNL     1      -9.474  10.236  66.835  1.00  0.00    -0.169 C  
HETATM   20  C   UNL     1      -8.183  11.922  68.139  1.00  0.00    -0.158 C  
HETATM   21  C   UNL     1      -7.072  10.223  66.771  1.00  0.00    -0.094 C  
HETATM   22  N   UNL     1      -8.236  10.567  67.559  1.00  0.00    -0.114 NA 
ENDROOT
BRANCH   3  23
HETATM   23  O   UNL     1      -9.358   7.911  68.743  1.00  0.00    -0.147 OA 
BRANCH  23  24
HETATM   24  C   UNL     1     -10.190   7.670  69.810  1.00  0.00    -0.210 C  
HETATM   25  O   UNL     1     -10.400   6.545  70.252  1.00  0.00    -0.191 OA 
BRANCH  24  26
HETATM   26  C   UNL     1     -10.939   8.809  70.441  1.00  0.00    -0.262 A  
HETATM   27  C   UNL     1     -12.600  11.039  71.024  1.00  0.00    -0.411 A  
HETATM   28  C   UNL     1     -12.001   8.688  71.326  1.00  0.00    -0.339 A  
HETATM   29  C   UNL     1     -10.626  10.094  69.972  1.00  0.00    -0.338 A  
HETATM   30  C   UNL     1     -11.457  11.194  70.219  1.00  0.00    -0.237 A  
HETATM   31  C   UNL     1     -12.853   9.778  71.601  1.00  0.00    -0.421 A  
BRANCH  30  32
HETATM   32  O   UNL     1     -11.230  12.434  69.663  1.00  0.00    -0.166 OA 
HETATM   33  C   UNL     1     -12.126  12.813  68.619  1.00  0.00    -0.113 C  
ENDBRANCH  30  32
BRANCH  27  34
HETATM   34  O   UNL     1     -13.375  12.162  71.199  1.00  0.00    -0.004 OA 
HETATM   35  C   UNL     1     -13.211  12.867  72.428  1.00  0.00    -0.342 C  
ENDBRANCH  27  34
BRANCH  31  36
HETATM   36  O   UNL     1     -13.934   9.652  72.438  1.00  0.00    -0.327 OA 
HETATM   37  C   UNL     1     -14.401   8.323  72.653  1.00  0.00    -0.004 C  
ENDBRANCH  31  36
ENDBRANCH  24  26
ENDBRANCH  23  24
ENDBRANCH   3  23
BRANCH   5  38
HETATM   38  O   UNL     1      -6.386   5.755  68.575  1.00  0.00    -0.037 OA 
HETATM   39  C   UNL     1      -5.782   4.833  67.689  1.00  0.00    -0.021 C  
ENDBRANCH   5  38
BRANCH   8  40
HETATM   40  C   UNL     1      -9.363   5.472  66.583  1.00  0.00    -0.141 C  
HETATM   41  O   UNL     1     -10.154   5.129  67.447  1.00  0.00    -0.170 OA 
BRANCH  40  42
HETATM   42  O   UNL     1      -9.409   5.060  65.287  1.00  0.00    -0.152 OA 
HETATM   43  C   UNL     1     -10.099   3.849  64.945  1.00  0.00    -0.182 C  
ENDBRANCH  40  42
ENDBRANCH   8  40
TORSDOF 9
ENDMDL
MODEL       35
REMARK 921   NORMALIZED FREE ENERGY PREDICTED BY IDOCK:   -4.82 KCAL/MOL
REMARK 922        TOTAL FREE ENERGY PREDICTED BY IDOCK:   -9.99 KCAL/MOL
REMARK 923 INTER-LIGAND FREE ENERGY PREDICTED BY IDOCK:   -8.33 KCAL/MOL
REMARK 924 INTRA-LIGAND FREE ENERGY PREDICTED BY IDOCK:   -1.66 KCAL/MOL
REMARK 927      BINDING AFFINITY PREDICTED BY RF-SCORE:    0.00 PKD
ROOT
HETATM    1  C   UNL     1      -9.771  13.622  68.160  1.00  0.00    -0.229 C  
HETATM    2  C   UNL     1      -8.832  13.730  66.955  1.00  0.00    -0.230 C  
HETATM    3  C   UNL     1      -9.384  13.181  65.589  1.00  0.00     0.241 C  
HETATM    4  C   UNL     1      -9.988   8.281  71.139  1.00  0.00    -0.230 A  
HETATM    5  C   UNL     1     -10.384  14.267  65.209  1.00  0.00    -0.395 C  
HETATM    6  C   UNL     1      -9.412   7.470  72.141  1.00  0.00    -0.185 A  
HETATM    7  C   UNL     1     -10.143   6.393  72.670  1.00  0.00    -0.193 A  
HETATM    8  C   UNL     1     -11.542  14.125  66.279  1.00  0.00    -0.379 C  
HETATM    9  C   UNL     1     -11.423   6.133  72.210  1.00  0.00    -0.360 A  
HETATM   10  C   UNL     1     -12.022   6.936  71.221  1.00  0.00    -0.402 A  
HETATM   11  H   UNL     1     -12.502   9.021  69.256  1.00  0.00     0.000 HD 
HETATM   12  C   UNL     1     -11.206  13.302  67.693  1.00  0.00    -0.307 C  
HETATM   13  C   UNL     1     -11.277   8.014  70.700  1.00  0.00    -0.261 A  
HETATM   14  N   UNL     1     -11.598   8.949  69.723  1.00  0.00     0.186 NA 
HETATM   15  C   UNL     1     -10.517   9.764  69.478  1.00  0.00    -0.232 A  
HETATM   16  C   UNL     1      -9.516   9.362  70.354  1.00  0.00    -0.319 A  
HETATM   17  C   UNL     1     -11.533  11.778  68.066  1.00  0.00    -0.388 C  
HETATM   18  C   UNL     1      -8.151   9.943  70.303  1.00  0.00    -0.115 C  
HETATM   19  C   UNL     1     -10.343  10.751  68.319  1.00  0.00    -0.173 C  
HETATM   20  C   UNL     1      -7.931  10.513  68.895  1.00  0.00    -0.128 C  
HETATM   21  C   UNL     1      -9.110  12.645  69.134  1.00  0.00     0.721 C  
HETATM   22  N   UNL     1      -9.020  11.387  68.423  1.00  0.00    -0.168 NA 
ENDROOT
BRANCH   3  23
HETATM   23  O   UNL     1     -10.101  11.886  65.542  1.00  0.00    -0.232 OA 
BRANCH  23  24
HETATM   24  C   UNL     1      -9.674  11.039  64.547  1.00  0.00    -0.273 C  
HETATM   25  O   UNL     1      -9.612  11.375  63.367  1.00  0.00    -0.296 OA 
BRANCH  24  26
HETATM   26  C   UNL     1      -9.322   9.617  64.878  1.00  0.00    -0.306 A  
HETATM   27  C   UNL     1      -8.082   7.197  65.700  1.00  0.00    -0.133 A  
HETATM   28  C   UNL     1      -9.839   8.881  65.935  1.00  0.00    -0.200 A  
HETATM   29  C   UNL     1      -8.271   9.050  64.141  1.00  0.00    -0.166 A  
HETATM   30  C   UNL     1      -7.626   7.878  64.557  1.00  0.00    -0.111 A  
HETATM   31  C   UNL     1      -9.215   7.694  66.374  1.00  0.00    -0.175 A  
BRANCH  30  32
HETATM   32  O   UNL     1      -6.515   7.378  63.914  1.00  0.00    -0.047 OA 
HETATM   33  C   UNL     1      -5.955   8.220  62.907  1.00  0.00    -0.078 C  
ENDBRANCH  30  32
BRANCH  27  34
HETATM   34  O   UNL     1      -7.379   6.069  66.053  1.00  0.00    -0.074 OA 
HETATM   35  C   UNL     1      -6.576   6.156  67.228  1.00  0.00    -0.055 C  
ENDBRANCH  27  34
BRANCH  31  36
HETATM   36  O   UNL     1      -9.694   6.987  67.449  1.00  0.00    -0.131 OA 
HETATM   37  C   UNL     1     -10.996   6.431  67.296  1.00  0.00    -0.392 C  
ENDBRANCH  31  36
ENDBRANCH  24  26
ENDBRANCH  23  24
ENDBRANCH   3  23
BRANCH   5  38
HETATM   38  O   UNL     1      -9.681  15.526  65.252  1.00  0.00    -0.270 OA 
HETATM   39  C   UNL     1     -10.389  16.687  65.639  1.00  0.00    -0.290 C  
ENDBRANCH   5  38
BRANCH   8  40
HETATM   40  C   UNL     1     -12.784  13.731  65.504  1.00  0.00    -0.488 C  
HETATM   41  O   UNL     1     -13.754  14.452  65.333  1.00  0.00    -0.236 OA 
BRANCH  40  42
HETATM   42  O   UNL     1     -12.706  12.433  65.101  1.00  0.00    -0.630 OA 
HETATM   43  C   UNL     1     -12.974  12.091  63.735  1.00  0.00    -0.206 C  
ENDBRANCH  40  42
ENDBRANCH   8  40
TORSDOF 9
ENDMDL
MODEL       36
REMARK 921   NORMALIZED FREE ENERGY PREDICTED BY IDOCK:   -4.79 KCAL/MOL
REMARK 922        TOTAL FREE ENERGY PREDICTED BY IDOCK:   -9.94 KCAL/MOL
REMARK 923 INTER-LIGAND FREE ENERGY PREDICTED BY IDOCK:   -7.49 KCAL/MOL
REMARK 924 INTRA-LIGAND FREE ENERGY PREDICTED BY IDOCK:   -2.45 KCAL/MOL
REMARK 927      BINDING AFFINITY PREDICTED BY RF-SCORE:    0.00 PKD
ROOT
HETATM    1  C   UNL     1      -7.709   9.624  69.696  1.00  0.00    -0.124 C  
HETATM    2  C   UNL     1      -8.348   8.788  70.809  1.00  0.00    -0.185 C  
HETATM    3  C   UNL     1      -8.840   7.350  70.407  1.00  0.00    -0.149 C  
HETATM    4  C   UNL     1     -11.438  12.665  65.914  1.00  0.00    -0.407 A  
HETATM    5  C   UNL     1      -7.517   6.603  70.279  1.00  0.00    -0.094 C  
HETATM    6  C   UNL     1     -12.182  13.844  65.695  1.00  0.00    -0.477 A  
HETATM    7  C   UNL     1     -12.610  14.165  64.396  1.00  0.00    -0.198 A  
HETATM    8  C   UNL     1      -6.829   7.242  69.004  1.00  0.00    -0.064 C  
HETATM    9  C   UNL     1     -12.300  13.327  63.338  1.00  0.00    -0.402 A  
HETATM   10  C   UNL     1     -11.547  12.153  63.531  1.00  0.00    -0.562 A  
HETATM   11  H   UNL     1      -9.991  10.024  64.751  1.00  0.00     0.000 HD 
HETATM   12  C   UNL     1      -7.374   8.733  68.483  1.00  0.00    -0.085 C  
HETATM   13  C   UNL     1     -11.124  11.844  64.840  1.00  0.00    -0.307 A  
HETATM   14  N   UNL     1     -10.394  10.765  65.326  1.00  0.00    -0.277 NA 
HETATM   15  C   UNL     1     -10.296  10.841  66.696  1.00  0.00    -0.241 A  
HETATM   16  C   UNL     1     -10.934  12.018  67.070  1.00  0.00    -0.323 A  
HETATM   17  C   UNL     1      -8.413   9.063  67.308  1.00  0.00    -0.114 C  
HETATM   18  C   UNL     1     -11.129  12.382  68.495  1.00  0.00    -0.296 C  
HETATM   19  C   UNL     1      -9.808   9.749  67.652  1.00  0.00    -0.165 C  
HETATM   20  C   UNL     1     -11.070  11.094  69.327  1.00  0.00    -0.259 C  
HETATM   21  C   UNL     1      -8.642  10.814  69.463  1.00  0.00     0.135 C  
HETATM   22  N   UNL     1      -9.902  10.244  69.035  1.00  0.00    -0.196 NA 
ENDROOT
BRANCH   3  23
HETATM   23  O   UNL     1      -9.587   7.145  69.145  1.00  0.00    -0.154 OA 
BRANCH  23  24
HETATM   24  C   UNL     1     -10.469   6.091  69.175  1.00  0.00    -0.257 C  
HETATM   25  O   UNL     1     -11.523   6.122  69.804  1.00  0.00    -0.433 OA 
BRANCH  24  26
HETATM   26  C   UNL     1     -10.125   4.811  68.468  1.00  0.00    -0.115 A  
HETATM   27  C   UNL     1      -8.954   2.741  66.915  1.00  0.00    -0.152 A  
HETATM   28  C   UNL     1      -9.653   3.654  69.072  1.00  0.00    -0.165 A  
HETATM   29  C   UNL     1     -10.144   4.852  67.065  1.00  0.00    -0.243 A  
HETATM   30  C   UNL     1      -9.536   3.858  66.289  1.00  0.00    -0.185 A  
HETATM   31  C   UNL     1      -9.041   2.632  68.317  1.00  0.00    -0.179 A  
BRANCH  30  32
HETATM   32  O   UNL     1      -9.438   3.946  64.918  1.00  0.00    -0.148 OA 
HETATM   33  C   UNL     1     -10.675   3.904  64.207  1.00  0.00    -0.199 C  
ENDBRANCH  30  32
BRANCH  27  34
HETATM   34  O   UNL     1      -8.359   1.822  66.083  1.00  0.00    -0.082 OA 
HETATM   35  C   UNL     1      -6.937   1.873  65.986  1.00  0.00    -0.043 C  
ENDBRANCH  27  34
BRANCH  31  36
HETATM   36  O   UNL     1      -8.530   1.507  68.915  1.00  0.00    -0.051 OA 
HETATM   37  C   UNL     1      -7.416   1.715  69.780  1.00  0.00    -0.036 C  
ENDBRANCH  31  36
ENDBRANCH  24  26
ENDBRANCH  23  24
ENDBRANCH   3  23
BRANCH   5  38
HETATM   38  O   UNL     1      -6.795   6.803  71.511  1.00  0.00    -0.063 OA 
HETATM   39  C   UNL     1      -5.432   6.432  71.568  1.00  0.00    -0.027 C  
ENDBRANCH   5  38
BRANCH   8  40
HETATM   40  C   UNL     1      -6.720   6.127  67.982  1.00  0.00    -0.064 C  
HETATM   41  O   UNL     1      -6.918   6.259  66.785  1.00  0.00    -0.064 OA 
BRANCH  40  42
HETATM   42  O   UNL     1      -6.456   4.940  68.594  1.00  0.00    -0.035 OA 
HETATM   43  C   UNL     1      -5.160   4.340  68.465  1.00  0.00    -0.007 C  
ENDBRANCH  40  42
ENDBRANCH   8  40
TORSDOF 9
ENDMDL
MODEL       37
REMARK 921   NORMALIZED FREE ENERGY PREDICTED BY IDOCK:   -4.77 KCAL/MOL
REMARK 922        TOTAL FREE ENERGY PREDICTED BY IDOCK:   -9.92 KCAL/MOL
REMARK 923 INTER-LIGAND FREE ENERGY PREDICTED BY IDOCK:   -8.38 KCAL/MOL
REMARK 924 INTRA-LIGAND FREE ENERGY PREDICTED BY IDOCK:   -1.54 KCAL/MOL
REMARK 927      BINDING AFFINITY PREDICTED BY RF-SCORE:    0.00 PKD
ROOT
HETATM    1  C   UNL     1      -9.584   7.741  66.527  1.00  0.00    -0.270 C  
HETATM    2  C   UNL     1     -10.507   8.949  66.347  1.00  0.00    -0.071 C  
HETATM    3  C   UNL     1      -9.881  10.358  66.654  1.00  0.00    -0.202 C  
HETATM    4  C   UNL     1      -8.901   5.486  72.175  1.00  0.00    -0.131 A  
HETATM    5  C   UNL     1      -8.985  10.561  65.437  1.00  0.00    -0.186 C  
HETATM    6  C   UNL     1      -9.412   4.617  73.163  1.00  0.00    -0.140 A  
HETATM    7  C   UNL     1      -8.589   4.212  74.227  1.00  0.00    -0.096 A  
HETATM    8  C   UNL     1      -7.837   9.485  65.612  1.00  0.00    -0.101 C  
HETATM    9  C   UNL     1      -7.282   4.664  74.302  1.00  0.00    -0.077 A  
HETATM   10  C   UNL     1      -6.747   5.519  73.321  1.00  0.00    -0.078 A  
HETATM   11  H   UNL     1      -6.438   7.178  70.955  1.00  0.00     0.000 HD 
HETATM   12  C   UNL     1      -8.117   8.202  66.645  1.00  0.00    -0.103 C  
HETATM   13  C   UNL     1      -7.584   5.917  72.258  1.00  0.00    -0.101 A  
HETATM   14  N   UNL     1      -7.339   6.752  71.174  1.00  0.00    -0.077 NA 
HETATM   15  C   UNL     1      -8.489   6.921  70.439  1.00  0.00    -0.134 A  
HETATM   16  C   UNL     1      -9.461   6.136  71.047  1.00  0.00    -0.187 A  
HETATM   17  C   UNL     1      -7.649   8.024  68.168  1.00  0.00    -0.109 C  
HETATM   18  C   UNL     1     -10.875   6.152  70.596  1.00  0.00    -0.355 C  
HETATM   19  C   UNL     1      -8.737   7.944  69.327  1.00  0.00    -0.138 C  
HETATM   20  C   UNL     1     -11.125   7.478  69.865  1.00  0.00    -0.171 C  
HETATM   21  C   UNL     1     -10.164   6.925  67.683  1.00  0.00    -0.185 C  
HETATM   22  N   UNL     1     -10.118   7.798  68.838  1.00  0.00    -0.190 NA 
ENDROOT
BRANCH   3  23
HETATM   23  O   UNL     1      -9.041  10.554  67.858  1.00  0.00    -0.134 OA 
BRANCH  23  24
HETATM   24  C   UNL     1      -8.991  11.851  68.309  1.00  0.00    -0.178 C  
HETATM   25  O   UNL     1      -7.941  12.477  68.427  1.00  0.00    -0.145 OA 
BRANCH  24  26
HETATM   26  C   UNL     1     -10.255  12.538  68.742  1.00  0.00    -0.101 A  
HETATM   27  C   UNL     1     -12.373  13.789  70.163  1.00  0.00    -0.323 A  
HETATM   28  C   UNL     1     -10.574  13.868  68.509  1.00  0.00    -0.260 A  
HETATM   29  C   UNL     1     -11.106  11.801  69.580  1.00  0.00    -0.199 A  
HETATM   30  C   UNL     1     -12.129  12.412  70.316  1.00  0.00    -0.297 A  
HETATM   31  C   UNL     1     -11.602  14.511  69.230  1.00  0.00    -0.302 A  
BRANCH  30  32
HETATM   32  O   UNL     1     -12.891  11.725  71.235  1.00  0.00    -0.386 OA 
HETATM   33  C   UNL     1     -12.554  10.349  71.409  1.00  0.00    -0.434 C  
ENDBRANCH  30  32
BRANCH  27  34
HETATM   34  O   UNL     1     -13.379  14.315  70.939  1.00  0.00    -0.330 OA 
HETATM   35  C   UNL     1     -12.988  14.919  72.171  1.00  0.00    -0.334 C  
ENDBRANCH  27  34
BRANCH  31  36
HETATM   36  O   UNL     1     -11.890  15.840  69.039  1.00  0.00    -0.391 OA 
HETATM   37  C   UNL     1     -11.007  16.549  68.175  1.00  0.00    -0.336 C  
ENDBRANCH  31  36
ENDBRANCH  24  26
ENDBRANCH  23  24
ENDBRANCH   3  23
BRANCH   5  38
HETATM   38  O   UNL     1      -9.808  10.375  64.268  1.00  0.00    -0.315 OA 
HETATM   39  C   UNL     1     -10.249  11.515  63.558  1.00  0.00    -0.420 C  
ENDBRANCH   5  38
BRANCH   8  40
HETATM   40  C   UNL     1      -6.549  10.267  65.780  1.00  0.00    -0.119 C  
HETATM   41  O   UNL     1      -6.088  10.624  66.852  1.00  0.00    -0.056 OA 
BRANCH  40  42
HETATM   42  O   UNL     1      -6.024  10.591  64.567  1.00  0.00    -0.129 OA 
HETATM   43  C   UNL     1      -5.743   9.561  63.609  1.00  0.00    -0.090 C  
ENDBRANCH  40  42
ENDBRANCH   8  40
TORSDOF 9
ENDMDL
MODEL       38
REMARK 921   NORMALIZED FREE ENERGY PREDICTED BY IDOCK:   -4.76 KCAL/MOL
REMARK 922        TOTAL FREE ENERGY PREDICTED BY IDOCK:   -9.90 KCAL/MOL
REMARK 923 INTER-LIGAND FREE ENERGY PREDICTED BY IDOCK:   -7.28 KCAL/MOL
REMARK 924 INTRA-LIGAND FREE ENERGY PREDICTED BY IDOCK:   -2.63 KCAL/MOL
REMARK 927      BINDING AFFINITY PREDICTED BY RF-SCORE:    0.00 PKD
ROOT
HETATM    1  C   UNL     1     -10.763   5.742  67.977  1.00  0.00    -0.290 C  
HETATM    2  C   UNL     1      -9.440   5.083  67.575  1.00  0.00    -0.152 C  
HETATM    3  C   UNL     1      -8.285   5.128  68.641  1.00  0.00    -0.085 C  
HETATM    4  C   UNL     1     -11.255  11.803  67.298  1.00  0.00    -0.364 A  
HETATM    5  C   UNL     1      -8.767   4.094  69.652  1.00  0.00    -0.078 C  
HETATM    6  C   UNL     1     -11.562  12.867  66.421  1.00  0.00    -0.425 A  
HETATM    7  C   UNL     1     -11.860  14.136  66.945  1.00  0.00    -0.458 A  
HETATM    8  C   UNL     1     -10.045   4.757  70.311  1.00  0.00    -0.304 C  
HETATM    9  C   UNL     1     -11.853  14.339  68.315  1.00  0.00    -0.370 A  
HETATM   10  C   UNL     1     -11.563  13.290  69.208  1.00  0.00    -0.370 A  
HETATM   11  H   UNL     1     -10.909  10.680  70.304  1.00  0.00     0.000 HD 
HETATM   12  C   UNL     1     -10.785   6.014  69.495  1.00  0.00    -0.405 C  
HETATM   13  C   UNL     1     -11.266  12.022  68.668  1.00  0.00    -0.258 A  
HETATM   14  N   UNL     1     -10.933  10.826  69.294  1.00  0.00    -0.224 NA 
HETATM   15  C   UNL     1     -10.639   9.867  68.352  1.00  0.00    -0.222 A  
HETATM   16  C   UNL     1     -10.842  10.461  67.112  1.00  0.00    -0.301 A  
HETATM   17  C   UNL     1     -10.624   7.591  69.731  1.00  0.00    -0.245 C  
HETATM   18  C   UNL     1     -10.513   9.760  65.846  1.00  0.00    -0.028 C  
HETATM   19  C   UNL     1      -9.988   8.502  68.591  1.00  0.00    -0.184 C  
HETATM   20  C   UNL     1      -9.471   8.677  66.160  1.00  0.00    -0.240 C  
HETATM   21  C   UNL     1     -10.949   6.937  67.042  1.00  0.00    -0.334 C  
HETATM   22  N   UNL     1      -9.826   7.813  67.300  1.00  0.00    -0.172 NA 
ENDROOT
BRANCH   3  23
HETATM   23  O   UNL     1      -8.008   6.378  69.386  1.00  0.00    -0.106 OA 
BRANCH  23  24
HETATM   24  C   UNL     1      -6.695   6.781  69.345  1.00  0.00    -0.050 C  
HETATM   25  O   UNL     1      -5.881   6.494  70.219  1.00  0.00    -0.021 OA 
BRANCH  24  26
HETATM   26  C   UNL     1      -6.221   7.665  68.226  1.00  0.00    -0.040 A  
HETATM   27  C   UNL     1      -5.856   9.090  65.796  1.00  0.00    -0.051 A  
HETATM   28  C   UNL     1      -6.301   9.050  68.200  1.00  0.00    -0.055 A  
HETATM   29  C   UNL     1      -5.804   7.014  67.055  1.00  0.00    -0.018 A  
HETATM   30  C   UNL     1      -5.658   7.698  65.842  1.00  0.00    -0.033 A  
HETATM   31  C   UNL     1      -6.153   9.768  66.995  1.00  0.00    -0.063 A  
BRANCH  30  32
HETATM   32  O   UNL     1      -5.372   7.054  64.659  1.00  0.00    -0.027 OA 
HETATM   33  C   UNL     1      -6.360   6.127  64.208  1.00  0.00    -0.030 C  
ENDBRANCH  30  32
BRANCH  27  34
HETATM   34  O   UNL     1      -5.716   9.682  64.563  1.00  0.00    -0.071 OA 
HETATM   35  C   UNL     1      -6.913   9.911  63.823  1.00  0.00    -0.124 C  
ENDBRANCH  27  34
BRANCH  31  36
HETATM   36  O   UNL     1      -6.278  11.136  66.954  1.00  0.00    -0.086 OA 
HETATM   37  C   UNL     1      -7.252  11.696  67.831  1.00  0.00    -0.083 C  
ENDBRANCH  31  36
ENDBRANCH  24  26
ENDBRANCH  23  24
ENDBRANCH   3  23
BRANCH   5  38
HETATM   38  O   UNL     1      -9.032   2.878  68.924  1.00  0.00    -0.102 OA 
HETATM   39  C   UNL     1      -8.219   1.748  69.170  1.00  0.00    -0.048 C  
ENDBRANCH   5  38
BRANCH   8  40
HETATM   40  C   UNL     1      -9.708   4.959  71.775  1.00  0.00    -0.166 C  
HETATM   41  O   UNL     1      -8.604   4.781  72.265  1.00  0.00    -0.117 OA 
BRANCH  40  42
HETATM   42  O   UNL     1     -10.824   5.280  72.484  1.00  0.00    -0.228 OA 
HETATM   43  C   UNL     1     -10.744   5.453  73.906  1.00  0.00    -0.252 C  
ENDBRANCH  40  42
ENDBRANCH   8  40
TORSDOF 9
ENDMDL
MODEL       39
REMARK 921   NORMALIZED FREE ENERGY PREDICTED BY IDOCK:   -4.69 KCAL/MOL
REMARK 922        TOTAL FREE ENERGY PREDICTED BY IDOCK:   -9.79 KCAL/MOL
REMARK 923 INTER-LIGAND FREE ENERGY PREDICTED BY IDOCK:   -8.34 KCAL/MOL
REMARK 924 INTRA-LIGAND FREE ENERGY PREDICTED BY IDOCK:   -1.45 KCAL/MOL
REMARK 927      BINDING AFFINITY PREDICTED BY RF-SCORE:    0.00 PKD
ROOT
HETATM    1  C   UNL     1     -11.284  15.867  66.054  1.00  0.00     0.090 C  
HETATM    2  C   UNL     1     -10.922  14.870  64.948  1.00  0.00    -0.422 C  
HETATM    3  C   UNL     1     -10.365  13.477  65.419  1.00  0.00    -0.319 C  
HETATM    4  C   UNL     1      -6.767  19.218  68.465  1.00  0.00    -0.305 A  
HETATM    5  C   UNL     1     -11.631  12.806  65.938  1.00  0.00    -0.382 C  
HETATM    6  C   UNL     1      -5.981  20.385  68.353  1.00  0.00    -0.324 A  
HETATM    7  C   UNL     1      -5.267  20.853  69.469  1.00  0.00    -0.406 A  
HETATM    8  C   UNL     1     -12.007  13.629  67.237  1.00  0.00    -0.420 C  
HETATM    9  C   UNL     1      -5.337  20.170  70.672  1.00  0.00    -0.299 A  
HETATM   10  C   UNL     1      -6.125  19.012  70.810  1.00  0.00     0.129 A  
HETATM   11  H   UNL     1      -7.937  16.807  70.265  1.00  0.00     0.000 HD 
HETATM   12  C   UNL     1     -11.343  15.152  67.419  1.00  0.00    -0.309 C  
HETATM   13  C   UNL     1      -6.837  18.555  69.683  1.00  0.00     0.021 A  
HETATM   14  N   UNL     1      -7.667  17.452  69.521  1.00  0.00     0.244 NA 
HETATM   15  C   UNL     1      -8.073  17.355  68.210  1.00  0.00    -0.249 A  
HETATM   16  C   UNL     1      -7.525  18.448  67.549  1.00  0.00    -0.221 A  
HETATM   17  C   UNL     1     -10.062  15.589  68.277  1.00  0.00    -0.218 C  
HETATM   18  C   UNL     1      -7.655  18.619  66.080  1.00  0.00    -0.276 C  
HETATM   19  C   UNL     1      -8.776  16.170  67.542  1.00  0.00    -0.185 C  
HETATM   20  C   UNL     1      -7.914  17.239  65.462  1.00  0.00     0.982 C  
HETATM   21  C   UNL     1     -10.312  17.039  65.911  1.00  0.00    -0.298 C  
HETATM   22  N   UNL     1      -8.993  16.479  66.119  1.00  0.00    -0.392 NA 
ENDROOT
BRANCH   3  23
HETATM   23  O   UNL     1      -9.353  13.406  66.498  1.00  0.00    -0.256 OA 
BRANCH  23  24
HETATM   24  C   UNL     1      -8.771  12.170  66.647  1.00  0.00    -0.153 C  
HETATM   25  O   UNL     1      -8.683  11.360  65.729  1.00  0.00    -0.162 OA 
BRANCH  24  26
HETATM   26  C   UNL     1      -8.266  11.741  67.995  1.00  0.00    -0.152 A  
HETATM   27  C   UNL     1      -7.211  10.352  70.237  1.00  0.00     0.013 A  
HETATM   28  C   UNL     1      -7.072  12.142  68.577  1.00  0.00    -0.099 A  
HETATM   29  C   UNL     1      -9.002  10.737  68.642  1.00  0.00    -0.162 A  
HETATM   30  C   UNL     1      -8.478  10.018  69.724  1.00  0.00    -0.172 A  
HETATM   31  C   UNL     1      -6.521  11.442  69.671  1.00  0.00    -0.133 A  
BRANCH  30  32
HETATM   32  O   UNL     1      -9.135   8.947  70.289  1.00  0.00    -0.156 OA 
HETATM   33  C   UNL     1     -10.368   9.256  70.939  1.00  0.00    -0.296 C  
ENDBRANCH  30  32
BRANCH  27  34
HETATM   34  O   UNL     1      -6.760   9.583  71.284  1.00  0.00    -0.259 OA 
HETATM   35  C   UNL     1      -5.952   8.457  70.949  1.00  0.00    -0.033 C  
ENDBRANCH  27  34
BRANCH  31  36
HETATM   36  O   UNL     1      -5.315  11.804  70.220  1.00  0.00    -0.085 OA 
HETATM   37  C   UNL     1      -5.340  12.940  71.079  1.00  0.00    -0.181 C  
ENDBRANCH  31  36
ENDBRANCH  24  26
ENDBRANCH  23  24
ENDBRANCH   3  23
BRANCH   5  38
HETATM   38  O   UNL     1     -12.612  12.874  64.883  1.00  0.00    -0.550 OA 
HETATM   39  C   UNL     1     -12.503  11.977  63.796  1.00  0.00    -0.485 C  
ENDBRANCH   5  38
BRANCH   8  40
HETATM   40  C   UNL     1     -11.892  12.660  68.397  1.00  0.00    -0.301 C  
HETATM   41  O   UNL     1     -12.212  11.483  68.354  1.00  0.00    -0.540 OA 
BRANCH  40  42
HETATM   42  O   UNL     1     -11.467  13.303  69.519  1.00  0.00    -0.268 OA 
HETATM   43  C   UNL     1     -12.398  13.600  70.570  1.00  0.00    -0.355 C  
ENDBRANCH  40  42
ENDBRANCH   8  40
TORSDOF 9
ENDMDL
MODEL       40
REMARK 921   NORMALIZED FREE ENERGY PREDICTED BY IDOCK:   -4.65 KCAL/MOL
REMARK 922        TOTAL FREE ENERGY PREDICTED BY IDOCK:   -9.73 KCAL/MOL
REMARK 923 INTER-LIGAND FREE ENERGY PREDICTED BY IDOCK:   -8.30 KCAL/MOL
REMARK 924 INTRA-LIGAND FREE ENERGY PREDICTED BY IDOCK:   -1.43 KCAL/MOL
REMARK 927      BINDING AFFINITY PREDICTED BY RF-SCORE:    0.00 PKD
ROOT
HETATM    1  C   UNL     1      -9.661  13.525  68.093  1.00  0.00    -0.215 C  
HETATM    2  C   UNL     1      -8.739  13.630  66.874  1.00  0.00    -0.162 C  
HETATM    3  C   UNL     1      -9.299  13.051  65.524  1.00  0.00     0.302 C  
HETATM    4  C   UNL     1      -9.748   8.228  71.157  1.00  0.00    -0.209 A  
HETATM    5  C   UNL     1     -10.322  14.114  65.141  1.00  0.00    -0.405 C  
HETATM    6  C   UNL     1      -9.145   7.443  72.164  1.00  0.00    -0.156 A  
HETATM    7  C   UNL     1      -9.851   6.363  72.719  1.00  0.00    -0.179 A  
HETATM    8  C   UNL     1     -11.464  13.969  66.227  1.00  0.00    -0.358 C  
HETATM    9  C   UNL     1     -11.132   6.073  72.279  1.00  0.00    -0.324 A  
HETATM   10  C   UNL     1     -11.758   6.851  71.286  1.00  0.00    -0.371 A  
HETATM   11  H   UNL     1     -12.298   8.896  69.295  1.00  0.00     0.000 HD 
HETATM   12  C   UNL     1     -11.096  13.173  67.650  1.00  0.00    -0.295 C  
HETATM   13  C   UNL     1     -11.038   7.932  70.738  1.00  0.00    -0.256 A  
HETATM   14  N   UNL     1     -11.387   8.847  69.751  1.00  0.00    -0.010 NA 
HETATM   15  C   UNL     1     -10.323   9.677  69.480  1.00  0.00    -0.221 A  
HETATM   16  C   UNL     1      -9.305   9.305  70.349  1.00  0.00    -0.295 A  
HETATM   17  C   UNL     1     -11.392  11.650  68.050  1.00  0.00    -0.366 C  
HETATM   18  C   UNL     1      -7.951   9.908  70.271  1.00  0.00    -0.135 C  
HETATM   19  C   UNL     1     -10.182  10.647  68.304  1.00  0.00    -0.166 C  
HETATM   20  C   UNL     1      -7.758  10.460  68.852  1.00  0.00    -0.111 C  
HETATM   21  C   UNL     1      -8.971  12.575  69.073  1.00  0.00     0.501 C  
HETATM   22  N   UNL     1      -8.869  11.308  68.381  1.00  0.00    -0.155 NA 
ENDROOT
BRANCH   3  23
HETATM   23  O   UNL     1      -9.993  11.743  65.507  1.00  0.00    -0.229 OA 
BRANCH  23  24
HETATM   24  C   UNL     1      -9.619  10.917  64.473  1.00  0.00    -0.264 C  
HETATM   25  O   UNL     1      -9.906  11.144  63.301  1.00  0.00    -0.310 OA 
BRANCH  24  26
HETATM   26  C   UNL     1      -8.880   9.644  64.768  1.00  0.00    -0.242 A  
HETATM   27  C   UNL     1      -8.064   6.953  65.178  1.00  0.00    -0.132 A  
HETATM   28  C   UNL     1      -7.903   9.071  63.966  1.00  0.00    -0.133 A  
HETATM   29  C   UNL     1      -9.331   8.905  65.873  1.00  0.00    -0.301 A  
HETATM   30  C   UNL     1      -8.967   7.566  66.065  1.00  0.00    -0.127 A  
HETATM   31  C   UNL     1      -7.511   7.727  64.138  1.00  0.00    -0.105 A  
BRANCH  30  32
HETATM   32  O   UNL     1      -9.499   6.792  67.072  1.00  0.00    -0.135 OA 
HETATM   33  C   UNL     1     -10.915   6.612  67.028  1.00  0.00    -0.393 C  
ENDBRANCH  30  32
BRANCH  27  34
HETATM   34  O   UNL     1      -7.777   5.631  65.423  1.00  0.00    -0.081 OA 
HETATM   35  C   UNL     1      -8.300   4.680  64.498  1.00  0.00    -0.123 C  
ENDBRANCH  27  34
BRANCH  31  36
HETATM   36  O   UNL     1      -6.579   7.140  63.317  1.00  0.00    -0.050 OA 
HETATM   37  C   UNL     1      -5.217   7.436  63.612  1.00  0.00    -0.033 C  
ENDBRANCH  31  36
ENDBRANCH  24  26
ENDBRANCH  23  24
ENDBRANCH   3  23
BRANCH   5  38
HETATM   38  O   UNL     1      -9.640  15.384  65.155  1.00  0.00    -0.171 OA 
HETATM   39  C   UNL     1     -10.323  16.516  65.657  1.00  0.00    -0.322 C  
ENDBRANCH   5  38
BRANCH   8  40
HETATM   40  C   UNL     1     -12.709  13.541  65.475  1.00  0.00    -0.440 C  
HETATM   41  O   UNL     1     -13.724  14.211  65.374  1.00  0.00    -0.363 OA 
BRANCH  40  42
HETATM   42  O   UNL     1     -12.571  12.272  65.003  1.00  0.00    -0.575 OA 
HETATM   43  C   UNL     1     -13.034  11.944  63.686  1.00  0.00    -0.187 C  
ENDBRANCH  40  42
ENDBRANCH   8  40
TORSDOF 9
ENDMDL
MODEL       41
REMARK 921   NORMALIZED FREE ENERGY PREDICTED BY IDOCK:   -4.63 KCAL/MOL
REMARK 922        TOTAL FREE ENERGY PREDICTED BY IDOCK:   -9.71 KCAL/MOL
REMARK 923 INTER-LIGAND FREE ENERGY PREDICTED BY IDOCK:   -8.71 KCAL/MOL
REMARK 924 INTRA-LIGAND FREE ENERGY PREDICTED BY IDOCK:   -1.00 KCAL/MOL
REMARK 927      BINDING AFFINITY PREDICTED BY RF-SCORE:    0.00 PKD
ROOT
HETATM    1  C   UNL     1     -12.280  11.429  69.343  1.00  0.00    -0.288 C  
HETATM    2  C   UNL     1     -11.457  12.584  69.923  1.00  0.00    -0.159 C  
HETATM    3  C   UNL     1     -10.310  13.150  69.010  1.00  0.00     0.050 C  
HETATM    4  C   UNL     1      -9.992   5.773  69.823  1.00  0.00    -0.250 A  
HETATM    5  C   UNL     1     -11.108  13.927  67.969  1.00  0.00    -0.259 C  
HETATM    6  C   UNL     1      -9.862   4.623  70.630  1.00  0.00    -0.296 A  
HETATM    7  C   UNL     1      -9.487   3.402  70.046  1.00  0.00    -0.243 A  
HETATM    8  C   UNL     1     -11.863  12.809  67.140  1.00  0.00    -0.415 C  
HETATM    9  C   UNL     1      -9.248   3.330  68.684  1.00  0.00    -0.232 A  
HETATM   10  C   UNL     1      -9.384   4.462  67.857  1.00  0.00    -0.190 A  
HETATM   11  H   UNL     1      -9.897   7.160  66.910  1.00  0.00     0.000 HD 
HETATM   12  C   UNL     1     -12.019  11.295  67.829  1.00  0.00    -0.014 C  
HETATM   13  C   UNL     1      -9.761   5.681  68.457  1.00  0.00    -0.136 A  
HETATM   14  N   UNL     1      -9.954   6.942  67.905  1.00  0.00    -0.142 NA 
HETATM   15  C   UNL     1     -10.233   7.853  68.897  1.00  0.00    -0.205 A  
HETATM   16  C   UNL     1     -10.264   7.138  70.088  1.00  0.00    -0.204 A  
HETATM   17  C   UNL     1     -11.127   9.986  67.581  1.00  0.00    -0.222 C  
HETATM   18  C   UNL     1     -10.426   7.813  71.400  1.00  0.00    -0.237 C  
HETATM   19  C   UNL     1     -10.263   9.379  68.772  1.00  0.00    -0.203 C  
HETATM   20  C   UNL     1      -9.974   9.271  71.245  1.00  0.00    -0.271 C  
HETATM   21  C   UNL     1     -11.989  10.211  70.221  1.00  0.00    -0.233 C  
HETATM   22  N   UNL     1     -10.569   9.964  70.087  1.00  0.00    -0.278 NA 
ENDROOT
BRANCH   3  23
HETATM   23  O   UNL     1      -9.414  12.225  68.279  1.00  0.00    -0.210 OA 
BRANCH  23  24
HETATM   24  C   UNL     1      -8.347  12.837  67.666  1.00  0.00    -0.175 C  
HETATM   25  O   UNL     1      -7.748  12.340  66.717  1.00  0.00    -0.062 OA 
BRANCH  24  26
HETATM   26  C   UNL     1      -7.830  14.142  68.200  1.00  0.00    -0.142 A  
HETATM   27  C   UNL     1      -6.264  16.363  69.029  1.00  0.00    -0.158 A  
HETATM   28  C   UNL     1      -7.987  15.382  67.598  1.00  0.00    -0.172 A  
HETATM   29  C   UNL     1      -6.992  14.065  69.324  1.00  0.00    -0.084 A  
HETATM   30  C   UNL     1      -6.186  15.140  69.719  1.00  0.00    -0.147 A  
HETATM   31  C   UNL     1      -7.194  16.485  67.978  1.00  0.00    -0.143 A  
BRANCH  30  32
HETATM   32  O   UNL     1      -5.268  15.040  70.742  1.00  0.00    -0.122 OA 
HETATM   33  C   UNL     1      -5.496  13.982  71.672  1.00  0.00    -0.227 C  
ENDBRANCH  30  32
BRANCH  27  34
HETATM   34  O   UNL     1      -5.423  17.360  69.466  1.00  0.00    -0.173 OA 
HETATM   35  C   UNL     1      -6.033  18.469  70.123  1.00  0.00    -0.143 C  
ENDBRANCH  27  34
BRANCH  31  36
HETATM   36  O   UNL     1      -7.311  17.703  67.352  1.00  0.00    -0.180 OA 
HETATM   37  C   UNL     1      -6.652  17.820  66.094  1.00  0.00    -0.274 C  
ENDBRANCH  31  36
ENDBRANCH  24  26
ENDBRANCH  23  24
ENDBRANCH   3  23
BRANCH   5  38
HETATM   38  O   UNL     1     -11.976  14.829  68.685  1.00  0.00    -0.311 OA 
HETATM   39  C   UNL     1     -11.514  16.136  68.966  1.00  0.00    -0.323 C  
ENDBRANCH   5  38
BRANCH   8  40
HETATM   40  C   UNL     1     -11.323  12.896  65.727  1.00  0.00    -0.315 C  
HETATM   41  O   UNL     1     -10.603  12.060  65.205  1.00  0.00    -0.267 OA 
BRANCH  40  42
HETATM   42  O   UNL     1     -11.679  14.076  65.150  1.00  0.00    -0.325 OA 
HETATM   43  C   UNL     1     -10.666  14.990  64.706  1.00  0.00    -0.330 C  
ENDBRANCH  40  42
ENDBRANCH   8  40
TORSDOF 9
ENDMDL
MODEL       42
REMARK 921   NORMALIZED FREE ENERGY PREDICTED BY IDOCK:   -4.62 KCAL/MOL
REMARK 922        TOTAL FREE ENERGY PREDICTED BY IDOCK:   -9.69 KCAL/MOL
REMARK 923 INTER-LIGAND FREE ENERGY PREDICTED BY IDOCK:   -7.89 KCAL/MOL
REMARK 924 INTRA-LIGAND FREE ENERGY PREDICTED BY IDOCK:   -1.80 KCAL/MOL
REMARK 927      BINDING AFFINITY PREDICTED BY RF-SCORE:    0.00 PKD
ROOT
HETATM    1  C   UNL     1      -7.095   9.463  69.115  1.00  0.00    -0.062 C  
HETATM    2  C   UNL     1      -7.623   8.584  70.253  1.00  0.00    -0.075 C  
HETATM    3  C   UNL     1      -8.155   7.162  69.846  1.00  0.00    -0.125 C  
HETATM    4  C   UNL     1     -11.170  12.639  65.835  1.00  0.00    -0.350 A  
HETATM    5  C   UNL     1      -6.852   6.423  69.561  1.00  0.00    -0.065 C  
HETATM    6  C   UNL     1     -11.930  13.824  65.735  1.00  0.00    -0.423 A  
HETATM    7  C   UNL     1     -12.482  14.194  64.497  1.00  0.00    -0.350 A  
HETATM    8  C   UNL     1      -6.291   7.110  68.250  1.00  0.00    -0.040 C  
HETATM    9  C   UNL     1     -12.279  13.397  63.383  1.00  0.00    -0.419 A  
HETATM   10  C   UNL     1     -11.514  12.218  63.456  1.00  0.00    -0.558 A  
HETATM   11  H   UNL     1      -9.850  10.047  64.436  1.00  0.00     0.000 HD 
HETATM   12  C   UNL     1      -6.882   8.619  67.842  1.00  0.00    -0.067 C  
HETATM   13  C   UNL     1     -10.964  11.860  64.705  1.00  0.00    -0.316 A  
HETATM   14  N   UNL     1     -10.193  10.764  65.076  1.00  0.00    -0.302 NA 
HETATM   15  C   UNL     1      -9.960  10.789  66.431  1.00  0.00    -0.216 A  
HETATM   16  C   UNL     1     -10.557  11.949  66.910  1.00  0.00    -0.264 A  
HETATM   17  C   UNL     1      -8.030   8.992  66.788  1.00  0.00    -0.107 C  
HETATM   18  C   UNL     1     -10.610  12.259  68.361  1.00  0.00    -0.250 C  
HETATM   19  C   UNL     1      -9.383   9.662  67.293  1.00  0.00    -0.138 C  
HETATM   20  C   UNL     1     -10.472  10.940  69.134  1.00  0.00    -0.221 C  
HETATM   21  C   UNL     1      -8.043  10.659  69.020  1.00  0.00    -0.148 C  
HETATM   22  N   UNL     1      -9.340  10.103  68.696  1.00  0.00    -0.154 NA 
ENDROOT
BRANCH   3  23
HETATM   23  O   UNL     1      -9.022   7.003  68.657  1.00  0.00    -0.131 OA 
BRANCH  23  24
HETATM   24  C   UNL     1     -10.199   6.336  68.900  1.00  0.00    -0.181 C  
HETATM   25  O   UNL     1     -11.207   6.488  68.215  1.00  0.00    -0.277 OA 
BRANCH  24  26
HETATM   26  C   UNL     1     -10.306   5.422  70.087  1.00  0.00    -0.361 A  
HETATM   27  C   UNL     1      -9.846   3.754  72.340  1.00  0.00    -0.158 A  
HETATM   28  C   UNL     1     -10.791   5.774  71.339  1.00  0.00    -0.316 A  
HETATM   29  C   UNL     1      -9.723   4.153  69.948  1.00  0.00    -0.280 A  
HETATM   30  C   UNL     1      -9.455   3.337  71.055  1.00  0.00    -0.158 A  
HETATM   31  C   UNL     1     -10.543   4.971  72.472  1.00  0.00    -0.219 A  
BRANCH  30  32
HETATM   32  O   UNL     1      -8.772   2.146  70.948  1.00  0.00    -0.053 OA 
HETATM   33  C   UNL     1      -7.443   2.242  70.436  1.00  0.00    -0.039 C  
ENDBRANCH  30  32
BRANCH  27  34
HETATM   34  O   UNL     1      -9.526   2.906  73.375  1.00  0.00    -0.091 OA 
HETATM   35  C   UNL     1     -10.557   2.031  73.827  1.00  0.00    -0.134 C  
ENDBRANCH  27  34
BRANCH  31  36
HETATM   36  O   UNL     1     -10.980   5.338  73.721  1.00  0.00    -0.295 OA 
HETATM   37  C   UNL     1     -10.187   6.311  74.395  1.00  0.00    -0.321 C  
ENDBRANCH  31  36
ENDBRANCH  24  26
ENDBRANCH  23  24
ENDBRANCH   3  23
BRANCH   5  38
HETATM   38  O   UNL     1      -6.013   6.576  70.723  1.00  0.00    -0.026 OA 
HETATM   39  C   UNL     1      -5.844   5.472  71.590  1.00  0.00    -0.025 C  
ENDBRANCH   5  38
BRANCH   8  40
HETATM   40  C   UNL     1      -6.285   6.035  67.181  1.00  0.00    -0.029 C  
HETATM   41  O   UNL     1      -6.026   6.227  66.004  1.00  0.00    -0.024 OA 
BRANCH  40  42
HETATM   42  O   UNL     1      -6.694   4.844  67.697  1.00  0.00    -0.052 OA 
HETATM   43  C   UNL     1      -7.411   3.915  66.872  1.00  0.00    -0.072 C  
ENDBRANCH  40  42
ENDBRANCH   8  40
TORSDOF 9
ENDMDL
MODEL       43
REMARK 921   NORMALIZED FREE ENERGY PREDICTED BY IDOCK:   -4.62 KCAL/MOL
REMARK 922        TOTAL FREE ENERGY PREDICTED BY IDOCK:   -9.68 KCAL/MOL
REMARK 923 INTER-LIGAND FREE ENERGY PREDICTED BY IDOCK:   -7.29 KCAL/MOL
REMARK 924 INTRA-LIGAND FREE ENERGY PREDICTED BY IDOCK:   -2.39 KCAL/MOL
REMARK 927      BINDING AFFINITY PREDICTED BY RF-SCORE:    0.00 PKD
ROOT
HETATM    1  C   UNL     1     -11.201   5.878  69.202  1.00  0.00    -0.217 C  
HETATM    2  C   UNL     1      -9.895   5.144  68.886  1.00  0.00    -0.241 C  
HETATM    3  C   UNL     1      -8.743   5.279  69.948  1.00  0.00    -0.105 C  
HETATM    4  C   UNL     1     -11.528  11.835  67.841  1.00  0.00    -0.387 A  
HETATM    5  C   UNL     1      -9.257   4.379  71.066  1.00  0.00    -0.138 C  
HETATM    6  C   UNL     1     -11.803  12.801  66.848  1.00  0.00    -0.440 A  
HETATM    7  C   UNL     1     -12.069  14.128  67.223  1.00  0.00    -0.407 A  
HETATM    8  C   UNL     1     -10.519   5.144  71.637  1.00  0.00    -0.255 C  
HETATM    9  C   UNL     1     -12.061  14.484  68.561  1.00  0.00    -0.257 A  
HETATM   10  C   UNL     1     -11.803  13.536  69.569  1.00  0.00    -0.392 A  
HETATM   11  H   UNL     1     -11.223  11.050  70.956  1.00  0.00     0.000 HD 
HETATM   12  C   UNL     1     -11.222   6.320  70.680  1.00  0.00    -0.401 C  
HETATM   13  C   UNL     1     -11.538  12.207  69.178  1.00  0.00    -0.319 A  
HETATM   14  N   UNL     1     -11.239  11.081  69.937  1.00  0.00    -0.270 NA 
HETATM   15  C   UNL     1     -10.968  10.014  69.111  1.00  0.00    -0.220 A  
HETATM   16  C   UNL     1     -11.150  10.470  67.810  1.00  0.00    -0.382 A  
HETATM   17  C   UNL     1     -11.019   7.909  70.737  1.00  0.00    -0.259 C  
HETATM   18  C   UNL     1     -10.835   9.622  66.634  1.00  0.00     0.001 C  
HETATM   19  C   UNL     1     -10.354   8.669  69.507  1.00  0.00    -0.214 C  
HETATM   20  C   UNL     1      -9.823   8.555  67.074  1.00  0.00    -0.224 C  
HETATM   21  C   UNL     1     -11.352   6.965  68.137  1.00  0.00     0.156 C  
HETATM   22  N   UNL     1     -10.206   7.835  68.303  1.00  0.00    -0.196 NA 
ENDROOT
BRANCH   3  23
HETATM   23  O   UNL     1      -8.436   6.597  70.549  1.00  0.00    -0.134 OA 
BRANCH  23  24
HETATM   24  C   UNL     1      -7.140   7.016  70.360  1.00  0.00    -0.067 C  
HETATM   25  O   UNL     1      -6.170   6.399  70.791  1.00  0.00    -0.037 OA 
BRANCH  24  26
HETATM   26  C   UNL     1      -6.873   8.315  69.654  1.00  0.00    -0.044 A  
HETATM   27  C   UNL     1      -5.806  10.757  68.672  1.00  0.00    -0.039 A  
HETATM   28  C   UNL     1      -6.543   8.454  68.313  1.00  0.00    -0.060 A  
HETATM   29  C   UNL     1      -6.807   9.459  70.464  1.00  0.00    -0.098 A  
HETATM   30  C   UNL     1      -6.248  10.658  70.004  1.00  0.00    -0.111 A  
HETATM   31  C   UNL     1      -5.984   9.650  67.818  1.00  0.00    -0.051 A  
BRANCH  30  32
HETATM   32  O   UNL     1      -6.063  11.750  70.822  1.00  0.00    -0.337 OA 
HETATM   33  C   UNL     1      -5.146  11.563  71.900  1.00  0.00     0.111 C  
ENDBRANCH  30  32
BRANCH  27  34
HETATM   34  O   UNL     1      -5.249  11.961  68.307  1.00  0.00    -0.043 OA 
HETATM   35  C   UNL     1      -6.132  12.931  67.748  1.00  0.00    -0.143 C  
ENDBRANCH  27  34
BRANCH  31  36
HETATM   36  O   UNL     1      -5.611   9.777  66.503  1.00  0.00    -0.044 OA 
HETATM   37  C   UNL     1      -6.675   9.911  65.566  1.00  0.00    -0.094 C  
ENDBRANCH  31  36
ENDBRANCH  24  26
ENDBRANCH  23  24
ENDBRANCH   3  23
BRANCH   5  38
HETATM   38  O   UNL     1      -9.551   3.096  70.477  1.00  0.00    -0.168 OA 
HETATM   39  C   UNL     1      -9.510   1.945  71.298  1.00  0.00    -0.135 C  
ENDBRANCH   5  38
BRANCH   8  40
HETATM   40  C   UNL     1     -10.182   5.502  73.071  1.00  0.00    -0.188 C  
HETATM   41  O   UNL     1     -10.869   6.209  73.791  1.00  0.00    -0.220 OA 
BRANCH  40  42
HETATM   42  O   UNL     1      -8.965   4.999  73.416  1.00  0.00    -0.119 OA 
HETATM   43  C   UNL     1      -7.945   5.875  73.916  1.00  0.00    -0.102 C  
ENDBRANCH  40  42
ENDBRANCH   8  40
TORSDOF 9
ENDMDL
MODEL       44
REMARK 921   NORMALIZED FREE ENERGY PREDICTED BY IDOCK:   -4.55 KCAL/MOL
REMARK 922        TOTAL FREE ENERGY PREDICTED BY IDOCK:   -9.57 KCAL/MOL
REMARK 923 INTER-LIGAND FREE ENERGY PREDICTED BY IDOCK:   -7.59 KCAL/MOL
REMARK 924 INTRA-LIGAND FREE ENERGY PREDICTED BY IDOCK:   -1.98 KCAL/MOL
REMARK 927      BINDING AFFINITY PREDICTED BY RF-SCORE:    0.00 PKD
ROOT
HETATM    1  C   UNL     1     -11.176   9.260  71.478  1.00  0.00    -0.457 C  
HETATM    2  C   UNL     1     -11.979   8.097  70.888  1.00  0.00    -0.195 C  
HETATM    3  C   UNL     1     -11.159   7.014  70.096  1.00  0.00    -0.285 C  
HETATM    4  C   UNL     1      -9.801  13.942  67.786  1.00  0.00    -0.237 A  
HETATM    5  C   UNL     1     -10.464   6.271  71.232  1.00  0.00    -0.218 C  
HETATM    6  C   UNL     1     -10.230  15.168  67.232  1.00  0.00    -0.243 A  
HETATM    7  C   UNL     1      -9.289  16.044  66.667  1.00  0.00    -0.268 A  
HETATM    8  C   UNL     1      -9.428   7.319  71.810  1.00  0.00    -0.162 C  
HETATM    9  C   UNL     1      -7.947  15.704  66.655  1.00  0.00    -0.185 A  
HETATM   10  C   UNL     1      -7.494  14.493  67.213  1.00  0.00    -0.126 A  
HETATM   11  H   UNL     1      -7.409  11.914  68.548  1.00  0.00     0.000 HD 
HETATM   12  C   UNL     1      -9.668   8.935  71.457  1.00  0.00    -0.372 C  
HETATM   13  C   UNL     1      -8.450  13.624  67.778  1.00  0.00    -0.183 A  
HETATM   14  N   UNL     1      -8.301  12.378  68.376  1.00  0.00    -0.162 NA 
HETATM   15  C   UNL     1      -9.534  11.861  68.702  1.00  0.00    -0.080 A  
HETATM   16  C   UNL     1     -10.469  12.825  68.345  1.00  0.00    -0.253 A  
HETATM   17  C   UNL     1      -8.973   9.824  70.319  1.00  0.00    -0.198 C  
HETATM   18  C   UNL     1     -11.928  12.573  68.444  1.00  0.00    -0.271 C  
HETATM   19  C   UNL     1      -9.852  10.428  69.137  1.00  0.00    -0.223 C  
HETATM   20  C   UNL     1     -12.152  11.055  68.410  1.00  0.00     0.063 C  
HETATM   21  C   UNL     1     -11.638  10.519  70.742  1.00  0.00    -0.338 C  
HETATM   22  N   UNL     1     -11.303  10.301  69.351  1.00  0.00    -0.237 NA 
ENDROOT
BRANCH   3  23
HETATM   23  O   UNL     1     -10.111   7.429  69.135  1.00  0.00    -0.179 OA 
BRANCH  23  24
HETATM   24  C   UNL     1     -10.304   6.967  67.855  1.00  0.00    -0.199 C  
HETATM   25  O   UNL     1     -11.395   6.585  67.440  1.00  0.00    -0.304 OA 
BRANCH  24  26
HETATM   26  C   UNL     1      -9.134   6.855  66.920  1.00  0.00    -0.152 A  
HETATM   27  C   UNL     1      -7.373   6.797  64.691  1.00  0.00    -0.089 A  
HETATM   28  C   UNL     1      -8.086   7.760  66.822  1.00  0.00    -0.115 A  
HETATM   29  C   UNL     1      -9.195   5.825  65.969  1.00  0.00    -0.155 A  
HETATM   30  C   UNL     1      -8.359   5.805  64.845  1.00  0.00    -0.127 A  
HETATM   31  C   UNL     1      -7.224   7.763  65.706  1.00  0.00    -0.068 A  
BRANCH  30  32
HETATM   32  O   UNL     1      -8.491   4.872  63.841  1.00  0.00    -0.126 OA 
HETATM   33  C   UNL     1      -9.568   3.949  63.996  1.00  0.00    -0.162 C  
ENDBRANCH  30  32
BRANCH  27  34
HETATM   34  O   UNL     1      -6.609   6.719  63.550  1.00  0.00    -0.041 OA 
HETATM   35  C   UNL     1      -7.008   7.543  62.456  1.00  0.00    -0.075 C  
ENDBRANCH  27  34
BRANCH  31  36
HETATM   36  O   UNL     1      -6.215   8.687  65.580  1.00  0.00    -0.051 OA 
HETATM   37  C   UNL     1      -6.629  10.026  65.323  1.00  0.00    -0.116 C  
ENDBRANCH  31  36
ENDBRANCH  24  26
ENDBRANCH  23  24
ENDBRANCH   3  23
BRANCH   5  38
HETATM   38  O   UNL     1     -11.488   5.866  72.163  1.00  0.00    -0.291 OA 
HETATM   39  C   UNL     1     -11.112   5.118  73.302  1.00  0.00    -0.327 C  
ENDBRANCH   5  38
BRANCH   8  40
HETATM   40  C   UNL     1      -8.053   6.733  71.561  1.00  0.00    -0.110 C  
HETATM   41  O   UNL     1      -7.776   5.973  70.647  1.00  0.00    -0.096 OA 
BRANCH  40  42
HETATM   42  O   UNL     1      -7.190   7.100  72.548  1.00  0.00    -0.071 OA 
HETATM   43  C   UNL     1      -7.611   7.060  73.918  1.00  0.00    -0.104 C  
ENDBRANCH  40  42
ENDBRANCH   8  40
TORSDOF 9
ENDMDL
MODEL       45
REMARK 921   NORMALIZED FREE ENERGY PREDICTED BY IDOCK:   -4.53 KCAL/MOL
REMARK 922        TOTAL FREE ENERGY PREDICTED BY IDOCK:   -9.54 KCAL/MOL
REMARK 923 INTER-LIGAND FREE ENERGY PREDICTED BY IDOCK:   -8.73 KCAL/MOL
REMARK 924 INTRA-LIGAND FREE ENERGY PREDICTED BY IDOCK:   -0.81 KCAL/MOL
REMARK 927      BINDING AFFINITY PREDICTED BY RF-SCORE:    0.00 PKD
ROOT
HETATM    1  C   UNL     1      -9.575  14.980  65.255  1.00  0.00     0.008 C  
HETATM    2  C   UNL     1     -10.997  15.419  65.616  1.00  0.00    -0.330 C  
HETATM    3  C   UNL     1     -11.342  15.478  67.149  1.00  0.00    -0.135 C  
HETATM    4  C   UNL     1      -8.398   8.977  65.085  1.00  0.00    -0.165 A  
HETATM    5  C   UNL     1     -10.589  16.732  67.579  1.00  0.00    -0.309 C  
HETATM    6  C   UNL     1      -8.429   7.795  64.314  1.00  0.00     0.159 A  
HETATM    7  C   UNL     1      -7.658   6.688  64.706  1.00  0.00    -0.103 A  
HETATM    8  C   UNL     1      -9.062  16.336  67.452  1.00  0.00    -0.203 C  
HETATM    9  C   UNL     1      -6.872   6.761  65.844  1.00  0.00    -0.056 A  
HETATM   10  C   UNL     1      -6.816   7.933  66.621  1.00  0.00    -0.071 A  
HETATM   11  H   UNL     1      -7.240  10.636  67.600  1.00  0.00     0.000 HD 
HETATM   12  C   UNL     1      -8.671  15.017  66.504  1.00  0.00    -0.244 C  
HETATM   13  C   UNL     1      -7.594   9.037  66.214  1.00  0.00    -0.092 A  
HETATM   14  N   UNL     1      -7.748  10.296  66.782  1.00  0.00    -0.108 NA 
HETATM   15  C   UNL     1      -8.687  11.018  66.082  1.00  0.00    -0.184 A  
HETATM   16  C   UNL     1      -9.091  10.212  65.024  1.00  0.00    -0.245 A  
HETATM   17  C   UNL     1      -8.373  13.510  66.960  1.00  0.00    -0.096 C  
HETATM   18  C   UNL     1     -10.188  10.614  64.109  1.00  0.00    -0.365 C  
HETATM   19  C   UNL     1      -9.344  12.336  66.500  1.00  0.00    -0.230 C  
HETATM   20  C   UNL     1     -11.069  11.635  64.843  1.00  0.00    -0.253 C  
HETATM   21  C   UNL     1      -9.711  13.646  64.520  1.00  0.00     0.574 C  
HETATM   22  N   UNL     1     -10.316  12.737  65.470  1.00  0.00    -0.281 NA 
ENDROOT
BRANCH   3  23
HETATM   23  O   UNL     1     -10.920  14.380  68.049  1.00  0.00    -0.248 OA 
BRANCH  23  24
HETATM   24  C   UNL     1     -11.801  13.326  68.107  1.00  0.00    -0.353 C  
HETATM   25  O   UNL     1     -12.652  13.120  67.245  1.00  0.00    -0.079 OA 
BRANCH  24  26
HETATM   26  C   UNL     1     -11.788  12.408  69.295  1.00  0.00    -0.361 A  
HETATM   27  C   UNL     1     -12.411  10.628  71.420  1.00  0.00    -0.390 A  
HETATM   28  C   UNL     1     -11.261  11.124  69.320  1.00  0.00    -0.331 A  
HETATM   29  C   UNL     1     -12.503  12.840  70.422  1.00  0.00    -0.231 A  
HETATM   30  C   UNL     1     -12.851  11.964  71.458  1.00  0.00    -0.316 A  
HETATM   31  C   UNL     1     -11.587  10.220  70.352  1.00  0.00    -0.328 A  
BRANCH  30  32
HETATM   32  O   UNL     1     -13.658  12.342  72.508  1.00  0.00    -0.399 OA 
HETATM   33  C   UNL     1     -14.243  13.640  72.399  1.00  0.00    -0.383 C  
ENDBRANCH  30  32
BRANCH  27  34
HETATM   34  O   UNL     1     -12.815   9.828  72.463  1.00  0.00    -0.263 OA 
HETATM   35  C   UNL     1     -13.891   8.930  72.201  1.00  0.00    -0.473 C  
ENDBRANCH  27  34
BRANCH  31  36
HETATM   36  O   UNL     1     -11.108   8.933  70.357  1.00  0.00    -0.240 OA 
HETATM   37  C   UNL     1     -10.509   8.489  69.142  1.00  0.00    -0.205 C  
ENDBRANCH  31  36
ENDBRANCH  24  26
ENDBRANCH  23  24
ENDBRANCH   3  23
BRANCH   5  38
HETATM   38  O   UNL     1     -11.006  17.799  66.703  1.00  0.00    -0.071 OA 
HETATM   39  C   UNL     1     -10.881  19.134  67.151  1.00  0.00    -0.410 C  
ENDBRANCH   5  38
BRANCH   8  40
HETATM   40  C   UNL     1      -8.493  16.397  68.856  1.00  0.00    -0.247 C  
HETATM   41  O   UNL     1      -8.646  15.534  69.706  1.00  0.00    -0.212 OA 
BRANCH  40  42
HETATM   42  O   UNL     1      -7.864  17.585  69.067  1.00  0.00    -0.226 OA 
HETATM   43  C   UNL     1      -7.176  18.232  67.988  1.00  0.00    -0.236 C  
ENDBRANCH  40  42
ENDBRANCH   8  40
TORSDOF 9
ENDMDL
MODEL       46
REMARK 921   NORMALIZED FREE ENERGY PREDICTED BY IDOCK:   -4.50 KCAL/MOL
REMARK 922        TOTAL FREE ENERGY PREDICTED BY IDOCK:   -9.51 KCAL/MOL
REMARK 923 INTER-LIGAND FREE ENERGY PREDICTED BY IDOCK:   -7.61 KCAL/MOL
REMARK 924 INTRA-LIGAND FREE ENERGY PREDICTED BY IDOCK:   -1.90 KCAL/MOL
REMARK 927      BINDING AFFINITY PREDICTED BY RF-SCORE:    0.00 PKD
ROOT
HETATM    1  C   UNL     1     -10.776   9.108  71.350  1.00  0.00    -0.414 C  
HETATM    2  C   UNL     1     -11.595   7.967  70.739  1.00  0.00    -0.258 C  
HETATM    3  C   UNL     1     -10.819   6.982  69.790  1.00  0.00    -0.248 C  
HETATM    4  C   UNL     1      -9.881  14.118  67.951  1.00  0.00    -0.224 A  
HETATM    5  C   UNL     1     -10.003   6.176  70.795  1.00  0.00    -0.189 C  
HETATM    6  C   UNL     1     -10.394  15.367  67.542  1.00  0.00    -0.264 A  
HETATM    7  C   UNL     1      -9.534  16.319  66.970  1.00  0.00    -0.237 A  
HETATM    8  C   UNL     1      -8.950   7.212  71.364  1.00  0.00    -0.135 C  
HETATM    9  C   UNL     1      -8.189  16.030  66.812  1.00  0.00    -0.307 A  
HETATM   10  C   UNL     1      -7.652  14.796  67.225  1.00  0.00    -0.195 A  
HETATM   11  H   UNL     1      -7.370  12.124  68.329  1.00  0.00     0.000 HD 
HETATM   12  C   UNL     1      -9.268   8.841  71.169  1.00  0.00    -0.299 C  
HETATM   13  C   UNL     1      -8.527  13.851  67.798  1.00  0.00    -0.183 A  
HETATM   14  N   UNL     1      -8.288  12.567  68.275  1.00  0.00    -0.171 NA 
HETATM   15  C   UNL     1      -9.470  11.981  68.665  1.00  0.00    -0.062 A  
HETATM   16  C   UNL     1     -10.462  12.936  68.473  1.00  0.00    -0.260 A  
HETATM   17  C   UNL     1      -8.706   9.843  70.052  1.00  0.00    -0.188 C  
HETATM   18  C   UNL     1     -11.898  12.623  68.679  1.00  0.00    -0.342 C  
HETATM   19  C   UNL     1      -9.706  10.507  69.006  1.00  0.00    -0.210 C  
HETATM   20  C   UNL     1     -12.079  11.105  68.539  1.00  0.00    -0.058 C  
HETATM   21  C   UNL     1     -11.340  10.403  70.764  1.00  0.00    -0.284 C  
HETATM   22  N   UNL     1     -11.127  10.311  69.336  1.00  0.00    -0.240 NA 
ENDROOT
BRANCH   3  23
HETATM   23  O   UNL     1      -9.876   7.511  68.778  1.00  0.00    -0.159 OA 
BRANCH  23  24
HETATM   24  C   UNL     1     -10.179   7.157  67.485  1.00  0.00    -0.212 C  
HETATM   25  O   UNL     1     -10.781   7.899  66.714  1.00  0.00    -0.304 OA 
BRANCH  24  26
HETATM   26  C   UNL     1      -9.824   5.786  66.985  1.00  0.00    -0.171 A  
HETATM   27  C   UNL     1      -8.532   3.401  66.139  1.00  0.00    -0.110 A  
HETATM   28  C   UNL     1     -10.003   4.599  67.682  1.00  0.00    -0.161 A  
HETATM   29  C   UNL     1      -9.117   5.730  65.774  1.00  0.00    -0.122 A  
HETATM   30  C   UNL     1      -8.443   4.572  65.365  1.00  0.00    -0.123 A  
HETATM   31  C   UNL     1      -9.343   3.415  67.292  1.00  0.00    -0.201 A  
BRANCH  30  32
HETATM   32  O   UNL     1      -7.643   4.539  64.244  1.00  0.00    -0.069 OA 
HETATM   33  C   UNL     1      -7.021   5.775  63.894  1.00  0.00    -0.050 C  
ENDBRANCH  30  32
BRANCH  27  34
HETATM   34  O   UNL     1      -7.823   2.316  65.680  1.00  0.00    -0.075 OA 
HETATM   35  C   UNL     1      -6.628   1.987  66.386  1.00  0.00    -0.031 C  
ENDBRANCH  27  34
BRANCH  31  36
HETATM   36  O   UNL     1      -9.478   2.250  68.005  1.00  0.00    -0.207 OA 
HETATM   37  C   UNL     1      -9.045   2.298  69.362  1.00  0.00    -0.117 C  
ENDBRANCH  31  36
ENDBRANCH  24  26
ENDBRANCH  23  24
ENDBRANCH   3  23
BRANCH   5  38
HETATM   38  O   UNL     1     -10.925   5.660  71.776  1.00  0.00    -0.256 OA 
HETATM   39  C   UNL     1     -10.417   5.208  73.015  1.00  0.00    -0.210 C  
ENDBRANCH   5  38
BRANCH   8  40
HETATM   40  C   UNL     1      -7.586   6.698  70.947  1.00  0.00    -0.089 C  
HETATM   41  O   UNL     1      -6.529   7.259  71.188  1.00  0.00    -0.042 OA 
BRANCH  40  42
HETATM   42  O   UNL     1      -7.709   5.573  70.191  1.00  0.00    -0.081 OA 
HETATM   43  C   UNL     1      -6.680   5.225  69.253  1.00  0.00    -0.052 C  
ENDBRANCH  40  42
ENDBRANCH   8  40
TORSDOF 9
ENDMDL
MODEL       47
REMARK 921   NORMALIZED FREE ENERGY PREDICTED BY IDOCK:   -4.50 KCAL/MOL
REMARK 922        TOTAL FREE ENERGY PREDICTED BY IDOCK:   -9.51 KCAL/MOL
REMARK 923 INTER-LIGAND FREE ENERGY PREDICTED BY IDOCK:   -7.16 KCAL/MOL
REMARK 924 INTRA-LIGAND FREE ENERGY PREDICTED BY IDOCK:   -2.35 KCAL/MOL
REMARK 927      BINDING AFFINITY PREDICTED BY RF-SCORE:    0.00 PKD
ROOT
HETATM    1  C   UNL     1      -8.217  12.970  68.594  1.00  0.00     0.011 C  
HETATM    2  C   UNL     1      -7.856  13.184  67.121  1.00  0.00    -0.061 C  
HETATM    3  C   UNL     1      -9.038  13.071  66.090  1.00  0.00     0.094 C  
HETATM    4  C   UNL     1      -8.584   7.212  70.635  1.00  0.00    -0.143 A  
HETATM    5  C   UNL     1      -9.785  14.375  66.344  1.00  0.00    -0.302 C  
HETATM    6  C   UNL     1      -7.883   6.103  71.157  1.00  0.00    -0.111 A  
HETATM    7  C   UNL     1      -8.588   5.081  71.814  1.00  0.00    -0.132 A  
HETATM    8  C   UNL     1     -10.402  14.198  67.791  1.00  0.00    -0.242 C  
HETATM    9  C   UNL     1      -9.964   5.165  71.947  1.00  0.00    -0.239 A  
HETATM   10  C   UNL     1     -10.682   6.267  71.446  1.00  0.00    -0.297 A  
HETATM   11  H   UNL     1     -11.359   8.800  70.194  1.00  0.00     0.000 HD 
HETATM   12  C   UNL     1      -9.746  13.025  68.784  1.00  0.00     0.049 C  
HETATM   13  C   UNL     1      -9.961   7.286  70.790  1.00  0.00    -0.186 A  
HETATM   14  N   UNL     1     -10.396   8.463  70.191  1.00  0.00    -0.206 NA 
HETATM   15  C   UNL     1      -9.337   9.108  69.595  1.00  0.00    -0.172 A  
HETATM   16  C   UNL     1      -8.209   8.344  69.869  1.00  0.00    -0.122 A  
HETATM   17  C   UNL     1     -10.277  11.539  69.063  1.00  0.00    -0.109 C  
HETATM   18  C   UNL     1      -6.884   8.670  69.286  1.00  0.00    -0.050 C  
HETATM   19  C   UNL     1      -9.400  10.287  68.620  1.00  0.00    -0.162 C  
HETATM   20  C   UNL     1      -7.114   9.500  68.016  1.00  0.00    -0.080 C  
HETATM   21  C   UNL     1      -7.496  11.694  69.032  1.00  0.00    -0.051 C  
HETATM   22  N   UNL     1      -8.033  10.638  68.201  1.00  0.00    -0.109 NA 
ENDROOT
BRANCH   3  23
HETATM   23  O   UNL     1     -10.021  11.969  66.203  1.00  0.00    -0.220 OA 
BRANCH  23  24
HETATM   24  C   UNL     1     -10.173  11.228  65.055  1.00  0.00    -0.284 C  
HETATM   25  O   UNL     1     -10.731  11.661  64.051  1.00  0.00    -0.321 OA 
BRANCH  24  26
HETATM   26  C   UNL     1      -9.703   9.802  65.022  1.00  0.00    -0.303 A  
HETATM   27  C   UNL     1      -8.230   7.374  65.126  1.00  0.00    -0.113 A  
HETATM   28  C   UNL     1     -10.016   8.824  65.956  1.00  0.00    -0.153 A  
HETATM   29  C   UNL     1      -8.748   9.485  64.043  1.00  0.00    -0.239 A  
HETATM   30  C   UNL     1      -7.988   8.311  64.105  1.00  0.00    -0.148 A  
HETATM   31  C   UNL     1      -9.273   7.628  66.040  1.00  0.00    -0.063 A  
BRANCH  30  32
HETATM   32  O   UNL     1      -6.963   8.046  63.224  1.00  0.00    -0.081 OA 
HETATM   33  C   UNL     1      -5.739   8.735  63.479  1.00  0.00    -0.075 C  
ENDBRANCH  30  32
BRANCH  27  34
HETATM   34  O   UNL     1      -7.426   6.259  65.129  1.00  0.00    -0.074 OA 
HETATM   35  C   UNL     1      -7.960   5.083  64.524  1.00  0.00    -0.106 C  
ENDBRANCH  27  34
BRANCH  31  36
HETATM   36  O   UNL     1      -9.547   6.678  66.993  1.00  0.00    -0.138 OA 
HETATM   37  C   UNL     1     -10.927   6.396  67.210  1.00  0.00    -0.392 C  
ENDBRANCH  31  36
ENDBRANCH  24  26
ENDBRANCH  23  24
ENDBRANCH   3  23
BRANCH   5  38
HETATM   38  O   UNL     1      -8.825  15.445  66.229  1.00  0.00    -0.304 OA 
HETATM   39  C   UNL     1      -9.075  16.658  66.910  1.00  0.00    -0.228 C  
ENDBRANCH   5  38
BRANCH   8  40
HETATM   40  C   UNL     1     -11.907  14.219  67.612  1.00  0.00    -0.385 C  
HETATM   41  O   UNL     1     -12.480  14.213  66.534  1.00  0.00    -0.447 OA 
BRANCH  40  42
HETATM   42  O   UNL     1     -12.531  14.336  68.817  1.00  0.00    -0.157 OA 
HETATM   43  C   UNL     1     -12.177  15.404  69.706  1.00  0.00    -0.306 C  
ENDBRANCH  40  42
ENDBRANCH   8  40
TORSDOF 9
ENDMDL
MODEL       48
REMARK 921   NORMALIZED FREE ENERGY PREDICTED BY IDOCK:   -4.50 KCAL/MOL
REMARK 922        TOTAL FREE ENERGY PREDICTED BY IDOCK:   -9.50 KCAL/MOL
REMARK 923 INTER-LIGAND FREE ENERGY PREDICTED BY IDOCK:   -7.75 KCAL/MOL
REMARK 924 INTRA-LIGAND FREE ENERGY PREDICTED BY IDOCK:   -1.76 KCAL/MOL
REMARK 927      BINDING AFFINITY PREDICTED BY RF-SCORE:    0.00 PKD
ROOT
HETATM    1  C   UNL     1      -7.948   6.164  70.254  1.00  0.00    -0.107 C  
HETATM    2  C   UNL     1      -7.297   7.545  70.372  1.00  0.00    -0.072 C  
HETATM    3  C   UNL     1      -8.244   8.783  70.160  1.00  0.00    -0.117 C  
HETATM    4  C   UNL     1      -8.683   3.823  64.648  1.00  0.00    -0.114 A  
HETATM    5  C   UNL     1      -9.036   8.783  71.463  1.00  0.00    -0.252 C  
HETATM    6  C   UNL     1      -8.095   3.089  63.595  1.00  0.00    -0.082 A  
HETATM    7  C   UNL     1      -8.912   2.515  62.607  1.00  0.00    -0.087 A  
HETATM    8  C   UNL     1      -9.933   7.481  71.375  1.00  0.00    -0.200 C  
HETATM    9  C   UNL     1     -10.287   2.669  62.670  1.00  0.00    -0.119 A  
HETATM   10  C   UNL     1     -10.896   3.385  63.718  1.00  0.00    -0.183 A  
HETATM   11  H   UNL     1     -11.321   4.931  66.140  1.00  0.00     0.000 HD 
HETATM   12  C   UNL     1      -9.485   6.292  70.290  1.00  0.00    -0.173 C  
HETATM   13  C   UNL     1     -10.064   3.955  64.703  1.00  0.00    -0.213 A  
HETATM   14  N   UNL     1     -10.376   4.714  65.825  1.00  0.00    -0.278 NA 
HETATM   15  C   UNL     1      -9.222   5.130  66.449  1.00  0.00    -0.141 A  
HETATM   16  C   UNL     1      -8.168   4.578  65.731  1.00  0.00    -0.110 A  
HETATM   17  C   UNL     1     -10.052   6.018  68.816  1.00  0.00    -0.210 C  
HETATM   18  C   UNL     1      -6.754   4.903  66.044  1.00  0.00    -0.053 C  
HETATM   19  C   UNL     1      -9.094   6.181  67.555  1.00  0.00    -0.109 C  
HETATM   20  C   UNL     1      -6.727   6.251  66.777  1.00  0.00    -0.061 C  
HETATM   21  C   UNL     1      -7.323   5.497  69.028  1.00  0.00    -0.077 C  
HETATM   22  N   UNL     1      -7.673   6.340  67.905  1.00  0.00    -0.101 NA 
ENDROOT
BRANCH   3  23
HETATM   23  O   UNL     1      -9.222   8.791  69.048  1.00  0.00    -0.141 OA 
BRANCH  23  24
HETATM   24  C   UNL     1      -9.058   9.826  68.159  1.00  0.00    -0.125 C  
HETATM   25  O   UNL     1      -8.370   9.732  67.146  1.00  0.00    -0.120 OA 
BRANCH  24  26
HETATM   26  C   UNL     1      -9.685  11.160  68.444  1.00  0.00    -0.191 A  
HETATM   27  C   UNL     1     -11.046  13.652  68.346  1.00  0.00    -0.264 A  
HETATM   28  C   UNL     1     -10.832  11.371  69.198  1.00  0.00    -0.260 A  
HETATM   29  C   UNL     1      -9.143  12.260  67.763  1.00  0.00    -0.191 A  
HETATM   30  C   UNL     1      -9.822  13.482  67.673  1.00  0.00    -0.228 A  
HETATM   31  C   UNL     1     -11.535  12.592  69.135  1.00  0.00    -0.305 A  
BRANCH  30  32
HETATM   32  O   UNL     1      -9.363  14.530  66.905  1.00  0.00    -0.223 OA 
HETATM   33  C   UNL     1      -8.074  15.031  67.256  1.00  0.00    -0.210 C  
ENDBRANCH  30  32
BRANCH  27  34
HETATM   34  O   UNL     1     -11.659  14.873  68.189  1.00  0.00    -0.315 OA 
HETATM   35  C   UNL     1     -11.333  15.880  69.144  1.00  0.00    -0.366 C  
ENDBRANCH  27  34
BRANCH  31  36
HETATM   36  O   UNL     1     -12.696  12.789  69.841  1.00  0.00     0.125 OA 
HETATM   37  C   UNL     1     -12.537  13.131  71.215  1.00  0.00    -0.290 C  
ENDBRANCH  31  36
ENDBRANCH  24  26
ENDBRANCH  23  24
ENDBRANCH   3  23
BRANCH   5  38
HETATM   38  O   UNL     1      -8.080   8.779  72.542  1.00  0.00    -0.381 OA 
HETATM   39  C   UNL     1      -8.379   8.043  73.712  1.00  0.00    -0.252 C  
ENDBRANCH   5  38
BRANCH   8  40
HETATM   40  C   UNL     1     -11.371   7.961  71.351  1.00  0.00    -0.252 C  
HETATM   41  O   UNL     1     -11.713   9.133  71.357  1.00  0.00    -0.293 OA 
BRANCH  40  42
HETATM   42  O   UNL     1     -12.229   6.907  71.411  1.00  0.00    -0.335 OA 
HETATM   43  C   UNL     1     -13.645   7.133  71.374  1.00  0.00    -0.275 C  
ENDBRANCH  40  42
ENDBRANCH   8  40
TORSDOF 9
ENDMDL
MODEL       49
REMARK 921   NORMALIZED FREE ENERGY PREDICTED BY IDOCK:   -4.48 KCAL/MOL
REMARK 922        TOTAL FREE ENERGY PREDICTED BY IDOCK:   -9.47 KCAL/MOL
REMARK 923 INTER-LIGAND FREE ENERGY PREDICTED BY IDOCK:   -7.73 KCAL/MOL
REMARK 924 INTRA-LIGAND FREE ENERGY PREDICTED BY IDOCK:   -1.75 KCAL/MOL
REMARK 927      BINDING AFFINITY PREDICTED BY RF-SCORE:    0.00 PKD
ROOT
HETATM    1  C   UNL     1      -6.106   9.207  67.425  1.00  0.00    -0.054 C  
HETATM    2  C   UNL     1      -6.676  10.626  67.347  1.00  0.00    -0.075 C  
HETATM    3  C   UNL     1      -7.972  10.905  68.193  1.00  0.00    -0.117 C  
HETATM    4  C   UNL     1      -8.593   4.932  63.821  1.00  0.00    -0.129 A  
HETATM    5  C   UNL     1      -7.405  10.954  69.607  1.00  0.00    -0.063 C  
HETATM    6  C   UNL     1      -8.599   4.328  62.545  1.00  0.00    -0.092 A  
HETATM    7  C   UNL     1      -9.191   3.066  62.374  1.00  0.00    -0.087 A  
HETATM    8  C   UNL     1      -6.959   9.465  69.902  1.00  0.00    -0.071 C  
HETATM    9  C   UNL     1      -9.765   2.419  63.456  1.00  0.00    -0.118 A  
HETATM   10  C   UNL     1      -9.760   2.996  64.740  1.00  0.00    -0.078 A  
HETATM   11  H   UNL     1      -9.310   4.808  66.966  1.00  0.00     0.000 HD 
HETATM   12  C   UNL     1      -6.743   8.439  68.601  1.00  0.00    -0.059 C  
HETATM   13  C   UNL     1      -9.161   4.262  64.897  1.00  0.00    -0.156 A  
HETATM   14  N   UNL     1      -9.023   5.068  66.022  1.00  0.00    -0.131 NA 
HETATM   15  C   UNL     1      -8.444   6.267  65.675  1.00  0.00    -0.148 A  
HETATM   16  C   UNL     1      -8.169   6.190  64.315  1.00  0.00    -0.044 A  
HETATM   17  C   UNL     1      -7.758   7.350  68.007  1.00  0.00    -0.116 C  
HETATM   18  C   UNL     1      -7.640   7.352  63.558  1.00  0.00    -0.121 C  
HETATM   19  C   UNL     1      -8.340   7.529  66.536  1.00  0.00    -0.126 C  
HETATM   20  C   UNL     1      -8.014   8.628  64.324  1.00  0.00    -0.148 C  
HETATM   21  C   UNL     1      -6.255   8.607  66.026  1.00  0.00    -0.052 C  
HETATM   22  N   UNL     1      -7.677   8.588  65.759  1.00  0.00    -0.095 NA 
ENDROOT
BRANCH   3  23
HETATM   23  O   UNL     1      -9.084   9.926  68.197  1.00  0.00    -0.122 OA 
BRANCH  23  24
HETATM   24  C   UNL     1     -10.328  10.483  68.024  1.00  0.00    -0.181 C  
HETATM   25  O   UNL     1     -10.925  10.463  66.951  1.00  0.00    -0.206 OA 
BRANCH  24  26
HETATM   26  C   UNL     1     -10.984  11.210  69.164  1.00  0.00    -0.295 A  
HETATM   27  C   UNL     1     -12.681  12.729  70.861  1.00  0.00    -0.192 A  
HETATM   28  C   UNL     1     -11.619  10.615  70.245  1.00  0.00    -0.424 A  
HETATM   29  C   UNL     1     -11.086  12.604  69.035  1.00  0.00    -0.291 A  
HETATM   30  C   UNL     1     -11.948  13.359  69.839  1.00  0.00    -0.338 A  
HETATM   31  C   UNL     1     -12.489  11.350  71.077  1.00  0.00    -0.383 A  
BRANCH  30  32
HETATM   32  O   UNL     1     -12.153  14.707  69.643  1.00  0.00    -0.304 OA 
HETATM   33  C   UNL     1     -11.102  15.561  70.093  1.00  0.00    -0.323 C  
ENDBRANCH  30  32
BRANCH  27  34
HETATM   34  O   UNL     1     -13.522  13.537  71.590  1.00  0.00    -0.355 OA 
HETATM   35  C   UNL     1     -13.015  14.039  72.825  1.00  0.00    -0.378 C  
ENDBRANCH  27  34
BRANCH  31  36
HETATM   36  O   UNL     1     -13.158  10.756  72.119  1.00  0.00    -0.460 OA 
HETATM   37  C   UNL     1     -13.281   9.338  72.050  1.00  0.00    -0.447 C  
ENDBRANCH  31  36
ENDBRANCH  24  26
ENDBRANCH  23  24
ENDBRANCH   3  23
BRANCH   5  38
HETATM   38  O   UNL     1      -6.326  11.911  69.599  1.00  0.00    -0.113 OA 
HETATM   39  C   UNL     1      -5.379  11.877  70.649  1.00  0.00    -0.148 C  
ENDBRANCH   5  38
BRANCH   8  40
HETATM   40  C   UNL     1      -7.825   8.985  71.050  1.00  0.00    -0.142 C  
HETATM   41  O   UNL     1      -8.990   8.638  70.944  1.00  0.00    -0.154 OA 
BRANCH  40  42
HETATM   42  O   UNL     1      -7.153   9.080  72.230  1.00  0.00    -0.323 OA 
HETATM   43  C   UNL     1      -5.818   8.565  72.337  1.00  0.00    -0.066 C  
ENDBRANCH  40  42
ENDBRANCH   8  40
TORSDOF 9
ENDMDL
MODEL       50
REMARK 921   NORMALIZED FREE ENERGY PREDICTED BY IDOCK:   -4.45 KCAL/MOL
REMARK 922        TOTAL FREE ENERGY PREDICTED BY IDOCK:   -9.43 KCAL/MOL
REMARK 923 INTER-LIGAND FREE ENERGY PREDICTED BY IDOCK:   -7.58 KCAL/MOL
REMARK 924 INTRA-LIGAND FREE ENERGY PREDICTED BY IDOCK:   -1.85 KCAL/MOL
REMARK 927      BINDING AFFINITY PREDICTED BY RF-SCORE:    0.00 PKD
ROOT
HETATM    1  C   UNL     1      -5.831   9.294  67.465  1.00  0.00    -0.046 C  
HETATM    2  C   UNL     1      -6.401  10.715  67.502  1.00  0.00    -0.057 C  
HETATM    3  C   UNL     1      -7.626  10.951  68.460  1.00  0.00    -0.111 C  
HETATM    4  C   UNL     1      -8.607   5.201  63.860  1.00  0.00    -0.085 A  
HETATM    5  C   UNL     1      -6.949  10.930  69.826  1.00  0.00    -0.120 C  
HETATM    6  C   UNL     1      -8.714   4.662  62.560  1.00  0.00    -0.120 A  
HETATM    7  C   UNL     1      -9.322   3.409  62.374  1.00  0.00    -0.088 A  
HETATM    8  C   UNL     1      -6.486   9.428  70.011  1.00  0.00    -0.057 C  
HETATM    9  C   UNL     1      -9.811   2.709  63.464  1.00  0.00    -0.124 A  
HETATM   10  C   UNL     1      -9.703   3.221  64.771  1.00  0.00    -0.131 A  
HETATM   11  H   UNL     1      -9.075   4.921  67.041  1.00  0.00     0.000 HD 
HETATM   12  C   UNL     1      -6.376   8.468  68.648  1.00  0.00    -0.053 C  
HETATM   13  C   UNL     1      -9.090   4.479  64.942  1.00  0.00    -0.152 A  
HETATM   14  N   UNL     1      -8.862   5.227  66.091  1.00  0.00    -0.131 NA 
HETATM   15  C   UNL     1      -8.308   6.443  65.760  1.00  0.00    -0.146 A  
HETATM   16  C   UNL     1      -8.141   6.434  64.381  1.00  0.00    -0.076 A  
HETATM   17  C   UNL     1      -7.437   7.409  68.081  1.00  0.00    -0.105 C  
HETATM   18  C   UNL     1      -7.670   7.632  63.643  1.00  0.00    -0.123 C  
HETATM   19  C   UNL     1      -8.133   7.660  66.672  1.00  0.00    -0.119 C  
HETATM   20  C   UNL     1      -7.978   8.869  64.498  1.00  0.00    -0.135 C  
HETATM   21  C   UNL     1      -6.091   8.765  66.053  1.00  0.00    -0.052 C  
HETATM   22  N   UNL     1      -7.530   8.758  65.898  1.00  0.00    -0.088 NA 
ENDROOT
BRANCH   3  23
HETATM   23  O   UNL     1      -8.736   9.972  68.503  1.00  0.00    -0.118 OA 
BRANCH  23  24
HETATM   24  C   UNL     1      -9.950  10.508  68.863  1.00  0.00    -0.204 C  
HETATM   25  O   UNL     1     -10.478  10.293  69.950  1.00  0.00    -0.257 OA 
BRANCH  24  26
HETATM   26  C   UNL     1     -10.714  11.348  67.880  1.00  0.00    -0.242 A  
HETATM   27  C   UNL     1     -11.660  13.363  66.115  1.00  0.00    -0.346 A  
HETATM   28  C   UNL     1     -10.824  11.101  66.519  1.00  0.00    -0.302 A  
HETATM   29  C   UNL     1     -11.227  12.561  68.366  1.00  0.00    -0.313 A  
HETATM   30  C   UNL     1     -11.660  13.577  67.505  1.00  0.00    -0.350 A  
HETATM   31  C   UNL     1     -11.263  12.102  65.627  1.00  0.00    -0.335 A  
BRANCH  30  32
HETATM   32  O   UNL     1     -12.049  14.817  67.961  1.00  0.00    -0.272 OA 
HETATM   33  C   UNL     1     -11.692  15.116  69.311  1.00  0.00    -0.329 C  
ENDBRANCH  30  32
BRANCH  27  34
HETATM   34  O   UNL     1     -12.079  14.419  65.339  1.00  0.00    -0.374 OA 
HETATM   35  C   UNL     1     -11.060  15.244  64.778  1.00  0.00    -0.394 C  
ENDBRANCH  27  34
BRANCH  31  36
HETATM   36  O   UNL     1     -11.329  11.879  64.273  1.00  0.00    -0.337 OA 
HETATM   37  C   UNL     1     -10.086  11.912  63.578  1.00  0.00    -0.441 C  
ENDBRANCH  31  36
ENDBRANCH  24  26
ENDBRANCH  23  24
ENDBRANCH   3  23
BRANCH   5  38
HETATM   38  O   UNL     1      -5.871  11.887  69.781  1.00  0.00    -0.092 OA 
HETATM   39  C   UNL     1      -5.578  12.635  70.944  1.00  0.00    -0.139 C  
ENDBRANCH   5  38
BRANCH   8  40
HETATM   40  C   UNL     1      -7.260   8.891  71.198  1.00  0.00    -0.102 C  
HETATM   41  O   UNL     1      -8.304   8.264  71.121  1.00  0.00    -0.110 OA 
BRANCH  40  42
HETATM   42  O   UNL     1      -6.680   9.282  72.366  1.00  0.00    -0.303 OA 
HETATM   43  C   UNL     1      -6.638   8.381  73.481  1.00  0.00    -0.105 C  
ENDBRANCH  40  42
ENDBRANCH   8  40
TORSDOF 9
ENDMDL
MODEL       51
REMARK 921   NORMALIZED FREE ENERGY PREDICTED BY IDOCK:   -4.44 KCAL/MOL
REMARK 922        TOTAL FREE ENERGY PREDICTED BY IDOCK:   -9.41 KCAL/MOL
REMARK 923 INTER-LIGAND FREE ENERGY PREDICTED BY IDOCK:   -7.32 KCAL/MOL
REMARK 924 INTRA-LIGAND FREE ENERGY PREDICTED BY IDOCK:   -2.09 KCAL/MOL
REMARK 927      BINDING AFFINITY PREDICTED BY RF-SCORE:    0.00 PKD
ROOT
HETATM    1  C   UNL     1     -11.048   9.051  71.491  1.00  0.00    -0.419 C  
HETATM    2  C   UNL     1     -11.847   7.910  70.853  1.00  0.00    -0.242 C  
HETATM    3  C   UNL     1     -11.024   6.865  70.016  1.00  0.00    -0.279 C  
HETATM    4  C   UNL     1      -9.697  13.890  67.996  1.00  0.00    -0.226 A  
HETATM    5  C   UNL     1     -10.325   6.078  71.118  1.00  0.00    -0.214 C  
HETATM    6  C   UNL     1     -10.132  15.136  67.494  1.00  0.00    -0.232 A  
HETATM    7  C   UNL     1      -9.195  16.038  66.965  1.00  0.00    -0.229 A  
HETATM    8  C   UNL     1      -9.292   7.105  71.739  1.00  0.00    -0.155 C  
HETATM    9  C   UNL     1      -7.851  15.704  66.937  1.00  0.00    -0.258 A  
HETATM   10  C   UNL     1      -7.393  14.473  67.444  1.00  0.00    -0.183 A  
HETATM   11  H   UNL     1      -7.295  11.841  68.669  1.00  0.00     0.000 HD 
HETATM   12  C   UNL     1      -9.539   8.733  71.454  1.00  0.00    -0.337 C  
HETATM   13  C   UNL     1      -8.344  13.577  67.973  1.00  0.00    -0.168 A  
HETATM   14  N   UNL     1      -8.190  12.308  68.518  1.00  0.00    -0.133 NA 
HETATM   15  C   UNL     1      -9.420  11.773  68.823  1.00  0.00    -0.026 A  
HETATM   16  C   UNL     1     -10.360  12.747  68.509  1.00  0.00    -0.231 A  
HETATM   17  C   UNL     1      -8.849   9.672  70.353  1.00  0.00    -0.227 C  
HETATM   18  C   UNL     1     -11.818  12.485  68.599  1.00  0.00    -0.340 C  
HETATM   19  C   UNL     1      -9.732  10.321  69.199  1.00  0.00    -0.217 C  
HETATM   20  C   UNL     1     -12.035  10.969  68.501  1.00  0.00    -0.135 C  
HETATM   21  C   UNL     1     -11.516  10.337  70.808  1.00  0.00    -0.351 C  
HETATM   22  N   UNL     1     -11.182  10.180  69.408  1.00  0.00    -0.230 NA 
ENDROOT
BRANCH   3  23
HETATM   23  O   UNL     1      -9.979   7.325  69.071  1.00  0.00    -0.169 OA 
BRANCH  23  24
HETATM   24  C   UNL     1     -10.164   6.903  67.776  1.00  0.00    -0.180 C  
HETATM   25  O   UNL     1     -11.255   6.548  67.339  1.00  0.00    -0.359 OA 
BRANCH  24  26
HETATM   26  C   UNL     1      -8.985   6.804  66.850  1.00  0.00    -0.133 A  
HETATM   27  C   UNL     1      -6.492   7.062  65.513  1.00  0.00    -0.047 A  
HETATM   28  C   UNL     1      -8.115   5.726  66.761  1.00  0.00    -0.102 A  
HETATM   29  C   UNL     1      -8.661   7.964  66.130  1.00  0.00    -0.164 A  
HETATM   30  C   UNL     1      -7.420   8.120  65.500  1.00  0.00    -0.081 A  
HETATM   31  C   UNL     1      -6.861   5.849  66.127  1.00  0.00    -0.061 A  
BRANCH  30  32
HETATM   32  O   UNL     1      -7.039   9.298  64.897  1.00  0.00    -0.097 OA 
HETATM   33  C   UNL     1      -7.721  10.468  65.347  1.00  0.00    -0.106 C  
ENDBRANCH  30  32
BRANCH  27  34
HETATM   34  O   UNL     1      -5.290   7.304  64.890  1.00  0.00    -0.028 OA 
HETATM   35  C   UNL     1      -5.172   6.875  63.536  1.00  0.00    -0.028 C  
ENDBRANCH  27  34
BRANCH  31  36
HETATM   36  O   UNL     1      -5.976   4.800  66.077  1.00  0.00    -0.022 OA 
HETATM   37  C   UNL     1      -6.224   3.826  65.067  1.00  0.00    -0.024 C  
ENDBRANCH  31  36
ENDBRANCH  24  26
ENDBRANCH  23  24
ENDBRANCH   3  23
BRANCH   5  38
HETATM   38  O   UNL     1     -11.346   5.630  72.033  1.00  0.00    -0.250 OA 
HETATM   39  C   UNL     1     -10.964   5.234  73.335  1.00  0.00    -0.316 C  
ENDBRANCH   5  38
BRANCH   8  40
HETATM   40  C   UNL     1      -7.915   6.536  71.464  1.00  0.00    -0.104 C  
HETATM   41  O   UNL     1      -7.692   5.566  70.757  1.00  0.00    -0.087 OA 
BRANCH  40  42
HETATM   42  O   UNL     1      -6.969   7.200  72.184  1.00  0.00    -0.066 OA 
HETATM   43  C   UNL     1      -6.912   7.041  73.608  1.00  0.00    -0.069 C  
ENDBRANCH  40  42
ENDBRANCH   8  40
TORSDOF 9
ENDMDL
MODEL       52
REMARK 921   NORMALIZED FREE ENERGY PREDICTED BY IDOCK:   -4.43 KCAL/MOL
REMARK 922        TOTAL FREE ENERGY PREDICTED BY IDOCK:   -9.39 KCAL/MOL
REMARK 923 INTER-LIGAND FREE ENERGY PREDICTED BY IDOCK:  -10.46 KCAL/MOL
REMARK 924 INTRA-LIGAND FREE ENERGY PREDICTED BY IDOCK:    1.07 KCAL/MOL
REMARK 927      BINDING AFFINITY PREDICTED BY RF-SCORE:    0.00 PKD
ROOT
HETATM    1  C   UNL     1      -9.586  15.251  65.211  1.00  0.00    -0.023 C  
HETATM    2  C   UNL     1     -10.758  16.146  65.625  1.00  0.00    -0.321 C  
HETATM    3  C   UNL     1     -10.702  16.741  67.079  1.00  0.00    -0.161 C  
HETATM    4  C   UNL     1      -9.736   9.377  66.921  1.00  0.00    -0.242 A  
HETATM    5  C   UNL     1      -9.628  17.812  66.925  1.00  0.00    -0.288 C  
HETATM    6  C   UNL     1     -10.192   8.076  66.618  1.00  0.00    -0.315 A  
HETATM    7  C   UNL     1      -9.592   6.967  67.236  1.00  0.00    -0.173 A  
HETATM    8  C   UNL     1      -8.291  16.997  66.696  1.00  0.00    -0.285 C  
HETATM    9  C   UNL     1      -8.556   7.152  68.136  1.00  0.00    -0.129 A  
HETATM   10  C   UNL     1      -8.076   8.439  68.444  1.00  0.00    -0.123 A  
HETATM   11  H   UNL     1      -7.690  11.318  68.492  1.00  0.00     0.000 HD 
HETATM   12  C   UNL     1      -8.419  15.404  66.207  1.00  0.00    -0.047 C  
HETATM   13  C   UNL     1      -8.687   9.543  67.816  1.00  0.00    -0.115 A  
HETATM   14  N   UNL     1      -8.439  10.906  67.934  1.00  0.00    -0.127 NA 
HETATM   15  C   UNL     1      -9.352  11.618  67.191  1.00  0.00    -0.174 A  
HETATM   16  C   UNL     1     -10.156  10.680  66.555  1.00  0.00    -0.275 A  
HETATM   17  C   UNL     1      -8.333  14.075  67.098  1.00  0.00    -0.174 C  
HETATM   18  C   UNL     1     -11.335  11.080  65.748  1.00  0.00     0.233 C  
HETATM   19  C   UNL     1      -9.605  13.128  67.233  1.00  0.00    -0.233 C  
HETATM   20  C   UNL     1     -11.785  12.469  66.220  1.00  0.00    -0.404 C  
HETATM   21  C   UNL     1     -10.165  13.850  65.010  1.00  0.00    -0.358 C  
HETATM   22  N   UNL     1     -10.695  13.458  66.300  1.00  0.00    -0.285 NA 
ENDROOT
BRANCH   3  23
HETATM   23  O   UNL     1     -10.308  15.883  68.220  1.00  0.00    -0.232 OA 
BRANCH  23  24
HETATM   24  C   UNL     1     -10.800  16.297  69.435  1.00  0.00    -0.331 C  
HETATM   25  O   UNL     1     -10.459  17.348  69.970  1.00  0.00     0.113 OA 
BRANCH  24  26
HETATM   26  C   UNL     1     -11.751  15.415  70.194  1.00  0.00    -0.356 A  
HETATM   27  C   UNL     1     -13.000  13.398  71.756  1.00  0.00    -0.342 A  
HETATM   28  C   UNL     1     -12.361  15.731  71.400  1.00  0.00    -0.505 A  
HETATM   29  C   UNL     1     -11.909  14.108  69.706  1.00  0.00    -0.381 A  
HETATM   30  C   UNL     1     -12.488  13.096  70.482  1.00  0.00    -0.248 A  
HETATM   31  C   UNL     1     -12.957  14.735  72.200  1.00  0.00    -0.336 A  
BRANCH  30  32
HETATM   32  O   UNL     1     -12.536  11.783  70.067  1.00  0.00    -0.088 OA 
HETATM   33  C   UNL     1     -11.272  11.164  69.832  1.00  0.00    -0.217 C  
ENDBRANCH  30  32
BRANCH  27  34
HETATM   34  O   UNL     1     -13.531  12.344  72.462  1.00  0.00    -0.412 OA 
HETATM   35  C   UNL     1     -13.284  11.038  71.943  1.00  0.00    -0.398 C  
ENDBRANCH  27  34
BRANCH  31  36
HETATM   36  O   UNL     1     -13.520  15.034  73.417  1.00  0.00    -0.487 OA 
HETATM   37  C   UNL     1     -12.653  15.645  74.369  1.00  0.00    -0.522 C  
ENDBRANCH  31  36
ENDBRANCH  24  26
ENDBRANCH  23  24
ENDBRANCH   3  23
BRANCH   5  38
HETATM   38  O   UNL     1     -10.018  18.648  65.816  1.00  0.00    -0.504 OA 
HETATM   39  C   UNL     1     -10.503  19.948  66.083  1.00  0.00    -0.473 C  
ENDBRANCH   5  38
BRANCH   8  40
HETATM   40  C   UNL     1      -7.400  17.308  67.882  1.00  0.00    -0.184 C  
HETATM   41  O   UNL     1      -6.692  18.298  67.979  1.00  0.00    -0.197 OA 
BRANCH  40  42
HETATM   42  O   UNL     1      -7.429  16.289  68.784  1.00  0.00    -0.170 OA 
HETATM   43  C   UNL     1      -6.382  16.164  69.756  1.00  0.00    -0.175 C  
ENDBRANCH  40  42
ENDBRANCH   8  40
TORSDOF 9
ENDMDL
MODEL       53
REMARK 921   NORMALIZED FREE ENERGY PREDICTED BY IDOCK:   -4.43 KCAL/MOL
REMARK 922        TOTAL FREE ENERGY PREDICTED BY IDOCK:   -9.39 KCAL/MOL
REMARK 923 INTER-LIGAND FREE ENERGY PREDICTED BY IDOCK:   -7.66 KCAL/MOL
REMARK 924 INTRA-LIGAND FREE ENERGY PREDICTED BY IDOCK:   -1.73 KCAL/MOL
REMARK 927      BINDING AFFINITY PREDICTED BY RF-SCORE:    0.00 PKD
ROOT
HETATM    1  C   UNL     1     -11.294   9.244  71.426  1.00  0.00    -0.434 C  
HETATM    2  C   UNL     1     -12.050   8.082  70.775  1.00  0.00    -0.088 C  
HETATM    3  C   UNL     1     -11.171   6.995  70.054  1.00  0.00    -0.269 C  
HETATM    4  C   UNL     1      -9.610  13.915  67.848  1.00  0.00    -0.227 A  
HETATM    5  C   UNL     1     -10.574   6.253  71.244  1.00  0.00    -0.236 C  
HETATM    6  C   UNL     1      -9.989  15.140  67.259  1.00  0.00    -0.230 A  
HETATM    7  C   UNL     1      -9.002  16.012  66.771  1.00  0.00    -0.275 A  
HETATM    8  C   UNL     1      -9.585   7.299  71.902  1.00  0.00    -0.164 C  
HETATM    9  C   UNL     1      -7.664  15.668  66.869  1.00  0.00    -0.238 A  
HETATM   10  C   UNL     1      -7.262  14.458  67.464  1.00  0.00    -0.202 A  
HETATM   11  H   UNL     1      -7.293  11.881  68.806  1.00  0.00     0.000 HD 
HETATM   12  C   UNL     1      -9.791   8.914  71.528  1.00  0.00    -0.384 C  
HETATM   13  C   UNL     1      -8.263  13.593  67.951  1.00  0.00    -0.171 A  
HETATM   14  N   UNL     1      -8.167  12.347  68.561  1.00  0.00    -0.127 NA 
HETATM   15  C   UNL     1      -9.424  11.835  68.787  1.00  0.00    -0.026 A  
HETATM   16  C   UNL     1     -10.325  12.801  68.354  1.00  0.00    -0.248 A  
HETATM   17  C   UNL     1      -9.003   9.799  70.448  1.00  0.00    -0.143 C  
HETATM   18  C   UNL     1     -11.788  12.552  68.334  1.00  0.00    -0.353 C  
HETATM   19  C   UNL     1      -9.781  10.403  69.198  1.00  0.00    -0.220 C  
HETATM   20  C   UNL     1     -12.012  11.035  68.285  1.00  0.00    -0.039 C  
HETATM   21  C   UNL     1     -11.691  10.502  70.652  1.00  0.00    -0.357 C  
HETATM   22  N   UNL     1     -11.245  10.281  69.293  1.00  0.00    -0.236 NA 
ENDROOT
BRANCH   3  23
HETATM   23  O   UNL     1     -10.048   7.405  69.180  1.00  0.00    -0.179 OA 
BRANCH  23  24
HETATM   24  C   UNL     1     -10.206   7.063  67.858  1.00  0.00    -0.183 C  
HETATM   25  O   UNL     1     -11.018   7.612  67.119  1.00  0.00    -0.266 OA 
BRANCH  24  26
HETATM   26  C   UNL     1      -9.408   5.928  67.283  1.00  0.00    -0.113 A  
HETATM   27  C   UNL     1      -8.494   3.563  66.002  1.00  0.00    -0.112 A  
HETATM   28  C   UNL     1      -8.585   6.000  66.168  1.00  0.00    -0.142 A  
HETATM   29  C   UNL     1      -9.640   4.660  67.840  1.00  0.00    -0.205 A  
HETATM   30  C   UNL     1      -9.229   3.485  67.198  1.00  0.00    -0.192 A  
HETATM   31  C   UNL     1      -8.150   4.835  65.503  1.00  0.00    -0.111 A  
BRANCH  30  32
HETATM   32  O   UNL     1      -9.558   2.232  67.667  1.00  0.00    -0.128 OA 
HETATM   33  C   UNL     1      -9.211   1.974  69.028  1.00  0.00    -0.142 C  
ENDBRANCH  30  32
BRANCH  27  34
HETATM   34  O   UNL     1      -8.148   2.363  65.424  1.00  0.00    -0.081 OA 
HETATM   35  C   UNL     1      -6.857   1.848  65.742  1.00  0.00    -0.035 C  
ENDBRANCH  27  34
BRANCH  31  36
HETATM   36  O   UNL     1      -7.375   4.902  64.371  1.00  0.00    -0.057 OA 
HETATM   37  C   UNL     1      -7.883   5.716  63.318  1.00  0.00    -0.100 C  
ENDBRANCH  31  36
ENDBRANCH  24  26
ENDBRANCH  23  24
ENDBRANCH   3  23
BRANCH   5  38
HETATM   38  O   UNL     1     -11.671   5.852  72.090  1.00  0.00    -0.294 OA 
HETATM   39  C   UNL     1     -11.415   4.964  73.159  1.00  0.00    -0.278 C  
ENDBRANCH   5  38
BRANCH   8  40
HETATM   40  C   UNL     1      -8.196   6.709  71.767  1.00  0.00    -0.110 C  
HETATM   41  O   UNL     1      -7.864   5.900  70.915  1.00  0.00    -0.098 OA 
BRANCH  40  42
HETATM   42  O   UNL     1      -7.393   7.135  72.780  1.00  0.00    -0.075 OA 
HETATM   43  C   UNL     1      -7.513   6.550  74.084  1.00  0.00    -0.087 C  
ENDBRANCH  40  42
ENDBRANCH   8  40
TORSDOF 9
ENDMDL
MODEL       54
REMARK 921   NORMALIZED FREE ENERGY PREDICTED BY IDOCK:   -4.42 KCAL/MOL
REMARK 922        TOTAL FREE ENERGY PREDICTED BY IDOCK:   -9.38 KCAL/MOL
REMARK 923 INTER-LIGAND FREE ENERGY PREDICTED BY IDOCK:   -7.05 KCAL/MOL
REMARK 924 INTRA-LIGAND FREE ENERGY PREDICTED BY IDOCK:   -2.33 KCAL/MOL
REMARK 927      BINDING AFFINITY PREDICTED BY RF-SCORE:    0.00 PKD
ROOT
HETATM    1  C   UNL     1      -9.229   6.888  66.470  1.00  0.00    -0.195 C  
HETATM    2  C   UNL     1     -10.332   7.945  66.571  1.00  0.00    -0.132 C  
HETATM    3  C   UNL     1      -9.905   9.346  67.143  1.00  0.00    -0.187 C  
HETATM    4  C   UNL     1      -7.868   3.693  71.509  1.00  0.00    -0.057 A  
HETATM    5  C   UNL     1      -9.127   9.927  65.967  1.00  0.00    -0.158 C  
HETATM    6  C   UNL     1      -8.182   2.575  72.313  1.00  0.00    -0.055 A  
HETATM    7  C   UNL     1      -7.243   2.103  73.245  1.00  0.00    -0.028 A  
HETATM    8  C   UNL     1      -7.823   9.034  65.882  1.00  0.00    -0.102 C  
HETATM    9  C   UNL     1      -6.016   2.732  73.371  1.00  0.00    -0.008 A  
HETATM   10  C   UNL     1      -5.676   3.840  72.572  1.00  0.00    -0.008 A  
HETATM   11  H   UNL     1      -5.766   5.963  70.590  1.00  0.00     0.000 HD 
HETATM   12  C   UNL     1      -7.843   7.543  66.636  1.00  0.00    -0.106 C  
HETATM   13  C   UNL     1      -6.628   4.302  71.640  1.00  0.00    -0.023 A  
HETATM   14  N   UNL     1      -6.578   5.364  70.744  1.00  0.00    -0.038 NA 
HETATM   15  C   UNL     1      -7.784   5.491  70.094  1.00  0.00    -0.085 A  
HETATM   16  C   UNL     1      -8.588   4.456  70.557  1.00  0.00    -0.110 A  
HETATM   17  C   UNL     1      -7.261   7.142  68.075  1.00  0.00    -0.091 C  
HETATM   18  C   UNL     1     -10.014   4.337  70.161  1.00  0.00    -0.206 C  
HETATM   19  C   UNL     1      -8.251   6.662  69.225  1.00  0.00    -0.124 C  
HETATM   20  C   UNL     1     -10.504   5.725  69.728  1.00  0.00    -0.292 C  
HETATM   21  C   UNL     1      -9.608   5.777  67.451  1.00  0.00    -0.115 C  
HETATM   22  N   UNL     1      -9.621   6.398  68.758  1.00  0.00    -0.126 NA 
ENDROOT
BRANCH   3  23
HETATM   23  O   UNL     1      -9.031   9.429  68.335  1.00  0.00    -0.128 OA 
BRANCH  23  24
HETATM   24  C   UNL     1      -9.571  10.136  69.384  1.00  0.00    -0.232 C  
HETATM   25  O   UNL     1      -9.856  11.327  69.309  1.00  0.00    -0.073 OA 
BRANCH  24  26
HETATM   26  C   UNL     1      -9.772   9.461  70.711  1.00  0.00    -0.332 A  
HETATM   27  C   UNL     1     -10.441   7.715  72.850  1.00  0.00    -0.336 A  
HETATM   28  C   UNL     1      -8.778   8.866  71.476  1.00  0.00    -0.232 A  
HETATM   29  C   UNL     1     -11.102   9.293  71.127  1.00  0.00    -0.411 A  
HETATM   30  C   UNL     1     -11.449   8.406  72.154  1.00  0.00    -0.372 A  
HETATM   31  C   UNL     1      -9.095   7.973  72.521  1.00  0.00    -0.209 A  
BRANCH  30  32
HETATM   32  O   UNL     1     -12.758   8.138  72.489  1.00  0.00    -0.241 OA 
HETATM   33  C   UNL     1     -13.730   9.020  71.928  1.00  0.00    -0.441 C  
ENDBRANCH  30  32
BRANCH  27  34
HETATM   34  O   UNL     1     -10.866   6.847  73.828  1.00  0.00    -0.289 OA 
HETATM   35  C   UNL     1     -10.827   5.457  73.512  1.00  0.00    -0.293 C  
ENDBRANCH  27  34
BRANCH  31  36
HETATM   36  O   UNL     1      -8.116   7.345  73.250  1.00  0.00    -0.105 OA 
HETATM   37  C   UNL     1      -7.305   8.192  74.059  1.00  0.00    -0.171 C  
ENDBRANCH  31  36
ENDBRANCH  24  26
ENDBRANCH  23  24
ENDBRANCH   3  23
BRANCH   5  38
HETATM   38  O   UNL     1      -9.983   9.848  64.810  1.00  0.00    -0.282 OA 
HETATM   39  C   UNL     1      -9.492  10.313  63.568  1.00  0.00    -0.298 C  
ENDBRANCH   5  38
BRANCH   8  40
HETATM   40  C   UNL     1      -6.658   9.961  66.168  1.00  0.00    -0.084 C  
HETATM   41  O   UNL     1      -6.593  10.721  67.121  1.00  0.00    -0.071 OA 
BRANCH  40  42
HETATM   42  O   UNL     1      -5.735   9.894  65.170  1.00  0.00    -0.067 OA 
HETATM   43  C   UNL     1      -6.130  10.136  63.812  1.00  0.00    -0.138 C  
ENDBRANCH  40  42
ENDBRANCH   8  40
TORSDOF 9
ENDMDL
MODEL       55
REMARK 921   NORMALIZED FREE ENERGY PREDICTED BY IDOCK:   -4.42 KCAL/MOL
REMARK 922        TOTAL FREE ENERGY PREDICTED BY IDOCK:   -9.37 KCAL/MOL
REMARK 923 INTER-LIGAND FREE ENERGY PREDICTED BY IDOCK:   -7.98 KCAL/MOL
REMARK 924 INTRA-LIGAND FREE ENERGY PREDICTED BY IDOCK:   -1.39 KCAL/MOL
REMARK 927      BINDING AFFINITY PREDICTED BY RF-SCORE:    0.00 PKD
ROOT
HETATM    1  C   UNL     1     -10.995  15.754  66.252  1.00  0.00    -0.163 C  
HETATM    2  C   UNL     1     -10.568  14.494  65.494  1.00  0.00    -0.364 C  
HETATM    3  C   UNL     1     -10.131  13.266  66.372  1.00  0.00    -0.290 C  
HETATM    4  C   UNL     1      -6.599  19.540  68.199  1.00  0.00    -0.289 A  
HETATM    5  C   UNL     1     -11.475  12.779  66.902  1.00  0.00    -0.340 C  
HETATM    6  C   UNL     1      -5.751  20.621  67.875  1.00  0.00    -0.299 A  
HETATM    7  C   UNL     1      -5.135  21.354  68.903  1.00  0.00    -0.024 A  
HETATM    8  C   UNL     1     -11.943  13.924  67.890  1.00  0.00    -0.393 C  
HETATM    9  C   UNL     1      -5.363  21.016  70.227  1.00  0.00    -0.206 A  
HETATM   10  C   UNL     1      -6.215  19.951  70.573  1.00  0.00    -0.299 A  
HETATM   11  H   UNL     1      -8.063  17.715  70.422  1.00  0.00     0.000 HD 
HETATM   12  C   UNL     1     -11.231  15.428  67.741  1.00  0.00    -0.321 C  
HETATM   13  C   UNL     1      -6.827  19.224  69.531  1.00  0.00    -0.235 A  
HETATM   14  N   UNL     1      -7.688  18.134  69.570  1.00  0.00     0.274 NA 
HETATM   15  C   UNL     1      -7.959  17.701  68.293  1.00  0.00    -0.272 A  
HETATM   16  C   UNL     1      -7.294  18.570  67.436  1.00  0.00    -0.222 A  
HETATM   17  C   UNL     1     -10.026  16.053  68.594  1.00  0.00    -0.220 C  
HETATM   18  C   UNL     1      -7.262  18.348  65.969  1.00  0.00    -0.290 C  
HETATM   19  C   UNL     1      -8.644  16.394  67.883  1.00  0.00    -0.175 C  
HETATM   20  C   UNL     1      -7.520  16.858  65.708  1.00  0.00     0.562 C  
HETATM   21  C   UNL     1      -9.959  16.828  65.919  1.00  0.00    -0.276 C  
HETATM   22  N   UNL     1      -8.697  16.319  66.414  1.00  0.00    -0.291 NA 
ENDROOT
BRANCH   3  23
HETATM   23  O   UNL     1      -9.241  13.464  67.539  1.00  0.00    -0.201 OA 
BRANCH  23  24
HETATM   24  C   UNL     1      -8.030  12.821  67.444  1.00  0.00    -0.179 C  
HETATM   25  O   UNL     1      -6.966  13.419  67.312  1.00  0.00    -0.132 OA 
BRANCH  24  26
HETATM   26  C   UNL     1      -7.983  11.320  67.433  1.00  0.00    -0.132 A  
HETATM   27  C   UNL     1      -8.548   8.538  67.314  1.00  0.00    -0.123 A  
HETATM   28  C   UNL     1      -7.456  10.534  66.418  1.00  0.00    -0.133 A  
HETATM   29  C   UNL     1      -8.668  10.670  68.471  1.00  0.00    -0.141 A  
HETATM   30  C   UNL     1      -8.987   9.307  68.407  1.00  0.00    -0.129 A  
HETATM   31  C   UNL     1      -7.753   9.158  66.329  1.00  0.00    -0.096 A  
BRANCH  30  32
HETATM   32  O   UNL     1      -9.765   8.684  69.357  1.00  0.00    -0.171 OA 
HETATM   33  C   UNL     1      -9.932   9.398  70.582  1.00  0.00    -0.284 C  
ENDBRANCH  30  32
BRANCH  27  34
HETATM   34  O   UNL     1      -8.922   7.215  67.316  1.00  0.00    -0.121 OA 
HETATM   35  C   UNL     1      -8.213   6.350  68.201  1.00  0.00    -0.116 C  
ENDBRANCH  27  34
BRANCH  31  36
HETATM   36  O   UNL     1      -7.273   8.385  65.301  1.00  0.00    -0.079 OA 
HETATM   37  C   UNL     1      -6.301   9.002  64.462  1.00  0.00    -0.071 C  
ENDBRANCH  31  36
ENDBRANCH  24  26
ENDBRANCH  23  24
ENDBRANCH   3  23
BRANCH   5  38
HETATM   38  O   UNL     1     -12.336  12.584  65.762  1.00  0.00    -0.627 OA 
HETATM   39  C   UNL     1     -11.944  11.661  64.765  1.00  0.00     0.087 C  
ENDBRANCH   5  38
BRANCH   8  40
HETATM   40  C   UNL     1     -11.997  13.295  69.268  1.00  0.00    -0.303 C  
HETATM   41  O   UNL     1     -11.585  12.178  69.539  1.00  0.00    -0.295 OA 
BRANCH  40  42
HETATM   42  O   UNL     1     -12.646  14.111  70.143  1.00  0.00    -0.345 OA 
HETATM   43  C   UNL     1     -12.228  14.168  71.514  1.00  0.00    -0.258 C  
ENDBRANCH  40  42
ENDBRANCH   8  40
TORSDOF 9
ENDMDL
MODEL       56
REMARK 921   NORMALIZED FREE ENERGY PREDICTED BY IDOCK:   -4.39 KCAL/MOL
REMARK 922        TOTAL FREE ENERGY PREDICTED BY IDOCK:   -9.33 KCAL/MOL
REMARK 923 INTER-LIGAND FREE ENERGY PREDICTED BY IDOCK:   -8.28 KCAL/MOL
REMARK 924 INTRA-LIGAND FREE ENERGY PREDICTED BY IDOCK:   -1.05 KCAL/MOL
REMARK 927      BINDING AFFINITY PREDICTED BY RF-SCORE:    0.00 PKD
ROOT
HETATM    1  C   UNL     1     -10.808  10.187  67.112  1.00  0.00    -0.257 C  
HETATM    2  C   UNL     1     -10.896  11.716  67.073  1.00  0.00    -0.311 C  
HETATM    3  C   UNL     1      -9.529  12.493  67.059  1.00  0.00    -0.217 C  
HETATM    4  C   UNL     1      -9.978   7.516  72.555  1.00  0.00    -0.248 A  
HETATM    5  C   UNL     1      -9.056  12.245  65.631  1.00  0.00     0.204 C  
HETATM    6  C   UNL     1     -10.590   7.017  73.725  1.00  0.00    -0.325 A  
HETATM    7  C   UNL     1      -9.882   6.137  74.560  1.00  0.00    -0.319 A  
HETATM    8  C   UNL     1      -8.721  10.699  65.592  1.00  0.00    -0.198 C  
HETATM    9  C   UNL     1      -8.590   5.761  74.233  1.00  0.00    -0.111 A  
HETATM   10  C   UNL     1      -7.964   6.234  73.064  1.00  0.00    -0.107 A  
HETATM   11  H   UNL     1      -7.447   7.602  70.554  1.00  0.00     0.000 HD 
HETATM   12  C   UNL     1      -9.374   9.725  66.782  1.00  0.00    -0.190 C  
HETATM   13  C   UNL     1      -8.687   7.117  72.235  1.00  0.00    -0.120 A  
HETATM   14  N   UNL     1      -8.327   7.746  71.049  1.00  0.00    -0.112 NA 
HETATM   15  C   UNL     1      -9.332   8.593  70.641  1.00  0.00    -0.185 A  
HETATM   16  C   UNL     1     -10.361   8.453  71.564  1.00  0.00    -0.296 A  
HETATM   17  C   UNL     1      -8.688   9.197  68.131  1.00  0.00    -0.129 C  
HETATM   18  C   UNL     1     -11.577   9.302  71.514  1.00  0.00    -0.452 C  
HETATM   19  C   UNL     1      -9.257   9.659  69.544  1.00  0.00    -0.203 C  
HETATM   20  C   UNL     1     -11.228  10.588  70.753  1.00  0.00    -0.105 C  
HETATM   21  C   UNL     1     -11.398   9.758  68.457  1.00  0.00     0.087 C  
HETATM   22  N   UNL     1     -10.549  10.359  69.464  1.00  0.00    -0.232 NA 
ENDROOT
BRANCH   3  23
HETATM   23  O   UNL     1      -8.431  12.084  67.965  1.00  0.00    -0.152 OA 
BRANCH  23  24
HETATM   24  C   UNL     1      -7.695  13.130  68.469  1.00  0.00    -0.117 C  
HETATM   25  O   UNL     1      -6.678  12.969  69.138  1.00  0.00    -0.105 OA 
BRANCH  24  26
HETATM   26  C   UNL     1      -8.167  14.541  68.261  1.00  0.00    -0.149 A  
HETATM   27  C   UNL     1      -9.011  17.241  68.529  1.00  0.00    -0.273 A  
HETATM   28  C   UNL     1      -7.416  15.574  67.717  1.00  0.00    -0.168 A  
HETATM   29  C   UNL     1      -9.421  14.863  68.804  1.00  0.00    -0.214 A  
HETATM   30  C   UNL     1      -9.832  16.191  68.977  1.00  0.00    -0.245 A  
HETATM   31  C   UNL     1      -7.807  16.921  67.870  1.00  0.00    -0.175 A  
BRANCH  30  32
HETATM   32  O   UNL     1     -11.003  16.524  69.622  1.00  0.00    -0.325 OA 
HETATM   33  C   UNL     1     -11.192  15.927  70.904  1.00  0.00    -0.351 C  
ENDBRANCH  30  32
BRANCH  27  34
HETATM   34  O   UNL     1      -9.477  18.514  68.757  1.00  0.00    -0.332 OA 
HETATM   35  C   UNL     1      -9.917  19.249  67.617  1.00  0.00    -0.358 C  
ENDBRANCH  27  34
BRANCH  31  36
HETATM   36  O   UNL     1      -7.043  17.950  67.376  1.00  0.00    -0.183 OA 
HETATM   37  C   UNL     1      -6.497  17.749  66.075  1.00  0.00    -0.259 C  
ENDBRANCH  31  36
ENDBRANCH  24  26
ENDBRANCH  23  24
ENDBRANCH   3  23
BRANCH   5  38
HETATM   38  O   UNL     1     -10.127  12.648  64.753  1.00  0.00    -0.275 OA 
HETATM   39  C   UNL     1     -10.291  11.967  63.525  1.00  0.00    -0.461 C  
ENDBRANCH   5  38
BRANCH   8  40
HETATM   40  C   UNL     1      -7.232  10.597  65.327  1.00  0.00     0.024 C  
HETATM   41  O   UNL     1      -6.362  10.867  66.139  1.00  0.00    -0.126 OA 
BRANCH  40  42
HETATM   42  O   UNL     1      -6.999  10.249  64.032  1.00  0.00    -0.121 OA 
HETATM   43  C   UNL     1      -5.836   9.480  63.696  1.00  0.00    -0.092 C  
ENDBRANCH  40  42
ENDBRANCH   8  40
TORSDOF 9
ENDMDL
MODEL       57
REMARK 921   NORMALIZED FREE ENERGY PREDICTED BY IDOCK:   -4.35 KCAL/MOL
REMARK 922        TOTAL FREE ENERGY PREDICTED BY IDOCK:   -9.27 KCAL/MOL
REMARK 923 INTER-LIGAND FREE ENERGY PREDICTED BY IDOCK:   -7.52 KCAL/MOL
REMARK 924 INTRA-LIGAND FREE ENERGY PREDICTED BY IDOCK:   -1.74 KCAL/MOL
REMARK 927      BINDING AFFINITY PREDICTED BY RF-SCORE:    0.00 PKD
ROOT
HETATM    1  C   UNL     1     -10.097   7.328  66.602  1.00  0.00    -0.238 C  
HETATM    2  C   UNL     1     -10.480   8.791  66.361  1.00  0.00    -0.024 C  
HETATM    3  C   UNL     1      -9.341   9.854  66.571  1.00  0.00    -0.164 C  
HETATM    4  C   UNL     1     -10.138   5.278  72.367  1.00  0.00    -0.227 A  
HETATM    5  C   UNL     1      -8.484   9.627  65.331  1.00  0.00    -0.145 C  
HETATM    6  C   UNL     1     -10.910   4.732  73.415  1.00  0.00    -0.361 A  
HETATM    7  C   UNL     1     -10.272   4.091  74.490  1.00  0.00    -0.256 A  
HETATM    8  C   UNL     1      -7.843   8.197  65.554  1.00  0.00    -0.104 C  
HETATM    9  C   UNL     1      -8.890   3.996  74.517  1.00  0.00    -0.098 A  
HETATM   10  C   UNL     1      -8.100   4.521  73.477  1.00  0.00    -0.095 A  
HETATM   11  H   UNL     1      -7.257   5.801  71.009  1.00  0.00     0.000 HD 
HETATM   12  C   UNL     1      -8.563   7.181  66.669  1.00  0.00    -0.124 C  
HETATM   13  C   UNL     1      -8.755   5.161  72.404  1.00  0.00    -0.124 A  
HETATM   14  N   UNL     1      -8.244   5.775  71.267  1.00  0.00    -0.121 NA 
HETATM   15  C   UNL     1      -9.264   6.345  70.540  1.00  0.00    -0.158 A  
HETATM   16  C   UNL     1     -10.442   6.037  71.210  1.00  0.00    -0.283 A  
HETATM   17  C   UNL     1      -8.146   6.911  68.193  1.00  0.00    -0.119 C  
HETATM   18  C   UNL     1     -11.752   6.584  70.779  1.00  0.00    -0.427 C  
HETATM   19  C   UNL     1      -9.133   7.325  69.371  1.00  0.00    -0.142 C  
HETATM   20  C   UNL     1     -11.491   7.863  69.972  1.00  0.00     0.054 C  
HETATM   21  C   UNL     1     -10.906   6.866  67.815  1.00  0.00    -0.241 C  
HETATM   22  N   UNL     1     -10.478   7.708  68.912  1.00  0.00    -0.212 NA 
ENDROOT
BRANCH   3  23
HETATM   23  O   UNL     1      -8.447   9.765  67.748  1.00  0.00    -0.120 OA 
BRANCH  23  24
HETATM   24  C   UNL     1      -7.890  10.963  68.128  1.00  0.00    -0.114 C  
HETATM   25  O   UNL     1      -6.723  11.071  68.492  1.00  0.00    -0.057 OA 
BRANCH  24  26
HETATM   26  C   UNL     1      -8.742  12.200  68.167  1.00  0.00    -0.185 A  
HETATM   27  C   UNL     1     -10.438  14.407  67.599  1.00  0.00    -0.245 A  
HETATM   28  C   UNL     1      -9.992  12.303  68.762  1.00  0.00    -0.048 A  
HETATM   29  C   UNL     1      -8.290  13.290  67.407  1.00  0.00    -0.193 A  
HETATM   30  C   UNL     1      -9.128  14.366  67.087  1.00  0.00    -0.227 A  
HETATM   31  C   UNL     1     -10.856  13.377  68.465  1.00  0.00    -0.265 A  
BRANCH  30  32
HETATM   32  O   UNL     1      -8.739  15.380  66.240  1.00  0.00    -0.300 OA 
HETATM   33  C   UNL     1      -7.763  16.280  66.765  1.00  0.00    -0.260 C  
ENDBRANCH  30  32
BRANCH  27  34
HETATM   34  O   UNL     1     -11.202  15.485  67.218  1.00  0.00    -0.308 OA 
HETATM   35  C   UNL     1     -11.160  16.631  68.066  1.00  0.00    -0.255 C  
ENDBRANCH  27  34
BRANCH  31  36
HETATM   36  O   UNL     1     -12.113  13.460  69.013  1.00  0.00    -0.325 OA 
HETATM   37  C   UNL     1     -12.180  13.982  70.337  1.00  0.00    -0.363 C  
ENDBRANCH  31  36
ENDBRANCH  24  26
ENDBRANCH  23  24
ENDBRANCH   3  23
BRANCH   5  38
HETATM   38  O   UNL     1      -9.358   9.719  64.187  1.00  0.00    -0.266 OA 
HETATM   39  C   UNL     1      -8.846   9.386  62.912  1.00  0.00    -0.205 C  
ENDBRANCH   5  38
BRANCH   8  40
HETATM   40  C   UNL     1      -6.347   8.417  65.655  1.00  0.00    -0.052 C  
HETATM   41  O   UNL     1      -5.807   9.510  65.699  1.00  0.00    -0.055 OA 
BRANCH  40  42
HETATM   42  O   UNL     1      -5.683   7.229  65.599  1.00  0.00    -0.034 OA 
HETATM   43  C   UNL     1      -5.652   6.483  64.374  1.00  0.00    -0.030 C  
ENDBRANCH  40  42
ENDBRANCH   8  40
TORSDOF 9
ENDMDL
MODEL       58
REMARK 921   NORMALIZED FREE ENERGY PREDICTED BY IDOCK:   -4.32 KCAL/MOL
REMARK 922        TOTAL FREE ENERGY PREDICTED BY IDOCK:   -9.23 KCAL/MOL
REMARK 923 INTER-LIGAND FREE ENERGY PREDICTED BY IDOCK:   -6.93 KCAL/MOL
REMARK 924 INTRA-LIGAND FREE ENERGY PREDICTED BY IDOCK:   -2.30 KCAL/MOL
REMARK 927      BINDING AFFINITY PREDICTED BY RF-SCORE:    0.00 PKD
ROOT
HETATM    1  C   UNL     1      -7.476  15.391  67.946  1.00  0.00    -0.153 C  
HETATM    2  C   UNL     1      -7.948  15.679  66.518  1.00  0.00    -0.097 C  
HETATM    3  C   UNL     1      -9.478  15.460  66.232  1.00  0.00    -0.309 C  
HETATM    4  C   UNL     1      -6.259   9.581  69.434  1.00  0.00    -0.040 A  
HETATM    5  C   UNL     1     -10.092  16.667  66.932  1.00  0.00    -0.280 C  
HETATM    6  C   UNL     1      -5.301   8.544  69.437  1.00  0.00    -0.031 A  
HETATM    7  C   UNL     1      -5.478   7.435  70.280  1.00  0.00    -0.023 A  
HETATM    8  C   UNL     1      -9.854  16.389  68.472  1.00  0.00    -0.231 C  
HETATM    9  C   UNL     1      -6.588   7.363  71.105  1.00  0.00    -0.043 A  
HETATM   10  C   UNL     1      -7.550   8.391  71.129  1.00  0.00    -0.089 A  
HETATM   11  H   UNL     1      -8.983  10.862  70.600  1.00  0.00     0.000 HD 
HETATM   12  C   UNL     1      -8.686  15.273  68.896  1.00  0.00    -0.208 C  
HETATM   13  C   UNL     1      -7.359   9.498  70.278  1.00  0.00    -0.133 A  
HETATM   14  N   UNL     1      -8.136  10.634  70.079  1.00  0.00     0.185 NA 
HETATM   15  C   UNL     1      -7.595  11.406  69.077  1.00  0.00    -0.084 A  
HETATM   16  C   UNL     1      -6.429  10.765  68.674  1.00  0.00    -0.055 A  
HETATM   17  C   UNL     1      -8.871  13.731  69.291  1.00  0.00     0.593 C  
HETATM   18  C   UNL     1      -5.628  11.249  67.523  1.00  0.00    -0.047 C  
HETATM   19  C   UNL     1      -8.249  12.594  68.367  1.00  0.00    -0.129 C  
HETATM   20  C   UNL     1      -6.550  12.079  66.618  1.00  0.00     0.167 C  
HETATM   21  C   UNL     1      -6.530  14.192  67.853  1.00  0.00    -0.165 C  
HETATM   22  N   UNL     1      -7.331  13.103  67.335  1.00  0.00    -0.141 NA 
ENDROOT
BRANCH   3  23
HETATM   23  O   UNL     1     -10.167  14.254  66.746  1.00  0.00    -0.264 OA 
BRANCH  23  24
HETATM   24  C   UNL     1     -10.513  13.344  65.776  1.00  0.00    -0.290 C  
HETATM   25  O   UNL     1     -10.807  13.670  64.629  1.00  0.00    -0.367 OA 
BRANCH  24  26
HETATM   26  C   UNL     1     -10.604  11.885  66.122  1.00  0.00    -0.295 A  
HETATM   27  C   UNL     1     -10.120   9.186  66.864  1.00  0.00    -0.258 A  
HETATM   28  C   UNL     1     -11.152  11.362  67.285  1.00  0.00    -0.363 A  
HETATM   29  C   UNL     1      -9.940  10.999  65.259  1.00  0.00    -0.320 A  
HETATM   30  C   UNL     1      -9.661   9.677  65.629  1.00  0.00    -0.271 A  
HETATM   31  C   UNL     1     -10.895  10.033  67.681  1.00  0.00    -0.278 A  
BRANCH  30  32
HETATM   32  O   UNL     1      -8.903   8.835  64.846  1.00  0.00    -0.167 OA 
HETATM   33  C   UNL     1      -8.579   9.327  63.546  1.00  0.00    -0.191 C  
ENDBRANCH  30  32
BRANCH  27  34
HETATM   34  O   UNL     1      -9.785   7.885  67.161  1.00  0.00    -0.162 OA 
HETATM   35  C   UNL     1     -10.818   6.911  67.028  1.00  0.00    -0.366 C  
ENDBRANCH  27  34
BRANCH  31  36
HETATM   36  O   UNL     1     -11.396   9.524  68.854  1.00  0.00     0.006 OA 
HETATM   37  C   UNL     1     -11.728  10.483  69.855  1.00  0.00    -0.294 C  
ENDBRANCH  31  36
ENDBRANCH  24  26
ENDBRANCH  23  24
ENDBRANCH   3  23
BRANCH   5  38
HETATM   38  O   UNL     1      -9.421  17.839  66.425  1.00  0.00    -0.281 OA 
HETATM   39  C   UNL     1      -9.899  19.114  66.807  1.00  0.00    -0.342 C  
ENDBRANCH   5  38
BRANCH   8  40
HETATM   40  C   UNL     1     -11.231  16.248  69.091  1.00  0.00    -0.309 C  
HETATM   41  O   UNL     1     -12.228  15.878  68.493  1.00  0.00    -0.075 OA 
BRANCH  40  42
HETATM   42  O   UNL     1     -11.221  16.676  70.384  1.00  0.00    -0.260 OA 
HETATM   43  C   UNL     1     -11.875  15.902  71.399  1.00  0.00    -0.463 C  
ENDBRANCH  40  42
ENDBRANCH   8  40
TORSDOF 9
ENDMDL
MODEL       59
REMARK 921   NORMALIZED FREE ENERGY PREDICTED BY IDOCK:   -4.29 KCAL/MOL
REMARK 922        TOTAL FREE ENERGY PREDICTED BY IDOCK:   -9.19 KCAL/MOL
REMARK 923 INTER-LIGAND FREE ENERGY PREDICTED BY IDOCK:   -7.13 KCAL/MOL
REMARK 924 INTRA-LIGAND FREE ENERGY PREDICTED BY IDOCK:   -2.05 KCAL/MOL
REMARK 927      BINDING AFFINITY PREDICTED BY RF-SCORE:    0.00 PKD
ROOT
HETATM    1  C   UNL     1      -9.387   6.778  73.091  1.00  0.00    -0.153 C  
HETATM    2  C   UNL     1     -10.154   5.457  72.977  1.00  0.00    -0.201 C  
HETATM    3  C   UNL     1      -9.819   4.562  71.728  1.00  0.00    -0.186 C  
HETATM    4  C   UNL     1     -11.473  11.572  69.911  1.00  0.00    -0.340 A  
HETATM    5  C   UNL     1      -8.450   4.010  72.111  1.00  0.00    -0.104 C  
HETATM    6  C   UNL     1     -12.367  12.664  69.882  1.00  0.00    -0.126 A  
HETATM    7  C   UNL     1     -12.157  13.712  68.971  1.00  0.00    -0.348 A  
HETATM    8  C   UNL     1      -7.492   5.269  72.061  1.00  0.00    -0.097 C  
HETATM    9  C   UNL     1     -11.076  13.670  68.106  1.00  0.00    -0.281 A  
HETATM   10  C   UNL     1     -10.164  12.598  68.126  1.00  0.00    -0.240 A  
HETATM   11  H   UNL     1      -8.803  10.126  68.817  1.00  0.00     0.000 HD 
HETATM   12  C   UNL     1      -8.189   6.786  72.121  1.00  0.00    -0.104 C  
HETATM   13  C   UNL     1     -10.387  11.554  69.047  1.00  0.00    -0.118 A  
HETATM   14  N   UNL     1      -9.676  10.382  69.279  1.00  0.00    -0.216 NA 
HETATM   15  C   UNL     1     -10.323   9.617  70.222  1.00  0.00    -0.280 A  
HETATM   16  C   UNL     1     -11.434  10.348  70.624  1.00  0.00    -0.438 A  
HETATM   17  C   UNL     1      -8.523   7.782  70.910  1.00  0.00    -0.127 C  
HETATM   18  C   UNL     1     -12.443   9.787  71.557  1.00  0.00    -0.495 C  
HETATM   19  C   UNL     1     -10.035   8.158  70.587  1.00  0.00    -0.189 C  
HETATM   20  C   UNL     1     -12.358   8.257  71.485  1.00  0.00    -0.306 C  
HETATM   21  C   UNL     1     -10.425   7.891  72.943  1.00  0.00    -0.355 C  
HETATM   22  N   UNL     1     -10.990   7.724  71.620  1.00  0.00    -0.231 NA 
ENDROOT
BRANCH   3  23
HETATM   23  O   UNL     1      -9.688   5.175  70.386  1.00  0.00    -0.172 OA 
BRANCH  23  24
HETATM   24  C   UNL     1      -9.658   4.270  69.352  1.00  0.00    -0.197 C  
HETATM   25  O   UNL     1      -9.692   3.055  69.527  1.00  0.00    -0.087 OA 
BRANCH  24  26
HETATM   26  C   UNL     1      -9.514   4.759  67.939  1.00  0.00    -0.181 A  
HETATM   27  C   UNL     1      -8.607   5.514  65.355  1.00  0.00    -0.151 A  
HETATM   28  C   UNL     1      -9.987   4.111  66.806  1.00  0.00    -0.140 A  
HETATM   29  C   UNL     1      -8.702   5.888  67.752  1.00  0.00    -0.104 A  
HETATM   30  C   UNL     1      -8.216   6.248  66.489  1.00  0.00    -0.112 A  
HETATM   31  C   UNL     1      -9.521   4.455  65.520  1.00  0.00    -0.175 A  
BRANCH  30  32
HETATM   32  O   UNL     1      -7.319   7.277  66.307  1.00  0.00    -0.076 OA 
HETATM   33  C   UNL     1      -7.326   8.287  67.317  1.00  0.00    -0.089 C  
ENDBRANCH  30  32
BRANCH  27  34
HETATM   34  O   UNL     1      -8.067   5.918  64.156  1.00  0.00    -0.122 OA 
HETATM   35  C   UNL     1      -6.936   5.189  63.685  1.00  0.00    -0.047 C  
ENDBRANCH  27  34
BRANCH  31  36
HETATM   36  O   UNL     1      -9.949   3.785  64.399  1.00  0.00    -0.173 OA 
HETATM   37  C   UNL     1      -9.429   2.470  64.226  1.00  0.00    -0.138 C  
ENDBRANCH  31  36
ENDBRANCH  24  26
ENDBRANCH  23  24
ENDBRANCH   3  23
BRANCH   5  38
HETATM   38  O   UNL     1      -8.583   3.411  73.416  1.00  0.00    -0.078 OA 
HETATM   39  C   UNL     1      -8.595   2.001  73.518  1.00  0.00    -0.059 C  
ENDBRANCH   5  38
BRANCH   8  40
HETATM   40  C   UNL     1      -6.487   4.990  70.961  1.00  0.00    -0.027 C  
HETATM   41  O   UNL     1      -5.805   5.839  70.410  1.00  0.00    -0.022 OA 
BRANCH  40  42
HETATM   42  O   UNL     1      -6.515   3.675  70.609  1.00  0.00    -0.029 OA 
HETATM   43  C   UNL     1      -6.100   3.277  69.295  1.00  0.00    -0.024 C  
ENDBRANCH  40  42
ENDBRANCH   8  40
TORSDOF 9
ENDMDL
MODEL       60
REMARK 921   NORMALIZED FREE ENERGY PREDICTED BY IDOCK:   -4.29 KCAL/MOL
REMARK 922        TOTAL FREE ENERGY PREDICTED BY IDOCK:   -9.17 KCAL/MOL
REMARK 923 INTER-LIGAND FREE ENERGY PREDICTED BY IDOCK:   -7.45 KCAL/MOL
REMARK 924 INTRA-LIGAND FREE ENERGY PREDICTED BY IDOCK:   -1.73 KCAL/MOL
REMARK 927      BINDING AFFINITY PREDICTED BY RF-SCORE:    0.00 PKD
ROOT
HETATM    1  C   UNL     1     -10.007   7.139  71.896  1.00  0.00    -0.180 C  
HETATM    2  C   UNL     1     -10.602   5.897  71.226  1.00  0.00    -0.311 C  
HETATM    3  C   UNL     1     -10.364   5.759  69.678  1.00  0.00    -0.260 C  
HETATM    4  C   UNL     1     -13.204  12.349  71.598  1.00  0.00    -0.367 A  
HETATM    5  C   UNL     1      -8.891   5.371  69.632  1.00  0.00    -0.109 C  
HETATM    6  C   UNL     1     -14.226  13.135  72.173  1.00  0.00    -0.143 A  
HETATM    7  C   UNL     1     -14.310  14.502  71.863  1.00  0.00    -0.647 A  
HETATM    8  C   UNL     1      -8.128   6.672  70.113  1.00  0.00    -0.124 C  
HETATM    9  C   UNL     1     -13.391  15.073  70.998  1.00  0.00    -0.477 A  
HETATM   10  C   UNL     1     -12.356  14.312  70.423  1.00  0.00    -0.419 A  
HETATM   11  H   UNL     1     -10.586  12.116  69.725  1.00  0.00     0.000 HD 
HETATM   12  C   UNL     1      -8.998   7.825  70.953  1.00  0.00    -0.148 C  
HETATM   13  C   UNL     1     -12.284  12.941  70.744  1.00  0.00    -0.260 A  
HETATM   14  N   UNL     1     -11.396  11.957  70.324  1.00  0.00     0.060 NA 
HETATM   15  C   UNL     1     -11.771  10.735  70.834  1.00  0.00    -0.234 A  
HETATM   16  C   UNL     1     -12.887  10.968  71.629  1.00  0.00    -0.540 A  
HETATM   17  C   UNL     1      -9.657   9.178  70.403  1.00  0.00    -0.268 C  
HETATM   18  C   UNL     1     -13.644   9.858  72.259  1.00  0.00    -0.337 C  
HETATM   19  C   UNL     1     -11.238   9.358  70.428  1.00  0.00    -0.262 C  
HETATM   20  C   UNL     1     -13.371   8.580  71.454  1.00  0.00    -0.217 C  
HETATM   21  C   UNL     1     -11.193   7.971  72.389  1.00  0.00    -0.369 C  
HETATM   22  N   UNL     1     -11.942   8.323  71.201  1.00  0.00    -0.283 NA 
ENDROOT
BRANCH   3  23
HETATM   23  O   UNL     1     -10.540   6.931  68.790  1.00  0.00    -0.202 OA 
BRANCH  23  24
HETATM   24  C   UNL     1     -10.788   6.613  67.476  1.00  0.00    -0.342 C  
HETATM   25  O   UNL     1     -11.891   6.258  67.072  1.00  0.00     0.648 OA 
BRANCH  24  26
HETATM   26  C   UNL     1      -9.663   6.632  66.481  1.00  0.00    -0.176 A  
HETATM   27  C   UNL     1      -7.998   6.428  64.188  1.00  0.00    -0.096 A  
HETATM   28  C   UNL     1      -9.110   7.767  65.905  1.00  0.00    -0.122 A  
HETATM   29  C   UNL     1      -9.248   5.384  65.989  1.00  0.00    -0.166 A  
HETATM   30  C   UNL     1      -8.459   5.269  64.837  1.00  0.00    -0.150 A  
HETATM   31  C   UNL     1      -8.307   7.684  64.748  1.00  0.00    -0.027 A  
BRANCH  30  32
HETATM   32  O   UNL     1      -8.149   4.052  64.272  1.00  0.00    -0.088 OA 
HETATM   33  C   UNL     1      -8.915   2.942  64.739  1.00  0.00    -0.127 C  
ENDBRANCH  30  32
BRANCH  27  34
HETATM   34  O   UNL     1      -7.249   6.229  63.051  1.00  0.00    -0.049 OA 
HETATM   35  C   UNL     1      -5.842   6.081  63.230  1.00  0.00    -0.022 C  
ENDBRANCH  27  34
BRANCH  31  36
HETATM   36  O   UNL     1      -7.797   8.808  64.146  1.00  0.00    -0.123 OA 
HETATM   37  C   UNL     1      -7.863  10.007  64.913  1.00  0.00    -0.141 C  
ENDBRANCH  31  36
ENDBRANCH  24  26
ENDBRANCH  23  24
ENDBRANCH   3  23
BRANCH   5  38
HETATM   38  O   UNL     1      -8.725   4.227  70.494  1.00  0.00    -0.076 OA 
HETATM   39  C   UNL     1      -7.549   4.127  71.272  1.00  0.00    -0.059 C  
ENDBRANCH   5  38
BRANCH   8  40
HETATM   40  C   UNL     1      -7.292   7.130  68.934  1.00  0.00    -0.093 C  
HETATM   41  O   UNL     1      -7.116   8.296  68.618  1.00  0.00    -0.069 OA 
BRANCH  40  42
HETATM   42  O   UNL     1      -6.839   6.061  68.224  1.00  0.00    -0.065 OA 
HETATM   43  C   UNL     1      -5.460   5.674  68.313  1.00  0.00    -0.008 C  
ENDBRANCH  40  42
ENDBRANCH   8  40
TORSDOF 9
ENDMDL
MODEL       61
REMARK 921   NORMALIZED FREE ENERGY PREDICTED BY IDOCK:   -4.27 KCAL/MOL
REMARK 922        TOTAL FREE ENERGY PREDICTED BY IDOCK:   -9.14 KCAL/MOL
REMARK 923 INTER-LIGAND FREE ENERGY PREDICTED BY IDOCK:   -8.51 KCAL/MOL
REMARK 924 INTRA-LIGAND FREE ENERGY PREDICTED BY IDOCK:   -0.63 KCAL/MOL
REMARK 927      BINDING AFFINITY PREDICTED BY RF-SCORE:    0.00 PKD
ROOT
HETATM    1  C   UNL     1      -7.627  17.325  66.228  1.00  0.00    -0.360 C  
HETATM    2  C   UNL     1      -8.680  18.412  66.460  1.00  0.00    -0.291 C  
HETATM    3  C   UNL     1      -9.068  18.699  67.957  1.00  0.00    -0.305 C  
HETATM    4  C   UNL     1      -9.504  11.500  66.178  1.00  0.00    -0.239 A  
HETATM    5  C   UNL     1      -7.836  19.452  68.449  1.00  0.00    -0.342 C  
HETATM    6  C   UNL     1     -10.045  10.446  65.411  1.00  0.00    -0.354 A  
HETATM    7  C   UNL     1      -9.941   9.124  65.873  1.00  0.00    -0.232 A  
HETATM    8  C   UNL     1      -6.689  18.361  68.458  1.00  0.00    -0.253 C  
HETATM    9  C   UNL     1      -9.308   8.859  67.076  1.00  0.00    -0.194 A  
HETATM   10  C   UNL     1      -8.749   9.892  67.851  1.00  0.00    -0.129 A  
HETATM   11  H   UNL     1      -7.881  12.504  68.782  1.00  0.00     0.000 HD 
HETATM   12  C   UNL     1      -6.916  16.976  67.552  1.00  0.00    -0.168 C  
HETATM   13  C   UNL     1      -8.860  11.214  67.375  1.00  0.00    -0.139 A  
HETATM   14  N   UNL     1      -8.426  12.416  67.924  1.00  0.00    -0.156 NA 
HETATM   15  C   UNL     1      -8.840  13.469  67.140  1.00  0.00    -0.226 A  
HETATM   16  C   UNL     1      -9.503  12.911  66.054  1.00  0.00    -0.112 A  
HETATM   17  C   UNL     1      -7.423  15.535  68.036  1.00  0.00    -0.136 C  
HETATM   18  C   UNL     1     -10.193  13.752  65.044  1.00  0.00    -0.370 C  
HETATM   19  C   UNL     1      -8.804  14.958  67.496  1.00  0.00    -0.188 C  
HETATM   20  C   UNL     1     -10.520  15.103  65.695  1.00  0.00    -0.359 C  
HETATM   21  C   UNL     1      -8.337  16.190  65.487  1.00  0.00     1.490 C  
HETATM   22  N   UNL     1      -9.378  15.731  66.383  1.00  0.00    -0.273 NA 
ENDROOT
BRANCH   3  23
HETATM   23  O   UNL     1      -9.302  17.576  68.894  1.00  0.00    -0.252 OA 
BRANCH  23  24
HETATM   24  C   UNL     1     -10.601  17.126  68.922  1.00  0.00    -0.314 C  
HETATM   25  O   UNL     1     -11.476  17.567  68.183  1.00  0.00     0.206 OA 
BRANCH  24  26
HETATM   26  C   UNL     1     -11.009  16.094  69.934  1.00  0.00    -0.362 A  
HETATM   27  C   UNL     1     -12.386  14.390  71.742  1.00  0.00    -0.312 A  
HETATM   28  C   UNL     1     -11.053  14.723  69.720  1.00  0.00    -0.288 A  
HETATM   29  C   UNL     1     -11.528  16.581  71.144  1.00  0.00    -0.092 A  
HETATM   30  C   UNL     1     -12.243  15.760  72.025  1.00  0.00    -0.465 A  
HETATM   31  C   UNL     1     -11.760  13.869  70.593  1.00  0.00    -0.119 A  
BRANCH  30  32
HETATM   32  O   UNL     1     -12.865  16.250  73.152  1.00  0.00    -0.458 OA 
HETATM   33  C   UNL     1     -11.995  16.746  74.169  1.00  0.00    -0.088 C  
ENDBRANCH  30  32
BRANCH  27  34
HETATM   34  O   UNL     1     -13.121  13.659  72.646  1.00  0.00    -0.447 OA 
HETATM   35  C   UNL     1     -13.760  12.484  72.151  1.00  0.00    -0.243 C  
ENDBRANCH  27  34
BRANCH  31  36
HETATM   36  O   UNL     1     -11.848  12.519  70.359  1.00  0.00    -0.299 OA 
HETATM   37  C   UNL     1     -11.885  12.126  68.990  1.00  0.00    -0.306 C  
ENDBRANCH  31  36
ENDBRANCH  24  26
ENDBRANCH  23  24
ENDBRANCH   3  23
BRANCH   5  38
HETATM   38  O   UNL     1      -7.614  20.546  67.536  1.00  0.00    -0.312 OA 
HETATM   39  C   UNL     1      -6.319  21.107  67.450  1.00  0.00    -0.363 C  
ENDBRANCH   5  38
BRANCH   8  40
HETATM   40  C   UNL     1      -6.271  18.203  69.907  1.00  0.00    -0.101 C  
HETATM   41  O   UNL     1      -5.928  17.150  70.420  1.00  0.00    -0.131 OA 
BRANCH  40  42
HETATM   42  O   UNL     1      -6.415  19.378  70.578  1.00  0.00    -0.055 OA 
HETATM   43  C   UNL     1      -5.377  19.832  71.458  1.00  0.00    -0.377 C  
ENDBRANCH  40  42
ENDBRANCH   8  40
TORSDOF 9
ENDMDL
MODEL       62
REMARK 921   NORMALIZED FREE ENERGY PREDICTED BY IDOCK:   -4.26 KCAL/MOL
REMARK 922        TOTAL FREE ENERGY PREDICTED BY IDOCK:   -9.13 KCAL/MOL
REMARK 923 INTER-LIGAND FREE ENERGY PREDICTED BY IDOCK:   -6.81 KCAL/MOL
REMARK 924 INTRA-LIGAND FREE ENERGY PREDICTED BY IDOCK:   -2.32 KCAL/MOL
REMARK 927      BINDING AFFINITY PREDICTED BY RF-SCORE:    0.00 PKD
ROOT
HETATM    1  C   UNL     1      -8.335  13.089  68.472  1.00  0.00    -0.057 C  
HETATM    2  C   UNL     1      -8.006  12.920  66.986  1.00  0.00    -0.031 C  
HETATM    3  C   UNL     1      -9.218  12.607  66.034  1.00  0.00     0.020 C  
HETATM    4  C   UNL     1      -8.861   8.029  71.873  1.00  0.00    -0.191 A  
HETATM    5  C   UNL     1      -9.910  13.964  65.971  1.00  0.00    -0.289 C  
HETATM    6  C   UNL     1      -8.188   7.053  72.640  1.00  0.00    -0.117 A  
HETATM    7  C   UNL     1      -8.913   6.255  73.540  1.00  0.00    -0.128 A  
HETATM    8  C   UNL     1     -10.494  14.174  67.427  1.00  0.00    -0.271 C  
HETATM    9  C   UNL     1     -10.281   6.427  73.672  1.00  0.00    -0.284 A  
HETATM   10  C   UNL     1     -10.971   7.402  72.927  1.00  0.00    -0.408 A  
HETATM   11  H   UNL     1     -11.587   9.576  71.101  1.00  0.00     0.000 HD 
HETATM   12  C   UNL     1      -9.856  13.254  68.667  1.00  0.00    -0.096 C  
HETATM   13  C   UNL     1     -10.230   8.197  72.028  1.00  0.00    -0.249 A  
HETATM   14  N   UNL     1     -10.637   9.209  71.166  1.00  0.00    -0.281 NA 
HETATM   15  C   UNL     1      -9.571   9.642  70.411  1.00  0.00    -0.234 A  
HETATM   16  C   UNL     1      -8.465   8.921  70.846  1.00  0.00    -0.226 A  
HETATM   17  C   UNL     1     -10.435  11.906  69.313  1.00  0.00     0.050 C  
HETATM   18  C   UNL     1      -7.145   9.037  70.178  1.00  0.00    -0.052 C  
HETATM   19  C   UNL     1      -9.616  10.548  69.177  1.00  0.00    -0.199 C  
HETATM   20  C   UNL     1      -7.378   9.540  68.747  1.00  0.00    -0.074 C  
HETATM   21  C   UNL     1      -7.651  11.930  69.198  1.00  0.00     0.117 C  
HETATM   22  N   UNL     1      -8.249  10.726  68.661  1.00  0.00    -0.131 NA 
ENDROOT
BRANCH   3  23
HETATM   23  O   UNL     1     -10.239  11.610  66.431  1.00  0.00    -0.211 OA 
BRANCH  23  24
HETATM   24  C   UNL     1     -10.383  10.566  65.548  1.00  0.00    -0.217 C  
HETATM   25  O   UNL     1     -11.085  10.634  64.543  1.00  0.00     0.147 OA 
BRANCH  24  26
HETATM   26  C   UNL     1      -9.712   9.252  65.832  1.00  0.00    -0.355 A  
HETATM   27  C   UNL     1      -8.967   6.519  66.046  1.00  0.00    -0.122 A  
HETATM   28  C   UNL     1      -8.557   8.784  65.221  1.00  0.00    -0.212 A  
HETATM   29  C   UNL     1     -10.404   8.372  66.678  1.00  0.00    -0.298 A  
HETATM   30  C   UNL     1     -10.072   7.014  66.762  1.00  0.00    -0.200 A  
HETATM   31  C   UNL     1      -8.192   7.424  65.292  1.00  0.00    -0.127 A  
BRANCH  30  32
HETATM   32  O   UNL     1     -10.818   6.113  67.490  1.00  0.00    -0.279 OA 
HETATM   33  C   UNL     1     -11.060   6.472  68.850  1.00  0.00    -0.301 C  
ENDBRANCH  30  32
BRANCH  27  34
HETATM   34  O   UNL     1      -8.722   5.171  66.165  1.00  0.00    -0.117 OA 
HETATM   35  C   UNL     1      -9.254   4.331  65.144  1.00  0.00    -0.151 C  
ENDBRANCH  27  34
BRANCH  31  36
HETATM   36  O   UNL     1      -7.077   6.945  64.650  1.00  0.00    -0.055 OA 
HETATM   37  C   UNL     1      -5.864   7.648  64.904  1.00  0.00    -0.038 C  
ENDBRANCH  31  36
ENDBRANCH  24  26
ENDBRANCH  23  24
ENDBRANCH   3  23
BRANCH   5  38
HETATM   38  O   UNL     1      -8.914  14.931  65.580  1.00  0.00     0.151 OA 
HETATM   39  C   UNL     1      -8.983  16.235  66.124  1.00  0.00    -0.339 C  
ENDBRANCH   5  38
BRANCH   8  40
HETATM   40  C   UNL     1     -12.002  14.215  67.274  1.00  0.00    -0.414 C  
HETATM   41  O   UNL     1     -12.601  14.000  66.233  1.00  0.00    -0.451 OA 
BRANCH  40  42
HETATM   42  O   UNL     1     -12.591  14.612  68.436  1.00  0.00     0.107 OA 
HETATM   43  C   UNL     1     -12.089  15.757  69.138  1.00  0.00    -0.198 C  
ENDBRANCH  40  42
ENDBRANCH   8  40
TORSDOF 9
ENDMDL
MODEL       63
REMARK 921   NORMALIZED FREE ENERGY PREDICTED BY IDOCK:   -4.23 KCAL/MOL
REMARK 922        TOTAL FREE ENERGY PREDICTED BY IDOCK:   -9.09 KCAL/MOL
REMARK 923 INTER-LIGAND FREE ENERGY PREDICTED BY IDOCK:   -6.58 KCAL/MOL
REMARK 924 INTRA-LIGAND FREE ENERGY PREDICTED BY IDOCK:   -2.51 KCAL/MOL
REMARK 927      BINDING AFFINITY PREDICTED BY RF-SCORE:    0.00 PKD
ROOT
HETATM    1  C   UNL     1      -5.249  10.967  69.103  1.00  0.00    -0.041 C  
HETATM    2  C   UNL     1      -6.230  10.219  70.011  1.00  0.00    -0.088 C  
HETATM    3  C   UNL     1      -7.561   9.719  69.339  1.00  0.00    -0.104 C  
HETATM    4  C   UNL     1      -6.236  16.929  68.137  1.00  0.00    -0.135 A  
HETATM    5  C   UNL     1      -7.057   8.542  68.512  1.00  0.00    -0.073 C  
HETATM    6  C   UNL     1      -6.035  18.245  68.607  1.00  0.00    -0.197 A  
HETATM    7  C   UNL     1      -6.204  19.330  67.732  1.00  0.00    -0.226 A  
HETATM    8  C   UNL     1      -6.176   9.208  67.378  1.00  0.00    -0.058 C  
HETATM    9  C   UNL     1      -6.566  19.106  66.413  1.00  0.00    -0.210 A  
HETATM   10  C   UNL     1      -6.759  17.803  65.919  1.00  0.00    -0.286 A  
HETATM   11  H   UNL     1      -6.926  14.909  65.716  1.00  0.00     0.000 HD 
HETATM   12  C   UNL     1      -5.634  10.769  67.623  1.00  0.00    -0.043 C  
HETATM   13  C   UNL     1      -6.584  16.723  66.809  1.00  0.00    -0.212 A  
HETATM   14  N   UNL     1      -6.719  15.353  66.611  1.00  0.00     0.268 NA 
HETATM   15  C   UNL     1      -6.535  14.684  67.799  1.00  0.00    -0.164 A  
HETATM   16  C   UNL     1      -6.229  15.651  68.749  1.00  0.00    -0.103 A  
HETATM   17  C   UNL     1      -6.253  12.141  67.071  1.00  0.00    -0.098 C  
HETATM   18  C   UNL     1      -6.075  15.314  70.186  1.00  0.00    -0.141 C  
HETATM   19  C   UNL     1      -6.840  13.213  68.091  1.00  0.00    -0.111 C  
HETATM   20  C   UNL     1      -6.837  14.008  70.452  1.00  0.00     0.336 C  
HETATM   21  C   UNL     1      -5.184  12.401  69.631  1.00  0.00    -0.075 C  
HETATM   22  N   UNL     1      -6.527  12.927  69.500  1.00  0.00    -0.104 NA 
ENDROOT
BRANCH   3  23
HETATM   23  O   UNL     1      -8.314  10.610  68.427  1.00  0.00    -0.115 OA 
BRANCH  23  24
HETATM   24  C   UNL     1      -9.577  10.931  68.865  1.00  0.00    -0.181 C  
HETATM   25  O   UNL     1     -10.057  10.484  69.903  1.00  0.00    -0.165 OA 
BRANCH  24  26
HETATM   26  C   UNL     1     -10.453  11.817  68.026  1.00  0.00    -0.221 A  
HETATM   27  C   UNL     1     -11.553  13.843  66.366  1.00  0.00    -0.367 A  
HETATM   28  C   UNL     1     -10.946  11.509  66.766  1.00  0.00    -0.347 A  
HETATM   29  C   UNL     1     -10.659  13.120  68.505  1.00  0.00    -0.274 A  
HETATM   30  C   UNL     1     -11.163  14.137  67.685  1.00  0.00    -0.297 A  
HETATM   31  C   UNL     1     -11.466  12.510  65.919  1.00  0.00    -0.373 A  
BRANCH  30  32
HETATM   32  O   UNL     1     -11.253  15.447  68.102  1.00  0.00    -0.298 OA 
HETATM   33  C   UNL     1     -10.042  16.023  68.590  1.00  0.00    -0.220 C  
ENDBRANCH  30  32
BRANCH  27  34
HETATM   34  O   UNL     1     -12.016  14.902  65.621  1.00  0.00    -0.221 OA 
HETATM   35  C   UNL     1     -11.078  15.532  64.752  1.00  0.00    -0.407 C  
ENDBRANCH  27  34
BRANCH  31  36
HETATM   36  O   UNL     1     -11.910  12.218  64.653  1.00  0.00    -0.363 OA 
HETATM   37  C   UNL     1     -10.965  11.589  63.792  1.00  0.00    -0.409 C  
ENDBRANCH  31  36
ENDBRANCH  24  26
ENDBRANCH  23  24
ENDBRANCH   3  23
BRANCH   5  38
HETATM   38  O   UNL     1      -6.328   7.676  69.406  1.00  0.00    -0.034 OA 
HETATM   39  C   UNL     1      -6.847   6.389  69.678  1.00  0.00    -0.065 C  
ENDBRANCH   5  38
BRANCH   8  40
HETATM   40  C   UNL     1      -6.869   8.892  66.067  1.00  0.00    -0.076 C  
HETATM   41  O   UNL     1      -7.949   8.333  65.969  1.00  0.00    -0.092 OA 
BRANCH  40  42
HETATM   42  O   UNL     1      -6.079   9.237  65.013  1.00  0.00    -0.063 OA 
HETATM   43  C   UNL     1      -6.618  10.027  63.944  1.00  0.00    -0.130 C  
ENDBRANCH  40  42
ENDBRANCH   8  40
TORSDOF 9
ENDMDL
MODEL       64
REMARK 921   NORMALIZED FREE ENERGY PREDICTED BY IDOCK:   -4.20 KCAL/MOL
REMARK 922        TOTAL FREE ENERGY PREDICTED BY IDOCK:   -9.05 KCAL/MOL
REMARK 923 INTER-LIGAND FREE ENERGY PREDICTED BY IDOCK:   -7.11 KCAL/MOL
REMARK 924 INTRA-LIGAND FREE ENERGY PREDICTED BY IDOCK:   -1.94 KCAL/MOL
REMARK 927      BINDING AFFINITY PREDICTED BY RF-SCORE:    0.00 PKD
ROOT
HETATM    1  C   UNL     1     -10.140  15.304  65.482  1.00  0.00    -0.408 C  
HETATM    2  C   UNL     1     -11.489  15.529  66.171  1.00  0.00     0.094 C  
HETATM    3  C   UNL     1     -11.563  15.158  67.697  1.00  0.00    -0.277 C  
HETATM    4  C   UNL     1      -8.847   9.658  63.508  1.00  0.00    -0.255 A  
HETATM    5  C   UNL     1     -10.782  16.307  68.324  1.00  0.00    -0.322 C  
HETATM    6  C   UNL     1      -8.978   8.720  62.461  1.00  0.00     0.092 A  
HETATM    7  C   UNL     1      -8.121   7.609  62.411  1.00  0.00    -0.130 A  
HETATM    8  C   UNL     1      -9.290  16.071  67.852  1.00  0.00    -0.208 C  
HETATM    9  C   UNL     1      -7.152   7.438  63.385  1.00  0.00    -0.070 A  
HETATM   10  C   UNL     1      -6.993   8.367  64.431  1.00  0.00    -0.073 A  
HETATM   11  H   UNL     1      -7.315  10.680  66.159  1.00  0.00     0.000 HD 
HETATM   12  C   UNL     1      -9.034  15.079  66.532  1.00  0.00    -0.310 C  
HETATM   13  C   UNL     1      -7.861   9.478  64.468  1.00  0.00    -0.126 A  
HETATM   14  N   UNL     1      -7.948  10.530  65.372  1.00  0.00    -0.150 NA 
HETATM   15  C   UNL     1      -9.013  11.340  65.052  1.00  0.00    -0.005 A  
HETATM   16  C   UNL     1      -9.573  10.811  63.895  1.00  0.00    -0.339 A  
HETATM   17  C   UNL     1      -8.620  13.531  66.510  1.00  0.00     0.184 C  
HETATM   18  C   UNL     1     -10.823  11.358  63.311  1.00  0.00    -0.292 C  
HETATM   19  C   UNL     1      -9.624  12.450  65.912  1.00  0.00    -0.187 C  
HETATM   20  C   UNL     1     -11.590  12.084  64.425  1.00  0.00    -0.336 C  
HETATM   21  C   UNL     1     -10.365  14.203  64.444  1.00  0.00     0.133 C  
HETATM   22  N   UNL     1     -10.771  13.035  65.198  1.00  0.00    -0.296 NA 
ENDROOT
BRANCH   3  23
HETATM   23  O   UNL     1     -10.962  13.897  68.187  1.00  0.00    -0.238 OA 
BRANCH  23  24
HETATM   24  C   UNL     1     -11.750  13.202  69.074  1.00  0.00    -0.321 C  
HETATM   25  O   UNL     1     -12.687  13.716  69.678  1.00  0.00    -0.078 OA 
BRANCH  24  26
HETATM   26  C   UNL     1     -11.433  11.768  69.386  1.00  0.00    -0.371 A  
HETATM   27  C   UNL     1     -10.446   9.322  70.442  1.00  0.00    -0.245 A  
HETATM   28  C   UNL     1     -12.291  10.864  69.999  1.00  0.00    -0.385 A  
HETATM   29  C   UNL     1     -10.107  11.363  69.171  1.00  0.00    -0.044 A  
HETATM   30  C   UNL     1      -9.597  10.179  69.719  1.00  0.00    -0.177 A  
HETATM   31  C   UNL     1     -11.809   9.661  70.555  1.00  0.00    -0.215 A  
BRANCH  30  32
HETATM   32  O   UNL     1      -8.268   9.831  69.622  1.00  0.00    -0.124 OA 
HETATM   33  C   UNL     1      -7.338  10.902  69.784  1.00  0.00    -0.007 C  
ENDBRANCH  30  32
BRANCH  27  34
HETATM   34  O   UNL     1      -9.863   8.192  70.965  1.00  0.00    -0.175 OA 
HETATM   35  C   UNL     1      -9.828   8.090  72.387  1.00  0.00    -0.247 C  
ENDBRANCH  27  34
BRANCH  31  36
HETATM   36  O   UNL     1     -12.645   8.786  71.205  1.00  0.00    -0.272 OA 
HETATM   37  C   UNL     1     -13.463   9.351  72.225  1.00  0.00    -0.465 C  
ENDBRANCH  31  36
ENDBRANCH  24  26
ENDBRANCH  23  24
ENDBRANCH   3  23
BRANCH   5  38
HETATM   38  O   UNL     1     -11.374  17.533  67.848  1.00  0.00     0.023 OA 
HETATM   39  C   UNL     1     -10.526  18.623  67.543  1.00  0.00    -0.428 C  
ENDBRANCH   5  38
BRANCH   8  40
HETATM   40  C   UNL     1      -8.488  15.803  69.110  1.00  0.00    -0.251 C  
HETATM   41  O   UNL     1      -8.942  15.829  70.243  1.00  0.00     0.432 OA 
BRANCH  40  42
HETATM   42  O   UNL     1      -7.174  15.617  68.810  1.00  0.00    -0.120 OA 
HETATM   43  C   UNL     1      -6.494  14.441  69.271  1.00  0.00    -0.117 C  
ENDBRANCH  40  42
ENDBRANCH   8  40
TORSDOF 9
ENDMDL
MODEL       65
REMARK 921   NORMALIZED FREE ENERGY PREDICTED BY IDOCK:   -4.19 KCAL/MOL
REMARK 922        TOTAL FREE ENERGY PREDICTED BY IDOCK:   -9.03 KCAL/MOL
REMARK 923 INTER-LIGAND FREE ENERGY PREDICTED BY IDOCK:   -7.90 KCAL/MOL
REMARK 924 INTRA-LIGAND FREE ENERGY PREDICTED BY IDOCK:   -1.13 KCAL/MOL
REMARK 927      BINDING AFFINITY PREDICTED BY RF-SCORE:    0.00 PKD
ROOT
HETATM    1  C   UNL     1      -6.517  11.285  67.336  1.00  0.00    -0.080 C  
HETATM    2  C   UNL     1      -6.329  10.371  68.551  1.00  0.00    -0.051 C  
HETATM    3  C   UNL     1      -7.621   9.660  69.097  1.00  0.00    -0.082 C  
HETATM    4  C   UNL     1      -8.455  17.003  68.338  1.00  0.00    -0.239 A  
HETATM    5  C   UNL     1      -7.851   8.594  68.031  1.00  0.00    -0.103 C  
HETATM    6  C   UNL     1      -8.089  18.328  68.657  1.00  0.00    -0.304 A  
HETATM    7  C   UNL     1      -8.986  19.378  68.400  1.00  0.00    -0.403 A  
HETATM    8  C   UNL     1      -8.269   9.412  66.742  1.00  0.00    -0.112 C  
HETATM    9  C   UNL     1     -10.222  19.111  67.835  1.00  0.00    -0.494 A  
HETATM   10  C   UNL     1     -10.602  17.798  67.496  1.00  0.00    -0.365 A  
HETATM   11  H   UNL     1     -10.585  14.921  67.094  1.00  0.00     0.000 HD 
HETATM   12  C   UNL     1      -7.897  11.040  66.692  1.00  0.00    -0.153 C  
HETATM   13  C   UNL     1      -9.692  16.755  67.759  1.00  0.00    -0.248 A  
HETATM   14  N   UNL     1      -9.798  15.384  67.550  1.00  0.00    -0.217 NA 
HETATM   15  C   UNL     1      -8.686  14.744  68.047  1.00  0.00    -0.168 A  
HETATM   16  C   UNL     1      -7.846  15.738  68.532  1.00  0.00    -0.139 A  
HETATM   17  C   UNL     1      -8.841  12.293  67.023  1.00  0.00    -0.205 C  
HETATM   18  C   UNL     1      -6.589  15.416  69.253  1.00  0.00    -0.143 C  
HETATM   19  C   UNL     1      -8.501  13.238  68.257  1.00  0.00    -0.160 C  
HETATM   20  C   UNL     1      -6.719  13.998  69.824  1.00  0.00    -0.038 C  
HETATM   21  C   UNL     1      -6.201  12.704  67.812  1.00  0.00    -0.131 C  
HETATM   22  N   UNL     1      -7.173  12.995  68.844  1.00  0.00    -0.084 NA 
ENDROOT
BRANCH   3  23
HETATM   23  O   UNL     1      -8.884  10.420  69.241  1.00  0.00    -0.166 OA 
BRANCH  23  24
HETATM   24  C   UNL     1      -9.923   9.693  69.773  1.00  0.00    -0.227 C  
HETATM   25  O   UNL     1     -11.101   9.988  69.598  1.00  0.00    -0.242 OA 
BRANCH  24  26
HETATM   26  C   UNL     1      -9.631   8.520  70.665  1.00  0.00    -0.203 A  
HETATM   27  C   UNL     1      -9.541   6.578  72.736  1.00  0.00    -0.149 A  
HETATM   28  C   UNL     1      -9.998   7.205  70.418  1.00  0.00    -0.191 A  
HETATM   29  C   UNL     1      -9.072   8.816  71.918  1.00  0.00    -0.291 A  
HETATM   30  C   UNL     1      -9.057   7.880  72.960  1.00  0.00    -0.238 A  
HETATM   31  C   UNL     1      -9.988   6.238  71.444  1.00  0.00    -0.186 A  
BRANCH  30  32
HETATM   32  O   UNL     1      -8.627   8.194  74.230  1.00  0.00    -0.229 OA 
HETATM   33  C   UNL     1      -7.229   8.450  74.361  1.00  0.00    -0.183 C  
ENDBRANCH  30  32
BRANCH  27  34
HETATM   34  O   UNL     1      -9.512   5.728  73.817  1.00  0.00    -0.137 OA 
HETATM   35  C   UNL     1      -8.349   4.916  73.961  1.00  0.00    -0.104 C  
ENDBRANCH  27  34
BRANCH  31  36
HETATM   36  O   UNL     1     -10.397   4.946  71.217  1.00  0.00    -0.202 OA 
HETATM   37  C   UNL     1      -9.691   4.241  70.200  1.00  0.00    -0.212 C  
ENDBRANCH  31  36
ENDBRANCH  24  26
ENDBRANCH  23  24
ENDBRANCH   3  23
BRANCH   5  38
HETATM   38  O   UNL     1      -6.620   7.855  67.897  1.00  0.00    -0.053 OA 
HETATM   39  C   UNL     1      -6.682   6.447  67.783  1.00  0.00    -0.064 C  
ENDBRANCH   5  38
BRANCH   8  40
HETATM   40  C   UNL     1      -9.692   8.997  66.425  1.00  0.00    -0.268 C  
HETATM   41  O   UNL     1     -10.618   9.772  66.243  1.00  0.00    -0.133 OA 
BRANCH  40  42
HETATM   42  O   UNL     1      -9.815   7.642  66.457  1.00  0.00    -0.216 OA 
HETATM   43  C   UNL     1     -11.019   7.043  66.957  1.00  0.00    -0.287 C  
ENDBRANCH  40  42
ENDBRANCH   8  40
TORSDOF 9
ENDMDL
MODEL       66
REMARK 921   NORMALIZED FREE ENERGY PREDICTED BY IDOCK:   -4.18 KCAL/MOL
REMARK 922        TOTAL FREE ENERGY PREDICTED BY IDOCK:   -9.01 KCAL/MOL
REMARK 923 INTER-LIGAND FREE ENERGY PREDICTED BY IDOCK:   -7.20 KCAL/MOL
REMARK 924 INTRA-LIGAND FREE ENERGY PREDICTED BY IDOCK:   -1.81 KCAL/MOL
REMARK 927      BINDING AFFINITY PREDICTED BY RF-SCORE:    0.00 PKD
ROOT
HETATM    1  C   UNL     1      -6.006   7.151  67.382  1.00  0.00    -0.029 C  
HETATM    2  C   UNL     1      -7.220   6.277  67.710  1.00  0.00    -0.083 C  
HETATM    3  C   UNL     1      -8.462   6.421  66.757  1.00  0.00    -0.112 C  
HETATM    4  C   UNL     1      -6.037  12.941  69.365  1.00  0.00    -0.109 A  
HETATM    5  C   UNL     1      -7.972   5.690  65.512  1.00  0.00    -0.113 C  
HETATM    6  C   UNL     1      -5.758  13.818  70.435  1.00  0.00    -0.153 A  
HETATM    7  C   UNL     1      -5.629  15.195  70.190  1.00  0.00    -0.129 A  
HETATM    8  C   UNL     1      -6.825   6.618  64.938  1.00  0.00    -0.050 C  
HETATM    9  C   UNL     1      -5.775  15.686  68.903  1.00  0.00    -0.103 A  
HETATM   10  C   UNL     1      -6.040  14.829  67.819  1.00  0.00    -0.143 A  
HETATM   11  H   UNL     1      -6.534  12.459  66.212  1.00  0.00     0.000 HD 
HETATM   12  C   UNL     1      -6.142   7.745  65.965  1.00  0.00    -0.038 C  
HETATM   13  C   UNL     1      -6.166  13.449  68.079  1.00  0.00    -0.133 A  
HETATM   14  N   UNL     1      -6.437  12.386  67.225  1.00  0.00    -0.156 NA 
HETATM   15  C   UNL     1      -6.554  11.220  67.946  1.00  0.00    -0.059 A  
HETATM   16  C   UNL     1      -6.303  11.552  69.272  1.00  0.00    -0.091 A  
HETATM   17  C   UNL     1      -6.472   9.307  66.098  1.00  0.00    -0.069 C  
HETATM   18  C   UNL     1      -6.453  10.562  70.367  1.00  0.00    -0.117 C  
HETATM   19  C   UNL     1      -7.091   9.874  67.450  1.00  0.00    -0.085 C  
HETATM   20  C   UNL     1      -7.410   9.463  69.887  1.00  0.00    -0.088 C  
HETATM   21  C   UNL     1      -5.854   8.131  68.547  1.00  0.00    -0.040 C  
HETATM   22  N   UNL     1      -7.074   8.910  68.562  1.00  0.00    -0.072 NA 
ENDROOT
BRANCH   3  23
HETATM   23  O   UNL     1      -8.920   7.763  66.329  1.00  0.00    -0.160 OA 
BRANCH  23  24
HETATM   24  C   UNL     1     -10.119   8.152  66.878  1.00  0.00    -0.297 C  
HETATM   25  O   UNL     1     -11.016   7.360  67.152  1.00  0.00    -0.312 OA 
BRANCH  24  26
HETATM   26  C   UNL     1     -10.396   9.611  67.104  1.00  0.00    -0.319 A  
HETATM   27  C   UNL     1     -11.472  12.239  67.190  1.00  0.00    -0.352 A  
HETATM   28  C   UNL     1     -10.755  10.189  68.313  1.00  0.00    -0.277 A  
HETATM   29  C   UNL     1     -10.437  10.420  65.958  1.00  0.00    -0.211 A  
HETATM   30  C   UNL     1     -11.001  11.702  65.978  1.00  0.00    -0.286 A  
HETATM   31  C   UNL     1     -11.320  11.480  68.368  1.00  0.00    -0.279 A  
BRANCH  30  32
HETATM   32  O   UNL     1     -11.162  12.458  64.838  1.00  0.00    -0.295 OA 
HETATM   33  C   UNL     1     -10.659  11.875  63.636  1.00  0.00    -0.446 C  
ENDBRANCH  30  32
BRANCH  27  34
HETATM   34  O   UNL     1     -12.031  13.493  67.120  1.00  0.00    -0.380 OA 
HETATM   35  C   UNL     1     -11.175  14.593  67.421  1.00  0.00    -0.342 C  
ENDBRANCH  27  34
BRANCH  31  36
HETATM   36  O   UNL     1     -11.722  12.038  69.557  1.00  0.00    -0.301 OA 
HETATM   37  C   UNL     1     -12.195  11.125  70.543  1.00  0.00    -0.384 C  
ENDBRANCH  31  36
ENDBRANCH  24  26
ENDBRANCH  23  24
ENDBRANCH   3  23
BRANCH   5  38
HETATM   38  O   UNL     1      -7.531   4.383  65.932  1.00  0.00    -0.079 OA 
HETATM   39  C   UNL     1      -7.327   3.387  64.951  1.00  0.00    -0.071 C  
ENDBRANCH   5  38
BRANCH   8  40
HETATM   40  C   UNL     1      -7.307   7.091  63.581  1.00  0.00    -0.078 C  
HETATM   41  O   UNL     1      -6.829   6.742  62.513  1.00  0.00    -0.045 OA 
BRANCH  40  42
HETATM   42  O   UNL     1      -8.285   8.027  63.719  1.00  0.00    -0.131 OA 
HETATM   43  C   UNL     1      -8.278   9.198  62.890  1.00  0.00    -0.181 C  
ENDBRANCH  40  42
ENDBRANCH   8  40
TORSDOF 9
ENDMDL
MODEL       67
REMARK 921   NORMALIZED FREE ENERGY PREDICTED BY IDOCK:   -4.17 KCAL/MOL
REMARK 922        TOTAL FREE ENERGY PREDICTED BY IDOCK:   -9.00 KCAL/MOL
REMARK 923 INTER-LIGAND FREE ENERGY PREDICTED BY IDOCK:   -7.58 KCAL/MOL
REMARK 924 INTRA-LIGAND FREE ENERGY PREDICTED BY IDOCK:   -1.42 KCAL/MOL
REMARK 927      BINDING AFFINITY PREDICTED BY RF-SCORE:    0.00 PKD
ROOT
HETATM    1  C   UNL     1      -9.496   4.889  71.174  1.00  0.00    -0.216 C  
HETATM    2  C   UNL     1      -8.409   5.806  71.743  1.00  0.00    -0.120 C  
HETATM    3  C   UNL     1      -8.592   7.346  71.487  1.00  0.00    -0.117 C  
HETATM    4  C   UNL     1      -9.093   3.298  65.279  1.00  0.00    -0.147 A  
HETATM    5  C   UNL     1      -9.718   7.682  72.459  1.00  0.00    -0.184 C  
HETATM    6  C   UNL     1      -8.540   2.402  64.339  1.00  0.00    -0.090 A  
HETATM    7  C   UNL     1      -9.108   2.299  63.058  1.00  0.00    -0.091 A  
HETATM    8  C   UNL     1     -10.986   6.949  71.858  1.00  0.00    -0.266 C  
HETATM    9  C   UNL     1     -10.207   3.072  62.724  1.00  0.00    -0.126 A  
HETATM   10  C   UNL     1     -10.784   3.962  63.650  1.00  0.00    -0.179 A  
HETATM   11  H   UNL     1     -11.347   5.469  66.069  1.00  0.00     0.000 HD 
HETATM   12  C   UNL     1     -10.731   5.716  70.760  1.00  0.00    -0.320 C  
HETATM   13  C   UNL     1     -10.203   4.055  64.931  1.00  0.00    -0.200 A  
HETATM   14  N   UNL     1     -10.541   4.844  66.025  1.00  0.00    -0.307 NA 
HETATM   15  C   UNL     1      -9.630   4.660  67.039  1.00  0.00    -0.180 A  
HETATM   16  C   UNL     1      -8.732   3.700  66.589  1.00  0.00    -0.122 A  
HETATM   17  C   UNL     1     -10.789   5.773  69.160  1.00  0.00    -0.355 C  
HETATM   18  C   UNL     1      -7.531   3.323  67.375  1.00  0.00    -0.062 C  
HETATM   19  C   UNL     1      -9.472   5.503  68.308  1.00  0.00    -0.115 C  
HETATM   20  C   UNL     1      -7.198   4.485  68.321  1.00  0.00    -0.064 C  
HETATM   21  C   UNL     1      -8.821   4.038  70.097  1.00  0.00    -0.083 C  
HETATM   22  N   UNL     1      -8.350   4.975  69.099  1.00  0.00    -0.086 NA 
ENDROOT
BRANCH   3  23
HETATM   23  O   UNL     1      -9.002   7.836  70.151  1.00  0.00    -0.144 OA 
BRANCH  23  24
HETATM   24  C   UNL     1      -7.981   8.384  69.412  1.00  0.00    -0.112 C  
HETATM   25  O   UNL     1      -6.858   7.890  69.356  1.00  0.00    -0.046 OA 
BRANCH  24  26
HETATM   26  C   UNL     1      -8.202   9.677  68.680  1.00  0.00    -0.105 A  
HETATM   27  C   UNL     1      -8.695  12.366  67.909  1.00  0.00    -0.175 A  
HETATM   28  C   UNL     1      -7.224  10.417  68.031  1.00  0.00    -0.084 A  
HETATM   29  C   UNL     1      -9.479  10.248  68.800  1.00  0.00    -0.176 A  
HETATM   30  C   UNL     1      -9.726  11.584  68.460  1.00  0.00    -0.189 A  
HETATM   31  C   UNL     1      -7.444  11.763  67.670  1.00  0.00    -0.123 A  
BRANCH  30  32
HETATM   32  O   UNL     1     -10.940  12.193  68.688  1.00  0.00    -0.222 OA 
HETATM   33  C   UNL     1     -11.973  11.341  69.183  1.00  0.00    -0.336 C  
ENDBRANCH  30  32
BRANCH  27  34
HETATM   34  O   UNL     1      -9.013  13.674  67.624  1.00  0.00    -0.182 OA 
HETATM   35  C   UNL     1      -9.611  13.925  66.354  1.00  0.00    -0.277 C  
ENDBRANCH  27  34
BRANCH  31  36
HETATM   36  O   UNL     1      -6.464  12.515  67.070  1.00  0.00    -0.148 OA 
HETATM   37  C   UNL     1      -5.291  12.739  67.848  1.00  0.00    -0.106 C  
ENDBRANCH  31  36
ENDBRANCH  24  26
ENDBRANCH  23  24
ENDBRANCH   3  23
BRANCH   5  38
HETATM   38  O   UNL     1      -9.312   7.207  73.759  1.00  0.00    -0.190 OA 
HETATM   39  C   UNL     1     -10.212   6.410  74.502  1.00  0.00    -0.288 C  
ENDBRANCH   5  38
BRANCH   8  40
HETATM   40  C   UNL     1     -11.966   8.043  71.485  1.00  0.00    -0.297 C  
HETATM   41  O   UNL     1     -11.827   9.224  71.758  1.00  0.00    -0.353 OA 
BRANCH  40  42
HETATM   42  O   UNL     1     -13.066   7.515  70.881  1.00  0.00    -0.144 OA 
HETATM   43  C   UNL     1     -14.364   7.712  71.459  1.00  0.00    -0.452 C  
ENDBRANCH  40  42
ENDBRANCH   8  40
TORSDOF 9
ENDMDL
MODEL       68
REMARK 921   NORMALIZED FREE ENERGY PREDICTED BY IDOCK:   -4.14 KCAL/MOL
REMARK 922        TOTAL FREE ENERGY PREDICTED BY IDOCK:   -8.95 KCAL/MOL
REMARK 923 INTER-LIGAND FREE ENERGY PREDICTED BY IDOCK:   -6.96 KCAL/MOL
REMARK 924 INTRA-LIGAND FREE ENERGY PREDICTED BY IDOCK:   -1.99 KCAL/MOL
REMARK 927      BINDING AFFINITY PREDICTED BY RF-SCORE:    0.00 PKD
ROOT
HETATM    1  C   UNL     1      -9.886   4.533  71.076  1.00  0.00    -0.266 C  
HETATM    2  C   UNL     1      -8.655   5.101  71.788  1.00  0.00    -0.132 C  
HETATM    3  C   UNL     1      -8.347   6.623  71.542  1.00  0.00    -0.120 C  
HETATM    4  C   UNL     1      -9.258   2.794  65.242  1.00  0.00    -0.130 A  
HETATM    5  C   UNL     1      -9.434   7.289  72.378  1.00  0.00    -0.149 C  
HETATM    6  C   UNL     1      -8.882   1.759  64.358  1.00  0.00    -0.102 A  
HETATM    7  C   UNL     1      -9.297   1.805  63.017  1.00  0.00    -0.090 A  
HETATM    8  C   UNL     1     -10.778   6.950  71.615  1.00  0.00    -0.246 C  
HETATM    9  C   UNL     1     -10.073   2.861  62.568  1.00  0.00    -0.097 A  
HETATM   10  C   UNL     1     -10.471   3.896  63.435  1.00  0.00    -0.193 A  
HETATM   11  H   UNL     1     -10.857   5.542  65.798  1.00  0.00     0.000 HD 
HETATM   12  C   UNL     1     -10.765   5.677  70.532  1.00  0.00    -0.344 C  
HETATM   13  C   UNL     1     -10.048   3.837  64.778  1.00  0.00    -0.170 A  
HETATM   14  N   UNL     1     -10.270   4.709  65.838  1.00  0.00    -0.262 NA 
HETATM   15  C   UNL     1      -9.581   4.283  66.951  1.00  0.00    -0.203 A  
HETATM   16  C   UNL     1      -8.956   3.094  66.593  1.00  0.00    -0.168 A  
HETATM   17  C   UNL     1     -10.611   5.722  68.938  1.00  0.00    -0.337 C  
HETATM   18  C   UNL     1      -8.022   2.396  67.511  1.00  0.00    -0.064 C  
HETATM   19  C   UNL     1      -9.338   5.064  68.245  1.00  0.00    -0.126 C  
HETATM   20  C   UNL     1      -7.480   3.426  68.512  1.00  0.00    -0.050 C  
HETATM   21  C   UNL     1      -9.364   3.504  70.072  1.00  0.00    -0.175 C  
HETATM   22  N   UNL     1      -8.523   4.244  69.156  1.00  0.00    -0.080 NA 
ENDROOT
BRANCH   3  23
HETATM   23  O   UNL     1      -8.432   7.188  70.176  1.00  0.00    -0.135 OA 
BRANCH  23  24
HETATM   24  C   UNL     1      -7.526   8.191  69.922  1.00  0.00    -0.069 C  
HETATM   25  O   UNL     1      -6.612   8.475  70.691  1.00  0.00    -0.036 OA 
BRANCH  24  26
HETATM   26  C   UNL     1      -7.675   9.033  68.687  1.00  0.00    -0.096 A  
HETATM   27  C   UNL     1      -8.383  10.151  66.173  1.00  0.00    -0.131 A  
HETATM   28  C   UNL     1      -8.329  10.255  68.615  1.00  0.00    -0.122 A  
HETATM   29  C   UNL     1      -7.244   8.454  67.484  1.00  0.00    -0.088 A  
HETATM   30  C   UNL     1      -7.618   8.972  66.238  1.00  0.00    -0.092 A  
HETATM   31  C   UNL     1      -8.714  10.807  67.375  1.00  0.00    -0.126 A  
BRANCH  30  32
HETATM   32  O   UNL     1      -7.307   8.345  65.052  1.00  0.00    -0.081 OA 
HETATM   33  C   UNL     1      -7.676   6.968  64.968  1.00  0.00    -0.115 C  
ENDBRANCH  30  32
BRANCH  27  34
HETATM   34  O   UNL     1      -8.727  10.580  64.913  1.00  0.00    -0.176 OA 
HETATM   35  C   UNL     1     -10.049  10.276  64.472  1.00  0.00    -0.216 C  
ENDBRANCH  27  34
BRANCH  31  36
HETATM   36  O   UNL     1      -9.404  11.992  67.300  1.00  0.00    -0.174 OA 
HETATM   37  C   UNL     1      -9.100  12.953  68.307  1.00  0.00    -0.180 C  
ENDBRANCH  31  36
ENDBRANCH  24  26
ENDBRANCH  23  24
ENDBRANCH   3  23
BRANCH   5  38
HETATM   38  O   UNL     1      -9.345   6.739  73.708  1.00  0.00    -0.150 OA 
HETATM   39  C   UNL     1      -8.314   7.192  74.563  1.00  0.00    -0.184 C  
ENDBRANCH   5  38
BRANCH   8  40
HETATM   40  C   UNL     1     -11.344   8.276  71.148  1.00  0.00    -0.263 C  
HETATM   41  O   UNL     1     -11.184   8.746  70.032  1.00  0.00    -0.215 OA 
BRANCH  40  42
HETATM   42  O   UNL     1     -11.979   8.913  72.169  1.00  0.00    -0.357 OA 
HETATM   43  C   UNL     1     -13.334   9.356  72.004  1.00  0.00    -0.450 C  
ENDBRANCH  40  42
ENDBRANCH   8  40
TORSDOF 9
ENDMDL
MODEL       69
REMARK 921   NORMALIZED FREE ENERGY PREDICTED BY IDOCK:   -4.12 KCAL/MOL
REMARK 922        TOTAL FREE ENERGY PREDICTED BY IDOCK:   -8.93 KCAL/MOL
REMARK 923 INTER-LIGAND FREE ENERGY PREDICTED BY IDOCK:   -7.14 KCAL/MOL
REMARK 924 INTRA-LIGAND FREE ENERGY PREDICTED BY IDOCK:   -1.78 KCAL/MOL
REMARK 927      BINDING AFFINITY PREDICTED BY RF-SCORE:    0.00 PKD
ROOT
HETATM    1  C   UNL     1      -9.248   6.654  67.705  1.00  0.00    -0.111 C  
HETATM    2  C   UNL     1      -7.736   6.503  67.899  1.00  0.00    -0.104 C  
HETATM    3  C   UNL     1      -7.120   7.217  69.157  1.00  0.00    -0.080 C  
HETATM    4  C   UNL     1     -11.283  11.752  64.999  1.00  0.00    -0.318 A  
HETATM    5  C   UNL     1      -7.596   6.308  70.284  1.00  0.00    -0.096 C  
HETATM    6  C   UNL     1     -11.560  12.404  63.778  1.00  0.00    -0.553 A  
HETATM    7  C   UNL     1     -12.399  13.531  63.766  1.00  0.00    -0.392 A  
HETATM    8  C   UNL     1      -9.162   6.532  70.333  1.00  0.00    -0.156 C  
HETATM    9  C   UNL     1     -12.951  13.996  64.948  1.00  0.00    -0.066 A  
HETATM   10  C   UNL     1     -12.700  13.354  66.175  1.00  0.00    -0.143 A  
HETATM   11  H   UNL     1     -11.725  11.497  68.186  1.00  0.00     0.000 HD 
HETATM   12  C   UNL     1      -9.901   7.200  68.992  1.00  0.00    -0.156 C  
HETATM   13  C   UNL     1     -11.856  12.224  66.172  1.00  0.00    -0.329 A  
HETATM   14  N   UNL     1     -11.425  11.412  67.215  1.00  0.00    -0.504 NA 
HETATM   15  C   UNL     1     -10.533  10.475  66.745  1.00  0.00    -0.242 A  
HETATM   16  C   UNL     1     -10.443  10.674  65.373  1.00  0.00    -0.254 A  
HETATM   17  C   UNL     1     -10.325   8.724  68.738  1.00  0.00    -0.234 C  
HETATM   18  C   UNL     1      -9.480   9.916  64.535  1.00  0.00    -0.328 C  
HETATM   19  C   UNL     1      -9.629   9.558  67.575  1.00  0.00    -0.144 C  
HETATM   20  C   UNL     1      -8.346   9.422  65.443  1.00  0.00    -0.137 C  
HETATM   21  C   UNL     1      -9.438   7.460  66.419  1.00  0.00    -0.134 C  
HETATM   22  N   UNL     1      -8.810   8.741  66.666  1.00  0.00    -0.127 NA 
ENDROOT
BRANCH   3  23
HETATM   23  O   UNL     1      -7.527   8.599  69.503  1.00  0.00    -0.069 OA 
BRANCH  23  24
HETATM   24  C   UNL     1      -6.485   9.493  69.576  1.00  0.00    -0.044 C  
HETATM   25  O   UNL     1      -5.322   9.149  69.766  1.00  0.00    -0.033 OA 
BRANCH  24  26
HETATM   26  C   UNL     1      -6.762  10.967  69.486  1.00  0.00    -0.117 A  
HETATM   27  C   UNL     1      -6.646  13.784  69.138  1.00  0.00    -0.112 A  
HETATM   28  C   UNL     1      -7.518  11.590  68.503  1.00  0.00    -0.115 A  
HETATM   29  C   UNL     1      -6.068  11.785  70.391  1.00  0.00    -0.057 A  
HETATM   30  C   UNL     1      -5.971  13.171  70.209  1.00  0.00    -0.131 A  
HETATM   31  C   UNL     1      -7.446  12.984  68.299  1.00  0.00    -0.128 A  
BRANCH  30  32
HETATM   32  O   UNL     1      -5.192  13.970  71.017  1.00  0.00    -0.111 OA 
HETATM   33  C   UNL     1      -5.380  13.795  72.421  1.00  0.00    -0.152 C  
ENDBRANCH  30  32
BRANCH  27  34
HETATM   34  O   UNL     1      -6.480  15.144  69.017  1.00  0.00    -0.099 OA 
HETATM   35  C   UNL     1      -5.579  15.591  68.008  1.00  0.00    -0.132 C  
ENDBRANCH  27  34
BRANCH  31  36
HETATM   36  O   UNL     1      -8.155  13.599  67.296  1.00  0.00    -0.176 OA 
HETATM   37  C   UNL     1      -9.297  14.343  67.710  1.00  0.00    -0.200 C  
ENDBRANCH  31  36
ENDBRANCH  24  26
ENDBRANCH  23  24
ENDBRANCH   3  23
BRANCH   5  38
HETATM   38  O   UNL     1      -7.194   4.965  69.945  1.00  0.00    -0.052 OA 
HETATM   39  C   UNL     1      -7.834   3.881  70.589  1.00  0.00    -0.054 C  
ENDBRANCH   5  38
BRANCH   8  40
HETATM   40  C   UNL     1      -9.457   7.146  71.688  1.00  0.00    -0.152 C  
HETATM   41  O   UNL     1      -8.677   7.168  72.626  1.00  0.00    -0.118 OA 
BRANCH  40  42
HETATM   42  O   UNL     1     -10.742   7.591  71.742  1.00  0.00    -0.210 OA 
HETATM   43  C   UNL     1     -11.395   7.738  73.011  1.00  0.00    -0.273 C  
ENDBRANCH  40  42
ENDBRANCH   8  40
TORSDOF 9
ENDMDL
MODEL       70
REMARK 921   NORMALIZED FREE ENERGY PREDICTED BY IDOCK:   -4.11 KCAL/MOL
REMARK 922        TOTAL FREE ENERGY PREDICTED BY IDOCK:   -8.91 KCAL/MOL
REMARK 923 INTER-LIGAND FREE ENERGY PREDICTED BY IDOCK:   -7.41 KCAL/MOL
REMARK 924 INTRA-LIGAND FREE ENERGY PREDICTED BY IDOCK:   -1.50 KCAL/MOL
REMARK 927      BINDING AFFINITY PREDICTED BY RF-SCORE:    0.00 PKD
ROOT
HETATM    1  C   UNL     1     -10.896  15.652  66.091  1.00  0.00    -0.264 C  
HETATM    2  C   UNL     1     -10.430  14.388  65.363  1.00  0.00    -0.391 C  
HETATM    3  C   UNL     1     -10.031  13.167  66.270  1.00  0.00    -0.285 C  
HETATM    4  C   UNL     1      -6.608  19.465  68.218  1.00  0.00    -0.283 A  
HETATM    5  C   UNL     1     -11.398  12.681  66.739  1.00  0.00    -0.320 C  
HETATM    6  C   UNL     1      -5.748  20.546  67.927  1.00  0.00    -0.277 A  
HETATM    7  C   UNL     1      -5.184  21.289  68.978  1.00  0.00    -0.185 A  
HETATM    8  C   UNL     1     -11.916  13.831  67.695  1.00  0.00    -0.392 C  
HETATM    9  C   UNL     1      -5.473  20.959  70.292  1.00  0.00    -0.232 A  
HETATM   10  C   UNL     1      -6.338  19.894  70.605  1.00  0.00    -0.215 A  
HETATM   11  H   UNL     1      -8.172  17.651  70.382  1.00  0.00     0.000 HD 
HETATM   12  C   UNL     1     -11.201  15.336  67.570  1.00  0.00    -0.317 C  
HETATM   13  C   UNL     1      -6.898  19.158  69.540  1.00  0.00    -0.208 A  
HETATM   14  N   UNL     1      -7.757  18.065  69.546  1.00  0.00     0.279 NA 
HETATM   15  C   UNL     1      -7.966  17.622  68.260  1.00  0.00    -0.272 A  
HETATM   16  C   UNL     1      -7.263  18.487  67.430  1.00  0.00    -0.210 A  
HETATM   17  C   UNL     1     -10.041  15.971  68.475  1.00  0.00    -0.233 C  
HETATM   18  C   UNL     1      -7.160  18.255  65.968  1.00  0.00    -0.307 C  
HETATM   19  C   UNL     1      -8.627  16.311  67.828  1.00  0.00    -0.171 C  
HETATM   20  C   UNL     1      -7.402  16.762  65.705  1.00  0.00     0.775 C  
HETATM   21  C   UNL     1      -9.847  16.727  65.800  1.00  0.00    -0.180 C  
HETATM   22  N   UNL     1      -8.609  16.225  66.359  1.00  0.00    -0.299 NA 
ENDROOT
BRANCH   3  23
HETATM   23  O   UNL     1      -9.199  13.377  67.477  1.00  0.00    -0.201 OA 
BRANCH  23  24
HETATM   24  C   UNL     1      -8.021  12.668  67.482  1.00  0.00    -0.174 C  
HETATM   25  O   UNL     1      -6.946  13.159  67.151  1.00  0.00    -0.079 OA 
BRANCH  24  26
HETATM   26  C   UNL     1      -8.031  11.210  67.844  1.00  0.00    -0.114 A  
HETATM   27  C   UNL     1      -7.390   8.518  68.488  1.00  0.00    -0.092 A  
HETATM   28  C   UNL     1      -8.343  10.688  69.091  1.00  0.00    -0.140 A  
HETATM   29  C   UNL     1      -7.536  10.326  66.873  1.00  0.00    -0.101 A  
HETATM   30  C   UNL     1      -7.180   9.008  67.187  1.00  0.00    -0.083 A  
HETATM   31  C   UNL     1      -8.003   9.363  69.435  1.00  0.00    -0.089 A  
BRANCH  30  32
HETATM   32  O   UNL     1      -6.577   8.168  66.276  1.00  0.00    -0.046 OA 
HETATM   33  C   UNL     1      -5.946   8.811  65.169  1.00  0.00    -0.055 C  
ENDBRANCH  30  32
BRANCH  27  34
HETATM   34  O   UNL     1      -6.992   7.222  68.719  1.00  0.00    -0.073 OA 
HETATM   35  C   UNL     1      -5.702   7.043  69.298  1.00  0.00    -0.018 C  
ENDBRANCH  27  34
BRANCH  31  36
HETATM   36  O   UNL     1      -8.266   8.856  70.684  1.00  0.00    -0.127 OA 
HETATM   37  C   UNL     1      -9.567   9.121  71.201  1.00  0.00    -0.277 C  
ENDBRANCH  31  36
ENDBRANCH  24  26
ENDBRANCH  23  24
ENDBRANCH   3  23
BRANCH   5  38
HETATM   38  O   UNL     1     -12.203  12.474  65.561  1.00  0.00    -0.528 OA 
HETATM   39  C   UNL     1     -11.750  11.561  64.580  1.00  0.00     0.025 C  
ENDBRANCH   5  38
BRANCH   8  40
HETATM   40  C   UNL     1     -12.033  13.211  69.074  1.00  0.00    -0.285 C  
HETATM   41  O   UNL     1     -11.699  12.071  69.355  1.00  0.00    -0.297 OA 
BRANCH  40  42
HETATM   42  O   UNL     1     -12.644  14.071  69.935  1.00  0.00    -0.304 OA 
HETATM   43  C   UNL     1     -12.762  13.729  71.323  1.00  0.00    -0.371 C  
ENDBRANCH  40  42
ENDBRANCH   8  40
TORSDOF 9
ENDMDL
MODEL       71
REMARK 921   NORMALIZED FREE ENERGY PREDICTED BY IDOCK:   -4.11 KCAL/MOL
REMARK 922        TOTAL FREE ENERGY PREDICTED BY IDOCK:   -8.90 KCAL/MOL
REMARK 923 INTER-LIGAND FREE ENERGY PREDICTED BY IDOCK:   -7.58 KCAL/MOL
REMARK 924 INTRA-LIGAND FREE ENERGY PREDICTED BY IDOCK:   -1.32 KCAL/MOL
REMARK 927      BINDING AFFINITY PREDICTED BY RF-SCORE:    0.00 PKD
ROOT
HETATM    1  C   UNL     1      -6.827   9.296  67.539  1.00  0.00    -0.077 C  
HETATM    2  C   UNL     1      -6.953  10.724  67.000  1.00  0.00    -0.100 C  
HETATM    3  C   UNL     1      -8.398  11.344  66.997  1.00  0.00    -0.161 C  
HETATM    4  C   UNL     1      -8.094   4.683  63.722  1.00  0.00    -0.101 A  
HETATM    5  C   UNL     1      -8.606  11.630  68.480  1.00  0.00    -0.134 C  
HETATM    6  C   UNL     1      -7.604   3.820  62.719  1.00  0.00    -0.058 A  
HETATM    7  C   UNL     1      -8.299   2.636  62.419  1.00  0.00    -0.073 A  
HETATM    8  C   UNL     1      -8.707  10.198  69.146  1.00  0.00    -0.173 C  
HETATM    9  C   UNL     1      -9.459   2.321  63.108  1.00  0.00    -0.092 A  
HETATM   10  C   UNL     1      -9.959   3.160  64.121  1.00  0.00    -0.166 A  
HETATM   11  H   UNL     1     -10.274   5.346  66.009  1.00  0.00     0.000 HD 
HETATM   12  C   UNL     1      -8.113   8.892  68.289  1.00  0.00    -0.109 C  
HETATM   13  C   UNL     1      -9.250   4.344  64.412  1.00  0.00    -0.149 A  
HETATM   14  N   UNL     1      -9.510   5.353  65.333  1.00  0.00    -0.012 NA 
HETATM   15  C   UNL     1      -8.585   6.363  65.198  1.00  0.00    -0.002 A  
HETATM   16  C   UNL     1      -7.701   5.955  64.207  1.00  0.00    -0.106 A  
HETATM   17  C   UNL     1      -8.915   7.837  67.389  1.00  0.00    -0.128 C  
HETATM   18  C   UNL     1      -6.625   6.846  63.704  1.00  0.00    -0.043 C  
HETATM   19  C   UNL     1      -8.642   7.760  65.823  1.00  0.00    -0.143 C  
HETATM   20  C   UNL     1      -7.033   8.296  63.997  1.00  0.00    -0.075 C  
HETATM   21  C   UNL     1      -6.396   8.427  66.356  1.00  0.00    -0.057 C  
HETATM   22  N   UNL     1      -7.466   8.530  65.386  1.00  0.00    -0.084 NA 
ENDROOT
BRANCH   3  23
HETATM   23  O   UNL     1      -9.553  10.538  66.537  1.00  0.00    -0.166 OA 
BRANCH  23  24
HETATM   24  C   UNL     1     -10.428  11.218  65.724  1.00  0.00    -0.254 C  
HETATM   25  O   UNL     1     -10.876  10.746  64.683  1.00  0.00    -0.216 OA 
BRANCH  24  26
HETATM   26  C   UNL     1     -10.823  12.626  66.068  1.00  0.00    -0.306 A  
HETATM   27  C   UNL     1     -11.234  15.164  67.276  1.00  0.00    -0.324 A  
HETATM   28  C   UNL     1     -10.299  13.776  65.494  1.00  0.00    -0.333 A  
HETATM   29  C   UNL     1     -11.683  12.780  67.166  1.00  0.00    -0.443 A  
HETATM   30  C   UNL     1     -11.864  14.018  67.795  1.00  0.00    -0.384 A  
HETATM   31  C   UNL     1     -10.469  15.039  66.100  1.00  0.00    -0.305 A  
BRANCH  30  32
HETATM   32  O   UNL     1     -12.605  14.162  68.948  1.00  0.00    -0.045 OA 
HETATM   33  C   UNL     1     -12.043  13.569  70.118  1.00  0.00    -0.354 C  
ENDBRANCH  30  32
BRANCH  27  34
HETATM   34  O   UNL     1     -11.445  16.336  67.965  1.00  0.00    -0.272 OA 
HETATM   35  C   UNL     1     -10.473  16.683  68.949  1.00  0.00    -0.322 C  
ENDBRANCH  27  34
BRANCH  31  36
HETATM   36  O   UNL     1      -9.913  16.174  65.562  1.00  0.00    -0.450 OA 
HETATM   37  C   UNL     1      -8.575  16.457  65.960  1.00  0.00    -0.211 C  
ENDBRANCH  31  36
ENDBRANCH  24  26
ENDBRANCH  23  24
ENDBRANCH   3  23
BRANCH   5  38
HETATM   38  O   UNL     1      -7.482  12.418  68.923  1.00  0.00    -0.089 OA 
HETATM   39  C   UNL     1      -7.494  13.812  68.686  1.00  0.00    -0.116 C  
ENDBRANCH   5  38
BRANCH   8  40
HETATM   40  C   UNL     1     -10.108  10.096  69.716  1.00  0.00    -0.231 C  
HETATM   41  O   UNL     1     -11.094  10.634  69.238  1.00  0.00    -0.216 OA 
BRANCH  40  42
HETATM   42  O   UNL     1     -10.100   9.396  70.884  1.00  0.00    -0.277 OA 
HETATM   43  C   UNL     1     -10.779   8.135  70.966  1.00  0.00    -0.217 C  
ENDBRANCH  40  42
ENDBRANCH   8  40
TORSDOF 9
ENDMDL
MODEL       72
REMARK 921   NORMALIZED FREE ENERGY PREDICTED BY IDOCK:   -4.06 KCAL/MOL
REMARK 922        TOTAL FREE ENERGY PREDICTED BY IDOCK:   -8.83 KCAL/MOL
REMARK 923 INTER-LIGAND FREE ENERGY PREDICTED BY IDOCK:   -6.89 KCAL/MOL
REMARK 924 INTRA-LIGAND FREE ENERGY PREDICTED BY IDOCK:   -1.94 KCAL/MOL
REMARK 927      BINDING AFFINITY PREDICTED BY RF-SCORE:    0.00 PKD
ROOT
HETATM    1  C   UNL     1      -5.869  10.830  68.553  1.00  0.00    -0.043 C  
HETATM    2  C   UNL     1      -6.797  10.164  69.574  1.00  0.00    -0.079 C  
HETATM    3  C   UNL     1      -8.266   9.873  69.095  1.00  0.00    -0.128 C  
HETATM    4  C   UNL     1      -6.186  16.911  67.949  1.00  0.00    -0.145 A  
HETATM    5  C   UNL     1      -8.049   8.687  68.162  1.00  0.00    -0.115 C  
HETATM    6  C   UNL     1      -5.746  18.165  68.427  1.00  0.00    -0.173 A  
HETATM    7  C   UNL     1      -5.896  19.307  67.624  1.00  0.00    -0.198 A  
HETATM    8  C   UNL     1      -7.263   9.295  66.931  1.00  0.00    -0.086 C  
HETATM    9  C   UNL     1      -6.472  19.201  66.370  1.00  0.00    -0.206 A  
HETATM   10  C   UNL     1      -6.906  17.960  65.866  1.00  0.00    -0.315 A  
HETATM   11  H   UNL     1      -7.483  15.126  65.593  1.00  0.00     0.000 HD 
HETATM   12  C   UNL     1      -6.488  10.761  67.142  1.00  0.00    -0.074 C  
HETATM   13  C   UNL     1      -6.748  16.822  66.683  1.00  0.00    -0.206 A  
HETATM   14  N   UNL     1      -7.092  15.493  66.461  1.00  0.00     0.236 NA 
HETATM   15  C   UNL     1      -6.826  14.744  67.585  1.00  0.00    -0.182 A  
HETATM   16  C   UNL     1      -6.260  15.613  68.510  1.00  0.00    -0.101 A  
HETATM   17  C   UNL     1      -6.993  12.227  66.737  1.00  0.00     0.180 C  
HETATM   18  C   UNL     1      -5.944  15.182  69.894  1.00  0.00    -0.136 C  
HETATM   19  C   UNL     1      -7.278  13.309  67.870  1.00  0.00    -0.137 C  
HETATM   20  C   UNL     1      -6.825  13.971  70.229  1.00  0.00     0.248 C  
HETATM   21  C   UNL     1      -5.537  12.214  69.113  1.00  0.00    -0.066 C  
HETATM   22  N   UNL     1      -6.803  12.911  69.205  1.00  0.00    -0.086 NA 
ENDROOT
BRANCH   3  23
HETATM   23  O   UNL     1      -9.020  10.899  68.337  1.00  0.00    -0.140 OA 
BRANCH  23  24
HETATM   24  C   UNL     1     -10.217  11.258  68.910  1.00  0.00    -0.180 C  
HETATM   25  O   UNL     1     -10.869  10.501  69.624  1.00  0.00    -0.240 OA 
BRANCH  24  26
HETATM   26  C   UNL     1     -10.807  12.607  68.615  1.00  0.00    -0.281 A  
HETATM   27  C   UNL     1     -11.390  15.378  68.386  1.00  0.00    -0.339 A  
HETATM   28  C   UNL     1     -10.840  13.223  67.372  1.00  0.00    -0.279 A  
HETATM   29  C   UNL     1     -11.221  13.360  69.725  1.00  0.00    -0.044 A  
HETATM   30  C   UNL     1     -11.474  14.734  69.634  1.00  0.00    -0.292 A  
HETATM   31  C   UNL     1     -11.097  14.604  67.246  1.00  0.00    -0.328 A  
BRANCH  30  32
HETATM   32  O   UNL     1     -11.758  15.510  70.736  1.00  0.00    -0.295 OA 
HETATM   33  C   UNL     1     -13.124  15.512  71.151  1.00  0.00    -0.507 C  
ENDBRANCH  30  32
BRANCH  27  34
HETATM   34  O   UNL     1     -11.631  16.732  68.386  1.00  0.00    -0.097 OA 
HETATM   35  C   UNL     1     -10.488  17.585  68.375  1.00  0.00    -0.372 C  
ENDBRANCH  27  34
BRANCH  31  36
HETATM   36  O   UNL     1     -11.084  15.227  66.022  1.00  0.00    -0.332 OA 
HETATM   37  C   UNL     1     -10.477  14.497  64.960  1.00  0.00    -0.429 C  
ENDBRANCH  31  36
ENDBRANCH  24  26
ENDBRANCH  23  24
ENDBRANCH   3  23
BRANCH   5  38
HETATM   38  O   UNL     1      -7.319   7.690  68.905  1.00  0.00    -0.086 OA 
HETATM   39  C   UNL     1      -8.015   6.557  69.387  1.00  0.00    -0.114 C  
ENDBRANCH   5  38
BRANCH   8  40
HETATM   40  C   UNL     1      -8.175   9.139  65.730  1.00  0.00    -0.115 C  
HETATM   41  O   UNL     1      -8.561   8.071  65.284  1.00  0.00    -0.153 OA 
BRANCH  40  42
HETATM   42  O   UNL     1      -8.431  10.350  65.163  1.00  0.00    -0.165 OA 
HETATM   43  C   UNL     1      -9.779  10.713  64.830  1.00  0.00    -0.292 C  
ENDBRANCH  40  42
ENDBRANCH   8  40
TORSDOF 9
ENDMDL
MODEL       73
REMARK 921   NORMALIZED FREE ENERGY PREDICTED BY IDOCK:   -4.05 KCAL/MOL
REMARK 922        TOTAL FREE ENERGY PREDICTED BY IDOCK:   -8.82 KCAL/MOL
REMARK 923 INTER-LIGAND FREE ENERGY PREDICTED BY IDOCK:   -7.17 KCAL/MOL
REMARK 924 INTRA-LIGAND FREE ENERGY PREDICTED BY IDOCK:   -1.65 KCAL/MOL
REMARK 927      BINDING AFFINITY PREDICTED BY RF-SCORE:    0.00 PKD
ROOT
HETATM    1  C   UNL     1      -6.999  17.431  66.264  1.00  0.00    -0.319 C  
HETATM    2  C   UNL     1      -7.907  18.664  66.300  1.00  0.00    -0.288 C  
HETATM    3  C   UNL     1      -8.451  19.088  67.712  1.00  0.00    -0.293 C  
HETATM    4  C   UNL     1      -9.667  11.924  66.169  1.00  0.00    -0.251 A  
HETATM    5  C   UNL     1      -7.204  19.693  68.347  1.00  0.00    -0.320 C  
HETATM    6  C   UNL     1     -10.244  10.911  65.372  1.00  0.00    -0.339 A  
HETATM    7  C   UNL     1     -10.395   9.616  65.895  1.00  0.00    -0.103 A  
HETATM    8  C   UNL     1      -6.238  18.459  68.565  1.00  0.00    -0.203 C  
HETATM    9  C   UNL     1      -9.978   9.338  67.186  1.00  0.00    -0.276 A  
HETATM   10  C   UNL     1      -9.388  10.329  67.994  1.00  0.00    -0.145 A  
HETATM   11  H   UNL     1      -8.291  12.848  68.938  1.00  0.00     0.000 HD 
HETATM   12  C   UNL     1      -6.535  17.067  67.689  1.00  0.00    -0.164 C  
HETATM   13  C   UNL     1      -9.242  11.624  67.456  1.00  0.00    -0.172 A  
HETATM   14  N   UNL     1      -8.720  12.785  68.015  1.00  0.00    -0.187 NA 
HETATM   15  C   UNL     1      -8.866  13.837  67.140  1.00  0.00    -0.231 A  
HETATM   16  C   UNL     1      -9.447  13.313  65.991  1.00  0.00    -0.098 A  
HETATM   17  C   UNL     1      -7.305  15.739  68.150  1.00  0.00    -0.130 C  
HETATM   18  C   UNL     1      -9.864  14.179  64.861  1.00  0.00     0.022 C  
HETATM   19  C   UNL     1      -8.667  15.325  67.439  1.00  0.00    -0.179 C  
HETATM   20  C   UNL     1     -10.080  15.598  65.404  1.00  0.00    -0.335 C  
HETATM   21  C   UNL     1      -7.756  16.363  65.473  1.00  0.00     2.134 C  
HETATM   22  N   UNL     1      -8.965  16.103  66.226  1.00  0.00    -0.317 NA 
ENDROOT
BRANCH   3  23
HETATM   23  O   UNL     1      -8.972  18.065  68.648  1.00  0.00    -0.304 OA 
BRANCH  23  24
HETATM   24  C   UNL     1     -10.340  17.935  68.640  1.00  0.00    -0.337 C  
HETATM   25  O   UNL     1     -11.081  18.714  68.047  1.00  0.00    -0.104 OA 
BRANCH  24  26
HETATM   26  C   UNL     1     -10.988  16.837  69.435  1.00  0.00    -0.176 A  
HETATM   27  C   UNL     1     -11.717  14.397  70.693  1.00  0.00    -0.252 A  
HETATM   28  C   UNL     1     -10.975  16.723  70.818  1.00  0.00     0.371 A  
HETATM   29  C   UNL     1     -11.518  15.767  68.698  1.00  0.00    -0.389 A  
HETATM   30  C   UNL     1     -11.845  14.545  69.300  1.00  0.00    -0.323 A  
HETATM   31  C   UNL     1     -11.304  15.508  71.454  1.00  0.00    -0.395 A  
BRANCH  30  32
HETATM   32  O   UNL     1     -12.247  13.446  68.574  1.00  0.00    -0.295 OA 
HETATM   33  C   UNL     1     -12.491  13.681  67.187  1.00  0.00    -0.029 C  
ENDBRANCH  30  32
BRANCH  27  34
HETATM   34  O   UNL     1     -12.036  13.160  71.202  1.00  0.00    -0.198 OA 
HETATM   35  C   UNL     1     -13.344  13.012  71.751  1.00  0.00    -0.378 C  
ENDBRANCH  27  34
BRANCH  31  36
HETATM   36  O   UNL     1     -11.246  15.375  72.820  1.00  0.00    -0.274 OA 
HETATM   37  C   UNL     1     -12.346  15.919  73.544  1.00  0.00    -0.550 C  
ENDBRANCH  31  36
ENDBRANCH  24  26
ENDBRANCH  23  24
ENDBRANCH   3  23
BRANCH   5  38
HETATM   38  O   UNL     1      -6.704  20.691  67.435  1.00  0.00    -0.261 OA 
HETATM   39  C   UNL     1      -5.415  21.228  67.655  1.00  0.00    -0.319 C  
ENDBRANCH   5  38
BRANCH   8  40
HETATM   40  C   UNL     1      -6.050  18.330  70.063  1.00  0.00    -0.114 C  
HETATM   41  O   UNL     1      -5.752  17.296  70.641  1.00  0.00    -0.162 OA 
BRANCH  40  42
HETATM   42  O   UNL     1      -6.346  19.503  70.686  1.00  0.00    -0.118 OA 
HETATM   43  C   UNL     1      -5.356  20.154  71.495  1.00  0.00    -0.369 C  
ENDBRANCH  40  42
ENDBRANCH   8  40
TORSDOF 9
ENDMDL
MODEL       74
REMARK 921   NORMALIZED FREE ENERGY PREDICTED BY IDOCK:   -4.02 KCAL/MOL
REMARK 922        TOTAL FREE ENERGY PREDICTED BY IDOCK:   -8.77 KCAL/MOL
REMARK 923 INTER-LIGAND FREE ENERGY PREDICTED BY IDOCK:   -7.44 KCAL/MOL
REMARK 924 INTRA-LIGAND FREE ENERGY PREDICTED BY IDOCK:   -1.33 KCAL/MOL
REMARK 927      BINDING AFFINITY PREDICTED BY RF-SCORE:    0.00 PKD
ROOT
HETATM    1  C   UNL     1      -8.111   7.886  66.804  1.00  0.00    -0.108 C  
HETATM    2  C   UNL     1      -9.159   8.760  66.111  1.00  0.00    -0.251 C  
HETATM    3  C   UNL     1      -9.358  10.207  66.694  1.00  0.00    -0.162 C  
HETATM    4  C   UNL     1      -9.786   4.904  71.879  1.00  0.00    -0.241 A  
HETATM    5  C   UNL     1      -8.098  10.908  66.199  1.00  0.00    -0.160 C  
HETATM    6  C   UNL     1     -10.389   3.746  72.417  1.00  0.00    -0.185 A  
HETATM    7  C   UNL     1     -10.182   3.417  73.767  1.00  0.00    -0.211 A  
HETATM    8  C   UNL     1      -6.925  10.227  67.013  1.00  0.00    -0.089 C  
HETATM    9  C   UNL     1      -9.389   4.227  74.563  1.00  0.00    -0.124 A  
HETATM   10  C   UNL     1      -8.768   5.379  74.045  1.00  0.00    -0.117 A  
HETATM   11  H   UNL     1      -7.872   7.477  72.245  1.00  0.00     0.000 HD 
HETATM   12  C   UNL     1      -7.223   8.746  67.727  1.00  0.00    -0.084 C  
HETATM   13  C   UNL     1      -8.984   5.696  72.688  1.00  0.00    -0.132 A  
HETATM   14  N   UNL     1      -8.521   6.759  71.920  1.00  0.00    -0.116 NA 
HETATM   15  C   UNL     1      -9.067   6.703  70.659  1.00  0.00    -0.155 A  
HETATM   16  C   UNL     1      -9.848   5.554  70.621  1.00  0.00    -0.252 A  
HETATM   17  C   UNL     1      -7.615   8.429  69.248  1.00  0.00    -0.089 C  
HETATM   18  C   UNL     1     -10.691   5.220  69.446  1.00  0.00    -0.106 C  
HETATM   19  C   UNL     1      -9.035   7.794  69.585  1.00  0.00    -0.143 C  
HETATM   20  C   UNL     1     -10.975   6.519  68.680  1.00  0.00    -0.293 C  
HETATM   21  C   UNL     1      -8.874   6.723  67.441  1.00  0.00    -0.117 C  
HETATM   22  N   UNL     1      -9.773   7.326  68.401  1.00  0.00    -0.146 NA 
ENDROOT
BRANCH   3  23
HETATM   23  O   UNL     1      -9.432  10.415  68.159  1.00  0.00    -0.141 OA 
BRANCH  23  24
HETATM   24  C   UNL     1     -10.346  11.364  68.550  1.00  0.00    -0.205 C  
HETATM   25  O   UNL     1     -10.997  11.277  69.587  1.00  0.00    -0.227 OA 
BRANCH  24  26
HETATM   26  C   UNL     1     -10.627  12.539  67.657  1.00  0.00    -0.234 A  
HETATM   27  C   UNL     1     -10.526  14.677  65.789  1.00  0.00    -0.325 A  
HETATM   28  C   UNL     1     -11.413  12.516  66.513  1.00  0.00    -0.418 A  
HETATM   29  C   UNL     1      -9.909  13.713  67.931  1.00  0.00    -0.237 A  
HETATM   30  C   UNL     1      -9.819  14.758  67.002  1.00  0.00    -0.239 A  
HETATM   31  C   UNL     1     -11.349  13.556  65.562  1.00  0.00    -0.296 A  
BRANCH  30  32
HETATM   32  O   UNL     1      -9.017  15.860  67.204  1.00  0.00    -0.195 OA 
HETATM   33  C   UNL     1      -9.071  16.429  68.512  1.00  0.00    -0.223 C  
ENDBRANCH  30  32
BRANCH  27  34
HETATM   34  O   UNL     1     -10.366  15.733  64.923  1.00  0.00    -0.487 OA 
HETATM   35  C   UNL     1     -11.145  16.899  65.185  1.00  0.00     0.022 C  
ENDBRANCH  27  34
BRANCH  31  36
HETATM   36  O   UNL     1     -12.088  13.516  64.405  1.00  0.00    -0.396 OA 
HETATM   37  C   UNL     1     -12.718  12.272  64.112  1.00  0.00    -0.330 C  
ENDBRANCH  31  36
ENDBRANCH  24  26
ENDBRANCH  23  24
ENDBRANCH   3  23
BRANCH   5  38
HETATM   38  O   UNL     1      -8.033  10.706  64.772  1.00  0.00    -0.091 OA 
HETATM   39  C   UNL     1      -6.764  10.584  64.161  1.00  0.00     0.104 C  
ENDBRANCH   5  38
BRANCH   8  40
HETATM   40  C   UNL     1      -6.317  11.320  67.869  1.00  0.00    -0.054 C  
HETATM   41  O   UNL     1      -6.638  12.497  67.826  1.00  0.00    -0.091 OA 
BRANCH  40  42
HETATM   42  O   UNL     1      -5.302  10.824  68.630  1.00  0.00    -0.041 OA 
HETATM   43  C   UNL     1      -5.159  11.244  69.994  1.00  0.00    -0.055 C  
ENDBRANCH  40  42
ENDBRANCH   8  40
TORSDOF 9
ENDMDL
MODEL       75
REMARK 921   NORMALIZED FREE ENERGY PREDICTED BY IDOCK:   -4.01 KCAL/MOL
REMARK 922        TOTAL FREE ENERGY PREDICTED BY IDOCK:   -8.76 KCAL/MOL
REMARK 923 INTER-LIGAND FREE ENERGY PREDICTED BY IDOCK:   -7.17 KCAL/MOL
REMARK 924 INTRA-LIGAND FREE ENERGY PREDICTED BY IDOCK:   -1.58 KCAL/MOL
REMARK 927      BINDING AFFINITY PREDICTED BY RF-SCORE:    0.00 PKD
ROOT
HETATM    1  C   UNL     1     -10.142  14.895  65.952  1.00  0.00    -0.348 C  
HETATM    2  C   UNL     1     -11.352  14.898  66.890  1.00  0.00    -0.338 C  
HETATM    3  C   UNL     1     -11.068  14.553  68.397  1.00  0.00    -0.256 C  
HETATM    4  C   UNL     1      -8.292   9.516  63.696  1.00  0.00    -0.176 A  
HETATM    5  C   UNL     1     -10.393  15.832  68.878  1.00  0.00    -0.224 C  
HETATM    6  C   UNL     1      -8.456   8.548  62.682  1.00  0.00    -0.132 A  
HETATM    7  C   UNL     1      -7.445   7.600  62.454  1.00  0.00    -0.098 A  
HETATM    8  C   UNL     1      -9.000  15.847  68.125  1.00  0.00    -0.181 C  
HETATM    9  C   UNL     1      -6.292   7.619  63.222  1.00  0.00    -0.059 A  
HETATM   10  C   UNL     1      -6.101   8.583  64.230  1.00  0.00    -0.066 A  
HETATM   11  H   UNL     1      -6.482  10.842  66.016  1.00  0.00     0.000 HD 
HETATM   12  C   UNL     1      -8.833  14.886  66.768  1.00  0.00    -0.291 C  
HETATM   13  C   UNL     1      -7.124   9.529  64.446  1.00  0.00    -0.108 A  
HETATM   14  N   UNL     1      -7.218  10.569  65.364  1.00  0.00    -0.116 NA 
HETATM   15  C   UNL     1      -8.448  11.176  65.265  1.00  0.00     0.085 A  
HETATM   16  C   UNL     1      -9.119  10.535  64.230  1.00  0.00    -0.256 A  
HETATM   17  C   UNL     1      -8.169  13.432  66.647  1.00  0.00     0.329 C  
HETATM   18  C   UNL     1     -10.533  10.846  63.904  1.00  0.00    -0.359 C  
HETATM   19  C   UNL     1      -9.067  12.183  66.239  1.00  0.00    -0.141 C  
HETATM   20  C   UNL     1     -11.187  11.452  65.153  1.00  0.00    -0.076 C  
HETATM   21  C   UNL     1     -10.366  13.750  64.964  1.00  0.00    -0.382 C  
HETATM   22  N   UNL     1     -10.412  12.546  65.766  1.00  0.00    -0.265 NA 
ENDROOT
BRANCH   3  23
HETATM   23  O   UNL     1     -10.175  13.424  68.747  1.00  0.00    -0.211 OA 
BRANCH  23  24
HETATM   24  C   UNL     1     -10.830  12.243  69.003  1.00  0.00    -0.150 C  
HETATM   25  O   UNL     1     -11.994  12.197  69.393  1.00  0.00    -0.303 OA 
BRANCH  24  26
HETATM   26  C   UNL     1     -10.096  10.940  68.869  1.00  0.00    -0.211 A  
HETATM   27  C   UNL     1      -8.675   8.648  67.976  1.00  0.00    -0.141 A  
HETATM   28  C   UNL     1      -8.806  10.688  69.317  1.00  0.00    -0.092 A  
HETATM   29  C   UNL     1     -10.720   9.952  68.092  1.00  0.00    -0.279 A  
HETATM   30  C   UNL     1     -10.021   8.837  67.613  1.00  0.00    -0.193 A  
HETATM   31  C   UNL     1      -8.078   9.571  68.857  1.00  0.00    -0.096 A  
BRANCH  30  32
HETATM   32  O   UNL     1     -10.586   7.925  66.749  1.00  0.00    -0.326 OA 
HETATM   33  C   UNL     1     -11.215   6.801  67.364  1.00  0.00    -0.188 C  
ENDBRANCH  30  32
BRANCH  27  34
HETATM   34  O   UNL     1      -8.055   7.541  67.445  1.00  0.00    -0.113 OA 
HETATM   35  C   UNL     1      -7.901   6.417  68.309  1.00  0.00    -0.105 C  
ENDBRANCH  27  34
BRANCH  31  36
HETATM   36  O   UNL     1      -6.785   9.342  69.259  1.00  0.00    -0.048 OA 
HETATM   37  C   UNL     1      -5.794  10.180  68.670  1.00  0.00    -0.041 C  
ENDBRANCH  31  36
ENDBRANCH  24  26
ENDBRANCH  23  24
ENDBRANCH   3  23
BRANCH   5  38
HETATM   38  O   UNL     1     -11.267  16.928  68.539  1.00  0.00    -0.289 OA 
HETATM   39  C   UNL     1     -10.696  18.140  68.090  1.00  0.00    -0.221 C  
ENDBRANCH   5  38
BRANCH   8  40
HETATM   40  C   UNL     1      -7.939  15.748  69.203  1.00  0.00    -0.231 C  
HETATM   41  O   UNL     1      -7.781  14.786  69.937  1.00  0.00    -0.044 OA 
BRANCH  40  42
HETATM   42  O   UNL     1      -7.243  16.914  69.298  1.00  0.00    -0.239 OA 
HETATM   43  C   UNL     1      -6.792  17.578  68.109  1.00  0.00    -0.197 C  
ENDBRANCH  40  42
ENDBRANCH   8  40
TORSDOF 9
ENDMDL
MODEL       76
REMARK 921   NORMALIZED FREE ENERGY PREDICTED BY IDOCK:   -3.96 KCAL/MOL
REMARK 922        TOTAL FREE ENERGY PREDICTED BY IDOCK:   -8.68 KCAL/MOL
REMARK 923 INTER-LIGAND FREE ENERGY PREDICTED BY IDOCK:   -6.27 KCAL/MOL
REMARK 924 INTRA-LIGAND FREE ENERGY PREDICTED BY IDOCK:   -2.42 KCAL/MOL
REMARK 927      BINDING AFFINITY PREDICTED BY RF-SCORE:    0.00 PKD
ROOT
HETATM    1  C   UNL     1      -7.715  12.269  68.377  1.00  0.00    -0.141 C  
HETATM    2  C   UNL     1      -7.709  12.245  66.846  1.00  0.00    -0.017 C  
HETATM    3  C   UNL     1      -9.015  11.713  66.151  1.00  0.00    -0.178 C  
HETATM    4  C   UNL     1      -6.384   7.070  71.318  1.00  0.00    -0.041 A  
HETATM    5  C   UNL     1      -9.969  12.883  66.367  1.00  0.00    -0.267 C  
HETATM    6  C   UNL     1      -5.366   6.235  71.828  1.00  0.00    -0.026 A  
HETATM    7  C   UNL     1      -5.683   5.255  72.782  1.00  0.00    -0.022 A  
HETATM    8  C   UNL     1     -10.233  12.891  67.927  1.00  0.00    -0.233 C  
HETATM    9  C   UNL     1      -6.989   5.111  73.220  1.00  0.00    -0.076 A  
HETATM   10  C   UNL     1      -8.018   5.940  72.736  1.00  0.00    -0.104 A  
HETATM   11  H   UNL     1      -9.474   8.003  71.298  1.00  0.00     0.000 HD 
HETATM   12  C   UNL     1      -9.150  12.081  68.909  1.00  0.00     0.193 C  
HETATM   13  C   UNL     1      -7.685   6.921  71.779  1.00  0.00    -0.095 A  
HETATM   14  N   UNL     1      -8.480   7.854  71.123  1.00  0.00    -0.116 NA 
HETATM   15  C   UNL     1      -7.730   8.548  70.202  1.00  0.00    -0.086 A  
HETATM   16  C   UNL     1      -6.428   8.073  70.319  1.00  0.00    -0.037 A  
HETATM   17  C   UNL     1      -9.273  10.610  69.533  1.00  0.00     0.008 C  
HETATM   18  C   UNL     1      -5.351   8.512  69.398  1.00  0.00    -0.031 C  
HETATM   19  C   UNL     1      -8.244   9.476  69.098  1.00  0.00    -0.111 C  
HETATM   20  C   UNL     1      -6.006   9.014  68.104  1.00  0.00    -0.046 C  
HETATM   21  C   UNL     1      -6.657  11.260  68.827  1.00  0.00    -0.062 C  
HETATM   22  N   UNL     1      -7.100   9.979  68.320  1.00  0.00    -0.072 NA 
ENDROOT
BRANCH   3  23
HETATM   23  O   UNL     1      -9.687  10.496  66.661  1.00  0.00    -0.178 OA 
BRANCH  23  24
HETATM   24  C   UNL     1      -9.719   9.452  65.768  1.00  0.00    -0.284 C  
HETATM   25  O   UNL     1      -9.759   9.615  64.552  1.00  0.00    -0.163 OA 
BRANCH  24  26
HETATM   26  C   UNL     1      -9.772   8.039  66.276  1.00  0.00    -0.197 A  
HETATM   27  C   UNL     1      -9.318   5.544  67.556  1.00  0.00    -0.111 A  
HETATM   28  C   UNL     1     -10.676   7.547  67.207  1.00  0.00    -0.365 A  
HETATM   29  C   UNL     1      -8.720   7.198  65.881  1.00  0.00    -0.146 A  
HETATM   30  C   UNL     1      -8.462   5.984  66.530  1.00  0.00    -0.115 A  
HETATM   31  C   UNL     1     -10.447   6.325  67.873  1.00  0.00    -0.230 A  
BRANCH  30  32
HETATM   32  O   UNL     1      -7.362   5.208  66.238  1.00  0.00    -0.079 OA 
HETATM   33  C   UNL     1      -7.219   4.834  64.867  1.00  0.00    -0.063 C  
ENDBRANCH  30  32
BRANCH  27  34
HETATM   34  O   UNL     1      -8.981   4.354  68.157  1.00  0.00    -0.108 OA 
HETATM   35  C   UNL     1      -8.219   4.436  69.359  1.00  0.00    -0.063 C  
ENDBRANCH  27  34
BRANCH  31  36
HETATM   36  O   UNL     1     -11.314   5.856  68.830  1.00  0.00    -0.213 OA 
HETATM   37  C   UNL     1     -11.472   6.680  69.981  1.00  0.00    -0.375 C  
ENDBRANCH  31  36
ENDBRANCH  24  26
ENDBRANCH  23  24
ENDBRANCH   3  23
BRANCH   5  38
HETATM   38  O   UNL     1      -9.312  14.065  65.865  1.00  0.00    -0.137 OA 
HETATM   39  C   UNL     1     -10.047  15.271  65.790  1.00  0.00    -0.356 C  
ENDBRANCH   5  38
BRANCH   8  40
HETATM   40  C   UNL     1     -11.710  12.601  68.106  1.00  0.00    -0.347 C  
HETATM   41  O   UNL     1     -12.269  11.584  67.728  1.00  0.00    -0.560 OA 
BRANCH  40  42
HETATM   42  O   UNL     1     -12.344  13.668  68.665  1.00  0.00    -0.258 OA 
HETATM   43  C   UNL     1     -12.282  13.875  70.083  1.00  0.00    -0.358 C  
ENDBRANCH  40  42
ENDBRANCH   8  40
TORSDOF 9
ENDMDL
MODEL       77
REMARK 921   NORMALIZED FREE ENERGY PREDICTED BY IDOCK:   -3.95 KCAL/MOL
REMARK 922        TOTAL FREE ENERGY PREDICTED BY IDOCK:   -8.67 KCAL/MOL
REMARK 923 INTER-LIGAND FREE ENERGY PREDICTED BY IDOCK:   -6.64 KCAL/MOL
REMARK 924 INTRA-LIGAND FREE ENERGY PREDICTED BY IDOCK:   -2.02 KCAL/MOL
REMARK 927      BINDING AFFINITY PREDICTED BY RF-SCORE:    0.00 PKD
ROOT
HETATM    1  C   UNL     1      -9.165   6.427  72.176  1.00  0.00    -0.140 C  
HETATM    2  C   UNL     1      -9.902   5.120  71.871  1.00  0.00    -0.230 C  
HETATM    3  C   UNL     1      -9.730   4.546  70.417  1.00  0.00    -0.217 C  
HETATM    4  C   UNL     1     -11.836  11.669  70.491  1.00  0.00    -0.328 A  
HETATM    5  C   UNL     1      -8.305   4.008  70.471  1.00  0.00    -0.065 C  
HETATM    6  C   UNL     1     -12.755  12.684  70.835  1.00  0.00    -0.274 A  
HETATM    7  C   UNL     1     -12.712  13.918  70.166  1.00  0.00    -0.182 A  
HETATM    8  C   UNL     1      -7.401   5.303  70.577  1.00  0.00    -0.070 C  
HETATM    9  C   UNL     1     -11.771  14.135  69.174  1.00  0.00    -0.368 A  
HETATM   10  C   UNL     1     -10.836  13.143  68.823  1.00  0.00    -0.278 A  
HETATM   11  H   UNL     1      -9.317  10.668  68.738  1.00  0.00     0.000 HD 
HETATM   12  C   UNL     1      -8.124   6.724  71.077  1.00  0.00    -0.115 C  
HETATM   13  C   UNL     1     -10.890  11.910  69.504  1.00  0.00     0.050 A  
HETATM   14  N   UNL     1     -10.119  10.761  69.362  1.00  0.00    -0.185 NA 
HETATM   15  C   UNL     1     -10.597   9.768  70.186  1.00  0.00    -0.285 A  
HETATM   16  C   UNL     1     -11.657  10.323  70.894  1.00  0.00    -0.454 A  
HETATM   17  C   UNL     1      -8.663   7.941  70.183  1.00  0.00    -0.136 C  
HETATM   18  C   UNL     1     -12.499   9.509  71.805  1.00  0.00    -0.484 C  
HETATM   19  C   UNL     1     -10.217   8.285  70.166  1.00  0.00    -0.199 C  
HETATM   20  C   UNL     1     -12.382   8.040  71.375  1.00  0.00    -0.306 C  
HETATM   21  C   UNL     1     -10.245   7.480  72.430  1.00  0.00    -0.212 C  
HETATM   22  N   UNL     1     -10.994   7.576  71.195  1.00  0.00    -0.243 NA 
ENDROOT
BRANCH   3  23
HETATM   23  O   UNL     1      -9.818   5.447  69.245  1.00  0.00    -0.152 OA 
BRANCH  23  24
HETATM   24  C   UNL     1      -9.712   4.810  68.032  1.00  0.00    -0.147 C  
HETATM   25  O   UNL     1      -9.848   3.596  67.902  1.00  0.00    -0.100 OA 
BRANCH  24  26
HETATM   26  C   UNL     1      -9.354   5.598  66.805  1.00  0.00    -0.139 A  
HETATM   27  C   UNL     1      -8.130   7.235  64.832  1.00  0.00    -0.108 A  
HETATM   28  C   UNL     1      -8.965   5.064  65.585  1.00  0.00    -0.149 A  
HETATM   29  C   UNL     1      -9.264   6.990  66.965  1.00  0.00    -0.167 A  
HETATM   30  C   UNL     1      -8.629   7.803  66.018  1.00  0.00    -0.151 A  
HETATM   31  C   UNL     1      -8.328   5.858  64.608  1.00  0.00    -0.086 A  
BRANCH  30  32
HETATM   32  O   UNL     1      -8.423   9.150  66.219  1.00  0.00    -0.119 OA 
HETATM   33  C   UNL     1      -7.373   9.484  67.127  1.00  0.00    -0.088 C  
ENDBRANCH  30  32
BRANCH  27  34
HETATM   34  O   UNL     1      -7.501   8.098  63.966  1.00  0.00    -0.100 OA 
HETATM   35  C   UNL     1      -6.079   8.010  63.894  1.00  0.00    -0.062 C  
ENDBRANCH  27  34
BRANCH  31  36
HETATM   36  O   UNL     1      -7.897   5.325  63.418  1.00  0.00    -0.074 OA 
HETATM   37  C   UNL     1      -6.926   4.286  63.519  1.00  0.00    -0.045 C  
ENDBRANCH  31  36
ENDBRANCH  24  26
ENDBRANCH  23  24
ENDBRANCH   3  23
BRANCH   5  38
HETATM   38  O   UNL     1      -8.226   3.128  71.611  1.00  0.00    -0.060 OA 
HETATM   39  C   UNL     1      -8.236   1.731  71.392  1.00  0.00    -0.047 C  
ENDBRANCH   5  38
BRANCH   8  40
HETATM   40  C   UNL     1      -6.563   5.337  69.315  1.00  0.00    -0.047 C  
HETATM   41  O   UNL     1      -6.204   6.355  68.745  1.00  0.00    -0.027 OA 
BRANCH  40  42
HETATM   42  O   UNL     1      -6.341   4.076  68.853  1.00  0.00    -0.031 OA 
HETATM   43  C   UNL     1      -6.053   3.862  67.464  1.00  0.00    -0.028 C  
ENDBRANCH  40  42
ENDBRANCH   8  40
TORSDOF 9
ENDMDL
MODEL       78
REMARK 921   NORMALIZED FREE ENERGY PREDICTED BY IDOCK:   -3.94 KCAL/MOL
REMARK 922        TOTAL FREE ENERGY PREDICTED BY IDOCK:   -8.64 KCAL/MOL
REMARK 923 INTER-LIGAND FREE ENERGY PREDICTED BY IDOCK:   -7.29 KCAL/MOL
REMARK 924 INTRA-LIGAND FREE ENERGY PREDICTED BY IDOCK:   -1.36 KCAL/MOL
REMARK 927      BINDING AFFINITY PREDICTED BY RF-SCORE:    0.00 PKD
ROOT
HETATM    1  C   UNL     1      -6.914   9.445  67.165  1.00  0.00    -0.085 C  
HETATM    2  C   UNL     1      -6.798   9.124  68.658  1.00  0.00    -0.062 C  
HETATM    3  C   UNL     1      -7.999   8.334  69.297  1.00  0.00    -0.114 C  
HETATM    4  C   UNL     1     -10.166  14.372  65.551  1.00  0.00    -0.386 A  
HETATM    5  C   UNL     1      -7.773   6.935  68.735  1.00  0.00    -0.110 C  
HETATM    6  C   UNL     1     -10.159  15.769  65.346  1.00  0.00    -0.337 A  
HETATM    7  C   UNL     1     -11.181  16.365  64.589  1.00  0.00    -0.201 A  
HETATM    8  C   UNL     1      -8.074   7.082  67.188  1.00  0.00    -0.118 C  
HETATM    9  C   UNL     1     -12.187  15.584  64.047  1.00  0.00     0.090 A  
HETATM   10  C   UNL     1     -12.207  14.188  64.227  1.00  0.00    -0.449 A  
HETATM   11  H   UNL     1     -11.507  11.483  65.026  1.00  0.00     0.000 HD 
HETATM   12  C   UNL     1      -8.047   8.616  66.526  1.00  0.00    -0.103 C  
HETATM   13  C   UNL     1     -11.175  13.602  64.988  1.00  0.00    -0.321 A  
HETATM   14  N   UNL     1     -10.947  12.277  65.340  1.00  0.00    -0.291 NA 
HETATM   15  C   UNL     1      -9.856  12.190  66.173  1.00  0.00    -0.237 A  
HETATM   16  C   UNL     1      -9.361  13.483  66.306  1.00  0.00    -0.143 A  
HETATM   17  C   UNL     1      -9.278   9.593  66.215  1.00  0.00    -0.213 C  
HETATM   18  C   UNL     1      -8.244  13.801  67.230  1.00  0.00    -0.173 C  
HETATM   19  C   UNL     1      -9.409  10.976  66.992  1.00  0.00    -0.172 C  
HETATM   20  C   UNL     1      -8.192  12.709  68.307  1.00  0.00    -0.164 C  
HETATM   21  C   UNL     1      -7.007  10.968  67.060  1.00  0.00    -0.117 C  
HETATM   22  N   UNL     1      -8.213  11.336  67.771  1.00  0.00    -0.117 NA 
ENDROOT
BRANCH   3  23
HETATM   23  O   UNL     1      -9.394   8.717  68.982  1.00  0.00    -0.144 OA 
BRANCH  23  24
HETATM   24  C   UNL     1     -10.099   9.218  70.051  1.00  0.00    -0.212 C  
HETATM   25  O   UNL     1     -10.464  10.388  70.120  1.00  0.00    -0.252 OA 
BRANCH  24  26
HETATM   26  C   UNL     1     -10.394   8.332  71.227  1.00  0.00    -0.256 A  
HETATM   27  C   UNL     1     -11.060   6.201  72.984  1.00  0.00    -0.218 A  
HETATM   28  C   UNL     1      -9.456   7.830  72.118  1.00  0.00    -0.216 A  
HETATM   29  C   UNL     1     -11.711   7.860  71.334  1.00  0.00    -0.311 A  
HETATM   30  C   UNL     1     -12.046   6.785  72.167  1.00  0.00    -0.252 A  
HETATM   31  C   UNL     1      -9.763   6.752  72.974  1.00  0.00    -0.162 A  
BRANCH  30  32
HETATM   32  O   UNL     1     -13.306   6.230  72.189  1.00  0.00     0.016 OA 
HETATM   33  C   UNL     1     -14.377   7.122  71.880  1.00  0.00    -0.313 C  
ENDBRANCH  30  32
BRANCH  27  34
HETATM   34  O   UNL     1     -11.466   5.137  73.755  1.00  0.00    -0.110 OA 
HETATM   35  C   UNL     1     -11.028   3.844  73.341  1.00  0.00    -0.233 C  
ENDBRANCH  27  34
BRANCH  31  36
HETATM   36  O   UNL     1      -8.825   6.219  73.824  1.00  0.00    -0.123 OA 
HETATM   37  C   UNL     1      -7.714   5.580  73.200  1.00  0.00    -0.100 C  
ENDBRANCH  31  36
ENDBRANCH  24  26
ENDBRANCH  23  24
ENDBRANCH   3  23
BRANCH   5  38
HETATM   38  O   UNL     1      -6.415   6.565  69.048  1.00  0.00    -0.039 OA 
HETATM   39  C   UNL     1      -6.105   5.195  69.212  1.00  0.00    -0.025 C  
ENDBRANCH   5  38
BRANCH   8  40
HETATM   40  C   UNL     1      -9.280   6.208  66.909  1.00  0.00    -0.128 C  
HETATM   41  O   UNL     1     -10.257   6.118  67.635  1.00  0.00    -0.140 OA 
BRANCH  40  42
HETATM   42  O   UNL     1      -9.087   5.469  65.782  1.00  0.00    -0.158 OA 
HETATM   43  C   UNL     1      -7.767   5.323  65.239  1.00  0.00    -0.084 C  
ENDBRANCH  40  42
ENDBRANCH   8  40
TORSDOF 9
ENDMDL
MODEL       79
REMARK 921   NORMALIZED FREE ENERGY PREDICTED BY IDOCK:   -3.92 KCAL/MOL
REMARK 922        TOTAL FREE ENERGY PREDICTED BY IDOCK:   -8.62 KCAL/MOL
REMARK 923 INTER-LIGAND FREE ENERGY PREDICTED BY IDOCK:   -7.89 KCAL/MOL
REMARK 924 INTRA-LIGAND FREE ENERGY PREDICTED BY IDOCK:   -0.73 KCAL/MOL
REMARK 927      BINDING AFFINITY PREDICTED BY RF-SCORE:    0.00 PKD
ROOT
HETATM    1  C   UNL     1      -6.853  11.833  67.181  1.00  0.00    -0.148 C  
HETATM    2  C   UNL     1      -6.854  10.893  68.390  1.00  0.00    -0.068 C  
HETATM    3  C   UNL     1      -8.224  10.203  68.736  1.00  0.00    -0.113 C  
HETATM    4  C   UNL     1      -8.786  17.577  68.032  1.00  0.00    -0.258 A  
HETATM    5  C   UNL     1      -8.327   9.163  67.626  1.00  0.00    -0.116 C  
HETATM    6  C   UNL     1      -8.440  18.887  68.428  1.00  0.00    -0.385 A  
HETATM    7  C   UNL     1      -9.270  19.963  68.073  1.00  0.00    -0.405 A  
HETATM    8  C   UNL     1      -8.546  10.015  66.310  1.00  0.00    -0.137 C  
HETATM    9  C   UNL     1     -10.421  19.737  67.336  1.00  0.00    -0.577 A  
HETATM   10  C   UNL     1     -10.779  18.441  66.919  1.00  0.00    -0.303 A  
HETATM   11  H   UNL     1     -10.768  15.572  66.460  1.00  0.00     0.000 HD 
HETATM   12  C   UNL     1      -8.135  11.635  66.347  1.00  0.00    -0.023 C  
HETATM   13  C   UNL     1      -9.936  17.370  67.282  1.00  0.00    -0.302 A  
HETATM   14  N   UNL     1     -10.042  16.007  67.030  1.00  0.00    -0.265 NA 
HETATM   15  C   UNL     1      -9.024  15.330  67.662  1.00  0.00    -0.179 A  
HETATM   16  C   UNL     1      -8.238  16.294  68.281  1.00  0.00    -0.173 A  
HETATM   17  C   UNL     1      -9.088  12.904  66.572  1.00  0.00    -0.138 C  
HETATM   18  C   UNL     1      -7.100  15.928  69.161  1.00  0.00    -0.185 C  
HETATM   19  C   UNL     1      -8.902  13.817  67.862  1.00  0.00    -0.186 C  
HETATM   20  C   UNL     1      -7.338  14.503  69.677  1.00  0.00    -0.011 C  
HETATM   21  C   UNL     1      -6.575  13.235  67.727  1.00  0.00    -0.155 C  
HETATM   22  N   UNL     1      -7.674  13.530  68.621  1.00  0.00    -0.120 NA 
ENDROOT
BRANCH   3  23
HETATM   23  O   UNL     1      -9.479  10.990  68.721  1.00  0.00    -0.189 OA 
BRANCH  23  24
HETATM   24  C   UNL     1     -10.311  10.748  69.788  1.00  0.00    -0.027 C  
HETATM   25  O   UNL     1     -11.044  11.607  70.271  1.00  0.00     0.091 OA 
BRANCH  24  26
HETATM   26  C   UNL     1     -10.298   9.401  70.451  1.00  0.00    -0.318 A  
HETATM   27  C   UNL     1     -10.202   7.211  72.259  1.00  0.00    -0.190 A  
HETATM   28  C   UNL     1     -11.395   8.566  70.611  1.00  0.00    -0.265 A  
HETATM   29  C   UNL     1      -9.103   9.035  71.091  1.00  0.00    -0.316 A  
HETATM   30  C   UNL     1      -9.051   7.982  72.014  1.00  0.00    -0.160 A  
HETATM   31  C   UNL     1     -11.372   7.495  71.527  1.00  0.00    -0.255 A  
BRANCH  30  32
HETATM   32  O   UNL     1      -7.919   7.692  72.741  1.00  0.00    -0.098 OA 
HETATM   33  C   UNL     1      -6.909   8.701  72.738  1.00  0.00     0.026 C  
ENDBRANCH  30  32
BRANCH  27  34
HETATM   34  O   UNL     1     -10.073   6.212  73.195  1.00  0.00    -0.174 OA 
HETATM   35  C   UNL     1      -9.816   4.900  72.700  1.00  0.00    -0.160 C  
ENDBRANCH  27  34
BRANCH  31  36
HETATM   36  O   UNL     1     -12.471   6.695  71.724  1.00  0.00    -0.352 OA 
HETATM   37  C   UNL     1     -13.716   7.231  71.286  1.00  0.00    -0.224 C  
ENDBRANCH  31  36
ENDBRANCH  24  26
ENDBRANCH  23  24
ENDBRANCH   3  23
BRANCH   5  38
HETATM   38  O   UNL     1      -7.106   8.397  67.646  1.00  0.00    -0.080 OA 
HETATM   39  C   UNL     1      -7.174   7.018  67.951  1.00  0.00    -0.091 C  
ENDBRANCH   5  38
BRANCH   8  40
HETATM   40  C   UNL     1      -9.920   9.642  65.789  1.00  0.00    -0.272 C  
HETATM   41  O   UNL     1     -10.719   8.935  66.382  1.00  0.00    -0.032 OA 
BRANCH  40  42
HETATM   42  O   UNL     1     -10.104  10.129  64.532  1.00  0.00    -0.304 OA 
HETATM   43  C   UNL     1      -9.109   9.905  63.524  1.00  0.00    -0.256 C  
ENDBRANCH  40  42
ENDBRANCH   8  40
TORSDOF 9
ENDMDL
MODEL       80
REMARK 921   NORMALIZED FREE ENERGY PREDICTED BY IDOCK:   -3.91 KCAL/MOL
REMARK 922        TOTAL FREE ENERGY PREDICTED BY IDOCK:   -8.60 KCAL/MOL
REMARK 923 INTER-LIGAND FREE ENERGY PREDICTED BY IDOCK:   -7.67 KCAL/MOL
REMARK 924 INTRA-LIGAND FREE ENERGY PREDICTED BY IDOCK:   -0.93 KCAL/MOL
REMARK 927      BINDING AFFINITY PREDICTED BY RF-SCORE:    0.00 PKD
ROOT
HETATM    1  C   UNL     1     -10.637   9.010  67.049  1.00  0.00    -0.270 C  
HETATM    2  C   UNL     1     -10.974  10.504  67.003  1.00  0.00    -0.247 C  
HETATM    3  C   UNL     1      -9.803  11.471  66.600  1.00  0.00    -0.202 C  
HETATM    4  C   UNL     1      -7.974   6.843  72.115  1.00  0.00    -0.094 A  
HETATM    5  C   UNL     1      -9.693  11.206  65.103  1.00  0.00    -0.250 C  
HETATM    6  C   UNL     1      -8.166   6.335  73.418  1.00  0.00    -0.114 A  
HETATM    7  C   UNL     1      -7.131   5.624  74.047  1.00  0.00    -0.082 A  
HETATM    8  C   UNL     1      -9.138   9.727  65.007  1.00  0.00    -0.280 C  
HETATM    9  C   UNL     1      -5.929   5.423  73.388  1.00  0.00    -0.032 A  
HETATM   10  C   UNL     1      -5.720   5.908  72.083  1.00  0.00    -0.031 A  
HETATM   11  H   UNL     1      -6.114   7.174  69.498  1.00  0.00     0.000 HD 
HETATM   12  C   UNL     1      -9.288   8.745  66.351  1.00  0.00    -0.264 C  
HETATM   13  C   UNL     1      -6.768   6.620  71.464  1.00  0.00    -0.061 A  
HETATM   14  N   UNL     1      -6.842   7.218  70.212  1.00  0.00    -0.052 NA 
HETATM   15  C   UNL     1      -8.041   7.880  70.075  1.00  0.00    -0.117 A  
HETATM   16  C   UNL     1      -8.752   7.649  71.247  1.00  0.00    -0.137 A  
HETATM   17  C   UNL     1      -8.192   8.411  67.472  1.00  0.00    -0.125 C  
HETATM   18  C   UNL     1     -10.057   8.304  71.511  1.00  0.00    -0.270 C  
HETATM   19  C   UNL     1      -8.431   8.873  68.976  1.00  0.00    -0.133 C  
HETATM   20  C   UNL     1     -10.132   9.576  70.657  1.00  0.00    -0.286 C  
HETATM   21  C   UNL     1     -10.771   8.585  68.512  1.00  0.00    -0.031 C  
HETATM   22  N   UNL     1      -9.793   9.367  69.237  1.00  0.00    -0.168 NA 
ENDROOT
BRANCH   3  23
HETATM   23  O   UNL     1      -8.452  11.288  67.181  1.00  0.00    -0.139 OA 
BRANCH  23  24
HETATM   24  C   UNL     1      -7.672  12.419  67.165  1.00  0.00    -0.122 C  
HETATM   25  O   UNL     1      -6.533  12.437  66.707  1.00  0.00    -0.094 OA 
BRANCH  24  26
HETATM   26  C   UNL     1      -8.186  13.688  67.784  1.00  0.00    -0.179 A  
HETATM   27  C   UNL     1      -9.224  16.276  68.324  1.00  0.00    -0.197 A  
HETATM   28  C   UNL     1      -9.411  13.840  68.417  1.00  0.00    -0.198 A  
HETATM   29  C   UNL     1      -7.418  14.842  67.565  1.00  0.00    -0.221 A  
HETATM   30  C   UNL     1      -7.932  16.125  67.789  1.00  0.00    -0.142 A  
HETATM   31  C   UNL     1      -9.953  15.119  68.663  1.00  0.00    -0.220 A  
BRANCH  30  32
HETATM   32  O   UNL     1      -7.237  17.268  67.462  1.00  0.00    -0.156 OA 
HETATM   33  C   UNL     1      -7.154  17.560  66.067  1.00  0.00    -0.264 C  
ENDBRANCH  30  32
BRANCH  27  34
HETATM   34  O   UNL     1      -9.662  17.569  68.493  1.00  0.00    -0.291 OA 
HETATM   35  C   UNL     1     -10.525  18.089  67.484  1.00  0.00    -0.396 C  
ENDBRANCH  27  34
BRANCH  31  36
HETATM   36  O   UNL     1     -11.187  15.276  69.246  1.00  0.00    -0.250 OA 
HETATM   37  C   UNL     1     -12.022  14.122  69.252  1.00  0.00    -0.340 C  
ENDBRANCH  31  36
ENDBRANCH  24  26
ENDBRANCH  23  24
ENDBRANCH   3  23
BRANCH   5  38
HETATM   38  O   UNL     1     -11.008  11.390  64.541  1.00  0.00    -0.326 OA 
HETATM   39  C   UNL     1     -11.170  12.301  63.472  1.00  0.00    -0.460 C  
ENDBRANCH   5  38
BRANCH   8  40
HETATM   40  C   UNL     1      -7.777   9.829  64.348  1.00  0.00    -0.134 C  
HETATM   41  O   UNL     1      -7.573  10.308  63.244  1.00  0.00    -0.149 OA 
BRANCH  40  42
HETATM   42  O   UNL     1      -6.826   9.234  65.119  1.00  0.00    -0.079 OA 
HETATM   43  C   UNL     1      -5.583   8.823  64.532  1.00  0.00    -0.063 C  
ENDBRANCH  40  42
ENDBRANCH   8  40
TORSDOF 9
ENDMDL
MODEL       81
REMARK 921   NORMALIZED FREE ENERGY PREDICTED BY IDOCK:   -3.90 KCAL/MOL
REMARK 922        TOTAL FREE ENERGY PREDICTED BY IDOCK:   -8.59 KCAL/MOL
REMARK 923 INTER-LIGAND FREE ENERGY PREDICTED BY IDOCK:   -8.05 KCAL/MOL
REMARK 924 INTRA-LIGAND FREE ENERGY PREDICTED BY IDOCK:   -0.54 KCAL/MOL
REMARK 927      BINDING AFFINITY PREDICTED BY RF-SCORE:    0.00 PKD
ROOT
HETATM    1  C   UNL     1      -8.815   8.502  66.744  1.00  0.00    -0.158 C  
HETATM    2  C   UNL     1     -10.045   9.159  66.110  1.00  0.00    -0.278 C  
HETATM    3  C   UNL     1     -10.499  10.531  66.730  1.00  0.00    -0.242 C  
HETATM    4  C   UNL     1      -9.647   5.192  71.823  1.00  0.00    -0.199 A  
HETATM    5  C   UNL     1      -9.425  11.473  66.197  1.00  0.00    -0.220 C  
HETATM    6  C   UNL     1      -9.985   3.932  72.363  1.00  0.00    -0.232 A  
HETATM    7  C   UNL     1      -9.659   3.636  73.696  1.00  0.00    -0.135 A  
HETATM    8  C   UNL     1      -8.106  11.029  66.950  1.00  0.00    -0.142 C  
HETATM    9  C   UNL     1      -9.007   4.578  74.475  1.00  0.00    -0.110 A  
HETATM   10  C   UNL     1      -8.648   5.835  73.955  1.00  0.00    -0.117 A  
HETATM   11  H   UNL     1      -8.263   8.088  72.161  1.00  0.00     0.000 HD 
HETATM   12  C   UNL     1      -8.074   9.510  67.646  1.00  0.00    -0.110 C  
HETATM   13  C   UNL     1      -8.981   6.118  72.614  1.00  0.00    -0.130 A  
HETATM   14  N   UNL     1      -8.772   7.260  71.850  1.00  0.00    -0.115 NA 
HETATM   15  C   UNL     1      -9.351   7.111  70.610  1.00  0.00    -0.158 A  
HETATM   16  C   UNL     1      -9.890   5.830  70.582  1.00  0.00    -0.240 A  
HETATM   17  C   UNL     1      -8.330   9.106  69.176  1.00  0.00    -0.123 C  
HETATM   18  C   UNL     1     -10.701   5.349  69.436  1.00  0.00    -0.226 C  
HETATM   19  C   UNL     1      -9.581   8.199  69.558  1.00  0.00    -0.168 C  
HETATM   20  C   UNL     1     -11.269   6.575  68.707  1.00  0.00    -0.236 C  
HETATM   21  C   UNL     1      -9.305   7.204  67.388  1.00  0.00    -0.127 C  
HETATM   22  N   UNL     1     -10.263   7.607  68.396  1.00  0.00    -0.194 NA 
ENDROOT
BRANCH   3  23
HETATM   23  O   UNL     1     -10.548  10.705  68.200  1.00  0.00    -0.176 OA 
BRANCH  23  24
HETATM   24  C   UNL     1     -11.582  11.496  68.641  1.00  0.00    -0.313 C  
HETATM   25  O   UNL     1     -12.684  11.046  68.944  1.00  0.00    -0.216 OA 
BRANCH  24  26
HETATM   26  C   UNL     1     -11.404  12.986  68.706  1.00  0.00    -0.332 A  
HETATM   27  C   UNL     1     -11.604  15.807  68.440  1.00  0.00    -0.338 A  
HETATM   28  C   UNL     1     -11.663  13.784  69.812  1.00  0.00    -0.367 A  
HETATM   29  C   UNL     1     -11.095  13.628  67.497  1.00  0.00    -0.296 A  
HETATM   30  C   UNL     1     -11.227  15.013  67.342  1.00  0.00    -0.335 A  
HETATM   31  C   UNL     1     -11.796  15.183  69.689  1.00  0.00    -0.334 A  
BRANCH  30  32
HETATM   32  O   UNL     1     -11.048  15.642  66.129  1.00  0.00    -0.257 OA 
HETATM   33  C   UNL     1      -9.998  15.121  65.314  1.00  0.00    -0.290 C  
ENDBRANCH  30  32
BRANCH  27  34
HETATM   34  O   UNL     1     -11.734  17.155  68.197  1.00  0.00     0.360 OA 
HETATM   35  C   UNL     1     -10.577  17.959  68.419  1.00  0.00    -0.265 C  
ENDBRANCH  27  34
BRANCH  31  36
HETATM   36  O   UNL     1     -12.099  15.973  70.770  1.00  0.00    -0.380 OA 
HETATM   37  C   UNL     1     -11.686  15.474  72.039  1.00  0.00    -0.455 C  
ENDBRANCH  31  36
ENDBRANCH  24  26
ENDBRANCH  23  24
ENDBRANCH   3  23
BRANCH   5  38
HETATM   38  O   UNL     1      -9.384  11.304  64.766  1.00  0.00    -0.210 OA 
HETATM   39  C   UNL     1      -9.655  12.420  63.941  1.00  0.00     0.178 C  
ENDBRANCH   5  38
BRANCH   8  40
HETATM   40  C   UNL     1      -7.688  12.211  67.801  1.00  0.00    -0.139 C  
HETATM   41  O   UNL     1      -7.395  12.147  68.985  1.00  0.00    -0.088 OA 
BRANCH  40  42
HETATM   42  O   UNL     1      -7.770  13.368  67.089  1.00  0.00    -0.110 OA 
HETATM   43  C   UNL     1      -6.895  14.462  67.397  1.00  0.00    -0.024 C  
ENDBRANCH  40  42
ENDBRANCH   8  40
TORSDOF 9
ENDMDL
MODEL       82
REMARK 921   NORMALIZED FREE ENERGY PREDICTED BY IDOCK:   -3.90 KCAL/MOL
REMARK 922        TOTAL FREE ENERGY PREDICTED BY IDOCK:   -8.59 KCAL/MOL
REMARK 923 INTER-LIGAND FREE ENERGY PREDICTED BY IDOCK:   -6.85 KCAL/MOL
REMARK 924 INTRA-LIGAND FREE ENERGY PREDICTED BY IDOCK:   -1.73 KCAL/MOL
REMARK 927      BINDING AFFINITY PREDICTED BY RF-SCORE:    0.00 PKD
ROOT
HETATM    1  C   UNL     1      -5.624   9.272  67.488  1.00  0.00    -0.041 C  
HETATM    2  C   UNL     1      -6.133  10.716  67.507  1.00  0.00    -0.052 C  
HETATM    3  C   UNL     1      -7.340  11.017  68.468  1.00  0.00    -0.101 C  
HETATM    4  C   UNL     1      -8.592   5.246  63.961  1.00  0.00    -0.059 A  
HETATM    5  C   UNL     1      -6.656  10.988  69.830  1.00  0.00    -0.142 C  
HETATM    6  C   UNL     1      -8.730   4.693  62.670  1.00  0.00    -0.125 A  
HETATM    7  C   UNL     1      -9.391   3.464  62.507  1.00  0.00    -0.092 A  
HETATM    8  C   UNL     1      -6.256   9.471  70.035  1.00  0.00    -0.051 C  
HETATM    9  C   UNL     1      -9.903   2.802  63.610  1.00  0.00    -0.139 A  
HETATM   10  C   UNL     1      -9.765   3.328  64.908  1.00  0.00    -0.109 A  
HETATM   11  H   UNL     1      -9.051   5.034  67.149  1.00  0.00     0.000 HD 
HETATM   12  C   UNL     1      -6.195   8.487  68.686  1.00  0.00    -0.046 C  
HETATM   13  C   UNL     1      -9.098   4.561  65.057  1.00  0.00    -0.152 A  
HETATM   14  N   UNL     1      -8.832   5.317  66.193  1.00  0.00    -0.131 NA 
HETATM   15  C   UNL     1      -8.229   6.502  65.841  1.00  0.00    -0.131 A  
HETATM   16  C   UNL     1      -8.071   6.466  64.461  1.00  0.00    -0.088 A  
HETATM   17  C   UNL     1      -7.304   7.466  68.142  1.00  0.00    -0.100 C  
HETATM   18  C   UNL     1      -7.554   7.632  63.702  1.00  0.00    -0.118 C  
HETATM   19  C   UNL     1      -7.997   7.725  66.733  1.00  0.00    -0.107 C  
HETATM   20  C   UNL     1      -7.805   8.893  64.540  1.00  0.00    -0.126 C  
HETATM   21  C   UNL     1      -5.914   8.733  66.086  1.00  0.00    -0.048 C  
HETATM   22  N   UNL     1      -7.354   8.784  65.939  1.00  0.00    -0.084 NA 
ENDROOT
BRANCH   3  23
HETATM   23  O   UNL     1      -8.491  10.087  68.532  1.00  0.00    -0.109 OA 
BRANCH  23  24
HETATM   24  C   UNL     1      -9.708  10.675  68.282  1.00  0.00    -0.161 C  
HETATM   25  O   UNL     1     -10.770  10.207  68.683  1.00  0.00    -0.202 OA 
BRANCH  24  26
HETATM   26  C   UNL     1      -9.777  11.911  67.432  1.00  0.00    -0.189 A  
HETATM   27  C   UNL     1     -10.465  13.969  65.598  1.00  0.00    -0.318 A  
HETATM   28  C   UNL     1     -10.082  13.188  67.883  1.00  0.00    -0.232 A  
HETATM   29  C   UNL     1      -9.670  11.718  66.046  1.00  0.00    -0.254 A  
HETATM   30  C   UNL     1     -10.043  12.711  65.131  1.00  0.00    -0.237 A  
HETATM   31  C   UNL     1     -10.456  14.210  66.986  1.00  0.00    -0.271 A  
BRANCH  30  32
HETATM   32  O   UNL     1     -10.062  12.494  63.770  1.00  0.00    -0.388 OA 
HETATM   33  C   UNL     1     -10.442  11.180  63.362  1.00  0.00    -0.317 C  
ENDBRANCH  30  32
BRANCH  27  34
HETATM   34  O   UNL     1     -10.835  14.879  64.635  1.00  0.00    -0.370 OA 
HETATM   35  C   UNL     1     -12.222  14.942  64.314  1.00  0.00    -0.344 C  
ENDBRANCH  27  34
BRANCH  31  36
HETATM   36  O   UNL     1     -10.806  15.462  67.430  1.00  0.00    -0.298 OA 
HETATM   37  C   UNL     1     -11.696  15.500  68.542  1.00  0.00    -0.337 C  
ENDBRANCH  31  36
ENDBRANCH  24  26
ENDBRANCH  23  24
ENDBRANCH   3  23
BRANCH   5  38
HETATM   38  O   UNL     1      -5.540  11.899  69.764  1.00  0.00    -0.077 OA 
HETATM   39  C   UNL     1      -5.697  13.206  70.279  1.00  0.00    -0.155 C  
ENDBRANCH   5  38
BRANCH   8  40
HETATM   40  C   UNL     1      -7.045   8.986  71.235  1.00  0.00    -0.079 C  
HETATM   41  O   UNL     1      -8.187   9.326  71.500  1.00  0.00    -0.327 OA 
BRANCH  40  42
HETATM   42  O   UNL     1      -6.275   8.187  72.024  1.00  0.00    -0.042 OA 
HETATM   43  C   UNL     1      -6.351   8.305  73.452  1.00  0.00    -0.102 C  
ENDBRANCH  40  42
ENDBRANCH   8  40
TORSDOF 9
ENDMDL
MODEL       83
REMARK 921   NORMALIZED FREE ENERGY PREDICTED BY IDOCK:   -3.90 KCAL/MOL
REMARK 922        TOTAL FREE ENERGY PREDICTED BY IDOCK:   -8.58 KCAL/MOL
REMARK 923 INTER-LIGAND FREE ENERGY PREDICTED BY IDOCK:   -6.91 KCAL/MOL
REMARK 924 INTRA-LIGAND FREE ENERGY PREDICTED BY IDOCK:   -1.67 KCAL/MOL
REMARK 927      BINDING AFFINITY PREDICTED BY RF-SCORE:    0.00 PKD
ROOT
HETATM    1  C   UNL     1      -6.947   7.859  65.615  1.00  0.00    -0.053 C  
HETATM    2  C   UNL     1      -6.193   7.225  66.788  1.00  0.00    -0.043 C  
HETATM    3  C   UNL     1      -7.062   6.422  67.823  1.00  0.00    -0.085 C  
HETATM    4  C   UNL     1      -9.660  13.264  66.549  1.00  0.00    -0.267 A  
HETATM    5  C   UNL     1      -7.379   5.157  67.034  1.00  0.00    -0.082 C  
HETATM    6  C   UNL     1      -9.509  14.667  66.567  1.00  0.00    -0.319 A  
HETATM    7  C   UNL     1     -10.646  15.490  66.513  1.00  0.00    -0.307 A  
HETATM    8  C   UNL     1      -8.348   5.646  65.883  1.00  0.00    -0.128 C  
HETATM    9  C   UNL     1     -11.908  14.924  66.443  1.00  0.00    -0.137 A  
HETATM   10  C   UNL     1     -12.082  13.527  66.411  1.00  0.00    -0.467 A  
HETATM   11  H   UNL     1     -11.570  10.668  66.366  1.00  0.00     0.000 HD 
HETATM   12  C   UNL     1      -8.372   7.276  65.518  1.00  0.00    -0.137 C  
HETATM   13  C   UNL     1     -10.932  12.714  66.465  1.00  0.00    -0.269 A  
HETATM   14  N   UNL     1     -10.799  11.330  66.465  1.00  0.00    -0.277 NA 
HETATM   15  C   UNL     1      -9.477  10.983  66.621  1.00  0.00    -0.184 A  
HETATM   16  C   UNL     1      -8.763  12.174  66.668  1.00  0.00    -0.153 A  
HETATM   17  C   UNL     1      -9.412   8.395  66.005  1.00  0.00    -0.224 C  
HETATM   18  C   UNL     1      -7.305  12.200  66.944  1.00  0.00    -0.009 C  
HETATM   19  C   UNL     1      -8.914   9.592  66.928  1.00  0.00    -0.134 C  
HETATM   20  C   UNL     1      -6.938  10.908  67.686  1.00  0.00    -0.082 C  
HETATM   21  C   UNL     1      -6.812   9.373  65.784  1.00  0.00    -0.085 C  
HETATM   22  N   UNL     1      -7.449   9.682  67.046  1.00  0.00    -0.091 NA 
ENDROOT
BRANCH   3  23
HETATM   23  O   UNL     1      -8.349   6.976  68.304  1.00  0.00    -0.122 OA 
BRANCH  23  24
HETATM   24  C   UNL     1      -8.387   7.224  69.656  1.00  0.00    -0.132 C  
HETATM   25  O   UNL     1      -7.731   8.114  70.190  1.00  0.00    -0.081 OA 
BRANCH  24  26
HETATM   26  C   UNL     1      -9.212   6.344  70.551  1.00  0.00    -0.162 A  
HETATM   27  C   UNL     1     -10.418   4.969  72.725  1.00  0.00    -0.211 A  
HETATM   28  C   UNL     1     -10.560   6.515  70.836  1.00  0.00    -0.275 A  
HETATM   29  C   UNL     1      -8.514   5.361  71.270  1.00  0.00    -0.126 A  
HETATM   30  C   UNL     1      -9.084   4.704  72.367  1.00  0.00    -0.125 A  
HETATM   31  C   UNL     1     -11.164   5.862  71.931  1.00  0.00    -0.264 A  
BRANCH  30  32
HETATM   32  O   UNL     1      -8.371   3.829  73.158  1.00  0.00    -0.089 OA 
HETATM   33  C   UNL     1      -7.345   3.093  72.492  1.00  0.00    -0.048 C  
ENDBRANCH  30  32
BRANCH  27  34
HETATM   34  O   UNL     1     -10.894   4.299  73.828  1.00  0.00    -0.233 OA 
HETATM   35  C   UNL     1     -11.404   2.986  73.608  1.00  0.00    -0.142 C  
ENDBRANCH  27  34
BRANCH  31  36
HETATM   36  O   UNL     1     -12.485   6.065  72.246  1.00  0.00    -0.206 OA 
HETATM   37  C   UNL     1     -13.130   7.137  71.564  1.00  0.00    -0.375 C  
ENDBRANCH  31  36
ENDBRANCH  24  26
ENDBRANCH  23  24
ENDBRANCH   3  23
BRANCH   5  38
HETATM   38  O   UNL     1      -6.123   4.619  66.572  1.00  0.00    -0.029 OA 
HETATM   39  C   UNL     1      -6.087   3.287  66.100  1.00  0.00    -0.024 C  
ENDBRANCH   5  38
BRANCH   8  40
HETATM   40  C   UNL     1      -9.673   4.951  66.124  1.00  0.00    -0.190 C  
HETATM   41  O   UNL     1     -10.485   5.279  66.975  1.00  0.00    -0.237 OA 
BRANCH  40  42
HETATM   42  O   UNL     1      -9.794   3.857  65.323  1.00  0.00    -0.183 OA 
HETATM   43  C   UNL     1      -9.155   3.836  64.039  1.00  0.00    -0.124 C  
ENDBRANCH  40  42
ENDBRANCH   8  40
TORSDOF 9
ENDMDL
MODEL       84
REMARK 921   NORMALIZED FREE ENERGY PREDICTED BY IDOCK:   -3.89 KCAL/MOL
REMARK 922        TOTAL FREE ENERGY PREDICTED BY IDOCK:   -8.58 KCAL/MOL
REMARK 923 INTER-LIGAND FREE ENERGY PREDICTED BY IDOCK:   -8.11 KCAL/MOL
REMARK 924 INTRA-LIGAND FREE ENERGY PREDICTED BY IDOCK:   -0.47 KCAL/MOL
REMARK 927      BINDING AFFINITY PREDICTED BY RF-SCORE:    0.00 PKD
ROOT
HETATM    1  C   UNL     1     -11.265  15.848  66.494  1.00  0.00     0.082 C  
HETATM    2  C   UNL     1     -10.923  14.668  65.580  1.00  0.00    -0.344 C  
HETATM    3  C   UNL     1     -10.361  13.379  66.284  1.00  0.00    -0.291 C  
HETATM    4  C   UNL     1      -6.704  19.557  68.194  1.00  0.00    -0.301 A  
HETATM    5  C   UNL     1     -11.620  12.818  66.935  1.00  0.00    -0.366 C  
HETATM    6  C   UNL     1      -5.918  20.681  67.862  1.00  0.00    -0.312 A  
HETATM    7  C   UNL     1      -5.185  21.338  68.864  1.00  0.00    -0.187 A  
HETATM    8  C   UNL     1     -11.973  13.862  68.071  1.00  0.00    -0.390 C  
HETATM    9  C   UNL     1      -5.237  20.882  70.171  1.00  0.00    -0.359 A  
HETATM   10  C   UNL     1      -6.024  19.771  70.528  1.00  0.00    -0.304 A  
HETATM   11  H   UNL     1      -7.848  17.513  70.415  1.00  0.00     0.000 HD 
HETATM   12  C   UNL     1     -11.304  15.389  67.967  1.00  0.00    -0.345 C  
HETATM   13  C   UNL     1      -6.755  19.122  69.512  1.00  0.00    -0.241 A  
HETATM   14  N   UNL     1      -7.590  18.012  69.564  1.00  0.00     0.224 NA 
HETATM   15  C   UNL     1      -8.018  17.684  68.298  1.00  0.00    -0.272 A  
HETATM   16  C   UNL     1      -7.479  18.638  67.443  1.00  0.00    -0.226 A  
HETATM   17  C   UNL     1     -10.008  15.968  68.712  1.00  0.00    -0.224 C  
HETATM   18  C   UNL     1      -7.632  18.544  65.970  1.00  0.00    -0.232 C  
HETATM   19  C   UNL     1      -8.733  16.401  67.864  1.00  0.00    -0.179 C  
HETATM   20  C   UNL     1      -7.903  17.076  65.613  1.00  0.00     0.740 C  
HETATM   21  C   UNL     1     -10.294  16.971  66.128  1.00  0.00    -0.319 C  
HETATM   22  N   UNL     1      -8.973  16.451  66.413  1.00  0.00    -0.278 NA 
ENDROOT
BRANCH   3  23
HETATM   23  O   UNL     1      -9.332  13.498  67.343  1.00  0.00    -0.211 OA 
BRANCH  23  24
HETATM   24  C   UNL     1      -8.741  12.308  67.693  1.00  0.00    -0.175 C  
HETATM   25  O   UNL     1      -8.601  11.950  68.859  1.00  0.00    -0.010 OA 
BRANCH  24  26
HETATM   26  C   UNL     1      -8.178  11.413  66.626  1.00  0.00    -0.163 A  
HETATM   27  C   UNL     1      -7.222   9.247  65.057  1.00  0.00    -0.098 A  
HETATM   28  C   UNL     1      -8.817  11.058  65.447  1.00  0.00    -0.157 A  
HETATM   29  C   UNL     1      -6.967  10.772  66.929  1.00  0.00    -0.109 A  
HETATM   30  C   UNL     1      -6.504   9.678  66.187  1.00  0.00    -0.071 A  
HETATM   31  C   UNL     1      -8.372   9.965  64.674  1.00  0.00    -0.163 A  
BRANCH  30  32
HETATM   32  O   UNL     1      -5.384   8.961  66.546  1.00  0.00    -0.034 OA 
HETATM   33  C   UNL     1      -5.199   8.770  67.948  1.00  0.00    -0.035 C  
ENDBRANCH  30  32
BRANCH  27  34
HETATM   34  O   UNL     1      -6.713   8.153  64.397  1.00  0.00    -0.064 OA 
HETATM   35  C   UNL     1      -7.304   6.891  64.700  1.00  0.00    -0.090 C  
ENDBRANCH  27  34
BRANCH  31  36
HETATM   36  O   UNL     1      -9.030   9.579  63.532  1.00  0.00    -0.233 OA 
HETATM   37  C   UNL     1      -9.761  10.601  62.861  1.00  0.00    -0.293 C  
ENDBRANCH  31  36
ENDBRANCH  24  26
ENDBRANCH  23  24
ENDBRANCH   3  23
BRANCH   5  38
HETATM   38  O   UNL     1     -12.617  12.700  65.900  1.00  0.00    -0.526 OA 
HETATM   39  C   UNL     1     -12.257  12.093  64.676  1.00  0.00    -0.298 C  
ENDBRANCH   5  38
BRANCH   8  40
HETATM   40  C   UNL     1     -11.841  13.116  69.384  1.00  0.00    -0.326 C  
HETATM   41  O   UNL     1     -11.792  13.646  70.483  1.00  0.00    -0.291 OA 
BRANCH  40  42
HETATM   42  O   UNL     1     -11.695  11.780  69.164  1.00  0.00    -0.274 OA 
HETATM   43  C   UNL     1     -11.815  10.858  70.256  1.00  0.00    -0.361 C  
ENDBRANCH  40  42
ENDBRANCH   8  40
TORSDOF 9
ENDMDL
MODEL       85
REMARK 921   NORMALIZED FREE ENERGY PREDICTED BY IDOCK:   -3.88 KCAL/MOL
REMARK 922        TOTAL FREE ENERGY PREDICTED BY IDOCK:   -8.56 KCAL/MOL
REMARK 923 INTER-LIGAND FREE ENERGY PREDICTED BY IDOCK:   -7.25 KCAL/MOL
REMARK 924 INTRA-LIGAND FREE ENERGY PREDICTED BY IDOCK:   -1.31 KCAL/MOL
REMARK 927      BINDING AFFINITY PREDICTED BY RF-SCORE:    0.00 PKD
ROOT
HETATM    1  C   UNL     1      -6.041   9.169  67.403  1.00  0.00    -0.054 C  
HETATM    2  C   UNL     1      -6.529  10.615  67.274  1.00  0.00    -0.072 C  
HETATM    3  C   UNL     1      -7.823  10.990  68.085  1.00  0.00    -0.116 C  
HETATM    4  C   UNL     1      -8.695   4.936  63.869  1.00  0.00    -0.111 A  
HETATM    5  C   UNL     1      -7.280  11.048  69.508  1.00  0.00    -0.090 C  
HETATM    6  C   UNL     1      -8.709   4.297  62.610  1.00  0.00    -0.106 A  
HETATM    7  C   UNL     1      -9.368   3.066  62.463  1.00  0.00    -0.089 A  
HETATM    8  C   UNL     1      -6.925   9.546  69.854  1.00  0.00    -0.078 C  
HETATM    9  C   UNL     1      -9.999   2.483  63.550  1.00  0.00    -0.135 A  
HETATM   10  C   UNL     1      -9.986   3.095  64.817  1.00  0.00     0.001 A  
HETATM   11  H   UNL     1      -9.477   4.944  67.000  1.00  0.00     0.000 HD 
HETATM   12  C   UNL     1      -6.742   8.472  68.587  1.00  0.00    -0.059 C  
HETATM   13  C   UNL     1      -9.320   4.331  64.951  1.00  0.00    -0.165 A  
HETATM   14  N   UNL     1      -9.158   5.160  66.055  1.00  0.00    -0.145 NA 
HETATM   15  C   UNL     1      -8.506   6.314  65.688  1.00  0.00    -0.148 A  
HETATM   16  C   UNL     1      -8.210   6.183  64.336  1.00  0.00    -0.063 A  
HETATM   17  C   UNL     1      -7.805   7.425  68.002  1.00  0.00    -0.118 C  
HETATM   18  C   UNL     1      -7.602   7.291  63.558  1.00  0.00    -0.117 C  
HETATM   19  C   UNL     1      -8.348   7.593  66.515  1.00  0.00    -0.129 C  
HETATM   20  C   UNL     1      -7.918   8.608  64.281  1.00  0.00    -0.148 C  
HETATM   21  C   UNL     1      -6.196   8.538  66.019  1.00  0.00    -0.052 C  
HETATM   22  N   UNL     1      -7.612   8.591  65.723  1.00  0.00    -0.084 NA 
ENDROOT
BRANCH   3  23
HETATM   23  O   UNL     1      -8.987  10.075  68.093  1.00  0.00    -0.121 OA 
BRANCH  23  24
HETATM   24  C   UNL     1     -10.132  10.612  67.555  1.00  0.00    -0.184 C  
HETATM   25  O   UNL     1     -10.458  10.451  66.383  1.00  0.00    -0.230 OA 
BRANCH  24  26
HETATM   26  C   UNL     1     -11.010  11.492  68.399  1.00  0.00    -0.267 A  
HETATM   27  C   UNL     1     -12.274  12.948  70.486  1.00  0.00    -0.314 A  
HETATM   28  C   UNL     1     -11.007  12.880  68.396  1.00  0.00    -0.285 A  
HETATM   29  C   UNL     1     -11.784  10.845  69.375  1.00  0.00    -0.397 A  
HETATM   30  C   UNL     1     -12.379  11.546  70.431  1.00  0.00    -0.305 A  
HETATM   31  C   UNL     1     -11.603  13.615  69.441  1.00  0.00    -0.312 A  
BRANCH  30  32
HETATM   32  O   UNL     1     -13.036  10.913  71.463  1.00  0.00    -0.412 OA 
HETATM   33  C   UNL     1     -12.482   9.662  71.869  1.00  0.00    -0.377 C  
ENDBRANCH  30  32
BRANCH  27  34
HETATM   34  O   UNL     1     -12.867  13.558  71.566  1.00  0.00    -0.353 OA 
HETATM   35  C   UNL     1     -13.773  14.622  71.282  1.00  0.00    -0.374 C  
ENDBRANCH  27  34
BRANCH  31  36
HETATM   36  O   UNL     1     -11.562  14.988  69.468  1.00  0.00    -0.275 OA 
HETATM   37  C   UNL     1     -10.325  15.564  69.878  1.00  0.00    -0.312 C  
ENDBRANCH  31  36
ENDBRANCH  24  26
ENDBRANCH  23  24
ENDBRANCH   3  23
BRANCH   5  38
HETATM   38  O   UNL     1      -6.150  11.943  69.496  1.00  0.00    -0.085 OA 
HETATM   39  C   UNL     1      -5.820  12.638  70.683  1.00  0.00    -0.086 C  
ENDBRANCH   5  38
BRANCH   8  40
HETATM   40  C   UNL     1      -7.838   9.149  70.997  1.00  0.00    -0.116 C  
HETATM   41  O   UNL     1      -9.012   9.470  71.092  1.00  0.00    -0.249 OA 
BRANCH  40  42
HETATM   42  O   UNL     1      -7.148   8.459  71.946  1.00  0.00    -0.081 OA 
HETATM   43  C   UNL     1      -5.748   8.200  71.765  1.00  0.00    -0.036 C  
ENDBRANCH  40  42
ENDBRANCH   8  40
TORSDOF 9
ENDMDL
MODEL       86
REMARK 921   NORMALIZED FREE ENERGY PREDICTED BY IDOCK:   -3.88 KCAL/MOL
REMARK 922        TOTAL FREE ENERGY PREDICTED BY IDOCK:   -8.55 KCAL/MOL
REMARK 923 INTER-LIGAND FREE ENERGY PREDICTED BY IDOCK:   -6.47 KCAL/MOL
REMARK 924 INTRA-LIGAND FREE ENERGY PREDICTED BY IDOCK:   -2.09 KCAL/MOL
REMARK 927      BINDING AFFINITY PREDICTED BY RF-SCORE:    0.00 PKD
ROOT
HETATM    1  C   UNL     1      -6.002   7.117  67.391  1.00  0.00    -0.029 C  
HETATM    2  C   UNL     1      -7.176   6.190  67.718  1.00  0.00    -0.083 C  
HETATM    3  C   UNL     1      -8.411   6.258  66.747  1.00  0.00    -0.110 C  
HETATM    4  C   UNL     1      -6.342  12.928  69.279  1.00  0.00    -0.108 A  
HETATM    5  C   UNL     1      -7.870   5.532  65.520  1.00  0.00    -0.099 C  
HETATM    6  C   UNL     1      -6.120  13.835  70.339  1.00  0.00    -0.128 A  
HETATM    7  C   UNL     1      -6.056  15.212  70.073  1.00  0.00    -0.148 A  
HETATM    8  C   UNL     1      -6.763   6.506  64.946  1.00  0.00    -0.042 C  
HETATM    9  C   UNL     1      -6.208  15.676  68.777  1.00  0.00    -0.103 A  
HETATM   10  C   UNL     1      -6.417  14.790  67.703  1.00  0.00    -0.162 A  
HETATM   11  H   UNL     1      -6.774  12.374  66.129  1.00  0.00     0.000 HD 
HETATM   12  C   UNL     1      -6.148   7.681  65.963  1.00  0.00    -0.038 C  
HETATM   13  C   UNL     1      -6.479  13.409  67.984  1.00  0.00    -0.131 A  
HETATM   14  N   UNL     1      -6.686  12.321  67.144  1.00  0.00    -0.138 NA 
HETATM   15  C   UNL     1      -6.756  11.162  67.882  1.00  0.00    -0.063 A  
HETATM   16  C   UNL     1      -6.539  11.527  69.206  1.00  0.00    -0.113 A  
HETATM   17  C   UNL     1      -6.556   9.227  66.067  1.00  0.00    -0.072 C  
HETATM   18  C   UNL     1      -6.654  10.548  70.315  1.00  0.00    -0.138 C  
HETATM   19  C   UNL     1      -7.220   9.784  67.402  1.00  0.00    -0.086 C  
HETATM   20  C   UNL     1      -7.550   9.396  69.841  1.00  0.00    -0.109 C  
HETATM   21  C   UNL     1      -5.913   8.121  68.542  1.00  0.00    -0.041 C  
HETATM   22  N   UNL     1      -7.170   8.840  68.529  1.00  0.00    -0.073 NA 
ENDROOT
BRANCH   3  23
HETATM   23  O   UNL     1      -8.929   7.569  66.292  1.00  0.00    -0.159 OA 
BRANCH  23  24
HETATM   24  C   UNL     1     -10.187   7.872  66.757  1.00  0.00    -0.287 C  
HETATM   25  O   UNL     1     -11.058   7.023  66.926  1.00  0.00    -0.359 OA 
BRANCH  24  26
HETATM   26  C   UNL     1     -10.559   9.303  67.018  1.00  0.00    -0.263 A  
HETATM   27  C   UNL     1     -10.723  12.000  67.896  1.00  0.00    -0.210 A  
HETATM   28  C   UNL     1     -10.432  10.350  66.115  1.00  0.00    -0.224 A  
HETATM   29  C   UNL     1     -10.922   9.620  68.336  1.00  0.00    -0.161 A  
HETATM   30  C   UNL     1     -10.968  10.944  68.792  1.00  0.00    -0.237 A  
HETATM   31  C   UNL     1     -10.480  11.694  66.542  1.00  0.00    -0.239 A  
BRANCH  30  32
HETATM   32  O   UNL     1     -11.200  11.265  70.111  1.00  0.00    -0.224 OA 
HETATM   33  C   UNL     1     -11.475  10.161  70.974  1.00  0.00    -0.354 C  
ENDBRANCH  30  32
BRANCH  27  34
HETATM   34  O   UNL     1     -10.765  13.268  68.428  1.00  0.00    -0.242 OA 
HETATM   35  C   UNL     1     -11.999  13.972  68.305  1.00  0.00    -0.349 C  
ENDBRANCH  27  34
BRANCH  31  36
HETATM   36  O   UNL     1     -10.308  12.733  65.661  1.00  0.00    -0.271 OA 
HETATM   37  C   UNL     1     -10.662  12.465  64.307  1.00  0.00    -0.357 C  
ENDBRANCH  31  36
ENDBRANCH  24  26
ENDBRANCH  23  24
ENDBRANCH   3  23
BRANCH   5  38
HETATM   38  O   UNL     1      -7.371   4.255  65.967  1.00  0.00    -0.077 OA 
HETATM   39  C   UNL     1      -6.564   3.496  65.089  1.00  0.00    -0.040 C  
ENDBRANCH   5  38
BRANCH   8  40
HETATM   40  C   UNL     1      -7.248   6.934  63.575  1.00  0.00    -0.066 C  
HETATM   41  O   UNL     1      -6.745   6.587  62.519  1.00  0.00    -0.037 OA 
BRANCH  40  42
HETATM   42  O   UNL     1      -8.267   7.830  63.687  1.00  0.00    -0.093 OA 
HETATM   43  C   UNL     1      -8.286   9.000  62.856  1.00  0.00    -0.202 C  
ENDBRANCH  40  42
ENDBRANCH   8  40
TORSDOF 9
ENDMDL
MODEL       87
REMARK 921   NORMALIZED FREE ENERGY PREDICTED BY IDOCK:   -3.87 KCAL/MOL
REMARK 922        TOTAL FREE ENERGY PREDICTED BY IDOCK:   -8.54 KCAL/MOL
REMARK 923 INTER-LIGAND FREE ENERGY PREDICTED BY IDOCK:   -6.41 KCAL/MOL
REMARK 924 INTRA-LIGAND FREE ENERGY PREDICTED BY IDOCK:   -2.13 KCAL/MOL
REMARK 927      BINDING AFFINITY PREDICTED BY RF-SCORE:    0.00 PKD
ROOT
HETATM    1  C   UNL     1      -7.929   9.216  70.873  1.00  0.00    -0.192 C  
HETATM    2  C   UNL     1      -7.325   9.345  69.472  1.00  0.00    -0.073 C  
HETATM    3  C   UNL     1      -8.329   9.235  68.266  1.00  0.00    -0.120 C  
HETATM    4  C   UNL     1      -8.909   3.581  73.050  1.00  0.00    -0.099 A  
HETATM    5  C   UNL     1      -9.041  10.581  68.343  1.00  0.00    -0.148 C  
HETATM    6  C   UNL     1      -8.358   2.469  73.723  1.00  0.00    -0.063 A  
HETATM    7  C   UNL     1      -9.210   1.510  74.295  1.00  0.00    -0.071 A  
HETATM    8  C   UNL     1      -9.891  10.499  69.676  1.00  0.00    -0.117 C  
HETATM    9  C   UNL     1     -10.584   1.659  74.198  1.00  0.00    -0.179 A  
HETATM   10  C   UNL     1     -11.156   2.767  73.544  1.00  0.00    -0.315 A  
HETATM   11  H   UNL     1     -11.494   5.265  72.099  1.00  0.00     0.000 HD 
HETATM   12  C   UNL     1      -9.464   9.346  70.808  1.00  0.00    -0.307 C  
HETATM   13  C   UNL     1     -10.288   3.722  72.975  1.00  0.00    -0.167 A  
HETATM   14  N   UNL     1     -10.561   4.887  72.268  1.00  0.00    -0.207 NA 
HETATM   15  C   UNL     1      -9.388   5.457  71.827  1.00  0.00    -0.146 A  
HETATM   16  C   UNL     1      -8.359   4.658  72.312  1.00  0.00    -0.114 A  
HETATM   17  C   UNL     1     -10.108   7.899  71.054  1.00  0.00    -0.212 C  
HETATM   18  C   UNL     1      -6.942   4.900  71.941  1.00  0.00    -0.061 C  
HETATM   19  C   UNL     1      -9.234   6.591  70.810  1.00  0.00    -0.155 C  
HETATM   20  C   UNL     1      -6.923   5.679  70.619  1.00  0.00    -0.057 C  
HETATM   21  C   UNL     1      -7.353   7.932  71.472  1.00  0.00    -0.068 C  
HETATM   22  N   UNL     1      -7.802   6.862  70.606  1.00  0.00    -0.100 NA 
ENDROOT
BRANCH   3  23
HETATM   23  O   UNL     1      -9.371   8.183  68.260  1.00  0.00    -0.135 OA 
BRANCH  23  24
HETATM   24  C   UNL     1      -9.706   7.727  67.007  1.00  0.00    -0.197 C  
HETATM   25  O   UNL     1     -10.214   8.443  66.150  1.00  0.00    -0.131 OA 
BRANCH  24  26
HETATM   26  C   UNL     1      -9.509   6.277  66.666  1.00  0.00    -0.178 A  
HETATM   27  C   UNL     1      -8.499   3.678  66.124  1.00  0.00    -0.111 A  
HETATM   28  C   UNL     1      -9.852   5.202  67.474  1.00  0.00    -0.193 A  
HETATM   29  C   UNL     1      -8.782   6.007  65.497  1.00  0.00    -0.120 A  
HETATM   30  C   UNL     1      -8.245   4.740  65.237  1.00  0.00    -0.120 A  
HETATM   31  C   UNL     1      -9.333   3.912  67.235  1.00  0.00    -0.191 A  
BRANCH  30  32
HETATM   32  O   UNL     1      -7.425   4.491  64.158  1.00  0.00    -0.067 OA 
HETATM   33  C   UNL     1      -6.669   5.607  63.689  1.00  0.00    -0.037 C  
ENDBRANCH  30  32
BRANCH  27  34
HETATM   34  O   UNL     1      -7.916   2.473  65.808  1.00  0.00    -0.080 OA 
HETATM   35  C   UNL     1      -6.721   2.137  66.509  1.00  0.00    -0.039 C  
ENDBRANCH  27  34
BRANCH  31  36
HETATM   36  O   UNL     1      -9.630   2.855  68.059  1.00  0.00    -0.195 OA 
HETATM   37  C   UNL     1      -9.078   2.916  69.372  1.00  0.00    -0.132 C  
ENDBRANCH  31  36
ENDBRANCH  24  26
ENDBRANCH  23  24
ENDBRANCH   3  23
BRANCH   5  38
HETATM   38  O   UNL     1      -8.023  11.601  68.345  1.00  0.00    -0.128 OA 
HETATM   39  C   UNL     1      -8.417  12.955  68.245  1.00  0.00    -0.161 C  
ENDBRANCH   5  38
BRANCH   8  40
HETATM   40  C   UNL     1     -11.345  10.576  69.253  1.00  0.00    -0.262 C  
HETATM   41  O   UNL     1     -11.746  10.425  68.110  1.00  0.00    -0.363 OA 
BRANCH  40  42
HETATM   42  O   UNL     1     -12.132  10.926  70.307  1.00  0.00    -0.294 OA 
HETATM   43  C   UNL     1     -13.066   9.981  70.848  1.00  0.00    -0.308 C  
ENDBRANCH  40  42
ENDBRANCH   8  40
TORSDOF 9
ENDMDL
MODEL       88
REMARK 921   NORMALIZED FREE ENERGY PREDICTED BY IDOCK:   -3.86 KCAL/MOL
REMARK 922        TOTAL FREE ENERGY PREDICTED BY IDOCK:   -8.53 KCAL/MOL
REMARK 923 INTER-LIGAND FREE ENERGY PREDICTED BY IDOCK:   -6.19 KCAL/MOL
REMARK 924 INTRA-LIGAND FREE ENERGY PREDICTED BY IDOCK:   -2.34 KCAL/MOL
REMARK 927      BINDING AFFINITY PREDICTED BY RF-SCORE:    0.00 PKD
ROOT
HETATM    1  C   UNL     1      -6.733  10.247  69.483  1.00  0.00    -0.073 C  
HETATM    2  C   UNL     1      -6.264  10.147  68.028  1.00  0.00    -0.056 C  
HETATM    3  C   UNL     1      -7.368  10.333  66.924  1.00  0.00    -0.097 C  
HETATM    4  C   UNL     1      -9.203   5.262  72.033  1.00  0.00    -0.154 A  
HETATM    5  C   UNL     1      -7.612  11.837  66.992  1.00  0.00    -0.147 C  
HETATM    6  C   UNL     1      -8.963   4.048  72.713  1.00  0.00    -0.118 A  
HETATM    7  C   UNL     1     -10.010   3.422  73.408  1.00  0.00    -0.178 A  
HETATM    8  C   UNL     1      -8.306  12.058  68.397  1.00  0.00    -0.151 C  
HETATM    9  C   UNL     1     -11.271   3.996  73.426  1.00  0.00    -0.313 A  
HETATM   10  C   UNL     1     -11.530   5.212  72.767  1.00  0.00    -0.284 A  
HETATM   11  H   UNL     1     -11.213   7.656  71.227  1.00  0.00     0.000 HD 
HETATM   12  C   UNL     1      -8.149  10.855  69.547  1.00  0.00     0.086 C  
HETATM   13  C   UNL     1     -10.469   5.831  72.074  1.00  0.00    -0.218 A  
HETATM   14  N   UNL     1     -10.433   7.006  71.332  1.00  0.00    -0.209 NA 
HETATM   15  C   UNL     1      -9.192   7.166  70.761  1.00  0.00    -0.157 A  
HETATM   16  C   UNL     1      -8.421   6.093  71.193  1.00  0.00    -0.125 A  
HETATM   17  C   UNL     1      -9.185   9.692  69.926  1.00  0.00    -0.255 C  
HETATM   18  C   UNL     1      -7.045   5.865  70.686  1.00  0.00    -0.074 C  
HETATM   19  C   UNL     1      -8.794   8.170  69.675  1.00  0.00    -0.143 C  
HETATM   20  C   UNL     1      -6.916   6.568  69.328  1.00  0.00    -0.071 C  
HETATM   21  C   UNL     1      -6.531   8.860  70.096  1.00  0.00    -0.039 C  
HETATM   22  N   UNL     1      -7.377   7.969  69.331  1.00  0.00    -0.078 NA 
ENDROOT
BRANCH   3  23
HETATM   23  O   UNL     1      -8.683   9.666  67.066  1.00  0.00    -0.127 OA 
BRANCH  23  24
HETATM   24  C   UNL     1      -9.125   9.041  65.925  1.00  0.00    -0.212 C  
HETATM   25  O   UNL     1      -9.871   9.582  65.114  1.00  0.00    -0.248 OA 
BRANCH  24  26
HETATM   26  C   UNL     1      -8.746   7.611  65.664  1.00  0.00    -0.119 A  
HETATM   27  C   UNL     1      -8.670   4.846  65.017  1.00  0.00    -0.149 A  
HETATM   28  C   UNL     1      -7.992   7.156  64.591  1.00  0.00    -0.114 A  
HETATM   29  C   UNL     1      -9.335   6.650  66.500  1.00  0.00    -0.191 A  
HETATM   30  C   UNL     1      -9.339   5.288  66.173  1.00  0.00    -0.156 A  
HETATM   31  C   UNL     1      -7.970   5.790  64.240  1.00  0.00    -0.125 A  
BRANCH  30  32
HETATM   32  O   UNL     1     -10.019   4.350  66.917  1.00  0.00    -0.213 OA 
HETATM   33  C   UNL     1      -9.535   4.148  68.245  1.00  0.00    -0.154 C  
ENDBRANCH  30  32
BRANCH  27  34
HETATM   34  O   UNL     1      -8.741   3.498  64.755  1.00  0.00    -0.107 OA 
HETATM   35  C   UNL     1      -9.701   3.083  63.786  1.00  0.00    -0.136 C  
ENDBRANCH  27  34
BRANCH  31  36
HETATM   36  O   UNL     1      -7.265   5.341  63.150  1.00  0.00    -0.041 OA 
HETATM   37  C   UNL     1      -5.872   5.126  63.358  1.00  0.00    -0.017 C  
ENDBRANCH  31  36
ENDBRANCH  24  26
ENDBRANCH  23  24
ENDBRANCH   3  23
BRANCH   5  38
HETATM   38  O   UNL     1      -6.330  12.482  66.850  1.00  0.00    -0.176 OA 
HETATM   39  C   UNL     1      -6.047  13.613  67.650  1.00  0.00    -0.097 C  
ENDBRANCH   5  38
BRANCH   8  40
HETATM   40  C   UNL     1      -9.697  12.582  68.102  1.00  0.00    -0.222 C  
HETATM   41  O   UNL     1     -10.619  12.598  68.902  1.00  0.00    -0.212 OA 
BRANCH  40  42
HETATM   42  O   UNL     1      -9.803  12.952  66.796  1.00  0.00    -0.229 OA 
HETATM   43  C   UNL     1     -11.011  13.562  66.320  1.00  0.00    -0.289 C  
ENDBRANCH  40  42
ENDBRANCH   8  40
TORSDOF 9
ENDMDL
MODEL       89
REMARK 921   NORMALIZED FREE ENERGY PREDICTED BY IDOCK:   -3.78 KCAL/MOL
REMARK 922        TOTAL FREE ENERGY PREDICTED BY IDOCK:   -8.41 KCAL/MOL
REMARK 923 INTER-LIGAND FREE ENERGY PREDICTED BY IDOCK:   -6.43 KCAL/MOL
REMARK 924 INTRA-LIGAND FREE ENERGY PREDICTED BY IDOCK:   -1.98 KCAL/MOL
REMARK 927      BINDING AFFINITY PREDICTED BY RF-SCORE:    0.00 PKD
ROOT
HETATM    1  C   UNL     1      -8.162   9.238  71.020  1.00  0.00    -0.122 C  
HETATM    2  C   UNL     1      -7.512   9.373  69.640  1.00  0.00    -0.084 C  
HETATM    3  C   UNL     1      -8.468   9.220  68.401  1.00  0.00    -0.120 C  
HETATM    4  C   UNL     1      -9.044   3.595  73.219  1.00  0.00    -0.111 A  
HETATM    5  C   UNL     1      -9.224  10.543  68.438  1.00  0.00    -0.154 C  
HETATM    6  C   UNL     1      -8.484   2.507  73.923  1.00  0.00    -0.071 A  
HETATM    7  C   UNL     1      -9.326   1.527  74.474  1.00  0.00    -0.079 A  
HETATM    8  C   UNL     1     -10.119  10.446  69.740  1.00  0.00    -0.201 C  
HETATM    9  C   UNL     1     -10.699   1.632  74.328  1.00  0.00    -0.186 A  
HETATM   10  C   UNL     1     -11.280   2.715  73.642  1.00  0.00    -0.315 A  
HETATM   11  H   UNL     1     -11.644   5.188  72.160  1.00  0.00     0.000 HD 
HETATM   12  C   UNL     1      -9.697   9.319  70.899  1.00  0.00    -0.346 C  
HETATM   13  C   UNL     1     -10.423   3.692  73.094  1.00  0.00    -0.176 A  
HETATM   14  N   UNL     1     -10.706   4.841  72.365  1.00  0.00    -0.184 NA 
HETATM   15  C   UNL     1      -9.537   5.443  71.961  1.00  0.00    -0.155 A  
HETATM   16  C   UNL     1      -8.501   4.682  72.490  1.00  0.00    -0.115 A  
HETATM   17  C   UNL     1     -10.304   7.855  71.137  1.00  0.00    -0.225 C  
HETATM   18  C   UNL     1      -7.081   4.964  72.167  1.00  0.00    -0.074 C  
HETATM   19  C   UNL     1      -9.382   6.573  70.938  1.00  0.00    -0.161 C  
HETATM   20  C   UNL     1      -7.038   5.731  70.839  1.00  0.00    -0.071 C  
HETATM   21  C   UNL     1      -7.568   7.978  71.653  1.00  0.00    -0.083 C  
HETATM   22  N   UNL     1      -7.952   6.886  70.783  1.00  0.00    -0.104 NA 
ENDROOT
BRANCH   3  23
HETATM   23  O   UNL     1      -9.477   8.135  68.368  1.00  0.00    -0.141 OA 
BRANCH  23  24
HETATM   24  C   UNL     1      -9.726   7.633  67.113  1.00  0.00    -0.183 C  
HETATM   25  O   UNL     1     -10.548   8.129  66.348  1.00  0.00    -0.048 OA 
BRANCH  24  26
HETATM   26  C   UNL     1      -9.023   6.387  66.656  1.00  0.00    -0.145 A  
HETATM   27  C   UNL     1      -8.252   3.736  65.988  1.00  0.00    -0.101 A  
HETATM   28  C   UNL     1      -8.781   6.032  65.336  1.00  0.00    -0.090 A  
HETATM   29  C   UNL     1      -8.725   5.442  67.650  1.00  0.00    -0.106 A  
HETATM   30  C   UNL     1      -8.382   4.122  67.335  1.00  0.00    -0.099 A  
HETATM   31  C   UNL     1      -8.428   4.712  64.987  1.00  0.00    -0.133 A  
BRANCH  30  32
HETATM   32  O   UNL     1      -8.209   3.152  68.298  1.00  0.00    -0.071 OA 
HETATM   33  C   UNL     1      -9.409   2.607  68.845  1.00  0.00    -0.155 C  
ENDBRANCH  30  32
BRANCH  27  34
HETATM   34  O   UNL     1      -7.935   2.416  65.764  1.00  0.00    -0.080 OA 
HETATM   35  C   UNL     1      -8.973   1.589  65.243  1.00  0.00    -0.124 C  
ENDBRANCH  27  34
BRANCH  31  36
HETATM   36  O   UNL     1      -8.234   4.343  63.679  1.00  0.00    -0.090 OA 
HETATM   37  C   UNL     1      -8.409   5.374  62.711  1.00  0.00    -0.109 C  
ENDBRANCH  31  36
ENDBRANCH  24  26
ENDBRANCH  23  24
ENDBRANCH   3  23
BRANCH   5  38
HETATM   38  O   UNL     1      -8.239  11.595  68.466  1.00  0.00    -0.149 OA 
HETATM   39  C   UNL     1      -7.875  12.217  67.249  1.00  0.00    -0.171 C  
ENDBRANCH   5  38
BRANCH   8  40
HETATM   40  C   UNL     1     -11.558  10.475  69.265  1.00  0.00    -0.236 C  
HETATM   41  O   UNL     1     -11.904  10.614  68.103  1.00  0.00    -0.482 OA 
BRANCH  40  42
HETATM   42  O   UNL     1     -12.413  10.413  70.323  1.00  0.00    -0.282 OA 
HETATM   43  C   UNL     1     -12.525  11.528  71.219  1.00  0.00    -0.293 C  
ENDBRANCH  40  42
ENDBRANCH   8  40
TORSDOF 9
ENDMDL
MODEL       90
REMARK 921   NORMALIZED FREE ENERGY PREDICTED BY IDOCK:   -3.76 KCAL/MOL
REMARK 922        TOTAL FREE ENERGY PREDICTED BY IDOCK:   -8.37 KCAL/MOL
REMARK 923 INTER-LIGAND FREE ENERGY PREDICTED BY IDOCK:   -6.83 KCAL/MOL
REMARK 924 INTRA-LIGAND FREE ENERGY PREDICTED BY IDOCK:   -1.55 KCAL/MOL
REMARK 927      BINDING AFFINITY PREDICTED BY RF-SCORE:    0.00 PKD
ROOT
HETATM    1  C   UNL     1      -8.203  14.366  67.124  1.00  0.00    -0.202 C  
HETATM    2  C   UNL     1      -9.361  14.389  66.122  1.00  0.00    -0.221 C  
HETATM    3  C   UNL     1     -10.809  14.300  66.728  1.00  0.00    -0.298 C  
HETATM    4  C   UNL     1      -6.311   8.918  69.172  1.00  0.00    -0.043 A  
HETATM    5  C   UNL     1     -10.976  15.697  67.316  1.00  0.00    -0.275 C  
HETATM    6  C   UNL     1      -5.482   7.799  68.941  1.00  0.00    -0.026 A  
HETATM    7  C   UNL     1      -5.173   6.931  70.002  1.00  0.00    -0.015 A  
HETATM    8  C   UNL     1      -9.959  15.736  68.528  1.00  0.00    -0.208 C  
HETATM    9  C   UNL     1      -5.680   7.177  71.267  1.00  0.00    -0.035 A  
HETATM   10  C   UNL     1      -6.497   8.294  71.524  1.00  0.00    -0.049 A  
HETATM   11  H   UNL     1      -8.025  10.744  71.208  1.00  0.00     0.000 HD 
HETATM   12  C   UNL     1      -8.728  14.606  68.554  1.00  0.00    -0.176 C  
HETATM   13  C   UNL     1      -6.798   9.156  70.450  1.00  0.00    -0.062 A  
HETATM   14  N   UNL     1      -7.577  10.307  70.402  1.00  0.00    -0.177 NA 
HETATM   15  C   UNL     1      -7.657  10.769  69.109  1.00  0.00    -0.133 A  
HETATM   16  C   UNL     1      -6.871   9.919  68.340  1.00  0.00    -0.063 A  
HETATM   17  C   UNL     1      -8.658  13.222  69.360  1.00  0.00     1.068 C  
HETATM   18  C   UNL     1      -6.804  10.039  66.862  1.00  0.00    -0.087 C  
HETATM   19  C   UNL     1      -8.603  11.844  68.565  1.00  0.00    -0.110 C  
HETATM   20  C   UNL     1      -8.075  10.756  66.386  1.00  0.00    -0.153 C  
HETATM   21  C   UNL     1      -7.434  13.070  66.862  1.00  0.00     0.321 C  
HETATM   22  N   UNL     1      -8.373  12.000  67.120  1.00  0.00    -0.175 NA 
ENDROOT
BRANCH   3  23
HETATM   23  O   UNL     1     -11.108  13.329  67.805  1.00  0.00    -0.250 OA 
BRANCH  23  24
HETATM   24  C   UNL     1     -11.651  12.146  67.365  1.00  0.00    -0.340 C  
HETATM   25  O   UNL     1     -12.209  12.032  66.277  1.00  0.00    -0.548 OA 
BRANCH  24  26
HETATM   26  C   UNL     1     -11.631  10.939  68.258  1.00  0.00    -0.335 A  
HETATM   27  C   UNL     1     -10.936   8.748  69.929  1.00  0.00    -0.179 A  
HETATM   28  C   UNL     1     -12.028  10.909  69.588  1.00  0.00    -0.414 A  
HETATM   29  C   UNL     1     -11.017   9.789  67.737  1.00  0.00    -0.242 A  
HETATM   30  C   UNL     1     -10.634   8.720  68.556  1.00  0.00    -0.129 A  
HETATM   31  C   UNL     1     -11.663   9.843  70.437  1.00  0.00    -0.258 A  
BRANCH  30  32
HETATM   32  O   UNL     1      -9.920   7.642  68.080  1.00  0.00    -0.162 OA 
HETATM   33  C   UNL     1     -10.651   6.735  67.255  1.00  0.00    -0.320 C  
ENDBRANCH  30  32
BRANCH  27  34
HETATM   34  O   UNL     1     -10.506   7.670  70.666  1.00  0.00    -0.212 OA 
HETATM   35  C   UNL     1     -11.500   6.728  71.062  1.00  0.00    -0.324 C  
ENDBRANCH  27  34
BRANCH  31  36
HETATM   36  O   UNL     1     -12.012   9.832  71.765  1.00  0.00    -0.392 OA 
HETATM   37  C   UNL     1     -13.182  10.570  72.106  1.00  0.00    -0.293 C  
ENDBRANCH  31  36
ENDBRANCH  24  26
ENDBRANCH  23  24
ENDBRANCH   3  23
BRANCH   5  38
HETATM   38  O   UNL     1     -10.689  16.639  66.263  1.00  0.00    -0.240 OA 
HETATM   39  C   UNL     1     -10.553  18.007  66.594  1.00  0.00    -0.258 C  
ENDBRANCH   5  38
BRANCH   8  40
HETATM   40  C   UNL     1     -10.799  15.902  69.779  1.00  0.00    -0.328 C  
HETATM   41  O   UNL     1     -11.277  16.958  70.160  1.00  0.00    -0.032 OA 
BRANCH  40  42
HETATM   42  O   UNL     1     -10.874  14.728  70.465  1.00  0.00    -0.104 OA 
HETATM   43  C   UNL     1     -12.143  14.255  70.938  1.00  0.00    -0.347 C  
ENDBRANCH  40  42
ENDBRANCH   8  40
TORSDOF 9
ENDMDL
MODEL       91
REMARK 921   NORMALIZED FREE ENERGY PREDICTED BY IDOCK:   -3.76 KCAL/MOL
REMARK 922        TOTAL FREE ENERGY PREDICTED BY IDOCK:   -8.37 KCAL/MOL
REMARK 923 INTER-LIGAND FREE ENERGY PREDICTED BY IDOCK:   -6.91 KCAL/MOL
REMARK 924 INTRA-LIGAND FREE ENERGY PREDICTED BY IDOCK:   -1.46 KCAL/MOL
REMARK 927      BINDING AFFINITY PREDICTED BY RF-SCORE:    0.00 PKD
ROOT
HETATM    1  C   UNL     1     -10.167   7.563  66.746  1.00  0.00    -0.324 C  
HETATM    2  C   UNL     1     -10.462   9.060  66.623  1.00  0.00    -0.235 C  
HETATM    3  C   UNL     1      -9.258  10.034  66.895  1.00  0.00    -0.147 C  
HETATM    4  C   UNL     1     -10.271   5.084  72.340  1.00  0.00    -0.254 A  
HETATM    5  C   UNL     1      -8.430   9.850  65.628  1.00  0.00    -0.144 C  
HETATM    6  C   UNL     1     -11.064   4.507  73.356  1.00  0.00    -0.408 A  
HETATM    7  C   UNL     1     -10.454   3.749  74.369  1.00  0.00    -0.262 A  
HETATM    8  C   UNL     1      -7.875   8.372  65.733  1.00  0.00    -0.101 C  
HETATM    9  C   UNL     1      -9.081   3.569  74.368  1.00  0.00    -0.099 A  
HETATM   10  C   UNL     1      -8.272   4.124  73.358  1.00  0.00    -0.090 A  
HETATM   11  H   UNL     1      -7.378   5.536  70.982  1.00  0.00     0.000 HD 
HETATM   12  C   UNL     1      -8.644   7.319  66.779  1.00  0.00    -0.127 C  
HETATM   13  C   UNL     1      -8.897   4.882  72.347  1.00  0.00    -0.123 A  
HETATM   14  N   UNL     1      -8.362   5.550  71.252  1.00  0.00    -0.124 NA 
HETATM   15  C   UNL     1      -9.353   6.233  70.586  1.00  0.00    -0.162 A  
HETATM   16  C   UNL     1     -10.540   5.946  71.249  1.00  0.00    -0.311 A  
HETATM   17  C   UNL     1      -8.227   6.909  68.271  1.00  0.00    -0.123 C  
HETATM   18  C   UNL     1     -11.819   6.602  70.880  1.00  0.00    -0.434 C  
HETATM   19  C   UNL     1      -9.175   7.290  69.492  1.00  0.00    -0.149 C  
HETATM   20  C   UNL     1     -11.489   7.921  70.168  1.00  0.00    -0.017 C  
HETATM   21  C   UNL     1     -10.989   7.058  67.933  1.00  0.00    -0.130 C  
HETATM   22  N   UNL     1     -10.499   7.787  69.084  1.00  0.00    -0.219 NA 
ENDROOT
BRANCH   3  23
HETATM   23  O   UNL     1      -8.359   9.802  68.048  1.00  0.00    -0.110 OA 
BRANCH  23  24
HETATM   24  C   UNL     1      -7.666  10.916  68.458  1.00  0.00    -0.119 C  
HETATM   25  O   UNL     1      -6.644  10.854  69.136  1.00  0.00    -0.055 OA 
BRANCH  24  26
HETATM   26  C   UNL     1      -8.194  12.283  68.131  1.00  0.00    -0.168 A  
HETATM   27  C   UNL     1      -9.076  14.984  68.154  1.00  0.00    -0.178 A  
HETATM   28  C   UNL     1      -7.532  13.250  67.387  1.00  0.00    -0.134 A  
HETATM   29  C   UNL     1      -9.392  12.654  68.762  1.00  0.00     0.132 A  
HETATM   30  C   UNL     1      -9.818  13.987  68.814  1.00  0.00    -0.139 A  
HETATM   31  C   UNL     1      -7.940  14.600  67.414  1.00  0.00    -0.201 A  
BRANCH  30  32
HETATM   32  O   UNL     1     -10.923  14.383  69.535  1.00  0.00    -0.246 OA 
HETATM   33  C   UNL     1     -12.164  13.812  69.122  1.00  0.00    -0.250 C  
ENDBRANCH  30  32
BRANCH  27  34
HETATM   34  O   UNL     1      -9.549  16.270  68.273  1.00  0.00    -0.212 OA 
HETATM   35  C   UNL     1     -10.420  16.729  67.243  1.00  0.00    -0.310 C  
ENDBRANCH  27  34
BRANCH  31  36
HETATM   36  O   UNL     1      -7.260  15.569  66.718  1.00  0.00    -0.165 OA 
HETATM   37  C   UNL     1      -6.072  16.059  67.335  1.00  0.00    -0.139 C  
ENDBRANCH  31  36
ENDBRANCH  24  26
ENDBRANCH  23  24
ENDBRANCH   3  23
BRANCH   5  38
HETATM   38  O   UNL     1      -9.309  10.082  64.508  1.00  0.00    -0.248 OA 
HETATM   39  C   UNL     1      -8.964   9.537  63.250  1.00  0.00    -0.182 C  
ENDBRANCH   5  38
BRANCH   8  40
HETATM   40  C   UNL     1      -6.367   8.493  65.827  1.00  0.00    -0.052 C  
HETATM   41  O   UNL     1      -5.734   8.495  66.870  1.00  0.00    -0.040 OA 
BRANCH  40  42
HETATM   42  O   UNL     1      -5.825   8.689  64.594  1.00  0.00    -0.061 OA 
HETATM   43  C   UNL     1      -5.819   7.622  63.636  1.00  0.00    -0.049 C  
ENDBRANCH  40  42
ENDBRANCH   8  40
TORSDOF 9
ENDMDL
MODEL       92
REMARK 921   NORMALIZED FREE ENERGY PREDICTED BY IDOCK:   -3.76 KCAL/MOL
REMARK 922        TOTAL FREE ENERGY PREDICTED BY IDOCK:   -8.37 KCAL/MOL
REMARK 923 INTER-LIGAND FREE ENERGY PREDICTED BY IDOCK:   -6.95 KCAL/MOL
REMARK 924 INTRA-LIGAND FREE ENERGY PREDICTED BY IDOCK:   -1.41 KCAL/MOL
REMARK 927      BINDING AFFINITY PREDICTED BY RF-SCORE:    0.00 PKD
ROOT
HETATM    1  C   UNL     1      -5.789  11.076  68.318  1.00  0.00    -0.046 C  
HETATM    2  C   UNL     1      -6.369  10.290  69.497  1.00  0.00    -0.055 C  
HETATM    3  C   UNL     1      -7.862   9.818  69.353  1.00  0.00    -0.114 C  
HETATM    4  C   UNL     1      -6.978  17.072  68.023  1.00  0.00    -0.170 A  
HETATM    5  C   UNL     1      -7.722   8.676  68.353  1.00  0.00    -0.100 C  
HETATM    6  C   UNL     1      -6.597  18.368  68.435  1.00  0.00    -0.227 A  
HETATM    7  C   UNL     1      -7.066  19.488  67.730  1.00  0.00    -0.286 A  
HETATM    8  C   UNL     1      -7.319   9.389  66.998  1.00  0.00    -0.087 C  
HETATM    9  C   UNL     1      -7.897  19.319  66.635  1.00  0.00    -0.284 A  
HETATM   10  C   UNL     1      -8.280  18.037  66.199  1.00  0.00    -0.180 A  
HETATM   11  H   UNL     1      -8.553  15.154  65.960  1.00  0.00     0.000 HD 
HETATM   12  C   UNL     1      -6.702  10.940  67.082  1.00  0.00    -0.088 C  
HETATM   13  C   UNL     1      -7.801  16.921  66.916  1.00  0.00    -0.217 A  
HETATM   14  N   UNL     1      -8.020  15.561  66.729  1.00  0.00    -0.224 NA 
HETATM   15  C   UNL     1      -7.415  14.843  67.735  1.00  0.00    -0.163 A  
HETATM   16  C   UNL     1      -6.761  15.770  68.539  1.00  0.00    -0.119 A  
HETATM   17  C   UNL     1      -7.462  12.332  66.856  1.00  0.00     0.013 C  
HETATM   18  C   UNL     1      -6.086  15.373  69.799  1.00  0.00    -0.147 C  
HETATM   19  C   UNL     1      -7.610  13.360  68.062  1.00  0.00    -0.143 C  
HETATM   20  C   UNL     1      -6.712  14.057  70.280  1.00  0.00     0.138 C  
HETATM   21  C   UNL     1      -5.510  12.488  68.838  1.00  0.00    -0.062 C  
HETATM   22  N   UNL     1      -6.796  13.017  69.239  1.00  0.00    -0.066 NA 
ENDROOT
BRANCH   3  23
HETATM   23  O   UNL     1      -8.889  10.744  68.824  1.00  0.00    -0.151 OA 
BRANCH  23  24
HETATM   24  C   UNL     1     -10.094  10.688  69.483  1.00  0.00    -0.132 C  
HETATM   25  O   UNL     1     -10.849  11.652  69.577  1.00  0.00    -0.160 OA 
BRANCH  24  26
HETATM   26  C   UNL     1     -10.502   9.423  70.182  1.00  0.00    -0.280 A  
HETATM   27  C   UNL     1     -10.740   6.781  71.199  1.00  0.00    -0.229 A  
HETATM   28  C   UNL     1     -10.385   9.176  71.543  1.00  0.00    -0.414 A  
HETATM   29  C   UNL     1     -10.893   8.356  69.357  1.00  0.00    -0.094 A  
HETATM   30  C   UNL     1     -10.976   7.043  69.837  1.00  0.00    -0.263 A  
HETATM   31  C   UNL     1     -10.470   7.865  72.058  1.00  0.00    -0.231 A  
BRANCH  30  32
HETATM   32  O   UNL     1     -11.235   5.969  69.015  1.00  0.00    -0.367 OA 
HETATM   33  C   UNL     1     -10.831   6.124  67.654  1.00  0.00    -0.332 C  
ENDBRANCH  30  32
BRANCH  27  34
HETATM   34  O   UNL     1     -10.819   5.463  71.585  1.00  0.00    -0.229 OA 
HETATM   35  C   UNL     1      -9.590   4.745  71.666  1.00  0.00    -0.158 C  
ENDBRANCH  27  34
BRANCH  31  36
HETATM   36  O   UNL     1     -10.307   7.609  73.397  1.00  0.00    -0.341 OA 
HETATM   37  C   UNL     1      -8.975   7.715  73.892  1.00  0.00    -0.267 C  
ENDBRANCH  31  36
ENDBRANCH  24  26
ENDBRANCH  23  24
ENDBRANCH   3  23
BRANCH   5  38
HETATM   38  O   UNL     1      -6.724   7.774  68.874  1.00  0.00    -0.047 OA 
HETATM   39  C   UNL     1      -6.543   6.522  68.242  1.00  0.00    -0.059 C  
ENDBRANCH   5  38
BRANCH   8  40
HETATM   40  C   UNL     1      -8.456   9.127  66.031  1.00  0.00    -0.131 C  
HETATM   41  O   UNL     1      -9.639   9.278  66.291  1.00  0.00    -0.205 OA 
BRANCH  40  42
HETATM   42  O   UNL     1      -7.982   8.617  64.861  1.00  0.00    -0.121 OA 
HETATM   43  C   UNL     1      -8.011   7.200  64.634  1.00  0.00    -0.114 C  
ENDBRANCH  40  42
ENDBRANCH   8  40
TORSDOF 9
ENDMDL
MODEL       93
REMARK 921   NORMALIZED FREE ENERGY PREDICTED BY IDOCK:   -3.74 KCAL/MOL
REMARK 922        TOTAL FREE ENERGY PREDICTED BY IDOCK:   -8.34 KCAL/MOL
REMARK 923 INTER-LIGAND FREE ENERGY PREDICTED BY IDOCK:   -7.71 KCAL/MOL
REMARK 924 INTRA-LIGAND FREE ENERGY PREDICTED BY IDOCK:   -0.63 KCAL/MOL
REMARK 927      BINDING AFFINITY PREDICTED BY RF-SCORE:    0.00 PKD
ROOT
HETATM    1  C   UNL     1      -6.474   7.024  66.707  1.00  0.00    -0.051 C  
HETATM    2  C   UNL     1      -7.201   7.219  65.373  1.00  0.00    -0.066 C  
HETATM    3  C   UNL     1      -7.839   8.635  65.127  1.00  0.00    -0.110 C  
HETATM    4  C   UNL     1      -9.850   5.637  71.619  1.00  0.00    -0.213 A  
HETATM    5  C   UNL     1      -6.601   9.480  64.849  1.00  0.00    -0.086 C  
HETATM    6  C   UNL     1     -10.467   4.614  72.371  1.00  0.00    -0.250 A  
HETATM    7  C   UNL     1     -10.854   4.861  73.698  1.00  0.00    -0.374 A  
HETATM    8  C   UNL     1      -5.845   9.537  66.239  1.00  0.00    -0.058 C  
HETATM    9  C   UNL     1     -10.629   6.106  74.264  1.00  0.00    -0.081 A  
HETATM   10  C   UNL     1     -10.004   7.137  73.538  1.00  0.00    -0.344 A  
HETATM   11  H   UNL     1      -8.684   8.641  71.432  1.00  0.00     0.000 HD 
HETATM   12  C   UNL     1      -6.230   8.387  67.388  1.00  0.00    -0.056 C  
HETATM   13  C   UNL     1      -9.620   6.874  72.207  1.00  0.00    -0.146 A  
HETATM   14  N   UNL     1      -9.009   7.689  71.261  1.00  0.00    -0.133 NA 
HETATM   15  C   UNL     1      -8.908   7.025  70.061  1.00  0.00    -0.142 A  
HETATM   16  C   UNL     1      -9.421   5.751  70.274  1.00  0.00    -0.196 A  
HETATM   17  C   UNL     1      -7.224   8.515  68.638  1.00  0.00    -0.080 C  
HETATM   18  C   UNL     1      -9.582   4.778  69.165  1.00  0.00    -0.237 C  
HETATM   19  C   UNL     1      -8.540   7.622  68.700  1.00  0.00    -0.129 C  
HETATM   20  C   UNL     1      -9.661   5.565  67.850  1.00  0.00    -0.124 C  
HETATM   21  C   UNL     1      -7.276   5.979  67.485  1.00  0.00    -0.076 C  
HETATM   22  N   UNL     1      -8.587   6.561  67.681  1.00  0.00    -0.117 NA 
ENDROOT
BRANCH   3  23
HETATM   23  O   UNL     1      -8.599   9.307  66.206  1.00  0.00    -0.123 OA 
BRANCH  23  24
HETATM   24  C   UNL     1      -9.657  10.065  65.765  1.00  0.00    -0.231 C  
HETATM   25  O   UNL     1     -10.138   9.949  64.641  1.00  0.00    -0.191 OA 
BRANCH  24  26
HETATM   26  C   UNL     1     -10.230  11.133  66.653  1.00  0.00    -0.274 A  
HETATM   27  C   UNL     1     -11.761  13.206  67.846  1.00  0.00    -0.357 A  
HETATM   28  C   UNL     1     -10.904  10.917  67.847  1.00  0.00    -0.295 A  
HETATM   29  C   UNL     1     -10.206  12.441  66.146  1.00  0.00    -0.262 A  
HETATM   30  C   UNL     1     -10.986  13.463  66.701  1.00  0.00    -0.287 A  
HETATM   31  C   UNL     1     -11.693  11.928  68.434  1.00  0.00    -0.326 A  
BRANCH  30  32
HETATM   32  O   UNL     1     -11.070  14.718  66.140  1.00  0.00    -0.330 OA 
HETATM   33  C   UNL     1     -11.551  14.762  64.797  1.00  0.00    -0.418 C  
ENDBRANCH  30  32
BRANCH  27  34
HETATM   34  O   UNL     1     -12.516  14.256  68.315  1.00  0.00    -0.098 OA 
HETATM   35  C   UNL     1     -11.804  15.419  68.733  1.00  0.00    -0.318 C  
ENDBRANCH  27  34
BRANCH  31  36
HETATM   36  O   UNL     1     -12.400  11.705  69.590  1.00  0.00    -0.216 OA 
HETATM   37  C   UNL     1     -12.045  12.521  70.703  1.00  0.00    -0.221 C  
ENDBRANCH  31  36
ENDBRANCH  24  26
ENDBRANCH  23  24
ENDBRANCH   3  23
BRANCH   5  38
HETATM   38  O   UNL     1      -5.866   8.824  63.795  1.00  0.00    -0.070 OA 
HETATM   39  C   UNL     1      -5.208   9.619  62.830  1.00  0.00    -0.082 C  
ENDBRANCH   5  38
BRANCH   8  40
HETATM   40  C   UNL     1      -5.849  10.993  66.661  1.00  0.00    -0.113 C  
HETATM   41  O   UNL     1      -5.230  11.882  66.098  1.00  0.00    -0.294 OA 
BRANCH  40  42
HETATM   42  O   UNL     1      -6.567  11.158  67.805  1.00  0.00    -0.061 OA 
HETATM   43  C   UNL     1      -6.671  12.458  68.404  1.00  0.00    -0.069 C  
ENDBRANCH  40  42
ENDBRANCH   8  40
TORSDOF 9
ENDMDL
MODEL       94
REMARK 921   NORMALIZED FREE ENERGY PREDICTED BY IDOCK:   -3.73 KCAL/MOL
REMARK 922        TOTAL FREE ENERGY PREDICTED BY IDOCK:   -8.33 KCAL/MOL
REMARK 923 INTER-LIGAND FREE ENERGY PREDICTED BY IDOCK:   -7.36 KCAL/MOL
REMARK 924 INTRA-LIGAND FREE ENERGY PREDICTED BY IDOCK:   -0.97 KCAL/MOL
REMARK 927      BINDING AFFINITY PREDICTED BY RF-SCORE:    0.00 PKD
ROOT
HETATM    1  C   UNL     1      -8.202  12.349  66.042  1.00  0.00     0.764 C  
HETATM    2  C   UNL     1      -9.612  12.667  65.534  1.00  0.00    -0.026 C  
HETATM    3  C   UNL     1     -10.597  13.320  66.571  1.00  0.00    -0.286 C  
HETATM    4  C   UNL     1      -7.390   7.124  69.122  1.00  0.00    -0.092 A  
HETATM    5  C   UNL     1     -10.049  14.740  66.655  1.00  0.00    -0.264 C  
HETATM    6  C   UNL     1      -7.138   5.737  69.038  1.00  0.00    -0.069 A  
HETATM    7  C   UNL     1      -6.680   5.044  70.171  1.00  0.00    -0.037 A  
HETATM    8  C   UNL     1      -8.647  14.578  67.372  1.00  0.00    -0.213 C  
HETATM    9  C   UNL     1      -6.478   5.721  71.362  1.00  0.00    -0.045 A  
HETATM   10  C   UNL     1      -6.711   7.105  71.466  1.00  0.00    -0.051 A  
HETATM   11  H   UNL     1      -7.383   9.860  70.834  1.00  0.00     0.000 HD 
HETATM   12  C   UNL     1      -7.945  13.061  67.386  1.00  0.00    -0.173 C  
HETATM   13  C   UNL     1      -7.169   7.788  70.320  1.00  0.00    -0.062 A  
HETATM   14  N   UNL     1      -7.492   9.127  70.132  1.00  0.00    -0.070 NA 
HETATM   15  C   UNL     1      -7.983   9.320  68.861  1.00  0.00    -0.098 A  
HETATM   16  C   UNL     1      -7.918   8.086  68.226  1.00  0.00    -0.128 A  
HETATM   17  C   UNL     1      -7.961  11.963  68.553  1.00  0.00    -0.137 C  
HETATM   18  C   UNL     1      -8.473   7.877  66.865  1.00  0.00    -0.128 C  
HETATM   19  C   UNL     1      -8.688  10.566  68.319  1.00  0.00    -0.135 C  
HETATM   20  C   UNL     1      -9.532   8.959  66.612  1.00  0.00    -0.202 C  
HETATM   21  C   UNL     1      -8.068  10.826  66.012  1.00  0.00    -0.158 C  
HETATM   22  N   UNL     1      -9.079  10.327  66.920  1.00  0.00    -0.142 NA 
ENDROOT
BRANCH   3  23
HETATM   23  O   UNL     1     -10.677  12.796  67.954  1.00  0.00    -0.211 OA 
BRANCH  23  24
HETATM   24  C   UNL     1     -11.567  11.760  68.115  1.00  0.00    -0.323 C  
HETATM   25  O   UNL     1     -12.276  11.343  67.204  1.00  0.00    -0.140 OA 
BRANCH  24  26
HETATM   26  C   UNL     1     -11.745  11.136  69.469  1.00  0.00    -0.405 A  
HETATM   27  C   UNL     1     -12.720   9.936  71.853  1.00  0.00    -0.409 A  
HETATM   28  C   UNL     1     -11.354   9.853  69.827  1.00  0.00    -0.241 A  
HETATM   29  C   UNL     1     -12.505  11.867  70.395  1.00  0.00    -0.252 A  
HETATM   30  C   UNL     1     -13.025  11.277  71.555  1.00  0.00    -0.415 A  
HETATM   31  C   UNL     1     -11.855   9.233  70.991  1.00  0.00    -0.307 A  
BRANCH  30  32
HETATM   32  O   UNL     1     -13.875  11.945  72.408  1.00  0.00    -0.076 OA 
HETATM   33  C   UNL     1     -13.830  13.370  72.330  1.00  0.00    -0.564 C  
ENDBRANCH  30  32
BRANCH  27  34
HETATM   34  O   UNL     1     -13.288   9.426  72.997  1.00  0.00    -0.138 OA 
HETATM   35  C   UNL     1     -14.348   8.488  72.822  1.00  0.00     0.042 C  
ENDBRANCH  27  34
BRANCH  31  36
HETATM   36  O   UNL     1     -11.510   7.946  71.324  1.00  0.00    -0.256 OA 
HETATM   37  C   UNL     1     -11.640   6.980  70.285  1.00  0.00    -0.262 C  
ENDBRANCH  31  36
ENDBRANCH  24  26
ENDBRANCH  23  24
ENDBRANCH   3  23
BRANCH   5  38
HETATM   38  O   UNL     1      -9.976  15.248  65.307  1.00  0.00    -0.337 OA 
HETATM   39  C   UNL     1     -11.168  15.673  64.677  1.00  0.00    -0.369 C  
ENDBRANCH   5  38
BRANCH   8  40
HETATM   40  C   UNL     1      -8.758  15.323  68.687  1.00  0.00    -0.182 C  
HETATM   41  O   UNL     1      -8.023  15.152  69.647  1.00  0.00    -0.218 OA 
BRANCH  40  42
HETATM   42  O   UNL     1      -9.843  16.145  68.682  1.00  0.00    -0.212 OA 
HETATM   43  C   UNL     1     -10.781  16.098  69.767  1.00  0.00    -0.336 C  
ENDBRANCH  40  42
ENDBRANCH   8  40
TORSDOF 9
ENDMDL
MODEL       95
REMARK 921   NORMALIZED FREE ENERGY PREDICTED BY IDOCK:   -3.73 KCAL/MOL
REMARK 922        TOTAL FREE ENERGY PREDICTED BY IDOCK:   -8.32 KCAL/MOL
REMARK 923 INTER-LIGAND FREE ENERGY PREDICTED BY IDOCK:   -6.56 KCAL/MOL
REMARK 924 INTRA-LIGAND FREE ENERGY PREDICTED BY IDOCK:   -1.77 KCAL/MOL
REMARK 927      BINDING AFFINITY PREDICTED BY RF-SCORE:    0.00 PKD
ROOT
HETATM    1  C   UNL     1      -8.975   6.809  66.965  1.00  0.00    -0.118 C  
HETATM    2  C   UNL     1      -7.462   6.583  66.885  1.00  0.00    -0.084 C  
HETATM    3  C   UNL     1      -6.602   7.204  68.045  1.00  0.00    -0.049 C  
HETATM    4  C   UNL     1     -11.181  12.122  64.878  1.00  0.00    -0.374 A  
HETATM    5  C   UNL     1      -6.922   6.260  69.197  1.00  0.00    -0.068 C  
HETATM    6  C   UNL     1     -11.630  12.848  63.754  1.00  0.00    -0.538 A  
HETATM    7  C   UNL     1     -12.400  14.009  63.937  1.00  0.00    -0.280 A  
HETATM    8  C   UNL     1      -8.443   6.549  69.530  1.00  0.00    -0.131 C  
HETATM    9  C   UNL     1     -12.715  14.436  65.216  1.00  0.00    -0.277 A  
HETATM   10  C   UNL     1     -12.289  13.721  66.352  1.00  0.00    -0.460 A  
HETATM   11  H   UNL     1     -11.079  11.724  68.080  1.00  0.00     0.000 HD 
HETATM   12  C   UNL     1      -9.366   7.316  68.368  1.00  0.00    -0.143 C  
HETATM   13  C   UNL     1     -11.518  12.558  66.153  1.00  0.00    -0.377 A  
HETATM   14  N   UNL     1     -10.955  11.675  67.068  1.00  0.00    -0.273 NA 
HETATM   15  C   UNL     1     -10.207  10.727  66.410  1.00  0.00    -0.240 A  
HETATM   16  C   UNL     1     -10.345  10.992  65.052  1.00  0.00    -0.360 A  
HETATM   17  C   UNL     1      -9.749   8.868  68.258  1.00  0.00    -0.174 C  
HETATM   18  C   UNL     1      -9.582  10.237  64.027  1.00  0.00    -0.365 C  
HETATM   19  C   UNL     1      -9.222   9.730  67.028  1.00  0.00    -0.142 C  
HETATM   20  C   UNL     1      -8.335   9.648  64.701  1.00  0.00    -0.158 C  
HETATM   21  C   UNL     1      -9.342   7.688  65.768  1.00  0.00     0.161 C  
HETATM   22  N   UNL     1      -8.615   8.926  65.956  1.00  0.00    -0.137 NA 
ENDROOT
BRANCH   3  23
HETATM   23  O   UNL     1      -6.871   8.583  68.516  1.00  0.00    -0.062 OA 
BRANCH  23  24
HETATM   24  C   UNL     1      -6.026   9.533  67.994  1.00  0.00    -0.048 C  
HETATM   25  O   UNL     1      -5.362   9.350  66.978  1.00  0.00    -0.038 OA 
BRANCH  24  26
HETATM   26  C   UNL     1      -5.841  10.839  68.713  1.00  0.00    -0.040 A  
HETATM   27  C   UNL     1      -6.153  13.311  70.077  1.00  0.00    -0.122 A  
HETATM   28  C   UNL     1      -5.394  10.988  70.019  1.00  0.00    -0.056 A  
HETATM   29  C   UNL     1      -6.304  11.985  68.049  1.00  0.00    -0.058 A  
HETATM   30  C   UNL     1      -6.500  13.200  68.719  1.00  0.00    -0.095 A  
HETATM   31  C   UNL     1      -5.571  12.200  70.719  1.00  0.00    -0.129 A  
BRANCH  30  32
HETATM   32  O   UNL     1      -7.070  14.296  68.111  1.00  0.00    -0.099 OA 
HETATM   33  C   UNL     1      -8.307  14.055  67.441  1.00  0.00    -0.196 C  
ENDBRANCH  30  32
BRANCH  27  34
HETATM   34  O   UNL     1      -6.398  14.530  70.666  1.00  0.00    -0.187 OA 
HETATM   35  C   UNL     1      -5.323  15.468  70.667  1.00  0.00    -0.140 C  
ENDBRANCH  27  34
BRANCH  31  36
HETATM   36  O   UNL     1      -5.174  12.338  72.026  1.00  0.00    -0.366 OA 
HETATM   37  C   UNL     1      -5.136  11.138  72.794  1.00  0.00     0.377 C  
ENDBRANCH  31  36
ENDBRANCH  24  26
ENDBRANCH  23  24
ENDBRANCH   3  23
BRANCH   5  38
HETATM   38  O   UNL     1      -6.655   4.920  68.736  1.00  0.00    -0.045 OA 
HETATM   39  C   UNL     1      -7.592   3.902  69.025  1.00  0.00    -0.054 C  
ENDBRANCH   5  38
BRANCH   8  40
HETATM   40  C   UNL     1      -8.467   7.104  70.940  1.00  0.00    -0.133 C  
HETATM   41  O   UNL     1      -7.561   6.989  71.749  1.00  0.00    -0.087 OA 
BRANCH  40  42
HETATM   42  O   UNL     1      -9.674   7.673  71.209  1.00  0.00    -0.161 OA 
HETATM   43  C   UNL     1     -10.282   7.488  72.495  1.00  0.00    -0.232 C  
ENDBRANCH  40  42
ENDBRANCH   8  40
TORSDOF 9
ENDMDL
MODEL       96
REMARK 921   NORMALIZED FREE ENERGY PREDICTED BY IDOCK:   -3.70 KCAL/MOL
REMARK 922        TOTAL FREE ENERGY PREDICTED BY IDOCK:   -8.28 KCAL/MOL
REMARK 923 INTER-LIGAND FREE ENERGY PREDICTED BY IDOCK:   -6.87 KCAL/MOL
REMARK 924 INTRA-LIGAND FREE ENERGY PREDICTED BY IDOCK:   -1.41 KCAL/MOL
REMARK 927      BINDING AFFINITY PREDICTED BY RF-SCORE:    0.00 PKD
ROOT
HETATM    1  C   UNL     1      -6.146   7.430  67.376  1.00  0.00    -0.046 C  
HETATM    2  C   UNL     1      -5.870   6.745  68.718  1.00  0.00    -0.018 C  
HETATM    3  C   UNL     1      -7.130   6.317  69.555  1.00  0.00    -0.073 C  
HETATM    4  C   UNL     1      -7.337  13.433  67.430  1.00  0.00    -0.124 A  
HETATM    5  C   UNL     1      -7.621   5.108  68.767  1.00  0.00    -0.078 C  
HETATM    6  C   UNL     1      -6.799  14.738  67.424  1.00  0.00    -0.101 A  
HETATM    7  C   UNL     1      -7.615  15.825  67.074  1.00  0.00    -0.257 A  
HETATM    8  C   UNL     1      -8.144   5.716  67.402  1.00  0.00    -0.102 C  
HETATM    9  C   UNL     1      -8.942  15.615  66.736  1.00  0.00    -0.291 A  
HETATM   10  C   UNL     1      -9.496  14.321  66.722  1.00  0.00    -0.287 A  
HETATM   11  H   UNL     1      -9.824  11.441  66.915  1.00  0.00     0.000 HD 
HETATM   12  C   UNL     1      -7.624   7.245  66.975  1.00  0.00    -0.106 C  
HETATM   13  C   UNL     1      -8.665  13.239  67.075  1.00  0.00    -0.186 A  
HETATM   14  N   UNL     1      -8.936  11.878  67.164  1.00  0.00    -0.172 NA 
HETATM   15  C   UNL     1      -7.832  11.207  67.636  1.00  0.00    -0.115 A  
HETATM   16  C   UNL     1      -6.834  12.160  67.799  1.00  0.00    -0.106 A  
HETATM   17  C   UNL     1      -8.379   8.647  67.160  1.00  0.00    -0.107 C  
HETATM   18  C   UNL     1      -5.522  11.823  68.405  1.00  0.00    -0.045 C  
HETATM   19  C   UNL     1      -7.767   9.756  68.123  1.00  0.00    -0.082 C  
HETATM   20  C   UNL     1      -5.705  10.565  69.265  1.00  0.00    -0.037 C  
HETATM   21  C   UNL     1      -5.623   8.861  67.509  1.00  0.00    -0.039 C  
HETATM   22  N   UNL     1      -6.398   9.462  68.575  1.00  0.00    -0.052 NA 
ENDROOT
BRANCH   3  23
HETATM   23  O   UNL     1      -8.277   7.244  69.700  1.00  0.00    -0.127 OA 
BRANCH  23  24
HETATM   24  C   UNL     1      -8.721   7.395  70.992  1.00  0.00    -0.139 C  
HETATM   25  O   UNL     1      -8.271   6.746  71.933  1.00  0.00    -0.102 OA 
BRANCH  24  26
HETATM   26  C   UNL     1      -9.849   8.343  71.286  1.00  0.00    -0.255 A  
HETATM   27  C   UNL     1     -12.145  10.014  71.209  1.00  0.00    -0.394 A  
HETATM   28  C   UNL     1     -10.951   8.068  72.084  1.00  0.00    -0.357 A  
HETATM   29  C   UNL     1      -9.850   9.548  70.567  1.00  0.00    -0.331 A  
HETATM   30  C   UNL     1     -10.988  10.361  70.489  1.00  0.00    -0.195 A  
HETATM   31  C   UNL     1     -12.109   8.871  72.033  1.00  0.00    -0.371 A  
BRANCH  30  32
HETATM   32  O   UNL     1     -11.045  11.480  69.688  1.00  0.00    -0.226 OA 
HETATM   33  C   UNL     1     -11.870  11.367  68.529  1.00  0.00    -0.294 C  
ENDBRANCH  30  32
BRANCH  27  34
HETATM   34  O   UNL     1     -13.225  10.852  71.061  1.00  0.00    -0.270 OA 
HETATM   35  C   UNL     1     -13.282  11.982  71.929  1.00  0.00    -0.364 C  
ENDBRANCH  27  34
BRANCH  31  36
HETATM   36  O   UNL     1     -13.220   8.576  72.784  1.00  0.00    -0.232 OA 
HETATM   37  C   UNL     1     -14.218   7.791  72.136  1.00  0.00    -0.216 C  
ENDBRANCH  31  36
ENDBRANCH  24  26
ENDBRANCH  23  24
ENDBRANCH   3  23
BRANCH   5  38
HETATM   38  O   UNL     1      -6.503   4.207  68.631  1.00  0.00    -0.035 OA 
HETATM   39  C   UNL     1      -6.759   2.826  68.469  1.00  0.00    -0.037 C  
ENDBRANCH   5  38
BRANCH   8  40
HETATM   40  C   UNL     1      -9.632   5.432  67.358  1.00  0.00    -0.129 C  
HETATM   41  O   UNL     1     -10.334   5.246  68.339  1.00  0.00    -0.164 OA 
BRANCH  40  42
HETATM   42  O   UNL     1     -10.061   5.326  66.070  1.00  0.00    -0.174 OA 
HETATM   43  C   UNL     1     -10.359   4.035  65.519  1.00  0.00    -0.041 C  
ENDBRANCH  40  42
ENDBRANCH   8  40
TORSDOF 9
ENDMDL
MODEL       97
REMARK 921   NORMALIZED FREE ENERGY PREDICTED BY IDOCK:   -3.64 KCAL/MOL
REMARK 922        TOTAL FREE ENERGY PREDICTED BY IDOCK:   -8.20 KCAL/MOL
REMARK 923 INTER-LIGAND FREE ENERGY PREDICTED BY IDOCK:   -6.25 KCAL/MOL
REMARK 924 INTRA-LIGAND FREE ENERGY PREDICTED BY IDOCK:   -1.95 KCAL/MOL
REMARK 927      BINDING AFFINITY PREDICTED BY RF-SCORE:    0.00 PKD
ROOT
HETATM    1  C   UNL     1     -11.073   8.061  71.011  1.00  0.00    -0.275 C  
HETATM    2  C   UNL     1     -11.012   6.657  70.403  1.00  0.00    -0.341 C  
HETATM    3  C   UNL     1      -9.598   5.971  70.370  1.00  0.00    -0.164 C  
HETATM    4  C   UNL     1      -9.579  12.791  67.426  1.00  0.00    -0.199 A  
HETATM    5  C   UNL     1      -9.408   5.602  71.837  1.00  0.00    -0.144 C  
HETATM    6  C   UNL     1     -10.025  13.725  66.466  1.00  0.00    -0.290 A  
HETATM    7  C   UNL     1      -9.275  14.887  66.225  1.00  0.00    -0.301 A  
HETATM    8  C   UNL     1      -9.241   6.994  72.573  1.00  0.00    -0.156 C  
HETATM    9  C   UNL     1      -8.103  15.113  66.929  1.00  0.00    -0.194 A  
HETATM   10  C   UNL     1      -7.646  14.203  67.900  1.00  0.00    -0.162 A  
HETATM   11  H   UNL     1      -7.440  11.915  69.678  1.00  0.00     0.000 HD 
HETATM   12  C   UNL     1      -9.771   8.367  71.781  1.00  0.00    -0.306 C  
HETATM   13  C   UNL     1      -8.410  13.041  68.132  1.00  0.00    -0.164 A  
HETATM   14  N   UNL     1      -8.201  11.977  69.002  1.00  0.00     0.148 NA 
HETATM   15  C   UNL     1      -9.172  11.019  68.818  1.00  0.00    -0.162 A  
HETATM   16  C   UNL     1     -10.033  11.516  67.847  1.00  0.00    -0.193 A  
HETATM   17  C   UNL     1      -8.917   9.426  70.934  1.00  0.00    -0.198 C  
HETATM   18  C   UNL     1     -11.148  10.703  67.302  1.00  0.00    -0.313 C  
HETATM   19  C   UNL     1      -9.183   9.592  69.373  1.00  0.00    -0.189 C  
HETATM   20  C   UNL     1     -10.810   9.223  67.522  1.00  0.00    -0.112 C  
HETATM   21  C   UNL     1     -11.459   9.006  69.872  1.00  0.00     0.086 C  
HETATM   22  N   UNL     1     -10.392   8.901  68.899  1.00  0.00    -0.210 NA 
ENDROOT
BRANCH   3  23
HETATM   23  O   UNL     1      -8.405   6.742  69.951  1.00  0.00    -0.131 OA 
BRANCH  23  24
HETATM   24  C   UNL     1      -7.414   5.983  69.376  1.00  0.00    -0.088 C  
HETATM   25  O   UNL     1      -6.481   5.508  70.018  1.00  0.00    -0.032 OA 
BRANCH  24  26
HETATM   26  C   UNL     1      -7.413   5.760  67.891  1.00  0.00    -0.078 A  
HETATM   27  C   UNL     1      -7.963   4.995  65.211  1.00  0.00    -0.102 A  
HETATM   28  C   UNL     1      -7.710   6.716  66.929  1.00  0.00    -0.106 A  
HETATM   29  C   UNL     1      -7.244   4.435  67.462  1.00  0.00    -0.069 A  
HETATM   30  C   UNL     1      -7.549   4.037  66.154  1.00  0.00    -0.089 A  
HETATM   31  C   UNL     1      -8.015   6.347  65.602  1.00  0.00    -0.120 A  
BRANCH  30  32
HETATM   32  O   UNL     1      -7.507   2.720  65.753  1.00  0.00    -0.070 OA 
HETATM   33  C   UNL     1      -8.571   1.897  66.231  1.00  0.00    -0.112 C  
ENDBRANCH  30  32
BRANCH  27  34
HETATM   34  O   UNL     1      -8.265   4.518  63.957  1.00  0.00    -0.096 OA 
HETATM   35  C   UNL     1      -9.631   4.195  63.707  1.00  0.00    -0.137 C  
ENDBRANCH  27  34
BRANCH  31  36
HETATM   36  O   UNL     1      -8.357   7.284  64.658  1.00  0.00    -0.070 OA 
HETATM   37  C   UNL     1      -8.097   8.641  65.007  1.00  0.00    -0.143 C  
ENDBRANCH  31  36
ENDBRANCH  24  26
ENDBRANCH  23  24
ENDBRANCH   3  23
BRANCH   5  38
HETATM   38  O   UNL     1     -10.569   4.848  72.240  1.00  0.00    -0.211 OA 
HETATM   39  C   UNL     1     -10.962   4.879  73.598  1.00  0.00    -0.318 C  
ENDBRANCH   5  38
BRANCH   8  40
HETATM   40  C   UNL     1      -7.839   7.002  73.148  1.00  0.00    -0.097 C  
HETATM   41  O   UNL     1      -7.150   6.008  73.313  1.00  0.00    -0.083 OA 
BRANCH  40  42
HETATM   42  O   UNL     1      -7.487   8.258  73.537  1.00  0.00    -0.154 OA 
HETATM   43  C   UNL     1      -6.107   8.648  73.532  1.00  0.00    -0.104 C  
ENDBRANCH  40  42
ENDBRANCH   8  40
TORSDOF 9
ENDMDL
MODEL       98
REMARK 921   NORMALIZED FREE ENERGY PREDICTED BY IDOCK:   -3.61 KCAL/MOL
REMARK 922        TOTAL FREE ENERGY PREDICTED BY IDOCK:   -8.14 KCAL/MOL
REMARK 923 INTER-LIGAND FREE ENERGY PREDICTED BY IDOCK:   -7.33 KCAL/MOL
REMARK 924 INTRA-LIGAND FREE ENERGY PREDICTED BY IDOCK:   -0.82 KCAL/MOL
REMARK 927      BINDING AFFINITY PREDICTED BY RF-SCORE:    0.00 PKD
ROOT
HETATM    1  C   UNL     1      -6.787   8.033  66.547  1.00  0.00    -0.067 C  
HETATM    2  C   UNL     1      -6.747   7.474  67.972  1.00  0.00    -0.059 C  
HETATM    3  C   UNL     1      -7.937   6.534  68.387  1.00  0.00    -0.110 C  
HETATM    4  C   UNL     1     -10.211  13.002  65.526  1.00  0.00    -0.296 A  
HETATM    5  C   UNL     1      -7.597   5.260  67.622  1.00  0.00    -0.088 C  
HETATM    6  C   UNL     1     -10.272  14.412  65.552  1.00  0.00    -0.386 A  
HETATM    7  C   UNL     1     -11.277  15.077  64.830  1.00  0.00    -0.423 A  
HETATM    8  C   UNL     1      -7.807   5.647  66.102  1.00  0.00    -0.100 C  
HETATM    9  C   UNL     1     -12.201  14.350  64.098  1.00  0.00    -0.393 A  
HETATM   10  C   UNL     1     -12.150  12.945  64.047  1.00  0.00    -0.526 A  
HETATM   11  H   UNL     1     -11.347  10.181  64.444  1.00  0.00     0.000 HD 
HETATM   12  C   UNL     1      -7.828   7.269  65.702  1.00  0.00    -0.112 C  
HETATM   13  C   UNL     1     -11.136  12.290  64.775  1.00  0.00    -0.311 A  
HETATM   14  N   UNL     1     -10.854  10.936  64.921  1.00  0.00    -0.168 NA 
HETATM   15  C   UNL     1      -9.814  10.764  65.806  1.00  0.00    -0.240 A  
HETATM   16  C   UNL     1      -9.405  12.038  66.182  1.00  0.00    -0.217 A  
HETATM   17  C   UNL     1      -9.092   8.226  65.467  1.00  0.00    -0.065 C  
HETATM   18  C   UNL     1      -8.369  12.251  67.222  1.00  0.00    -0.182 C  
HETATM   19  C   UNL     1      -9.350   9.453  66.447  1.00  0.00    -0.187 C  
HETATM   20  C   UNL     1      -8.321  10.999  68.109  1.00  0.00    -0.130 C  
HETATM   21  C   UNL     1      -6.961   9.546  66.683  1.00  0.00    -0.085 C  
HETATM   22  N   UNL     1      -8.229   9.734  67.357  1.00  0.00    -0.114 NA 
ENDROOT
BRANCH   3  23
HETATM   23  O   UNL     1      -9.330   6.899  68.038  1.00  0.00    -0.125 OA 
BRANCH  23  24
HETATM   24  C   UNL     1     -10.281   6.357  68.870  1.00  0.00    -0.184 C  
HETATM   25  O   UNL     1     -11.482   6.386  68.618  1.00  0.00    -0.254 OA 
BRANCH  24  26
HETATM   26  C   UNL     1      -9.867   5.754  70.182  1.00  0.00    -0.240 A  
HETATM   27  C   UNL     1      -9.669   4.848  72.867  1.00  0.00    -0.145 A  
HETATM   28  C   UNL     1      -9.814   4.397  70.468  1.00  0.00    -0.285 A  
HETATM   29  C   UNL     1      -9.664   6.652  71.242  1.00  0.00    -0.183 A  
HETATM   30  C   UNL     1      -9.604   6.222  72.573  1.00  0.00    -0.142 A  
HETATM   31  C   UNL     1      -9.747   3.933  71.799  1.00  0.00    -0.173 A  
BRANCH  30  32
HETATM   32  O   UNL     1      -9.530   7.100  73.632  1.00  0.00    -0.181 OA 
HETATM   33  C   UNL     1      -8.517   8.100  73.533  1.00  0.00    -0.246 C  
ENDBRANCH  30  32
BRANCH  27  34
HETATM   34  O   UNL     1      -9.626   4.511  74.200  1.00  0.00    -0.115 OA 
HETATM   35  C   UNL     1      -8.870   3.352  74.543  1.00  0.00    -0.086 C  
ENDBRANCH  27  34
BRANCH  31  36
HETATM   36  O   UNL     1      -9.743   2.591  72.091  1.00  0.00    -0.114 OA 
HETATM   37  C   UNL     1      -9.037   1.758  71.175  1.00  0.00    -0.079 C  
ENDBRANCH  31  36
ENDBRANCH  24  26
ENDBRANCH  23  24
ENDBRANCH   3  23
BRANCH   5  38
HETATM   38  O   UNL     1      -6.242   4.907  67.967  1.00  0.00    -0.032 OA 
HETATM   39  C   UNL     1      -5.711   3.691  67.478  1.00  0.00    -0.022 C  
ENDBRANCH   5  38
BRANCH   8  40
HETATM   40  C   UNL     1      -8.941   4.776  65.599  1.00  0.00    -0.142 C  
HETATM   41  O   UNL     1     -10.125   5.064  65.674  1.00  0.00    -0.142 OA 
BRANCH  40  42
HETATM   42  O   UNL     1      -8.464   3.589  65.132  1.00  0.00    -0.100 OA 
HETATM   43  C   UNL     1      -7.757   3.543  63.885  1.00  0.00    -0.079 C  
ENDBRANCH  40  42
ENDBRANCH   8  40
TORSDOF 9
ENDMDL
MODEL       99
REMARK 921   NORMALIZED FREE ENERGY PREDICTED BY IDOCK:   -3.60 KCAL/MOL
REMARK 922        TOTAL FREE ENERGY PREDICTED BY IDOCK:   -8.13 KCAL/MOL
REMARK 923 INTER-LIGAND FREE ENERGY PREDICTED BY IDOCK:   -5.91 KCAL/MOL
REMARK 924 INTRA-LIGAND FREE ENERGY PREDICTED BY IDOCK:   -2.23 KCAL/MOL
REMARK 927      BINDING AFFINITY PREDICTED BY RF-SCORE:    0.00 PKD
ROOT
HETATM    1  C   UNL     1     -10.456   8.951  67.031  1.00  0.00    -0.326 C  
HETATM    2  C   UNL     1      -9.565  10.196  66.986  1.00  0.00    -0.209 C  
HETATM    3  C   UNL     1      -8.055   9.961  66.618  1.00  0.00    -0.117 C  
HETATM    4  C   UNL     1     -10.406   5.591  72.145  1.00  0.00    -0.263 A  
HETATM    5  C   UNL     1      -8.149   9.682  65.122  1.00  0.00    -0.124 C  
HETATM    6  C   UNL     1     -10.940   5.414  73.440  1.00  0.00    -0.349 A  
HETATM    7  C   UNL     1     -10.794   4.176  74.089  1.00  0.00    -0.252 A  
HETATM    8  C   UNL     1      -8.881   8.282  65.030  1.00  0.00     0.026 C  
HETATM    9  C   UNL     1     -10.131   3.137  73.458  1.00  0.00    -0.187 A  
HETATM   10  C   UNL     1      -9.603   3.287  72.162  1.00  0.00    -0.208 A  
HETATM   11  H   UNL     1      -8.866   4.388  69.576  1.00  0.00     0.000 HD 
HETATM   12  C   UNL     1      -9.741   7.758  66.363  1.00  0.00    -0.219 C  
HETATM   13  C   UNL     1      -9.757   4.534  71.522  1.00  0.00    -0.175 A  
HETATM   14  N   UNL     1      -9.333   4.971  70.272  1.00  0.00    -0.145 NA 
HETATM   15  C   UNL     1      -9.634   6.303  70.111  1.00  0.00    -0.162 A  
HETATM   16  C   UNL     1     -10.304   6.695  71.264  1.00  0.00    -0.230 A  
HETATM   17  C   UNL     1      -9.285   6.734  67.509  1.00  0.00    -0.122 C  
HETATM   18  C   UNL     1     -10.690   8.109  71.501  1.00  0.00    -0.286 C  
HETATM   19  C   UNL     1      -9.131   7.241  69.010  1.00  0.00    -0.133 C  
HETATM   20  C   UNL     1      -9.773   9.000  70.653  1.00  0.00    -0.234 C  
HETATM   21  C   UNL     1     -10.893   8.788  68.487  1.00  0.00     0.034 C  
HETATM   22  N   UNL     1      -9.673   8.589  69.241  1.00  0.00    -0.171 NA 
ENDROOT
BRANCH   3  23
HETATM   23  O   UNL     1      -7.305   8.840  67.230  1.00  0.00    -0.080 OA 
BRANCH  23  24
HETATM   24  C   UNL     1      -6.025   9.160  67.615  1.00  0.00    -0.050 C  
HETATM   25  O   UNL     1      -5.130   9.409  66.813  1.00  0.00    -0.033 OA 
BRANCH  24  26
HETATM   26  C   UNL     1      -5.662   9.150  69.072  1.00  0.00    -0.036 A  
HETATM   27  C   UNL     1      -5.569   9.418  71.899  1.00  0.00    -0.065 A  
HETATM   28  C   UNL     1      -5.619   8.028  69.888  1.00  0.00    -0.023 A  
HETATM   29  C   UNL     1      -5.502  10.405  69.681  1.00  0.00    -0.038 A  
HETATM   30  C   UNL     1      -5.494  10.555  71.073  1.00  0.00    -0.093 A  
HETATM   31  C   UNL     1      -5.604   8.146  71.294  1.00  0.00    -0.033 A  
BRANCH  30  32
HETATM   32  O   UNL     1      -5.463  11.789  71.684  1.00  0.00    -0.364 OA 
HETATM   33  C   UNL     1      -5.566  12.912  70.809  1.00  0.00    -0.177 C  
ENDBRANCH  30  32
BRANCH  27  34
HETATM   34  O   UNL     1      -5.578   9.654  73.254  1.00  0.00    -0.303 OA 
HETATM   35  C   UNL     1      -6.659   9.092  73.994  1.00  0.00     0.180 C  
ENDBRANCH  27  34
BRANCH  31  36
HETATM   36  O   UNL     1      -5.610   7.040  72.107  1.00  0.00    -0.037 OA 
HETATM   37  C   UNL     1      -6.141   5.849  71.532  1.00  0.00    -0.038 C  
ENDBRANCH  31  36
ENDBRANCH  24  26
ENDBRANCH  23  24
ENDBRANCH   3  23
BRANCH   5  38
HETATM   38  O   UNL     1      -8.876  10.778  64.530  1.00  0.00    -0.185 OA 
HETATM   39  C   UNL     1      -9.421  10.612  63.236  1.00  0.00    -0.329 C  
ENDBRANCH   5  38
BRANCH   8  40
HETATM   40  C   UNL     1      -7.885   7.326  64.405  1.00  0.00    -0.126 C  
HETATM   41  O   UNL     1      -8.067   6.128  64.261  1.00  0.00    -0.124 OA 
BRANCH  40  42
HETATM   42  O   UNL     1      -6.724   7.971  64.107  1.00  0.00    -0.064 OA 
HETATM   43  C   UNL     1      -5.569   7.219  63.707  1.00  0.00    -0.037 C  
ENDBRANCH  40  42
ENDBRANCH   8  40
TORSDOF 9
ENDMDL
MODEL      100
REMARK 921   NORMALIZED FREE ENERGY PREDICTED BY IDOCK:   -3.50 KCAL/MOL
REMARK 922        TOTAL FREE ENERGY PREDICTED BY IDOCK:   -7.97 KCAL/MOL
REMARK 923 INTER-LIGAND FREE ENERGY PREDICTED BY IDOCK:   -6.36 KCAL/MOL
REMARK 924 INTRA-LIGAND FREE ENERGY PREDICTED BY IDOCK:   -1.61 KCAL/MOL
REMARK 927      BINDING AFFINITY PREDICTED BY RF-SCORE:    0.00 PKD
ROOT
HETATM    1  C   UNL     1     -10.132   7.788  72.703  1.00  0.00    -0.320 C  
HETATM    2  C   UNL     1     -10.818   6.449  72.414  1.00  0.00    -0.267 C  
HETATM    3  C   UNL     1     -10.117   5.520  71.356  1.00  0.00    -0.201 C  
HETATM    4  C   UNL     1     -11.208  12.435  68.869  1.00  0.00    -0.330 A  
HETATM    5  C   UNL     1      -8.922   5.008  72.151  1.00  0.00    -0.132 C  
HETATM    6  C   UNL     1     -12.062  13.508  68.534  1.00  0.00    -0.303 A  
HETATM    7  C   UNL     1     -11.596  14.529  67.689  1.00  0.00    -0.402 A  
HETATM    8  C   UNL     1      -8.003   6.282  72.344  1.00  0.00    -0.104 C  
HETATM    9  C   UNL     1     -10.305  14.480  67.190  1.00  0.00    -0.265 A  
HETATM   10  C   UNL     1      -9.433  13.426  67.521  1.00  0.00    -0.219 A  
HETATM   11  H   UNL     1      -8.321  11.004  68.679  1.00  0.00     0.000 HD 
HETATM   12  C   UNL     1      -8.698   7.787  72.136  1.00  0.00    -0.169 C  
HETATM   13  C   UNL     1      -9.913  12.409  68.371  1.00  0.00    -0.210 A  
HETATM   14  N   UNL     1      -9.295  11.259  68.848  1.00  0.00    -0.126 NA 
HETATM   15  C   UNL     1     -10.188  10.513  69.582  1.00  0.00    -0.168 A  
HETATM   16  C   UNL     1     -11.375  11.236  69.606  1.00  0.00    -0.359 A  
HETATM   17  C   UNL     1      -8.662   8.737  70.845  1.00  0.00    -0.235 C  
HETATM   18  C   UNL     1     -12.612  10.687  70.215  1.00  0.00    -0.333 C  
HETATM   19  C   UNL     1     -10.011   9.072  70.070  1.00  0.00    -0.188 C  
HETATM   20  C   UNL     1     -12.497   9.157  70.228  1.00  0.00     0.530 C  
HETATM   21  C   UNL     1     -11.087   8.876  72.210  1.00  0.00    -0.186 C  
HETATM   22  N   UNL     1     -11.228   8.655  70.786  1.00  0.00    -0.257 NA 
ENDROOT
BRANCH   3  23
HETATM   23  O   UNL     1      -9.595   6.092  70.093  1.00  0.00    -0.158 OA 
BRANCH  23  24
HETATM   24  C   UNL     1      -9.453   5.178  69.076  1.00  0.00    -0.133 C  
HETATM   25  O   UNL     1      -9.831   4.013  69.168  1.00  0.00    -0.153 OA 
BRANCH  24  26
HETATM   26  C   UNL     1      -8.753   5.578  67.809  1.00  0.00    -0.106 A  
HETATM   27  C   UNL     1      -7.877   5.934  65.130  1.00  0.00    -0.107 A  
HETATM   28  C   UNL     1      -8.831   6.822  67.199  1.00  0.00    -0.119 A  
HETATM   29  C   UNL     1      -8.090   4.553  67.116  1.00  0.00    -0.102 A  
HETATM   30  C   UNL     1      -7.688   4.703  65.783  1.00  0.00    -0.094 A  
HETATM   31  C   UNL     1      -8.429   7.006  65.859  1.00  0.00    -0.147 A  
BRANCH  30  32
HETATM   32  O   UNL     1      -7.150   3.667  65.051  1.00  0.00    -0.062 OA 
HETATM   33  C   UNL     1      -7.961   2.497  64.952  1.00  0.00    -0.081 C  
ENDBRANCH  30  32
BRANCH  27  34
HETATM   34  O   UNL     1      -7.476   5.991  63.816  1.00  0.00    -0.061 OA 
HETATM   35  C   UNL     1      -8.414   5.541  62.840  1.00  0.00    -0.055 C  
ENDBRANCH  27  34
BRANCH  31  36
HETATM   36  O   UNL     1      -8.549   8.224  65.235  1.00  0.00    -0.171 OA 
HETATM   37  C   UNL     1      -9.555   9.090  65.751  1.00  0.00    -0.217 C  
ENDBRANCH  31  36
ENDBRANCH  24  26
ENDBRANCH  23  24
ENDBRANCH   3  23
BRANCH   5  38
HETATM   38  O   UNL     1      -9.435   4.449  73.378  1.00  0.00    -0.117 OA 
HETATM   39  C   UNL     1      -8.522   4.095  74.397  1.00  0.00    -0.093 C  
ENDBRANCH   5  38
BRANCH   8  40
HETATM   40  C   UNL     1      -6.713   5.986  71.606  1.00  0.00    -0.059 C  
HETATM   41  O   UNL     1      -5.857   5.204  71.987  1.00  0.00    -0.019 OA 
BRANCH  40  42
HETATM   42  O   UNL     1      -6.598   6.778  70.505  1.00  0.00    -0.049 OA 
HETATM   43  C   UNL     1      -5.626   6.467  69.497  1.00  0.00    -0.014 C  
ENDBRANCH  40  42
ENDBRANCH   8  40
TORSDOF 9
ENDMDL
MODEL      101
REMARK 921   NORMALIZED FREE ENERGY PREDICTED BY IDOCK:   -3.49 KCAL/MOL
REMARK 922        TOTAL FREE ENERGY PREDICTED BY IDOCK:   -7.95 KCAL/MOL
REMARK 923 INTER-LIGAND FREE ENERGY PREDICTED BY IDOCK:   -6.25 KCAL/MOL
REMARK 924 INTRA-LIGAND FREE ENERGY PREDICTED BY IDOCK:   -1.71 KCAL/MOL
REMARK 927      BINDING AFFINITY PREDICTED BY RF-SCORE:    0.00 PKD
ROOT
HETATM    1  C   UNL     1      -8.159  10.000  70.217  1.00  0.00    -0.010 C  
HETATM    2  C   UNL     1      -8.817   8.968  71.138  1.00  0.00    -0.282 C  
HETATM    3  C   UNL     1      -8.956   7.510  70.565  1.00  0.00    -0.152 C  
HETATM    4  C   UNL     1     -11.664  12.695  65.986  1.00  0.00    -0.470 A  
HETATM    5  C   UNL     1      -7.516   7.016  70.645  1.00  0.00    -0.085 C  
HETATM    6  C   UNL     1     -12.563  13.745  65.700  1.00  0.00    -0.551 A  
HETATM    7  C   UNL     1     -12.809  14.106  64.365  1.00  0.00     0.170 A  
HETATM    8  C   UNL     1      -6.746   7.877  69.564  1.00  0.00    -0.042 C  
HETATM    9  C   UNL     1     -12.169  13.435  63.337  1.00  0.00    -0.419 A  
HETATM   10  C   UNL     1     -11.258  12.394  63.599  1.00  0.00    -0.544 A  
HETATM   11  H   UNL     1      -9.573  10.459  64.962  1.00  0.00     0.000 HD 
HETATM   12  C   UNL     1      -7.458   9.295  69.039  1.00  0.00    -0.073 C  
HETATM   13  C   UNL     1     -11.020  12.042  64.943  1.00  0.00    -0.306 A  
HETATM   14  N   UNL     1     -10.200  11.064  65.494  1.00  0.00    -0.258 NA 
HETATM   15  C   UNL     1     -10.359  11.029  66.860  1.00  0.00    -0.235 A  
HETATM   16  C   UNL     1     -11.260  12.039  67.175  1.00  0.00    -0.374 A  
HETATM   17  C   UNL     1      -8.317   9.550  67.710  1.00  0.00    -0.118 C  
HETATM   18  C   UNL     1     -11.766  12.232  68.557  1.00  0.00    -0.381 C  
HETATM   19  C   UNL     1      -9.853   9.953  67.825  1.00  0.00    -0.155 C  
HETATM   20  C   UNL     1     -11.616  10.902  69.308  1.00  0.00    -0.318 C  
HETATM   21  C   UNL     1      -9.240  11.029  69.883  1.00  0.00     1.030 C  
HETATM   22  N   UNL     1     -10.278  10.294  69.192  1.00  0.00    -0.205 NA 
ENDROOT
BRANCH   3  23
HETATM   23  O   UNL     1      -9.419   7.298  69.175  1.00  0.00    -0.149 OA 
BRANCH  23  24
HETATM   24  C   UNL     1     -10.045   6.092  68.965  1.00  0.00    -0.176 C  
HETATM   25  O   UNL     1     -10.997   5.708  69.638  1.00  0.00    -0.348 OA 
BRANCH  24  26
HETATM   26  C   UNL     1      -9.521   5.154  67.915  1.00  0.00    -0.155 A  
HETATM   27  C   UNL     1      -9.024   2.991  66.141  1.00  0.00    -0.148 A  
HETATM   28  C   UNL     1      -9.658   5.318  66.543  1.00  0.00    -0.166 A  
HETATM   29  C   UNL     1      -8.984   3.942  68.375  1.00  0.00    -0.165 A  
HETATM   30  C   UNL     1      -8.771   2.855  67.518  1.00  0.00    -0.120 A  
HETATM   31  C   UNL     1      -9.445   4.245  65.654  1.00  0.00    -0.176 A  
BRANCH  30  32
HETATM   32  O   UNL     1      -8.363   1.622  67.975  1.00  0.00    -0.058 OA 
HETATM   33  C   UNL     1      -8.134   1.531  69.381  1.00  0.00    -0.044 C  
ENDBRANCH  30  32
BRANCH  27  34
HETATM   34  O   UNL     1      -8.810   1.871  65.373  1.00  0.00    -0.113 OA 
HETATM   35  C   UNL     1      -7.623   1.853  64.583  1.00  0.00    -0.063 C  
ENDBRANCH  27  34
BRANCH  31  36
HETATM   36  O   UNL     1      -9.625   4.388  64.300  1.00  0.00    -0.149 OA 
HETATM   37  C   UNL     1     -10.824   3.828  63.770  1.00  0.00    -0.173 C  
ENDBRANCH  31  36
ENDBRANCH  24  26
ENDBRANCH  23  24
ENDBRANCH   3  23
BRANCH   5  38
HETATM   38  O   UNL     1      -7.071   7.221  72.002  1.00  0.00    -0.066 OA 
HETATM   39  C   UNL     1      -6.567   6.117  72.725  1.00  0.00    -0.065 C  
ENDBRANCH   5  38
BRANCH   8  40
HETATM   40  C   UNL     1      -6.255   6.897  68.517  1.00  0.00    -0.031 C  
HETATM   41  O   UNL     1      -6.301   5.682  68.626  1.00  0.00    -0.037 OA 
BRANCH  40  42
HETATM   42  O   UNL     1      -5.673   7.557  67.478  1.00  0.00    -0.032 OA 
HETATM   43  C   UNL     1      -6.009   7.204  66.129  1.00  0.00    -0.036 C  
ENDBRANCH  40  42
ENDBRANCH   8  40
TORSDOF 9
ENDMDL
MODEL      102
REMARK 921   NORMALIZED FREE ENERGY PREDICTED BY IDOCK:   -3.46 KCAL/MOL
REMARK 922        TOTAL FREE ENERGY PREDICTED BY IDOCK:   -7.91 KCAL/MOL
REMARK 923 INTER-LIGAND FREE ENERGY PREDICTED BY IDOCK:   -5.82 KCAL/MOL
REMARK 924 INTRA-LIGAND FREE ENERGY PREDICTED BY IDOCK:   -2.09 KCAL/MOL
REMARK 927      BINDING AFFINITY PREDICTED BY RF-SCORE:    0.00 PKD
ROOT
HETATM    1  C   UNL     1     -11.275  10.506  66.427  1.00  0.00     0.270 C  
HETATM    2  C   UNL     1     -10.215   9.697  65.673  1.00  0.00    -0.104 C  
HETATM    3  C   UNL     1      -8.896   9.368  66.462  1.00  0.00    -0.136 C  
HETATM    4  C   UNL     1     -10.630  16.590  66.603  1.00  0.00    -0.216 A  
HETATM    5  C   UNL     1      -9.381   8.287  67.422  1.00  0.00    -0.141 C  
HETATM    6  C   UNL     1     -10.872  17.816  65.948  1.00  0.00     0.031 A  
HETATM    7  C   UNL     1     -10.799  19.018  66.671  1.00  0.00    -0.314 A  
HETATM    8  C   UNL     1     -10.349   9.051  68.415  1.00  0.00    -0.242 C  
HETATM    9  C   UNL     1     -10.492  18.995  68.022  1.00  0.00    -0.436 A  
HETATM   10  C   UNL     1     -10.260  17.783  68.699  1.00  0.00    -0.377 A  
HETATM   11  H   UNL     1      -9.962  14.957  69.306  1.00  0.00     0.000 HD 
HETATM   12  C   UNL     1     -10.954  10.532  67.935  1.00  0.00    -0.352 C  
HETATM   13  C   UNL     1     -10.338  16.585  67.960  1.00  0.00    -0.294 A  
HETATM   14  N   UNL     1     -10.146  15.264  68.350  1.00  0.00    -0.217 NA 
HETATM   15  C   UNL     1     -10.238  14.431  67.259  1.00  0.00    -0.252 A  
HETATM   16  C   UNL     1     -10.544  15.242  66.173  1.00  0.00    -0.318 A  
HETATM   17  C   UNL     1     -10.431  11.998  68.318  1.00  0.00    -0.218 C  
HETATM   18  C   UNL     1     -10.610  14.705  64.791  1.00  0.00    -0.379 C  
HETATM   19  C   UNL     1      -9.848  12.953  67.186  1.00  0.00    -0.225 C  
HETATM   20  C   UNL     1      -9.773  13.420  64.740  1.00  0.00     0.186 C  
HETATM   21  C   UNL     1     -11.384  11.850  65.704  1.00  0.00    -0.284 C  
HETATM   22  N   UNL     1     -10.077  12.462  65.818  1.00  0.00    -0.251 NA 
ENDROOT
BRANCH   3  23
HETATM   23  O   UNL     1      -8.233  10.414  67.274  1.00  0.00    -0.120 OA 
BRANCH  23  24
HETATM   24  C   UNL     1      -6.930  10.130  67.607  1.00  0.00    -0.085 C  
HETATM   25  O   UNL     1      -6.315   9.176  67.139  1.00  0.00    -0.058 OA 
BRANCH  24  26
HETATM   26  C   UNL     1      -6.224  10.970  68.633  1.00  0.00    -0.043 A  
HETATM   27  C   UNL     1      -5.480  12.850  70.628  1.00  0.00    -0.171 A  
HETATM   28  C   UNL     1      -5.827  10.544  69.893  1.00  0.00    -0.059 A  
HETATM   29  C   UNL     1      -6.096  12.336  68.336  1.00  0.00    -0.052 A  
HETATM   30  C   UNL     1      -5.768  13.278  69.319  1.00  0.00    -0.083 A  
HETATM   31  C   UNL     1      -5.485  11.468  70.903  1.00  0.00    -0.103 A  
BRANCH  30  32
HETATM   32  O   UNL     1      -5.762  14.633  69.072  1.00  0.00    -0.084 OA 
HETATM   33  C   UNL     1      -6.636  15.074  68.033  1.00  0.00    -0.145 C  
ENDBRANCH  30  32
BRANCH  27  34
HETATM   34  O   UNL     1      -5.190  13.840  71.538  1.00  0.00    -0.148 OA 
HETATM   35  C   UNL     1      -6.202  14.146  72.495  1.00  0.00     0.935 C  
ENDBRANCH  27  34
BRANCH  31  36
HETATM   36  O   UNL     1      -5.138  11.055  72.166  1.00  0.00    -0.304 OA 
HETATM   37  C   UNL     1      -5.424   9.694  72.474  1.00  0.00     0.057 C  
ENDBRANCH  31  36
ENDBRANCH  24  26
ENDBRANCH  23  24
ENDBRANCH   3  23
BRANCH   5  38
HETATM   38  O   UNL     1     -10.022   7.269  66.627  1.00  0.00    -0.211 OA 
HETATM   39  C   UNL     1      -9.614   5.925  66.786  1.00  0.00    -0.148 C  
ENDBRANCH   5  38
BRANCH   8  40
HETATM   40  C   UNL     1      -9.707   8.954  69.785  1.00  0.00    -0.175 C  
HETATM   41  O   UNL     1      -9.984   9.670  70.734  1.00  0.00    -0.270 OA 
BRANCH  40  42
HETATM   42  O   UNL     1      -8.719   8.018  69.787  1.00  0.00    -0.134 OA 
HETATM   43  C   UNL     1      -8.888   6.799  70.523  1.00  0.00    -0.151 C  
ENDBRANCH  40  42
ENDBRANCH   8  40
TORSDOF 9
ENDMDL
MODEL      103
REMARK 921   NORMALIZED FREE ENERGY PREDICTED BY IDOCK:   -3.45 KCAL/MOL
REMARK 922        TOTAL FREE ENERGY PREDICTED BY IDOCK:   -7.89 KCAL/MOL
REMARK 923 INTER-LIGAND FREE ENERGY PREDICTED BY IDOCK:   -5.97 KCAL/MOL
REMARK 924 INTRA-LIGAND FREE ENERGY PREDICTED BY IDOCK:   -1.93 KCAL/MOL
REMARK 927      BINDING AFFINITY PREDICTED BY RF-SCORE:    0.00 PKD
ROOT
HETATM    1  C   UNL     1     -10.221   9.204  66.538  1.00  0.00    -0.322 C  
HETATM    2  C   UNL     1      -9.871  10.660  66.215  1.00  0.00    -0.263 C  
HETATM    3  C   UNL     1      -8.352  10.970  65.953  1.00  0.00    -0.119 C  
HETATM    4  C   UNL     1      -9.507   7.311  72.314  1.00  0.00    -0.167 A  
HETATM    5  C   UNL     1      -8.155  10.365  64.568  1.00  0.00    -0.114 C  
HETATM    6  C   UNL     1     -10.083   7.216  73.599  1.00  0.00    -0.389 A  
HETATM    7  C   UNL     1      -9.558   6.307  74.532  1.00  0.00    -0.277 A  
HETATM    8  C   UNL     1      -8.286   8.805  64.799  1.00  0.00    -0.163 C  
HETATM    9  C   UNL     1      -8.480   5.507  74.188  1.00  0.00    -0.114 A  
HETATM   10  C   UNL     1      -7.898   5.575  72.908  1.00  0.00    -0.098 A  
HETATM   11  H   UNL     1      -7.334   6.300  70.152  1.00  0.00     0.000 HD 
HETATM   12  C   UNL     1      -9.034   8.280  66.198  1.00  0.00    -0.222 C  
HETATM   13  C   UNL     1      -8.437   6.492  71.982  1.00  0.00    -0.114 A  
HETATM   14  N   UNL     1      -8.065   6.784  70.674  1.00  0.00    -0.117 NA 
HETATM   15  C   UNL     1      -8.828   7.820  70.187  1.00  0.00    -0.145 A  
HETATM   16  C   UNL     1      -9.728   8.150  71.194  1.00  0.00    -0.200 A  
HETATM   17  C   UNL     1      -8.363   7.790  67.568  1.00  0.00    -0.120 C  
HETATM   18  C   UNL     1     -10.646   9.310  71.072  1.00  0.00    -0.386 C  
HETATM   19  C   UNL     1      -8.591   8.623  68.905  1.00  0.00    -0.130 C  
HETATM   20  C   UNL     1     -10.042  10.289  70.057  1.00  0.00    -0.115 C  
HETATM   21  C   UNL     1     -10.733   9.195  67.979  1.00  0.00    -0.147 C  
HETATM   22  N   UNL     1      -9.627   9.661  68.789  1.00  0.00    -0.149 NA 
ENDROOT
BRANCH   3  23
HETATM   23  O   UNL     1      -7.311  10.396  66.837  1.00  0.00    -0.100 OA 
BRANCH  23  24
HETATM   24  C   UNL     1      -6.299  11.268  67.158  1.00  0.00    -0.096 C  
HETATM   25  O   UNL     1      -5.372  11.524  66.395  1.00  0.00    -0.180 OA 
BRANCH  24  26
HETATM   26  C   UNL     1      -6.266  11.902  68.520  1.00  0.00    -0.052 A  
HETATM   27  C   UNL     1      -5.563  12.929  71.074  1.00  0.00    -0.136 A  
HETATM   28  C   UNL     1      -6.345  13.263  68.781  1.00  0.00    -0.094 A  
HETATM   29  C   UNL     1      -5.980  11.047  69.596  1.00  0.00    -0.070 A  
HETATM   30  C   UNL     1      -5.594  11.540  70.849  1.00  0.00    -0.070 A  
HETATM   31  C   UNL     1      -5.969  13.789  70.035  1.00  0.00    -0.144 A  
BRANCH  30  32
HETATM   32  O   UNL     1      -5.191  10.716  71.876  1.00  0.00    -0.259 OA 
HETATM   33  C   UNL     1      -5.691   9.380  71.826  1.00  0.00    -0.057 C  
ENDBRANCH  30  32
BRANCH  27  34
HETATM   34  O   UNL     1      -5.152  13.330  72.323  1.00  0.00    -0.248 OA 
HETATM   35  C   UNL     1      -6.036  14.187  73.043  1.00  0.00     0.415 C  
ENDBRANCH  27  34
BRANCH  31  36
HETATM   36  O   UNL     1      -5.999  15.140  70.284  1.00  0.00    -0.140 OA 
HETATM   37  C   UNL     1      -6.679  15.935  69.316  1.00  0.00    -0.176 C  
ENDBRANCH  31  36
ENDBRANCH  24  26
ENDBRANCH  23  24
ENDBRANCH   3  23
BRANCH   5  38
HETATM   38  O   UNL     1      -9.168  10.930  63.710  1.00  0.00    -0.209 OA 
HETATM   39  C   UNL     1      -9.293  10.437  62.391  1.00  0.00    -0.263 C  
ENDBRANCH   5  38
BRANCH   8  40
HETATM   40  C   UNL     1      -6.935   8.213  64.449  1.00  0.00    -0.076 C  
HETATM   41  O   UNL     1      -5.897   8.850  64.368  1.00  0.00    -0.064 OA 
BRANCH  40  42
HETATM   42  O   UNL     1      -7.054   6.890  64.152  1.00  0.00    -0.052 OA 
HETATM   43  C   UNL     1      -5.974   6.202  63.506  1.00  0.00    -0.022 C  
ENDBRANCH  40  42
ENDBRANCH   8  40
TORSDOF 9
ENDMDL
MODEL      104
REMARK 921   NORMALIZED FREE ENERGY PREDICTED BY IDOCK:   -3.42 KCAL/MOL
REMARK 922        TOTAL FREE ENERGY PREDICTED BY IDOCK:   -7.86 KCAL/MOL
REMARK 923 INTER-LIGAND FREE ENERGY PREDICTED BY IDOCK:   -5.28 KCAL/MOL
REMARK 924 INTRA-LIGAND FREE ENERGY PREDICTED BY IDOCK:   -2.58 KCAL/MOL
REMARK 927      BINDING AFFINITY PREDICTED BY RF-SCORE:    0.00 PKD
ROOT
HETATM    1  C   UNL     1     -10.536   7.009  67.195  1.00  0.00    -0.383 C  
HETATM    2  C   UNL     1      -9.540   8.160  67.021  1.00  0.00    -0.253 C  
HETATM    3  C   UNL     1      -8.086   7.763  66.576  1.00  0.00    -0.111 C  
HETATM    4  C   UNL     1     -10.454   3.938  72.488  1.00  0.00    -0.176 A  
HETATM    5  C   UNL     1      -8.304   7.414  65.108  1.00  0.00    -0.079 C  
HETATM    6  C   UNL     1     -10.914   3.882  73.821  1.00  0.00    -0.321 A  
HETATM    7  C   UNL     1     -10.839   2.673  74.533  1.00  0.00    -0.016 A  
HETATM    8  C   UNL     1      -9.166   6.087  65.145  1.00  0.00     0.334 C  
HETATM    9  C   UNL     1     -10.317   1.543  73.925  1.00  0.00    -0.149 A  
HETATM   10  C   UNL     1      -9.865   1.572  72.592  1.00  0.00    -0.154 A  
HETATM   11  H   UNL     1      -9.204   2.458  69.906  1.00  0.00     0.000 HD 
HETATM   12  C   UNL     1      -9.979   5.719  66.557  1.00  0.00    -0.202 C  
HETATM   13  C   UNL     1      -9.946   2.792  71.890  1.00  0.00    -0.140 A  
HETATM   14  N   UNL     1      -9.569   3.119  70.593  1.00  0.00    -0.167 NA 
HETATM   15  C   UNL     1      -9.757   4.464  70.371  1.00  0.00    -0.214 A  
HETATM   16  C   UNL     1     -10.310   4.979  71.537  1.00  0.00    -0.252 A  
HETATM   17  C   UNL     1      -9.543   4.719  67.731  1.00  0.00    -0.194 C  
HETATM   18  C   UNL     1     -10.548   6.433  71.713  1.00  0.00    -0.256 C  
HETATM   19  C   UNL     1      -9.244   5.288  69.187  1.00  0.00    -0.118 C  
HETATM   20  C   UNL     1      -9.612   7.187  70.759  1.00  0.00    -0.168 C  
HETATM   21  C   UNL     1     -10.889   6.966  68.683  1.00  0.00    -0.187 C  
HETATM   22  N   UNL     1      -9.644   6.693  69.371  1.00  0.00    -0.145 NA 
ENDROOT
BRANCH   3  23
HETATM   23  O   UNL     1      -7.403   6.610  67.207  1.00  0.00    -0.086 OA 
BRANCH  23  24
HETATM   24  C   UNL     1      -6.144   6.890  67.683  1.00  0.00    -0.029 C  
HETATM   25  O   UNL     1      -5.129   6.752  67.007  1.00  0.00    -0.008 OA 
BRANCH  24  26
HETATM   26  C   UNL     1      -5.967   7.325  69.110  1.00  0.00    -0.026 A  
HETATM   27  C   UNL     1      -6.279   8.293  71.762  1.00  0.00    -0.050 A  
HETATM   28  C   UNL     1      -5.787   6.481  70.197  1.00  0.00    -0.019 A  
HETATM   29  C   UNL     1      -6.153   8.691  69.370  1.00  0.00    -0.041 A  
HETATM   30  C   UNL     1      -6.347   9.176  70.670  1.00  0.00    -0.058 A  
HETATM   31  C   UNL     1      -5.969   6.941  71.518  1.00  0.00    -0.037 A  
BRANCH  30  32
HETATM   32  O   UNL     1      -6.654  10.494  70.930  1.00  0.00    -0.347 OA 
HETATM   33  C   UNL     1      -6.460  11.397  69.841  1.00  0.00    -0.118 C  
ENDBRANCH  30  32
BRANCH  27  34
HETATM   34  O   UNL     1      -6.503   8.845  73.002  1.00  0.00    -0.288 OA 
HETATM   35  C   UNL     1      -5.351   9.155  73.782  1.00  0.00    -0.113 C  
ENDBRANCH  27  34
BRANCH  31  36
HETATM   36  O   UNL     1      -5.839   6.099  72.595  1.00  0.00    -0.036 OA 
HETATM   37  C   UNL     1      -6.978   5.298  72.899  1.00  0.00    -0.083 C  
ENDBRANCH  31  36
ENDBRANCH  24  26
ENDBRANCH  23  24
ENDBRANCH   3  23
BRANCH   5  38
HETATM   38  O   UNL     1      -8.965   8.541  64.498  1.00  0.00     0.048 OA 
HETATM   39  C   UNL     1      -8.229   9.364  63.616  1.00  0.00    -0.169 C  
ENDBRANCH   5  38
BRANCH   8  40
HETATM   40  C   UNL     1      -8.305   5.008  64.518  1.00  0.00    -0.135 C  
HETATM   41  O   UNL     1      -7.142   5.157  64.177  1.00  0.00    -0.048 OA 
BRANCH  40  42
HETATM   42  O   UNL     1      -9.032   3.877  64.307  1.00  0.00    -0.118 OA 
HETATM   43  C   UNL     1     -10.094   3.879  63.342  1.00  0.00    -0.172 C  
ENDBRANCH  40  42
ENDBRANCH   8  40
TORSDOF 9
ENDMDL
MODEL      105
REMARK 921   NORMALIZED FREE ENERGY PREDICTED BY IDOCK:   -3.42 KCAL/MOL
REMARK 922        TOTAL FREE ENERGY PREDICTED BY IDOCK:   -7.85 KCAL/MOL
REMARK 923 INTER-LIGAND FREE ENERGY PREDICTED BY IDOCK:   -5.52 KCAL/MOL
REMARK 924 INTRA-LIGAND FREE ENERGY PREDICTED BY IDOCK:   -2.33 KCAL/MOL
REMARK 927      BINDING AFFINITY PREDICTED BY RF-SCORE:    0.00 PKD
ROOT
HETATM    1  C   UNL     1      -6.443   5.380  69.612  1.00  0.00    -0.038 C  
HETATM    2  C   UNL     1      -7.705   4.762  70.220  1.00  0.00    -0.058 C  
HETATM    3  C   UNL     1      -8.983   4.741  69.304  1.00  0.00    -0.095 C  
HETATM    4  C   UNL     1      -5.876  11.471  69.795  1.00  0.00    -0.104 A  
HETATM    5  C   UNL     1      -8.628   3.635  68.317  1.00  0.00    -0.097 C  
HETATM    6  C   UNL     1      -5.464  12.591  70.549  1.00  0.00    -0.162 A  
HETATM    7  C   UNL     1      -5.234  13.817  69.904  1.00  0.00    -0.094 A  
HETATM    8  C   UNL     1      -7.442   4.239  67.461  1.00  0.00    -0.069 C  
HETATM    9  C   UNL     1      -5.411  13.923  68.534  1.00  0.00    -0.095 A  
HETATM   10  C   UNL     1      -5.809  12.817  67.760  1.00  0.00    -0.134 A  
HETATM   11  H   UNL     1      -6.591  10.141  66.941  1.00  0.00     0.000 HD 
HETATM   12  C   UNL     1      -6.609   5.545  68.088  1.00  0.00    -0.049 C  
HETATM   13  C   UNL     1      -6.035  11.592  68.421  1.00  0.00    -0.049 A  
HETATM   14  N   UNL     1      -6.442  10.357  67.928  1.00  0.00    -0.060 NA 
HETATM   15  C   UNL     1      -6.616   9.470  68.964  1.00  0.00    -0.050 A  
HETATM   16  C   UNL     1      -6.262  10.148  70.124  1.00  0.00    -0.090 A  
HETATM   17  C   UNL     1      -6.799   7.102  67.763  1.00  0.00    -0.074 C  
HETATM   18  C   UNL     1      -6.432   9.540  71.468  1.00  0.00     0.101 C  
HETATM   19  C   UNL     1      -7.291   8.096  68.905  1.00  0.00    -0.090 C  
HETATM   20  C   UNL     1      -7.503   8.446  71.363  1.00  0.00    -0.094 C  
HETATM   21  C   UNL     1      -6.143   6.637  70.430  1.00  0.00    -0.024 C  
HETATM   22  N   UNL     1      -7.291   7.502  70.251  1.00  0.00    -0.075 NA 
ENDROOT
BRANCH   3  23
HETATM   23  O   UNL     1      -9.351   5.937  68.513  1.00  0.00    -0.120 OA 
BRANCH  23  24
HETATM   24  C   UNL     1     -10.434   6.628  69.002  1.00  0.00    -0.214 C  
HETATM   25  O   UNL     1     -11.221   6.147  69.812  1.00  0.00    -0.384 OA 
BRANCH  24  26
HETATM   26  C   UNL     1     -10.727   8.011  68.495  1.00  0.00    -0.065 A  
HETATM   27  C   UNL     1     -10.769  10.793  67.923  1.00  0.00    -0.239 A  
HETATM   28  C   UNL     1     -10.470   8.474  67.212  1.00  0.00    -0.366 A  
HETATM   29  C   UNL     1     -11.156   8.945  69.450  1.00  0.00     0.026 A  
HETATM   30  C   UNL     1     -11.145  10.322  69.194  1.00  0.00    -0.235 A  
HETATM   31  C   UNL     1     -10.457   9.854  66.921  1.00  0.00    -0.215 A  
BRANCH  30  32
HETATM   32  O   UNL     1     -11.444  11.257  70.161  1.00  0.00    -0.297 OA 
HETATM   33  C   UNL     1     -12.371  10.834  71.160  1.00  0.00    -0.393 C  
ENDBRANCH  30  32
BRANCH  27  34
HETATM   34  O   UNL     1     -10.763  12.159  67.761  1.00  0.00    -0.200 OA 
HETATM   35  C   UNL     1      -9.523  12.825  67.990  1.00  0.00    -0.213 C  
ENDBRANCH  27  34
BRANCH  31  36
HETATM   36  O   UNL     1     -10.156  10.320  65.665  1.00  0.00    -0.273 OA 
HETATM   37  C   UNL     1      -9.008   9.744  65.047  1.00  0.00    -0.207 C  
ENDBRANCH  31  36
ENDBRANCH  24  26
ENDBRANCH  23  24
ENDBRANCH   3  23
BRANCH   5  38
HETATM   38  O   UNL     1      -8.274   2.471  69.092  1.00  0.00    -0.051 OA 
HETATM   39  C   UNL     1      -9.290   1.550  69.437  1.00  0.00    -0.104 C  
ENDBRANCH   5  38
BRANCH   8  40
HETATM   40  C   UNL     1      -7.958   4.340  66.039  1.00  0.00    -0.098 C  
HETATM   41  O   UNL     1      -7.408   4.959  65.142  1.00  0.00    -0.069 OA 
BRANCH  40  42
HETATM   42  O   UNL     1      -9.165   3.721  65.922  1.00  0.00    -0.143 OA 
HETATM   43  C   UNL     1      -9.664   3.364  64.625  1.00  0.00    -0.164 C  
ENDBRANCH  40  42
ENDBRANCH   8  40
TORSDOF 9
ENDMDL
MODEL      106
REMARK 921   NORMALIZED FREE ENERGY PREDICTED BY IDOCK:   -3.40 KCAL/MOL
REMARK 922        TOTAL FREE ENERGY PREDICTED BY IDOCK:   -7.82 KCAL/MOL
REMARK 923 INTER-LIGAND FREE ENERGY PREDICTED BY IDOCK:   -6.47 KCAL/MOL
REMARK 924 INTRA-LIGAND FREE ENERGY PREDICTED BY IDOCK:   -1.35 KCAL/MOL
REMARK 927      BINDING AFFINITY PREDICTED BY RF-SCORE:    0.00 PKD
ROOT
HETATM    1  C   UNL     1     -11.550  14.969  66.267  1.00  0.00    -0.160 C  
HETATM    2  C   UNL     1     -11.317  14.262  64.929  1.00  0.00    -0.372 C  
HETATM    3  C   UNL     1     -10.670  12.831  64.999  1.00  0.00    -0.296 C  
HETATM    4  C   UNL     1      -6.827  17.939  68.783  1.00  0.00    -0.255 A  
HETATM    5  C   UNL     1     -11.839  11.996  65.509  1.00  0.00    -0.181 C  
HETATM    6  C   UNL     1      -6.090  19.142  68.839  1.00  0.00    -0.257 A  
HETATM    7  C   UNL     1      -5.243  19.389  69.932  1.00  0.00    -0.217 A  
HETATM    8  C   UNL     1     -12.055  12.491  66.997  1.00  0.00    -0.147 C  
HETATM    9  C   UNL     1      -5.135  18.455  70.949  1.00  0.00    -0.268 A  
HETATM   10  C   UNL     1      -5.870  17.255  70.921  1.00  0.00     0.488 A  
HETATM   11  H   UNL     1      -7.688  15.133  70.126  1.00  0.00     0.000 HD 
HETATM   12  C   UNL     1     -11.408  13.969  67.433  1.00  0.00    -0.350 C  
HETATM   13  C   UNL     1      -6.717  17.020  69.819  1.00  0.00     0.070 A  
HETATM   14  N   UNL     1      -7.536  15.938  69.518  1.00  0.00    -0.201 NA 
HETATM   15  C   UNL     1      -8.113  16.112  68.281  1.00  0.00    -0.153 A  
HETATM   16  C   UNL     1      -7.684  17.351  67.820  1.00  0.00    -0.200 A  
HETATM   17  C   UNL     1     -10.034  14.273  68.199  1.00  0.00    -0.230 C  
HETATM   18  C   UNL     1      -8.014  17.835  66.456  1.00  0.00    -0.299 C  
HETATM   19  C   UNL     1      -8.872  15.068  67.457  1.00  0.00    -0.185 C  
HETATM   20  C   UNL     1      -8.322  16.613  65.580  1.00  0.00     0.714 C  
HETATM   21  C   UNL     1     -10.632  16.194  66.271  1.00  0.00    -0.274 C  
HETATM   22  N   UNL     1      -9.285  15.672  66.180  1.00  0.00    -0.326 NA 
ENDROOT
BRANCH   3  23
HETATM   23  O   UNL     1      -9.521  12.576  65.898  1.00  0.00    -0.209 OA 
BRANCH  23  24
HETATM   24  C   UNL     1      -8.865  11.393  65.657  1.00  0.00    -0.076 C  
HETATM   25  O   UNL     1      -8.816  10.872  64.546  1.00  0.00    -0.162 OA 
BRANCH  24  26
HETATM   26  C   UNL     1      -8.224  10.651  66.794  1.00  0.00    -0.130 A  
HETATM   27  C   UNL     1      -7.338   9.690  69.317  1.00  0.00    -0.079 A  
HETATM   28  C   UNL     1      -8.571   9.379  67.228  1.00  0.00    -0.129 A  
HETATM   29  C   UNL     1      -7.303  11.374  67.568  1.00  0.00    -0.112 A  
HETATM   30  C   UNL     1      -6.889  10.931  68.830  1.00  0.00    -0.070 A  
HETATM   31  C   UNL     1      -8.164   8.901  68.492  1.00  0.00    -0.116 A  
BRANCH  30  32
HETATM   32  O   UNL     1      -6.084  11.688  69.653  1.00  0.00    -0.089 OA 
HETATM   33  C   UNL     1      -5.999  13.074  69.324  1.00  0.00    -0.093 C  
ENDBRANCH  30  32
BRANCH  27  34
HETATM   34  O   UNL     1      -6.903   9.339  70.573  1.00  0.00    -0.065 OA 
HETATM   35  C   UNL     1      -6.053   8.197  70.660  1.00  0.00    -0.032 C  
ENDBRANCH  27  34
BRANCH  31  36
HETATM   36  O   UNL     1      -8.545   7.663  68.947  1.00  0.00    -0.128 OA 
HETATM   37  C   UNL     1      -8.716   6.660  67.949  1.00  0.00    -0.116 C  
ENDBRANCH  31  36
ENDBRANCH  24  26
ENDBRANCH  23  24
ENDBRANCH   3  23
BRANCH   5  38
HETATM   38  O   UNL     1     -12.954  12.243  64.629  1.00  0.00    -0.741 OA 
HETATM   39  C   UNL     1     -12.911  11.722  63.315  1.00  0.00     0.063 C  
ENDBRANCH   5  38
BRANCH   8  40
HETATM   40  C   UNL     1     -11.763  11.297  67.885  1.00  0.00    -0.214 C  
HETATM   41  O   UNL     1     -11.433  10.194  67.480  1.00  0.00    -0.249 OA 
BRANCH  40  42
HETATM   42  O   UNL     1     -12.006  11.600  69.190  1.00  0.00    -0.323 OA 
HETATM   43  C   UNL     1     -12.131  10.548  70.157  1.00  0.00    -0.300 C  
ENDBRANCH  40  42
ENDBRANCH   8  40
TORSDOF 9
ENDMDL
MODEL      107
REMARK 921   NORMALIZED FREE ENERGY PREDICTED BY IDOCK:   -3.26 KCAL/MOL
REMARK 922        TOTAL FREE ENERGY PREDICTED BY IDOCK:   -7.60 KCAL/MOL
REMARK 923 INTER-LIGAND FREE ENERGY PREDICTED BY IDOCK:   -6.05 KCAL/MOL
REMARK 924 INTRA-LIGAND FREE ENERGY PREDICTED BY IDOCK:   -1.55 KCAL/MOL
REMARK 927      BINDING AFFINITY PREDICTED BY RF-SCORE:    0.00 PKD
ROOT
HETATM    1  C   UNL     1      -7.601  12.228  66.336  1.00  0.00     0.533 C  
HETATM    2  C   UNL     1      -8.827  12.920  65.733  1.00  0.00     0.688 C  
HETATM    3  C   UNL     1      -9.835  13.566  66.751  1.00  0.00    -0.267 C  
HETATM    4  C   UNL     1      -8.263   6.480  68.331  1.00  0.00    -0.114 A  
HETATM    5  C   UNL     1      -9.061  14.801  67.199  1.00  0.00    -0.217 C  
HETATM    6  C   UNL     1      -8.254   5.110  67.991  1.00  0.00    -0.098 A  
HETATM    7  C   UNL     1      -8.122   4.143  69.002  1.00  0.00    -0.074 A  
HETATM    8  C   UNL     1      -7.849  14.222  68.036  1.00  0.00    -0.143 C  
HETATM    9  C   UNL     1      -8.000   4.537  70.324  1.00  0.00    -0.063 A  
HETATM   10  C   UNL     1      -7.993   5.897  70.685  1.00  0.00    -0.110 A  
HETATM   11  H   UNL     1      -8.043   8.800  70.564  1.00  0.00     0.000 HD 
HETATM   12  C   UNL     1      -7.445  12.615  67.821  1.00  0.00    -0.131 C  
HETATM   13  C   UNL     1      -8.125   6.856  69.660  1.00  0.00    -0.126 A  
HETATM   14  N   UNL     1      -8.167   8.245  69.717  1.00  0.00    -0.118 NA 
HETATM   15  C   UNL     1      -8.399   8.762  68.463  1.00  0.00    -0.129 A  
HETATM   16  C   UNL     1      -8.454   7.677  67.596  1.00  0.00    -0.117 A  
HETATM   17  C   UNL     1      -7.850  11.353  68.721  1.00  0.00    -0.128 C  
HETATM   18  C   UNL     1      -8.805   7.838  66.163  1.00  0.00    -0.192 C  
HETATM   19  C   UNL     1      -8.768  10.205  68.109  1.00  0.00    -0.122 C  
HETATM   20  C   UNL     1      -9.596   9.145  66.012  1.00  0.00    -0.272 C  
HETATM   21  C   UNL     1      -7.740  10.741  66.005  1.00  0.00    -0.139 C  
HETATM   22  N   UNL     1      -8.960  10.309  66.654  1.00  0.00    -0.140 NA 
ENDROOT
BRANCH   3  23
HETATM   23  O   UNL     1     -10.235  12.830  67.972  1.00  0.00    -0.215 OA 
BRANCH  23  24
HETATM   24  C   UNL     1     -11.447  12.189  67.874  1.00  0.00    -0.328 C  
HETATM   25  O   UNL     1     -12.133  12.211  66.856  1.00  0.00    -0.600 OA 
BRANCH  24  26
HETATM   26  C   UNL     1     -12.010  11.474  69.069  1.00  0.00    -0.377 A  
HETATM   27  C   UNL     1     -12.436  10.044  71.487  1.00  0.00    -0.419 A  
HETATM   28  C   UNL     1     -12.654  12.074  70.142  1.00  0.00     0.000 A  
HETATM   29  C   UNL     1     -11.720  10.104  69.167  1.00  0.00    -0.027 A  
HETATM   30  C   UNL     1     -11.889   9.397  70.364  1.00  0.00    -0.090 A  
HETATM   31  C   UNL     1     -12.844  11.386  71.358  1.00  0.00    -0.397 A  
BRANCH  30  32
HETATM   32  O   UNL     1     -11.493   8.086  70.511  1.00  0.00    -0.264 OA 
HETATM   33  C   UNL     1     -11.454   7.316  69.309  1.00  0.00     0.268 C  
ENDBRANCH  30  32
BRANCH  27  34
HETATM   34  O   UNL     1     -12.547   9.286  72.628  1.00  0.00    -0.264 OA 
HETATM   35  C   UNL     1     -13.774   8.585  72.815  1.00  0.00    -0.041 C  
ENDBRANCH  27  34
BRANCH  31  36
HETATM   36  O   UNL     1     -13.438  11.991  72.439  1.00  0.00    -0.391 OA 
HETATM   37  C   UNL     1     -13.869  13.334  72.240  1.00  0.00    -0.539 C  
ENDBRANCH  31  36
ENDBRANCH  24  26
ENDBRANCH  23  24
ENDBRANCH   3  23
BRANCH   5  38
HETATM   38  O   UNL     1      -8.677  15.517  66.007  1.00  0.00    -0.258 OA 
HETATM   39  C   UNL     1      -8.805  16.925  65.990  1.00  0.00    -0.159 C  
ENDBRANCH   5  38
BRANCH   8  40
HETATM   40  C   UNL     1      -8.038  14.725  69.454  1.00  0.00    -0.039 C  
HETATM   41  O   UNL     1      -9.052  15.261  69.872  1.00  0.00    -0.145 OA 
BRANCH  40  42
HETATM   42  O   UNL     1      -6.892  14.576  70.172  1.00  0.00    -0.142 OA 
HETATM   43  C   UNL     1      -5.827  15.526  70.026  1.00  0.00    -0.144 C  
ENDBRANCH  40  42
ENDBRANCH   8  40
TORSDOF 9
ENDMDL
MODEL      108
REMARK 921   NORMALIZED FREE ENERGY PREDICTED BY IDOCK:   -3.24 KCAL/MOL
REMARK 922        TOTAL FREE ENERGY PREDICTED BY IDOCK:   -7.58 KCAL/MOL
REMARK 923 INTER-LIGAND FREE ENERGY PREDICTED BY IDOCK:   -6.39 KCAL/MOL
REMARK 924 INTRA-LIGAND FREE ENERGY PREDICTED BY IDOCK:   -1.19 KCAL/MOL
REMARK 927      BINDING AFFINITY PREDICTED BY RF-SCORE:    0.00 PKD
ROOT
HETATM    1  C   UNL     1      -7.240   7.815  70.609  1.00  0.00    -0.061 C  
HETATM    2  C   UNL     1      -7.971   9.110  70.974  1.00  0.00    -0.166 C  
HETATM    3  C   UNL     1      -9.541   9.069  70.905  1.00  0.00    -0.262 C  
HETATM    4  C   UNL     1      -6.298   6.642  64.677  1.00  0.00    -0.038 A  
HETATM    5  C   UNL     1      -9.876   8.249  72.146  1.00  0.00    -0.272 C  
HETATM    6  C   UNL     1      -5.464   6.846  63.557  1.00  0.00    -0.032 A  
HETATM    7  C   UNL     1      -5.565   5.989  62.449  1.00  0.00    -0.022 A  
HETATM    8  C   UNL     1      -9.350   6.795  71.809  1.00  0.00    -0.147 C  
HETATM    9  C   UNL     1      -6.480   4.950  62.459  1.00  0.00    -0.026 A  
HETATM   10  C   UNL     1      -7.313   4.719  63.570  1.00  0.00    -0.054 A  
HETATM   11  H   UNL     1      -8.583   4.924  66.175  1.00  0.00     0.000 HD 
HETATM   12  C   UNL     1      -8.230   6.632  70.580  1.00  0.00    -0.118 C  
HETATM   13  C   UNL     1      -7.200   5.587  64.676  1.00  0.00    -0.062 A  
HETATM   14  N   UNL     1      -7.889   5.612  65.883  1.00  0.00    -0.099 NA 
HETATM   15  C   UNL     1      -7.499   6.702  66.626  1.00  0.00    -0.079 A  
HETATM   16  C   UNL     1      -6.509   7.344  65.890  1.00  0.00    -0.045 A  
HETATM   17  C   UNL     1      -8.475   6.213  69.052  1.00  0.00    -0.118 C  
HETATM   18  C   UNL     1      -5.925   8.636  66.327  1.00  0.00    -0.051 C  
HETATM   19  C   UNL     1      -8.171   7.254  67.886  1.00  0.00    -0.119 C  
HETATM   20  C   UNL     1      -6.932   9.322  67.260  1.00  0.00    -0.081 C  
HETATM   21  C   UNL     1      -6.453   8.110  69.331  1.00  0.00    -0.035 C  
HETATM   22  N   UNL     1      -7.445   8.453  68.334  1.00  0.00    -0.094 NA 
ENDROOT
BRANCH   3  23
HETATM   23  O   UNL     1     -10.219   8.427  69.755  1.00  0.00    -0.197 OA 
BRANCH  23  24
HETATM   24  C   UNL     1     -10.698   9.309  68.816  1.00  0.00    -0.154 C  
HETATM   25  O   UNL     1     -10.982   8.974  67.670  1.00  0.00    -0.152 OA 
BRANCH  24  26
HETATM   26  C   UNL     1     -10.831  10.765  69.162  1.00  0.00    -0.281 A  
HETATM   27  C   UNL     1     -11.239  13.576  69.175  1.00  0.00    -0.260 A  
HETATM   28  C   UNL     1     -11.853  11.328  69.914  1.00  0.00    -0.436 A  
HETATM   29  C   UNL     1      -9.923  11.636  68.542  1.00  0.00    -0.198 A  
HETATM   30  C   UNL     1     -10.132  13.020  68.507  1.00  0.00    -0.192 A  
HETATM   31  C   UNL     1     -12.087  12.719  69.904  1.00  0.00    -0.259 A  
BRANCH  30  32
HETATM   32  O   UNL     1      -9.318  13.875  67.797  1.00  0.00    -0.191 OA 
HETATM   33  C   UNL     1      -9.456  13.820  66.378  1.00  0.00    -0.243 C  
ENDBRANCH  30  32
BRANCH  27  34
HETATM   34  O   UNL     1     -11.386  14.940  69.073  1.00  0.00    -0.262 OA 
HETATM   35  C   UNL     1     -10.512  15.738  69.868  1.00  0.00    -0.320 C  
ENDBRANCH  27  34
BRANCH  31  36
HETATM   36  O   UNL     1     -13.126  13.277  70.608  1.00  0.00    -0.029 OA 
HETATM   37  C   UNL     1     -12.845  13.624  71.961  1.00  0.00    -0.270 C  
ENDBRANCH  31  36
ENDBRANCH  24  26
ENDBRANCH  23  24
ENDBRANCH   3  23
BRANCH   5  38
HETATM   38  O   UNL     1      -9.218   8.881  73.263  1.00  0.00    -0.009 OA 
HETATM   39  C   UNL     1      -8.581   8.065  74.225  1.00  0.00    -0.130 C  
ENDBRANCH   5  38
BRANCH   8  40
HETATM   40  C   UNL     1     -10.573   5.901  71.780  1.00  0.00    -0.234 C  
HETATM   41  O   UNL     1     -11.533   6.058  71.042  1.00  0.00    -0.280 OA 
BRANCH  40  42
HETATM   42  O   UNL     1     -10.495   4.951  72.752  1.00  0.00    -0.188 OA 
HETATM   43  C   UNL     1      -9.449   3.969  72.711  1.00  0.00    -0.125 C  
ENDBRANCH  40  42
ENDBRANCH   8  40
TORSDOF 9
ENDMDL
MODEL      109
REMARK 921   NORMALIZED FREE ENERGY PREDICTED BY IDOCK:   -3.22 KCAL/MOL
REMARK 922        TOTAL FREE ENERGY PREDICTED BY IDOCK:   -7.55 KCAL/MOL
REMARK 923 INTER-LIGAND FREE ENERGY PREDICTED BY IDOCK:   -7.66 KCAL/MOL
REMARK 924 INTRA-LIGAND FREE ENERGY PREDICTED BY IDOCK:    0.11 KCAL/MOL
REMARK 927      BINDING AFFINITY PREDICTED BY RF-SCORE:    0.00 PKD
ROOT
HETATM    1  C   UNL     1      -6.142  10.962  67.486  1.00  0.00    -0.049 C  
HETATM    2  C   UNL     1      -6.610   9.869  68.451  1.00  0.00    -0.055 C  
HETATM    3  C   UNL     1      -8.161   9.623  68.527  1.00  0.00    -0.105 C  
HETATM    4  C   UNL     1      -6.309  16.758  69.442  1.00  0.00    -0.222 A  
HETATM    5  C   UNL     1      -8.418   8.902  67.209  1.00  0.00    -0.114 C  
HETATM    6  C   UNL     1      -5.637  17.781  70.146  1.00  0.00    -0.242 A  
HETATM    7  C   UNL     1      -6.032  19.118  69.976  1.00  0.00    -0.268 A  
HETATM    8  C   UNL     1      -8.168  10.006  66.103  1.00  0.00    -0.121 C  
HETATM    9  C   UNL     1      -7.077  19.428  69.121  1.00  0.00    -0.384 A  
HETATM   10  C   UNL     1      -7.753  18.426  68.399  1.00  0.00    -0.314 A  
HETATM   11  H   UNL     1      -8.562  15.855  67.315  1.00  0.00     0.000 HD 
HETATM   12  C   UNL     1      -7.287  11.360  66.532  1.00  0.00    -0.063 C  
HETATM   13  C   UNL     1      -7.345  17.089  68.579  1.00  0.00    -0.220 A  
HETATM   14  N   UNL     1      -7.828  15.910  68.022  1.00  0.00    -0.134 NA 
HETATM   15  C   UNL     1      -7.173  14.829  68.563  1.00  0.00    -0.115 A  
HETATM   16  C   UNL     1      -6.226  15.344  69.441  1.00  0.00    -0.128 A  
HETATM   17  C   UNL     1      -7.824  12.808  66.959  1.00  0.00    -0.022 C  
HETATM   18  C   UNL     1      -5.398  14.464  70.302  1.00  0.00    -0.104 C  
HETATM   19  C   UNL     1      -7.555  13.352  68.431  1.00  0.00    -0.133 C  
HETATM   20  C   UNL     1      -6.137  13.129  70.468  1.00  0.00    -0.017 C  
HETATM   21  C   UNL     1      -5.527  12.064  68.350  1.00  0.00    -0.053 C  
HETATM   22  N   UNL     1      -6.600  12.537  69.200  1.00  0.00    -0.101 NA 
ENDROOT
BRANCH   3  23
HETATM   23  O   UNL     1      -9.095  10.771  68.591  1.00  0.00    -0.158 OA 
BRANCH  23  24
HETATM   24  C   UNL     1     -10.412  10.419  68.767  1.00  0.00    -0.199 C  
HETATM   25  O   UNL     1     -11.333  10.957  68.159  1.00  0.00    -0.282 OA 
BRANCH  24  26
HETATM   26  C   UNL     1     -10.775   9.378  69.787  1.00  0.00    -0.250 A  
HETATM   27  C   UNL     1     -10.890   7.595  71.996  1.00  0.00    -0.238 A  
HETATM   28  C   UNL     1     -11.784   9.489  70.733  1.00  0.00    -0.370 A  
HETATM   29  C   UNL     1      -9.918   8.270  69.875  1.00  0.00    -0.190 A  
HETATM   30  C   UNL     1      -9.938   7.406  70.978  1.00  0.00    -0.183 A  
HETATM   31  C   UNL     1     -11.835   8.631  71.852  1.00  0.00    -0.351 A  
BRANCH  30  32
HETATM   32  O   UNL     1      -9.021   6.391  71.139  1.00  0.00    -0.145 OA 
HETATM   33  C   UNL     1      -7.954   6.368  70.191  1.00  0.00    -0.112 C  
ENDBRANCH  30  32
BRANCH  27  34
HETATM   34  O   UNL     1     -10.828   6.718  73.053  1.00  0.00    -0.259 OA 
HETATM   35  C   UNL     1      -9.932   7.053  74.111  1.00  0.00    -0.268 C  
ENDBRANCH  27  34
BRANCH  31  36
HETATM   36  O   UNL     1     -12.802   8.767  72.817  1.00  0.00    -0.340 OA 
HETATM   37  C   UNL     1     -14.148   8.774  72.350  1.00  0.00    -0.413 C  
ENDBRANCH  31  36
ENDBRANCH  24  26
ENDBRANCH  23  24
ENDBRANCH   3  23
BRANCH   5  38
HETATM   38  O   UNL     1      -7.510   7.783  67.153  1.00  0.00    -0.092 OA 
HETATM   39  C   UNL     1      -7.225   7.201  65.896  1.00  0.00    -0.074 C  
ENDBRANCH   5  38
BRANCH   8  40
HETATM   40  C   UNL     1      -9.499  10.214  65.408  1.00  0.00    -0.239 C  
HETATM   41  O   UNL     1     -10.490   9.523  65.582  1.00  0.00     0.003 OA 
BRANCH  40  42
HETATM   42  O   UNL     1      -9.411  11.221  64.496  1.00  0.00    -0.228 OA 
HETATM   43  C   UNL     1      -9.170  10.918  63.115  1.00  0.00    -0.306 C  
ENDBRANCH  40  42
ENDBRANCH   8  40
TORSDOF 9
ENDMDL
MODEL      110
REMARK 921   NORMALIZED FREE ENERGY PREDICTED BY IDOCK:   -3.16 KCAL/MOL
REMARK 922        TOTAL FREE ENERGY PREDICTED BY IDOCK:   -7.46 KCAL/MOL
REMARK 923 INTER-LIGAND FREE ENERGY PREDICTED BY IDOCK:   -6.31 KCAL/MOL
REMARK 924 INTRA-LIGAND FREE ENERGY PREDICTED BY IDOCK:   -1.14 KCAL/MOL
REMARK 927      BINDING AFFINITY PREDICTED BY RF-SCORE:    0.00 PKD
ROOT
HETATM    1  C   UNL     1     -10.903   5.674  69.302  1.00  0.00    -0.309 C  
HETATM    2  C   UNL     1      -9.730   5.057  70.070  1.00  0.00    -0.278 C  
HETATM    3  C   UNL     1      -9.120   5.928  71.229  1.00  0.00    -0.140 C  
HETATM    4  C   UNL     1      -9.613   9.604  64.792  1.00  0.00    -0.197 A  
HETATM    5  C   UNL     1     -10.198   5.802  72.300  1.00  0.00    -0.196 C  
HETATM    6  C   UNL     1      -9.281   9.760  63.429  1.00  0.00    -0.217 A  
HETATM    7  C   UNL     1      -9.448  11.011  62.811  1.00  0.00    -0.361 A  
HETATM    8  C   UNL     1     -11.432   6.598  71.710  1.00  0.00    -0.334 C  
HETATM    9  C   UNL     1      -9.937  12.083  63.540  1.00  0.00    -0.393 A  
HETATM   10  C   UNL     1     -10.287  11.946  64.896  1.00  0.00    -0.328 A  
HETATM   11  H   UNL     1     -10.771  10.841  67.539  1.00  0.00     0.000 HD 
HETATM   12  C   UNL     1     -11.461   6.892  70.065  1.00  0.00    -0.328 C  
HETATM   13  C   UNL     1     -10.115  10.685  65.503  1.00  0.00    -0.280 A  
HETATM   14  N   UNL     1     -10.356  10.265  66.806  1.00  0.00    -0.230 NA 
HETATM   15  C   UNL     1      -9.952   8.959  66.963  1.00  0.00    -0.233 A  
HETATM   16  C   UNL     1      -9.495   8.539  65.719  1.00  0.00    -0.134 A  
HETATM   17  C   UNL     1     -11.033   8.222  69.279  1.00  0.00     0.031 C  
HETATM   18  C   UNL     1      -8.869   7.207  65.526  1.00  0.00     0.017 C  
HETATM   19  C   UNL     1      -9.797   8.188  68.277  1.00  0.00    -0.171 C  
HETATM   20  C   UNL     1      -8.331   6.733  66.883  1.00  0.00    -0.114 C  
HETATM   21  C   UNL     1     -10.409   5.900  67.872  1.00  0.00    -0.211 C  
HETATM   22  N   UNL     1      -9.307   6.832  67.984  1.00  0.00    -0.120 NA 
ENDROOT
BRANCH   3  23
HETATM   23  O   UNL     1      -8.871   7.373  71.022  1.00  0.00    -0.141 OA 
BRANCH  23  24
HETATM   24  C   UNL     1      -7.541   7.711  70.936  1.00  0.00    -0.080 C  
HETATM   25  O   UNL     1      -6.674   7.185  71.628  1.00  0.00    -0.054 OA 
BRANCH  24  26
HETATM   26  C   UNL     1      -7.110   8.811  70.009  1.00  0.00    -0.047 A  
HETATM   27  C   UNL     1      -5.825  10.988  68.713  1.00  0.00    -0.039 A  
HETATM   28  C   UNL     1      -6.493   8.637  68.778  1.00  0.00    -0.053 A  
HETATM   29  C   UNL     1      -7.210  10.119  70.509  1.00  0.00     0.036 A  
HETATM   30  C   UNL     1      -6.549  11.194  69.902  1.00  0.00    -0.129 A  
HETATM   31  C   UNL     1      -5.824   9.702  68.139  1.00  0.00    -0.040 A  
BRANCH  30  32
HETATM   32  O   UNL     1      -6.535  12.458  70.449  1.00  0.00    -0.032 OA 
HETATM   33  C   UNL     1      -5.373  12.786  71.211  1.00  0.00    -0.138 C  
ENDBRANCH  30  32
BRANCH  27  34
HETATM   34  O   UNL     1      -5.187  12.091  68.194  1.00  0.00    -0.044 OA 
HETATM   35  C   UNL     1      -5.925  12.876  67.260  1.00  0.00     0.034 C  
ENDBRANCH  27  34
BRANCH  31  36
HETATM   36  O   UNL     1      -5.171   9.524  66.944  1.00  0.00    -0.034 OA 
HETATM   37  C   UNL     1      -5.848   8.726  65.978  1.00  0.00    -0.047 C  
ENDBRANCH  31  36
ENDBRANCH  24  26
ENDBRANCH  23  24
ENDBRANCH   3  23
BRANCH   5  38
HETATM   38  O   UNL     1     -10.434   4.394  72.501  1.00  0.00    -0.188 OA 
HETATM   39  C   UNL     1     -11.557   3.995  73.263  1.00  0.00     0.002 C  
ENDBRANCH   5  38
BRANCH   8  40
HETATM   40  C   UNL     1     -11.666   7.766  72.646  1.00  0.00    -0.309 C  
HETATM   41  O   UNL     1     -11.197   7.863  73.769  1.00  0.00     0.168 OA 
BRANCH  40  42
HETATM   42  O   UNL     1     -12.543   8.651  72.098  1.00  0.00    -0.346 OA 
HETATM   43  C   UNL     1     -13.902   8.690  72.556  1.00  0.00    -0.306 C  
ENDBRANCH  40  42
ENDBRANCH   8  40
TORSDOF 9
ENDMDL
MODEL      111
REMARK 921   NORMALIZED FREE ENERGY PREDICTED BY IDOCK:   -3.13 KCAL/MOL
REMARK 922        TOTAL FREE ENERGY PREDICTED BY IDOCK:   -7.42 KCAL/MOL
REMARK 923 INTER-LIGAND FREE ENERGY PREDICTED BY IDOCK:   -5.91 KCAL/MOL
REMARK 924 INTRA-LIGAND FREE ENERGY PREDICTED BY IDOCK:   -1.51 KCAL/MOL
REMARK 927      BINDING AFFINITY PREDICTED BY RF-SCORE:    0.00 PKD
ROOT
HETATM    1  C   UNL     1      -8.914   3.775  70.927  1.00  0.00    -0.154 C  
HETATM    2  C   UNL     1      -7.822   4.614  71.596  1.00  0.00    -0.097 C  
HETATM    3  C   UNL     1      -7.976   6.175  71.486  1.00  0.00    -0.110 C  
HETATM    4  C   UNL     1      -8.440   2.745  64.913  1.00  0.00    -0.094 A  
HETATM    5  C   UNL     1      -9.112   6.436  72.468  1.00  0.00    -0.136 C  
HETATM    6  C   UNL     1      -7.886   1.933  63.900  1.00  0.00    -0.061 A  
HETATM    7  C   UNL     1      -8.435   1.962  62.607  1.00  0.00    -0.072 A  
HETATM    8  C   UNL     1     -10.381   5.786  71.782  1.00  0.00    -0.271 C  
HETATM    9  C   UNL     1      -9.516   2.783  62.332  1.00  0.00    -0.089 A  
HETATM   10  C   UNL     1     -10.093   3.591  63.330  1.00  0.00    -0.173 A  
HETATM   11  H   UNL     1     -10.672   4.870  65.873  1.00  0.00     0.000 HD 
HETATM   12  C   UNL     1     -10.128   4.659  70.575  1.00  0.00    -0.263 C  
HETATM   13  C   UNL     1      -9.532   3.551  64.623  1.00  0.00    -0.156 A  
HETATM   14  N   UNL     1      -9.875   4.238  65.782  1.00  0.00    -0.208 NA 
HETATM   15  C   UNL     1      -8.984   3.943  66.787  1.00  0.00    -0.136 A  
HETATM   16  C   UNL     1      -8.094   3.014  66.260  1.00  0.00    -0.082 A  
HETATM   17  C   UNL     1     -10.160   4.869  68.987  1.00  0.00    -0.210 C  
HETATM   18  C   UNL     1      -6.913   2.543  67.025  1.00  0.00    -0.048 C  
HETATM   19  C   UNL     1      -8.834   4.658  68.132  1.00  0.00    -0.106 C  
HETATM   20  C   UNL     1      -6.576   3.604  68.082  1.00  0.00    -0.041 C  
HETATM   21  C   UNL     1      -8.235   3.019  69.784  1.00  0.00    -0.044 C  
HETATM   22  N   UNL     1      -7.733   4.038  68.887  1.00  0.00    -0.054 NA 
ENDROOT
BRANCH   3  23
HETATM   23  O   UNL     1      -8.356   6.797  70.196  1.00  0.00    -0.131 OA 
BRANCH  23  24
HETATM   24  C   UNL     1      -8.325   8.171  70.200  1.00  0.00    -0.125 C  
HETATM   25  O   UNL     1      -8.013   8.828  71.189  1.00  0.00    -0.114 OA 
BRANCH  24  26
HETATM   26  C   UNL     1      -8.745   8.929  68.973  1.00  0.00    -0.136 A  
HETATM   27  C   UNL     1      -8.895  10.503  66.613  1.00  0.00    -0.136 A  
HETATM   28  C   UNL     1      -9.145   8.363  67.770  1.00  0.00    -0.142 A  
HETATM   29  C   UNL     1      -8.572  10.321  69.013  1.00  0.00    -0.162 A  
HETATM   30  C   UNL     1      -8.604  11.103  67.852  1.00  0.00    -0.135 A  
HETATM   31  C   UNL     1      -9.193   9.126  66.585  1.00  0.00    -0.164 A  
BRANCH  30  32
HETATM   32  O   UNL     1      -8.312  12.449  67.858  1.00  0.00    -0.144 OA 
HETATM   33  C   UNL     1      -7.379  12.872  68.852  1.00  0.00    -0.014 C  
ENDBRANCH  30  32
BRANCH  27  34
HETATM   34  O   UNL     1      -8.884  11.336  65.520  1.00  0.00    -0.178 OA 
HETATM   35  C   UNL     1     -10.153  11.759  65.025  1.00  0.00    -0.263 C  
ENDBRANCH  27  34
BRANCH  31  36
HETATM   36  O   UNL     1      -9.541   8.561  65.382  1.00  0.00     0.068 OA 
HETATM   37  C   UNL     1      -8.472   7.991  64.631  1.00  0.00     0.017 C  
ENDBRANCH  31  36
ENDBRANCH  24  26
ENDBRANCH  23  24
ENDBRANCH   3  23
BRANCH   5  38
HETATM   38  O   UNL     1      -8.736   5.833  73.723  1.00  0.00    -0.121 OA 
HETATM   39  C   UNL     1      -9.707   5.100  74.443  1.00  0.00    -0.166 C  
ENDBRANCH   5  38
BRANCH   8  40
HETATM   40  C   UNL     1     -11.338   6.928  71.500  1.00  0.00    -0.266 C  
HETATM   41  O   UNL     1     -12.320   6.850  70.778  1.00  0.00    -0.376 OA 
BRANCH  40  42
HETATM   42  O   UNL     1     -10.904   8.074  72.091  1.00  0.00    -0.239 OA 
HETATM   43  C   UNL     1     -11.516   9.328  71.757  1.00  0.00    -0.378 C  
ENDBRANCH  40  42
ENDBRANCH   8  40
TORSDOF 9
ENDMDL
MODEL      112
REMARK 921   NORMALIZED FREE ENERGY PREDICTED BY IDOCK:   -2.91 KCAL/MOL
REMARK 922        TOTAL FREE ENERGY PREDICTED BY IDOCK:   -7.07 KCAL/MOL
REMARK 923 INTER-LIGAND FREE ENERGY PREDICTED BY IDOCK:   -5.58 KCAL/MOL
REMARK 924 INTRA-LIGAND FREE ENERGY PREDICTED BY IDOCK:   -1.49 KCAL/MOL
REMARK 927      BINDING AFFINITY PREDICTED BY RF-SCORE:    0.00 PKD
ROOT
HETATM    1  C   UNL     1      -9.427   8.404  70.088  1.00  0.00    -0.165 C  
HETATM    2  C   UNL     1      -9.925   7.456  68.993  1.00  0.00    -0.176 C  
HETATM    3  C   UNL     1      -9.688   7.917  67.509  1.00  0.00    -0.159 C  
HETATM    4  C   UNL     1     -13.029  13.097  71.655  1.00  0.00    -0.429 A  
HETATM    5  C   UNL     1      -8.188   7.687  67.358  1.00  0.00    -0.116 C  
HETATM    6  C   UNL     1     -14.106  13.535  72.455  1.00  0.00    -0.563 A  
HETATM    7  C   UNL     1     -14.300  14.910  72.668  1.00  0.00    -0.030 A  
HETATM    8  C   UNL     1      -7.528   8.772  68.302  1.00  0.00    -0.092 C  
HETATM    9  C   UNL     1     -13.435  15.828  72.096  1.00  0.00    -0.474 A  
HETATM   10  C   UNL     1     -12.346  15.414  71.306  1.00  0.00    -0.446 A  
HETATM   11  H   UNL     1     -10.412  13.772  69.890  1.00  0.00     0.000 HD 
HETATM   12  C   UNL     1      -8.482   9.464  69.487  1.00  0.00    -0.152 C  
HETATM   13  C   UNL     1     -12.163  14.030  71.101  1.00  0.00    -0.338 A  
HETATM   14  N   UNL     1     -11.204  13.341  70.369  1.00  0.00     0.447 NA 
HETATM   15  C   UNL     1     -11.477  11.993  70.383  1.00  0.00     0.283 A  
HETATM   16  C   UNL     1     -12.603  11.831  71.183  1.00  0.00    -0.412 A  
HETATM   17  C   UNL     1      -9.249  10.871  69.459  1.00  0.00     0.218 C  
HETATM   18  C   UNL     1     -13.265  10.512  71.341  1.00  0.00    -0.441 C  
HETATM   19  C   UNL     1     -10.839  10.908  69.511  1.00  0.00    -0.238 C  
HETATM   20  C   UNL     1     -12.898   9.647  70.128  1.00  0.00     0.542 C  
HETATM   21  C   UNL     1     -10.672   8.902  70.824  1.00  0.00    -0.233 C  
HETATM   22  N   UNL     1     -11.454   9.610  69.832  1.00  0.00    -0.159 NA 
ENDROOT
BRANCH   3  23
HETATM   23  O   UNL     1      -9.961   9.318  67.112  1.00  0.00    -0.186 OA 
BRANCH  23  24
HETATM   24  C   UNL     1      -9.704   9.591  65.789  1.00  0.00    -0.287 C  
HETATM   25  O   UNL     1      -9.357   8.730  64.986  1.00  0.00    -0.013 OA 
BRANCH  24  26
HETATM   26  C   UNL     1      -9.781  11.006  65.293  1.00  0.00    -0.286 A  
HETATM   27  C   UNL     1     -10.535  13.660  64.615  1.00  0.00    -0.423 A  
HETATM   28  C   UNL     1      -9.112  12.093  65.838  1.00  0.00    -0.001 A  
HETATM   29  C   UNL     1     -10.727  11.261  64.288  1.00  0.00    -0.416 A  
HETATM   30  C   UNL     1     -11.136  12.563  63.971  1.00  0.00    -0.397 A  
HETATM   31  C   UNL     1      -9.496  13.416  65.535  1.00  0.00     0.189 A  
BRANCH  30  32
HETATM   32  O   UNL     1     -12.152  12.822  63.078  1.00  0.00    -0.400 OA 
HETATM   33  C   UNL     1     -13.270  11.937  63.142  1.00  0.00     0.536 C  
ENDBRANCH  30  32
BRANCH  27  34
HETATM   34  O   UNL     1     -11.010  14.902  64.264  1.00  0.00    -0.135 OA 
HETATM   35  C   UNL     1     -11.614  15.673  65.300  1.00  0.00     0.081 C  
ENDBRANCH  27  34
BRANCH  31  36
HETATM   36  O   UNL     1      -8.870  14.495  66.109  1.00  0.00    -0.061 OA 
HETATM   37  C   UNL     1      -8.833  14.506  67.533  1.00  0.00    -0.188 C  
ENDBRANCH  31  36
ENDBRANCH  24  26
ENDBRANCH  23  24
ENDBRANCH   3  23
BRANCH   5  38
HETATM   38  O   UNL     1      -7.927   6.322  67.742  1.00  0.00    -0.111 OA 
HETATM   39  C   UNL     1      -6.625   5.973  68.169  1.00  0.00    -0.055 C  
ENDBRANCH   5  38
BRANCH   8  40
HETATM   40  C   UNL     1      -6.739   9.695  67.395  1.00  0.00    -0.071 C  
HETATM   41  O   UNL     1      -6.425   9.438  66.244  1.00  0.00    -0.067 OA 
BRANCH  40  42
HETATM   42  O   UNL     1      -6.351  10.813  68.069  1.00  0.00    -0.057 OA 
HETATM   43  C   UNL     1      -5.541  11.799  67.414  1.00  0.00    -0.100 C  
ENDBRANCH  40  42
ENDBRANCH   8  40
TORSDOF 9
ENDMDL
MODEL      113
REMARK 921   NORMALIZED FREE ENERGY PREDICTED BY IDOCK:   -2.81 KCAL/MOL
REMARK 922        TOTAL FREE ENERGY PREDICTED BY IDOCK:   -6.92 KCAL/MOL
REMARK 923 INTER-LIGAND FREE ENERGY PREDICTED BY IDOCK:   -7.32 KCAL/MOL
REMARK 924 INTRA-LIGAND FREE ENERGY PREDICTED BY IDOCK:    0.39 KCAL/MOL
REMARK 927      BINDING AFFINITY PREDICTED BY RF-SCORE:    0.00 PKD
ROOT
HETATM    1  C   UNL     1     -10.168   7.369  71.947  1.00  0.00    -0.213 C  
HETATM    2  C   UNL     1     -10.758   6.146  71.238  1.00  0.00    -0.310 C  
HETATM    3  C   UNL     1     -10.466   6.024  69.698  1.00  0.00    -0.261 C  
HETATM    4  C   UNL     1     -13.260  12.638  71.601  1.00  0.00    -0.394 A  
HETATM    5  C   UNL     1      -8.998   5.610  69.702  1.00  0.00    -0.123 C  
HETATM    6  C   UNL     1     -14.289  13.435  72.147  1.00  0.00    -0.196 A  
HETATM    7  C   UNL     1     -14.338  14.808  71.853  1.00  0.00    -0.657 A  
HETATM    8  C   UNL     1      -8.232   6.891  70.228  1.00  0.00    -0.129 C  
HETATM    9  C   UNL     1     -13.378  15.373  71.030  1.00  0.00    -0.545 A  
HETATM   10  C   UNL     1     -12.335  14.601  70.484  1.00  0.00    -0.400 A  
HETATM   11  H   UNL     1     -10.579  12.383  69.822  1.00  0.00     0.000 HD 
HETATM   12  C   UNL     1      -9.112   8.049  71.050  1.00  0.00    -0.166 C  
HETATM   13  C   UNL     1     -12.299  13.225  70.789  1.00  0.00    -0.344 A  
HETATM   14  N   UNL     1     -11.414  12.230  70.389  1.00  0.00     0.140 NA 
HETATM   15  C   UNL     1     -11.829  11.009  70.868  1.00  0.00    -0.196 A  
HETATM   16  C   UNL     1     -12.969  11.252  71.625  1.00  0.00    -0.537 A  
HETATM   17  C   UNL     1      -9.727   9.421  70.494  1.00  0.00    -0.331 C  
HETATM   18  C   UNL     1     -13.767  10.147  72.211  1.00  0.00    -0.132 C  
HETATM   19  C   UNL     1     -11.304   9.628  70.463  1.00  0.00    -0.296 C  
HETATM   20  C   UNL     1     -13.487   8.875  71.400  1.00  0.00    -0.258 C  
HETATM   21  C   UNL     1     -11.356   8.215  72.406  1.00  0.00    -0.391 C  
HETATM   22  N   UNL     1     -12.054   8.596  71.196  1.00  0.00    -0.284 NA 
ENDROOT
BRANCH   3  23
HETATM   23  O   UNL     1     -10.588   7.210  68.820  1.00  0.00    -0.205 OA 
BRANCH  23  24
HETATM   24  C   UNL     1     -10.788   6.913  67.493  1.00  0.00    -0.292 C  
HETATM   25  O   UNL     1     -11.896   6.928  66.966  1.00  0.00     0.779 OA 
BRANCH  24  26
HETATM   26  C   UNL     1      -9.626   6.487  66.642  1.00  0.00    -0.201 A  
HETATM   27  C   UNL     1      -7.072   5.981  65.506  1.00  0.00    -0.069 A  
HETATM   28  C   UNL     1      -9.159   5.188  66.502  1.00  0.00    -0.127 A  
HETATM   29  C   UNL     1      -8.866   7.518  66.067  1.00  0.00    -0.179 A  
HETATM   30  C   UNL     1      -7.589   7.288  65.539  1.00  0.00    -0.097 A  
HETATM   31  C   UNL     1      -7.880   4.924  65.968  1.00  0.00    -0.099 A  
BRANCH  30  32
HETATM   32  O   UNL     1      -6.782   8.308  65.086  1.00  0.00    -0.055 OA 
HETATM   33  C   UNL     1      -7.430   9.565  64.890  1.00  0.00    -0.111 C  
ENDBRANCH  30  32
BRANCH  27  34
HETATM   34  O   UNL     1      -5.803   5.845  64.993  1.00  0.00    -0.023 OA 
HETATM   35  C   UNL     1      -5.508   4.616  64.332  1.00  0.00    -0.013 C  
ENDBRANCH  27  34
BRANCH  31  36
HETATM   36  O   UNL     1      -7.394   3.643  65.871  1.00  0.00    -0.073 OA 
HETATM   37  C   UNL     1      -8.363   2.602  65.953  1.00  0.00    -0.091 C  
ENDBRANCH  31  36
ENDBRANCH  24  26
ENDBRANCH  23  24
ENDBRANCH   3  23
BRANCH   5  38
HETATM   38  O   UNL     1      -8.885   4.453  70.554  1.00  0.00    -0.086 OA 
HETATM   39  C   UNL     1      -8.967   3.168  69.970  1.00  0.00    -0.103 C  
ENDBRANCH   5  38
BRANCH   8  40
HETATM   40  C   UNL     1      -7.345   7.349  69.087  1.00  0.00    -0.090 C  
HETATM   41  O   UNL     1      -7.309   8.488  68.648  1.00  0.00    -0.084 OA 
BRANCH  40  42
HETATM   42  O   UNL     1      -6.659   6.298  68.561  1.00  0.00    -0.053 OA 
HETATM   43  C   UNL     1      -5.948   5.401  69.427  1.00  0.00    -0.020 C  
ENDBRANCH  40  42
ENDBRANCH   8  40
TORSDOF 9
ENDMDL
MODEL      114
REMARK 921   NORMALIZED FREE ENERGY PREDICTED BY IDOCK:   -2.80 KCAL/MOL
REMARK 922        TOTAL FREE ENERGY PREDICTED BY IDOCK:   -6.91 KCAL/MOL
REMARK 923 INTER-LIGAND FREE ENERGY PREDICTED BY IDOCK:   -5.25 KCAL/MOL
REMARK 924 INTRA-LIGAND FREE ENERGY PREDICTED BY IDOCK:   -1.66 KCAL/MOL
REMARK 927      BINDING AFFINITY PREDICTED BY RF-SCORE:    0.00 PKD
ROOT
HETATM    1  C   UNL     1      -6.164  10.091  69.819  1.00  0.00    -0.054 C  
HETATM    2  C   UNL     1      -5.500   9.886  68.454  1.00  0.00    -0.035 C  
HETATM    3  C   UNL     1      -6.451   9.919  67.203  1.00  0.00    -0.069 C  
HETATM    4  C   UNL     1      -8.768   5.236  72.484  1.00  0.00    -0.120 A  
HETATM    5  C   UNL     1      -6.758  11.408  67.096  1.00  0.00    -0.121 C  
HETATM    6  C   UNL     1      -8.578   4.101  73.300  1.00  0.00    -0.089 A  
HETATM    7  C   UNL     1      -9.685   3.487  73.909  1.00  0.00    -0.141 A  
HETATM    8  C   UNL     1      -7.643  11.719  68.371  1.00  0.00    -0.123 C  
HETATM    9  C   UNL     1     -10.956   3.998  73.708  1.00  0.00    -0.326 A  
HETATM   10  C   UNL     1     -11.169   5.137  72.908  1.00  0.00    -0.362 A  
HETATM   11  H   UNL     1     -10.739   7.447  71.200  1.00  0.00     0.000 HD 
HETATM   12  C   UNL     1      -7.598  10.632  69.640  1.00  0.00    -0.100 C  
HETATM   13  C   UNL     1     -10.048   5.743  72.305  1.00  0.00    -0.184 A  
HETATM   14  N   UNL     1      -9.957   6.849  71.467  1.00  0.00    -0.178 NA 
HETATM   15  C   UNL     1      -8.657   7.018  71.050  1.00  0.00    -0.134 A  
HETATM   16  C   UNL     1      -7.912   6.027  71.679  1.00  0.00    -0.110 A  
HETATM   17  C   UNL     1      -8.631   9.457  69.988  1.00  0.00    -0.218 C  
HETATM   18  C   UNL     1      -6.472   5.823  71.380  1.00  0.00    -0.045 C  
HETATM   19  C   UNL     1      -8.153   7.940  69.936  1.00  0.00    -0.118 C  
HETATM   20  C   UNL     1      -6.188   6.409  69.990  1.00  0.00    -0.035 C  
HETATM   21  C   UNL     1      -5.995   8.776  70.582  1.00  0.00    -0.033 C  
HETATM   22  N   UNL     1      -6.697   7.779  69.800  1.00  0.00    -0.038 NA 
ENDROOT
BRANCH   3  23
HETATM   23  O   UNL     1      -7.747   9.203  67.234  1.00  0.00    -0.094 OA 
BRANCH  23  24
HETATM   24  C   UNL     1      -8.057   8.544  66.068  1.00  0.00    -0.110 C  
HETATM   25  O   UNL     1      -8.276   9.127  65.010  1.00  0.00    -0.132 OA 
BRANCH  24  26
HETATM   26  C   UNL     1      -8.201   7.049  66.073  1.00  0.00    -0.129 A  
HETATM   27  C   UNL     1      -7.825   4.236  65.946  1.00  0.00    -0.094 A  
HETATM   28  C   UNL     1      -8.392   6.258  67.198  1.00  0.00    -0.109 A  
HETATM   29  C   UNL     1      -7.971   6.398  64.851  1.00  0.00    -0.124 A  
HETATM   30  C   UNL     1      -7.745   5.018  64.780  1.00  0.00    -0.084 A  
HETATM   31  C   UNL     1      -8.179   4.864  67.157  1.00  0.00    -0.106 A  
BRANCH  30  32
HETATM   32  O   UNL     1      -7.395   4.385  63.608  1.00  0.00    -0.052 OA 
HETATM   33  C   UNL     1      -8.299   4.565  62.517  1.00  0.00    -0.090 C  
ENDBRANCH  30  32
BRANCH  27  34
HETATM   34  O   UNL     1      -7.568   2.893  65.794  1.00  0.00    -0.072 OA 
HETATM   35  C   UNL     1      -6.257   2.450  66.139  1.00  0.00    -0.024 C  
ENDBRANCH  27  34
BRANCH  31  36
HETATM   36  O   UNL     1      -8.320   4.083  68.278  1.00  0.00    -0.090 OA 
HETATM   37  C   UNL     1      -9.599   4.122  68.904  1.00  0.00    -0.152 C  
ENDBRANCH  31  36
ENDBRANCH  24  26
ENDBRANCH  23  24
ENDBRANCH   3  23
BRANCH   5  38
HETATM   38  O   UNL     1      -5.493  12.101  67.062  1.00  0.00    -0.207 OA 
HETATM   39  C   UNL     1      -5.359  13.306  67.791  1.00  0.00    -0.088 C  
ENDBRANCH   5  38
BRANCH   8  40
HETATM   40  C   UNL     1      -9.000  12.146  67.848  1.00  0.00    -0.184 C  
HETATM   41  O   UNL     1      -9.222  13.197  67.269  1.00  0.00    -0.204 OA 
BRANCH  40  42
HETATM   42  O   UNL     1      -9.953  11.237  68.191  1.00  0.00    -0.170 OA 
HETATM   43  C   UNL     1     -11.342  11.561  68.033  1.00  0.00    -0.298 C  
ENDBRANCH  40  42
ENDBRANCH   8  40
TORSDOF 9
ENDMDL
MODEL      115
REMARK 921   NORMALIZED FREE ENERGY PREDICTED BY IDOCK:   -2.71 KCAL/MOL
REMARK 922        TOTAL FREE ENERGY PREDICTED BY IDOCK:   -6.77 KCAL/MOL
REMARK 923 INTER-LIGAND FREE ENERGY PREDICTED BY IDOCK:   -5.60 KCAL/MOL
REMARK 924 INTRA-LIGAND FREE ENERGY PREDICTED BY IDOCK:   -1.18 KCAL/MOL
REMARK 927      BINDING AFFINITY PREDICTED BY RF-SCORE:    0.00 PKD
ROOT
HETATM    1  C   UNL     1      -5.921  10.472  67.495  1.00  0.00    -0.052 C  
HETATM    2  C   UNL     1      -6.662   9.375  68.265  1.00  0.00    -0.059 C  
HETATM    3  C   UNL     1      -8.221   9.315  68.066  1.00  0.00    -0.115 C  
HETATM    4  C   UNL     1      -5.797  16.084  69.932  1.00  0.00    -0.170 A  
HETATM    5  C   UNL     1      -8.323   8.730  66.662  1.00  0.00    -0.108 C  
HETATM    6  C   UNL     1      -5.149  16.962  70.827  1.00  0.00    -0.232 A  
HETATM    7  C   UNL     1      -5.364  18.346  70.722  1.00  0.00    -0.253 A  
HETATM    8  C   UNL     1      -7.770   9.875  65.719  1.00  0.00    -0.112 C  
HETATM    9  C   UNL     1      -6.206  18.844  69.741  1.00  0.00    -0.251 A  
HETATM   10  C   UNL     1      -6.852  17.988  68.829  1.00  0.00    -0.260 A  
HETATM   11  H   UNL     1      -7.735  15.622  67.393  1.00  0.00     0.000 HD 
HETATM   12  C   UNL     1      -6.836  11.075  66.410  1.00  0.00    -0.118 C  
HETATM   13  C   UNL     1      -6.627  16.601  68.947  1.00  0.00    -0.178 A  
HETATM   14  N   UNL     1      -7.132  15.535  68.211  1.00  0.00    -0.110 NA 
HETATM   15  C   UNL     1      -6.699  14.344  68.748  1.00  0.00    -0.093 A  
HETATM   16  C   UNL     1      -5.867  14.674  69.811  1.00  0.00    -0.111 A  
HETATM   17  C   UNL     1      -7.279  12.543  66.878  1.00  0.00     0.141 C  
HETATM   18  C   UNL     1      -5.299  13.638  70.710  1.00  0.00    -0.140 C  
HETATM   19  C   UNL     1      -7.209  12.939  68.418  1.00  0.00    -0.113 C  
HETATM   20  C   UNL     1      -6.195  12.395  70.628  1.00  0.00     0.393 C  
HETATM   21  C   UNL     1      -5.349  11.424  68.547  1.00  0.00    -0.042 C  
HETATM   22  N   UNL     1      -6.494  11.959  69.252  1.00  0.00    -0.102 NA 
ENDROOT
BRANCH   3  23
HETATM   23  O   UNL     1      -9.023  10.560  68.085  1.00  0.00    -0.132 OA 
BRANCH  23  24
HETATM   24  C   UNL     1     -10.235  10.442  68.722  1.00  0.00    -0.187 C  
HETATM   25  O   UNL     1     -11.230  11.077  68.386  1.00  0.00    -0.229 OA 
BRANCH  24  26
HETATM   26  C   UNL     1     -10.360   9.551  69.926  1.00  0.00    -0.265 A  
HETATM   27  C   UNL     1     -10.610   7.385  71.746  1.00  0.00    -0.201 A  
HETATM   28  C   UNL     1      -9.347   9.267  70.831  1.00  0.00    -0.313 A  
HETATM   29  C   UNL     1     -11.561   8.836  70.047  1.00  0.00     0.149 A  
HETATM   30  C   UNL     1     -11.685   7.742  70.912  1.00  0.00    -0.265 A  
HETATM   31  C   UNL     1      -9.444   8.176  71.719  1.00  0.00    -0.188 A  
BRANCH  30  32
HETATM   32  O   UNL     1     -12.815   6.955  70.952  1.00  0.00    -0.294 OA 
HETATM   33  C   UNL     1     -14.051   7.657  71.084  1.00  0.00    -0.171 C  
ENDBRANCH  30  32
BRANCH  27  34
HETATM   34  O   UNL     1     -10.806   6.286  72.549  1.00  0.00    -0.219 OA 
HETATM   35  C   UNL     1     -10.018   5.133  72.258  1.00  0.00    -0.180 C  
ENDBRANCH  27  34
BRANCH  31  36
HETATM   36  O   UNL     1      -8.425   7.861  72.584  1.00  0.00    -0.122 OA 
HETATM   37  C   UNL     1      -7.372   8.816  72.676  1.00  0.00     0.166 C  
ENDBRANCH  31  36
ENDBRANCH  24  26
ENDBRANCH  23  24
ENDBRANCH   3  23
BRANCH   5  38
HETATM   38  O   UNL     1      -7.544   7.516  66.649  1.00  0.00    -0.093 OA 
HETATM   39  C   UNL     1      -7.282   6.890  65.409  1.00  0.00    -0.073 C  
ENDBRANCH   5  38
BRANCH   8  40
HETATM   40  C   UNL     1      -8.932  10.294  64.840  1.00  0.00    -0.201 C  
HETATM   41  O   UNL     1      -9.890  10.948  65.219  1.00  0.00    -0.230 OA 
BRANCH  40  42
HETATM   42  O   UNL     1      -8.803   9.765  63.592  1.00  0.00    -0.206 OA 
HETATM   43  C   UNL     1      -9.505  10.356  62.489  1.00  0.00    -0.258 C  
ENDBRANCH  40  42
ENDBRANCH   8  40
TORSDOF 9
ENDMDL
MODEL      116
REMARK 921   NORMALIZED FREE ENERGY PREDICTED BY IDOCK:   -2.70 KCAL/MOL
REMARK 922        TOTAL FREE ENERGY PREDICTED BY IDOCK:   -6.75 KCAL/MOL
REMARK 923 INTER-LIGAND FREE ENERGY PREDICTED BY IDOCK:   -6.43 KCAL/MOL
REMARK 924 INTRA-LIGAND FREE ENERGY PREDICTED BY IDOCK:   -0.32 KCAL/MOL
REMARK 927      BINDING AFFINITY PREDICTED BY RF-SCORE:    0.00 PKD
ROOT
HETATM    1  C   UNL     1     -10.598   8.122  67.066  1.00  0.00    -0.346 C  
HETATM    2  C   UNL     1      -9.353   7.374  66.579  1.00  0.00    -0.222 C  
HETATM    3  C   UNL     1      -8.204   7.172  67.632  1.00  0.00    -0.114 C  
HETATM    4  C   UNL     1     -10.428  14.239  67.087  1.00  0.00    -0.266 A  
HETATM    5  C   UNL     1      -8.798   6.088  68.524  1.00  0.00    -0.112 C  
HETATM    6  C   UNL     1     -10.616  15.422  66.340  1.00  0.00    -0.307 A  
HETATM    7  C   UNL     1     -10.776  16.648  67.007  1.00  0.00    -0.174 A  
HETATM    8  C   UNL     1      -9.999   6.805  69.265  1.00  0.00    -0.168 C  
HETATM    9  C   UNL     1     -10.751  16.691  68.392  1.00  0.00    -0.353 A  
HETATM   10  C   UNL     1     -10.579  15.522  69.157  1.00  0.00    -0.234 A  
HETATM   11  H   UNL     1     -10.215  12.748  69.942  1.00  0.00     0.000 HD 
HETATM   12  C   UNL     1     -10.595   8.219  68.605  1.00  0.00    -0.144 C  
HETATM   13  C   UNL     1     -10.420  14.299  68.473  1.00  0.00    -0.253 A  
HETATM   14  N   UNL     1     -10.220  13.010  68.955  1.00  0.00     0.023 NA 
HETATM   15  C   UNL     1     -10.030  12.139  67.908  1.00  0.00    -0.200 A  
HETATM   16  C   UNL     1     -10.163  12.890  66.745  1.00  0.00    -0.243 A  
HETATM   17  C   UNL     1     -10.265   9.732  69.017  1.00  0.00    -0.214 C  
HETATM   18  C   UNL     1      -9.908  12.306  65.405  1.00  0.00    -0.209 C  
HETATM   19  C   UNL     1      -9.530  10.694  67.983  1.00  0.00    -0.158 C  
HETATM   20  C   UNL     1      -8.990  11.089  65.583  1.00  0.00    -0.199 C  
HETATM   21  C   UNL     1     -10.651   9.430  66.275  1.00  0.00     0.098 C  
HETATM   22  N   UNL     1      -9.441  10.144  66.621  1.00  0.00    -0.165 NA 
ENDROOT
BRANCH   3  23
HETATM   23  O   UNL     1      -7.795   8.292  68.512  1.00  0.00    -0.116 OA 
BRANCH  23  24
HETATM   24  C   UNL     1      -6.521   8.179  69.015  1.00  0.00    -0.040 C  
HETATM   25  O   UNL     1      -5.847   7.159  68.903  1.00  0.00    -0.018 OA 
BRANCH  24  26
HETATM   26  C   UNL     1      -5.925   9.317  69.794  1.00  0.00    -0.035 A  
HETATM   27  C   UNL     1      -5.400  11.734  71.192  1.00  0.00    -0.063 A  
HETATM   28  C   UNL     1      -5.625   9.300  71.149  1.00  0.00    -0.056 A  
HETATM   29  C   UNL     1      -5.807  10.540  69.116  1.00  0.00    -0.040 A  
HETATM   30  C   UNL     1      -5.588  11.744  69.797  1.00  0.00    -0.091 A  
HETATM   31  C   UNL     1      -5.393  10.495  71.862  1.00  0.00     0.134 A  
BRANCH  30  32
HETATM   32  O   UNL     1      -5.594  12.966  69.161  1.00  0.00    -0.069 OA 
HETATM   33  C   UNL     1      -5.579  12.917  67.735  1.00  0.00    -0.130 C  
ENDBRANCH  30  32
BRANCH  27  34
HETATM   34  O   UNL     1      -5.213  12.960  71.786  1.00  0.00    -0.294 OA 
HETATM   35  C   UNL     1      -5.876  14.070  71.185  1.00  0.00    -0.207 C  
ENDBRANCH  27  34
BRANCH  31  36
HETATM   36  O   UNL     1      -5.143  10.488  73.213  1.00  0.00    -0.325 OA 
HETATM   37  C   UNL     1      -5.376   9.251  73.881  1.00  0.00    -0.104 C  
ENDBRANCH  31  36
ENDBRANCH  24  26
ENDBRANCH  23  24
ENDBRANCH   3  23
BRANCH   5  38
HETATM   38  O   UNL     1      -9.191   4.999  67.663  1.00  0.00    -0.114 OA 
HETATM   39  C   UNL     1      -8.206   4.076  67.243  1.00  0.00    -0.099 C  
ENDBRANCH   5  38
BRANCH   8  40
HETATM   40  C   UNL     1      -9.646   6.801  70.739  1.00  0.00    -0.168 C  
HETATM   41  O   UNL     1      -8.951   5.959  71.285  1.00  0.00    -0.139 OA 
BRANCH  40  42
HETATM   42  O   UNL     1     -10.283   7.814  71.387  1.00  0.00    -0.182 OA 
HETATM   43  C   UNL     1     -10.179   7.929  72.813  1.00  0.00    -0.314 C  
ENDBRANCH  40  42
ENDBRANCH   8  40
TORSDOF 9
ENDMDL
MODEL      117
REMARK 921   NORMALIZED FREE ENERGY PREDICTED BY IDOCK:   -2.44 KCAL/MOL
REMARK 922        TOTAL FREE ENERGY PREDICTED BY IDOCK:   -6.36 KCAL/MOL
REMARK 923 INTER-LIGAND FREE ENERGY PREDICTED BY IDOCK:   -6.01 KCAL/MOL
REMARK 924 INTRA-LIGAND FREE ENERGY PREDICTED BY IDOCK:   -0.35 KCAL/MOL
REMARK 927      BINDING AFFINITY PREDICTED BY RF-SCORE:    0.00 PKD
ROOT
HETATM    1  C   UNL     1      -9.687   3.836  70.926  1.00  0.00    -0.248 C  
HETATM    2  C   UNL     1      -8.675   4.408  71.923  1.00  0.00    -0.131 C  
HETATM    3  C   UNL     1      -8.691   5.968  72.117  1.00  0.00    -0.132 C  
HETATM    4  C   UNL     1      -8.214   3.938  64.987  1.00  0.00    -0.097 A  
HETATM    5  C   UNL     1      -9.964   6.157  72.935  1.00  0.00    -0.174 C  
HETATM    6  C   UNL     1      -7.547   3.281  63.930  1.00  0.00    -0.068 A  
HETATM    7  C   UNL     1      -7.851   3.617  62.601  1.00  0.00    -0.063 A  
HETATM    8  C   UNL     1     -11.133   5.793  71.933  1.00  0.00    -0.308 C  
HETATM    9  C   UNL     1      -8.801   4.588  62.332  1.00  0.00    -0.119 A  
HETATM   10  C   UNL     1      -9.488   5.246  63.369  1.00  0.00     0.631 A  
HETATM   11  H   UNL     1     -10.420   6.067  65.995  1.00  0.00     0.000 HD 
HETATM   12  C   UNL     1     -10.750   4.898  70.575  1.00  0.00     0.109 C  
HETATM   13  C   UNL     1      -9.173   4.898  64.699  1.00  0.00    -0.025 A  
HETATM   14  N   UNL     1      -9.669   5.383  65.904  1.00  0.00    -0.113 NA 
HETATM   15  C   UNL     1      -8.997   4.804  66.956  1.00  0.00    -0.111 A  
HETATM   16  C   UNL     1      -8.097   3.903  66.399  1.00  0.00    -0.097 A  
HETATM   17  C   UNL     1     -10.479   5.412  69.081  1.00  0.00    -0.277 C  
HETATM   18  C   UNL     1      -7.111   3.169  67.230  1.00  0.00    -0.057 C  
HETATM   19  C   UNL     1      -9.039   5.227  68.428  1.00  0.00    -0.110 C  
HETATM   20  C   UNL     1      -6.894   3.964  68.524  1.00  0.00    -0.047 C  
HETATM   21  C   UNL     1      -8.871   3.245  69.776  1.00  0.00    -0.094 C  
HETATM   22  N   UNL     1      -8.141   4.357  69.204  1.00  0.00    -0.068 NA 
ENDROOT
BRANCH   3  23
HETATM   23  O   UNL     1      -8.786   6.864  70.941  1.00  0.00    -0.147 OA 
BRANCH  23  24
HETATM   24  C   UNL     1      -8.696   8.202  71.241  1.00  0.00    -0.145 C  
HETATM   25  O   UNL     1      -8.172   8.621  72.269  1.00  0.00    -0.314 OA 
BRANCH  24  26
HETATM   26  C   UNL     1      -9.311   9.215  70.318  1.00  0.00    -0.253 A  
HETATM   27  C   UNL     1     -10.758  10.597  68.301  1.00  0.00    -0.219 A  
HETATM   28  C   UNL     1     -10.311  10.116  70.656  1.00  0.00    -0.006 A  
HETATM   29  C   UNL     1      -8.940   9.130  68.967  1.00  0.00    -0.143 A  
HETATM   30  C   UNL     1      -9.669   9.775  67.959  1.00  0.00    -0.145 A  
HETATM   31  C   UNL     1     -11.058  10.785  69.665  1.00  0.00    -0.279 A  
BRANCH  30  32
HETATM   32  O   UNL     1      -9.393   9.601  66.621  1.00  0.00    -0.146 OA 
HETATM   33  C   UNL     1      -8.082   9.126  66.319  1.00  0.00    -0.111 C  
ENDBRANCH  30  32
BRANCH  27  34
HETATM   34  O   UNL     1     -11.433  11.175  67.252  1.00  0.00    -0.473 OA 
HETATM   35  C   UNL     1     -10.878  12.373  66.715  1.00  0.00    -0.248 C  
ENDBRANCH  27  34
BRANCH  31  36
HETATM   36  O   UNL     1     -12.081  11.642  69.993  1.00  0.00    -0.316 OA 
HETATM   37  C   UNL     1     -12.783  11.339  71.195  1.00  0.00    -0.390 C  
ENDBRANCH  31  36
ENDBRANCH  24  26
ENDBRANCH  23  24
ENDBRANCH   3  23
BRANCH   5  38
HETATM   38  O   UNL     1      -9.865   5.287  74.081  1.00  0.00    -0.157 OA 
HETATM   39  C   UNL     1      -8.583   4.885  74.521  1.00  0.00    -0.109 C  
ENDBRANCH   5  38
BRANCH   8  40
HETATM   40  C   UNL     1     -11.937   7.064  71.744  1.00  0.00    -0.326 C  
HETATM   41  O   UNL     1     -11.776   8.090  72.385  1.00  0.00    -0.343 OA 
BRANCH  40  42
HETATM   42  O   UNL     1     -12.921   6.876  70.822  1.00  0.00    -0.193 OA 
HETATM   43  C   UNL     1     -14.288   7.129  71.173  1.00  0.00     0.048 C  
ENDBRANCH  40  42
ENDBRANCH   8  40
TORSDOF 9
ENDMDL
MODEL      118
REMARK 921   NORMALIZED FREE ENERGY PREDICTED BY IDOCK:   -2.41 KCAL/MOL
REMARK 922        TOTAL FREE ENERGY PREDICTED BY IDOCK:   -6.32 KCAL/MOL
REMARK 923 INTER-LIGAND FREE ENERGY PREDICTED BY IDOCK:   -4.54 KCAL/MOL
REMARK 924 INTRA-LIGAND FREE ENERGY PREDICTED BY IDOCK:   -1.78 KCAL/MOL
REMARK 927      BINDING AFFINITY PREDICTED BY RF-SCORE:    0.00 PKD
ROOT
HETATM    1  C   UNL     1     -10.387   6.460  66.497  1.00  0.00    -0.149 C  
HETATM    2  C   UNL     1      -9.353   7.548  66.189  1.00  0.00    -0.128 C  
HETATM    3  C   UNL     1      -7.909   7.052  65.815  1.00  0.00    -0.109 C  
HETATM    4  C   UNL     1     -10.442   4.088  72.138  1.00  0.00    -0.082 A  
HETATM    5  C   UNL     1      -8.128   6.526  64.401  1.00  0.00    -0.065 C  
HETATM    6  C   UNL     1     -10.913   4.217  73.462  1.00  0.00    -0.360 A  
HETATM    7  C   UNL     1     -10.883   3.107  74.322  1.00  0.00    -0.143 A  
HETATM    8  C   UNL     1      -9.033   5.242  64.596  1.00  0.00     0.018 C  
HETATM    9  C   UNL     1     -10.394   1.893  73.869  1.00  0.00    -0.170 A  
HETATM   10  C   UNL     1      -9.931   1.738  72.549  1.00  0.00    -0.196 A  
HETATM   11  H   UNL     1      -9.223   2.253  69.779  1.00  0.00     0.000 HD 
HETATM   12  C   UNL     1      -9.868   5.084  66.034  1.00  0.00    -0.206 C  
HETATM   13  C   UNL     1      -9.968   2.860  71.696  1.00  0.00    -0.080 A  
HETATM   14  N   UNL     1      -9.571   3.007  70.372  1.00  0.00    -0.141 NA 
HETATM   15  C   UNL     1      -9.714   4.318  69.979  1.00  0.00    -0.217 A  
HETATM   16  C   UNL     1     -10.258   4.995  71.064  1.00  0.00    -0.283 A  
HETATM   17  C   UNL     1      -9.473   4.228  67.331  1.00  0.00    -0.213 C  
HETATM   18  C   UNL     1     -10.450   6.466  71.051  1.00  0.00    -0.268 C  
HETATM   19  C   UNL     1      -9.166   4.969  68.706  1.00  0.00    -0.122 C  
HETATM   20  C   UNL     1      -9.483   7.062  70.019  1.00  0.00    -0.161 C  
HETATM   21  C   UNL     1     -10.751   6.619  67.974  1.00  0.00    -0.265 C  
HETATM   22  N   UNL     1      -9.522   6.397  68.705  1.00  0.00    -0.123 NA 
ENDROOT
BRANCH   3  23
HETATM   23  O   UNL     1      -7.268   5.968  66.594  1.00  0.00    -0.071 OA 
BRANCH  23  24
HETATM   24  C   UNL     1      -6.057   6.310  67.148  1.00  0.00    -0.025 C  
HETATM   25  O   UNL     1      -5.126   5.517  67.255  1.00  0.00    -0.004 OA 
BRANCH  24  26
HETATM   26  C   UNL     1      -5.858   7.688  67.711  1.00  0.00    -0.036 A  
HETATM   27  C   UNL     1      -5.995  10.444  68.384  1.00  0.00    -0.040 A  
HETATM   28  C   UNL     1      -6.164   8.086  69.005  1.00  0.00    -0.039 A  
HETATM   29  C   UNL     1      -5.471   8.682  66.798  1.00  0.00    -0.040 A  
HETATM   30  C   UNL     1      -5.571  10.045  67.104  1.00  0.00    -0.046 A  
HETATM   31  C   UNL     1      -6.266   9.451  69.345  1.00  0.00    -0.040 A  
BRANCH  30  32
HETATM   32  O   UNL     1      -5.315  11.032  66.178  1.00  0.00    -0.108 OA 
HETATM   33  C   UNL     1      -5.179  10.588  64.827  1.00  0.00    -0.149 C  
ENDBRANCH  30  32
BRANCH  27  34
HETATM   34  O   UNL     1      -6.088  11.800  68.595  1.00  0.00    -0.050 OA 
HETATM   35  C   UNL     1      -7.372  12.391  68.408  1.00  0.00    -0.113 C  
ENDBRANCH  27  34
BRANCH  31  36
HETATM   36  O   UNL     1      -6.615   9.850  70.612  1.00  0.00    -0.111 OA 
HETATM   37  C   UNL     1      -6.098   9.057  71.678  1.00  0.00    -0.074 C  
ENDBRANCH  31  36
ENDBRANCH  24  26
ENDBRANCH  23  24
ENDBRANCH   3  23
BRANCH   5  38
HETATM   38  O   UNL     1      -8.748   7.586  63.644  1.00  0.00     0.370 OA 
HETATM   39  C   UNL     1      -7.974   8.280  62.686  1.00  0.00    -0.159 C  
ENDBRANCH   5  38
BRANCH   8  40
HETATM   40  C   UNL     1      -8.203   4.066  64.121  1.00  0.00    -0.092 C  
HETATM   41  O   UNL     1      -6.983   4.026  64.134  1.00  0.00    -0.044 OA 
BRANCH  40  42
HETATM   42  O   UNL     1      -9.002   3.097  63.596  1.00  0.00    -0.092 OA 
HETATM   43  C   UNL     1      -9.113   1.827  64.254  1.00  0.00    -0.113 C  
ENDBRANCH  40  42
ENDBRANCH   8  40
TORSDOF 9
ENDMDL
MODEL      119
REMARK 921   NORMALIZED FREE ENERGY PREDICTED BY IDOCK:   -2.34 KCAL/MOL
REMARK 922        TOTAL FREE ENERGY PREDICTED BY IDOCK:   -6.20 KCAL/MOL
REMARK 923 INTER-LIGAND FREE ENERGY PREDICTED BY IDOCK:   -6.17 KCAL/MOL
REMARK 924 INTRA-LIGAND FREE ENERGY PREDICTED BY IDOCK:   -0.03 KCAL/MOL
REMARK 927      BINDING AFFINITY PREDICTED BY RF-SCORE:    0.00 PKD
ROOT
HETATM    1  C   UNL     1     -11.049   9.649  68.581  1.00  0.00    -0.085 C  
HETATM    2  C   UNL     1     -10.609   8.434  67.758  1.00  0.00    -0.238 C  
HETATM    3  C   UNL     1      -9.208   7.818  68.116  1.00  0.00    -0.138 C  
HETATM    4  C   UNL     1      -8.933  15.144  66.916  1.00  0.00    -0.277 A  
HETATM    5  C   UNL     1      -9.516   7.114  69.432  1.00  0.00    -0.153 C  
HETATM    6  C   UNL     1      -9.111  16.268  66.080  1.00  0.00    -0.332 A  
HETATM    7  C   UNL     1      -8.466  17.476  66.392  1.00  0.00    -0.287 A  
HETATM    8  C   UNL     1      -9.789   8.292  70.453  1.00  0.00    -0.194 C  
HETATM    9  C   UNL     1      -7.661  17.561  67.516  1.00  0.00    -0.210 A  
HETATM   10  C   UNL     1      -7.480  16.457  68.371  1.00  0.00    -0.171 A  
HETATM   11  H   UNL     1      -7.659  13.816  69.567  1.00  0.00     0.000 HD 
HETATM   12  C   UNL     1     -10.157   9.798  69.831  1.00  0.00    -0.288 C  
HETATM   13  C   UNL     1      -8.134  15.251  68.046  1.00  0.00    -0.137 A  
HETATM   14  N   UNL     1      -8.128  14.016  68.683  1.00  0.00    -0.136 NA 
HETATM   15  C   UNL     1      -8.848  13.102  67.948  1.00  0.00    -0.196 A  
HETATM   16  C   UNL     1      -9.355  13.793  66.854  1.00  0.00    -0.267 A  
HETATM   17  C   UNL     1      -9.186  11.055  69.614  1.00  0.00     0.515 C  
HETATM   18  C   UNL     1     -10.096  13.103  65.769  1.00  0.00    -0.290 C  
HETATM   19  C   UNL     1      -8.890  11.584  68.142  1.00  0.00    -0.165 C  
HETATM   20  C   UNL     1      -9.688  11.623  65.782  1.00  0.00    -0.236 C  
HETATM   21  C   UNL     1     -11.108  10.828  67.610  1.00  0.00    -0.319 C  
HETATM   22  N   UNL     1      -9.759  10.992  67.112  1.00  0.00    -0.172 NA 
ENDROOT
BRANCH   3  23
HETATM   23  O   UNL     1      -8.044   8.703  68.351  1.00  0.00    -0.115 OA 
BRANCH  23  24
HETATM   24  C   UNL     1      -6.894   8.308  67.709  1.00  0.00    -0.070 C  
HETATM   25  O   UNL     1      -5.800   8.268  68.264  1.00  0.00    -0.036 OA 
BRANCH  24  26
HETATM   26  C   UNL     1      -6.939   7.965  66.247  1.00  0.00    -0.063 A  
HETATM   27  C   UNL     1      -7.570   6.983  63.657  1.00  0.00    -0.105 A  
HETATM   28  C   UNL     1      -7.267   8.839  65.220  1.00  0.00    -0.084 A  
HETATM   29  C   UNL     1      -6.780   6.609  65.923  1.00  0.00    -0.048 A  
HETATM   30  C   UNL     1      -7.124   6.105  64.662  1.00  0.00    -0.057 A  
HETATM   31  C   UNL     1      -7.613   8.363  63.938  1.00  0.00    -0.135 A  
BRANCH  30  32
HETATM   32  O   UNL     1      -7.092   4.760  64.368  1.00  0.00    -0.049 OA 
HETATM   33  C   UNL     1      -6.013   4.029  64.950  1.00  0.00    -0.022 C  
ENDBRANCH  30  32
BRANCH  27  34
HETATM   34  O   UNL     1      -7.909   6.406  62.456  1.00  0.00    -0.090 OA 
HETATM   35  C   UNL     1      -8.177   5.005  62.472  1.00  0.00    -0.093 C  
ENDBRANCH  27  34
BRANCH  31  36
HETATM   36  O   UNL     1      -7.986   9.220  62.931  1.00  0.00    -0.127 OA 
HETATM   37  C   UNL     1      -6.969  10.096  62.454  1.00  0.00    -0.121 C  
ENDBRANCH  31  36
ENDBRANCH  24  26
ENDBRANCH  23  24
ENDBRANCH   3  23
BRANCH   5  38
HETATM   38  O   UNL     1     -10.647   6.251  69.198  1.00  0.00    -0.210 OA 
HETATM   39  C   UNL     1     -11.774   6.362  70.044  1.00  0.00    -0.275 C  
ENDBRANCH   5  38
BRANCH   8  40
HETATM   40  C   UNL     1      -8.699   8.202  71.502  1.00  0.00    -0.146 C  
HETATM   41  O   UNL     1      -8.485   9.047  72.357  1.00  0.00    -0.344 OA 
BRANCH  40  42
HETATM   42  O   UNL     1      -7.934   7.093  71.305  1.00  0.00    -0.100 OA 
HETATM   43  C   UNL     1      -7.866   6.081  72.318  1.00  0.00    -0.102 C  
ENDBRANCH  40  42
ENDBRANCH   8  40
TORSDOF 9
ENDMDL
MODEL      120
REMARK 921   NORMALIZED FREE ENERGY PREDICTED BY IDOCK:   -2.32 KCAL/MOL
REMARK 922        TOTAL FREE ENERGY PREDICTED BY IDOCK:   -6.17 KCAL/MOL
REMARK 923 INTER-LIGAND FREE ENERGY PREDICTED BY IDOCK:   -4.54 KCAL/MOL
REMARK 924 INTRA-LIGAND FREE ENERGY PREDICTED BY IDOCK:   -1.63 KCAL/MOL
REMARK 927      BINDING AFFINITY PREDICTED BY RF-SCORE:    0.00 PKD
ROOT
HETATM    1  C   UNL     1      -8.370  15.245  66.467  1.00  0.00    -0.124 C  
HETATM    2  C   UNL     1      -9.672  15.298  65.663  1.00  0.00    -0.360 C  
HETATM    3  C   UNL     1     -11.003  15.396  66.496  1.00  0.00    -0.271 C  
HETATM    4  C   UNL     1      -6.610   9.825  68.697  1.00  0.00    -0.051 A  
HETATM    5  C   UNL     1     -10.956  16.845  66.968  1.00  0.00     0.066 C  
HETATM    6  C   UNL     1      -5.924   8.617  68.444  1.00  0.00    -0.042 A  
HETATM    7  C   UNL     1      -5.514   7.812  69.520  1.00  0.00    -0.023 A  
HETATM    8  C   UNL     1      -9.752  16.884  67.995  1.00  0.00    -0.256 C  
HETATM    9  C   UNL     1      -5.783   8.205  70.821  1.00  0.00    -0.029 A  
HETATM   10  C   UNL     1      -6.453   9.412  71.096  1.00  0.00    -0.067 A  
HETATM   11  H   UNL     1      -7.810  11.963  70.796  1.00  0.00     0.000 HD 
HETATM   12  C   UNL     1      -8.630  15.648  67.933  1.00  0.00    -0.163 C  
HETATM   13  C   UNL     1      -6.858  10.210  70.007  1.00  0.00    -0.137 A  
HETATM   14  N   UNL     1      -7.539  11.422  69.974  1.00  0.00     0.560 NA 
HETATM   15  C   UNL     1      -7.794  11.784  68.672  1.00  0.00    -0.117 A  
HETATM   16  C   UNL     1      -7.217  10.804  67.872  1.00  0.00    -0.087 A  
HETATM   17  C   UNL     1      -8.538  14.333  68.845  1.00  0.00    -0.030 C  
HETATM   18  C   UNL     1      -7.388  10.798  66.398  1.00  0.00    -0.142 C  
HETATM   19  C   UNL     1      -8.727  12.897  68.185  1.00  0.00    -0.190 C  
HETATM   20  C   UNL     1      -8.657  11.593  66.063  1.00  0.00     0.006 C  
HETATM   21  C   UNL     1      -7.762  13.866  66.210  1.00  0.00     2.110 C  
HETATM   22  N   UNL     1      -8.729  12.913  66.714  1.00  0.00    -0.157 NA 
ENDROOT
BRANCH   3  23
HETATM   23  O   UNL     1     -11.196  14.547  67.694  1.00  0.00    -0.296 OA 
BRANCH  23  24
HETATM   24  C   UNL     1     -12.041  13.481  67.500  1.00  0.00    -0.300 C  
HETATM   25  O   UNL     1     -12.798  13.395  66.537  1.00  0.00    -0.108 OA 
BRANCH  24  26
HETATM   26  C   UNL     1     -12.108  12.388  68.528  1.00  0.00    -0.126 A  
HETATM   27  C   UNL     1     -11.574  10.388  70.474  1.00  0.00    -0.344 A  
HETATM   28  C   UNL     1     -12.565  12.529  69.831  1.00  0.00     0.171 A  
HETATM   29  C   UNL     1     -11.516  11.165  68.175  1.00  0.00    -0.373 A  
HETATM   30  C   UNL     1     -11.212  10.187  69.130  1.00  0.00    -0.183 A  
HETATM   31  C   UNL     1     -12.280  11.559  70.815  1.00  0.00    -0.363 A  
BRANCH  30  32
HETATM   32  O   UNL     1     -10.520   9.038  68.818  1.00  0.00    -0.216 OA 
HETATM   33  C   UNL     1     -10.539   8.662  67.441  1.00  0.00    -0.228 C  
ENDBRANCH  30  32
BRANCH  27  34
HETATM   34  O   UNL     1     -11.220   9.390  71.352  1.00  0.00    -0.330 OA 
HETATM   35  C   UNL     1     -12.067   8.244  71.394  1.00  0.00    -0.300 C  
ENDBRANCH  27  34
BRANCH  31  36
HETATM   36  O   UNL     1     -12.688  11.716  72.117  1.00  0.00    -0.139 OA 
HETATM   37  C   UNL     1     -13.275  12.975  72.436  1.00  0.00    -0.381 C  
ENDBRANCH  31  36
ENDBRANCH  24  26
ENDBRANCH  23  24
ENDBRANCH   3  23
BRANCH   5  38
HETATM   38  O   UNL     1     -10.773  17.668  65.799  1.00  0.00    -0.408 OA 
HETATM   39  C   UNL     1     -10.477  19.040  65.973  1.00  0.00    -0.458 C  
ENDBRANCH   5  38
BRANCH   8  40
HETATM   40  C   UNL     1     -10.358  17.229  69.341  1.00  0.00    -0.158 C  
HETATM   41  O   UNL     1     -11.129  16.513  69.961  1.00  0.00    -0.345 OA 
BRANCH  40  42
HETATM   42  O   UNL     1      -9.994  18.484  69.723  1.00  0.00     0.221 OA 
HETATM   43  C   UNL     1      -9.241  19.314  68.828  1.00  0.00    -0.371 C  
ENDBRANCH  40  42
ENDBRANCH   8  40
TORSDOF 9
ENDMDL
MODEL      121
REMARK 921   NORMALIZED FREE ENERGY PREDICTED BY IDOCK:   -2.25 KCAL/MOL
REMARK 922        TOTAL FREE ENERGY PREDICTED BY IDOCK:   -6.07 KCAL/MOL
REMARK 923 INTER-LIGAND FREE ENERGY PREDICTED BY IDOCK:   -4.49 KCAL/MOL
REMARK 924 INTRA-LIGAND FREE ENERGY PREDICTED BY IDOCK:   -1.57 KCAL/MOL
REMARK 927      BINDING AFFINITY PREDICTED BY RF-SCORE:    0.00 PKD
ROOT
HETATM    1  C   UNL     1      -6.830   7.836  65.803  1.00  0.00    -0.053 C  
HETATM    2  C   UNL     1      -6.363   7.052  67.033  1.00  0.00    -0.048 C  
HETATM    3  C   UNL     1      -7.492   6.459  67.953  1.00  0.00    -0.094 C  
HETATM    4  C   UNL     1      -8.377  13.706  66.579  1.00  0.00     0.434 A  
HETATM    5  C   UNL     1      -7.992   5.295  67.105  1.00  0.00    -0.101 C  
HETATM    6  C   UNL     1      -7.924  15.041  66.646  1.00  0.00     0.164 A  
HETATM    7  C   UNL     1      -8.841  16.095  66.494  1.00  0.00    -0.331 A  
HETATM    8  C   UNL     1      -8.702   5.986  65.870  1.00  0.00    -0.157 C  
HETATM    9  C   UNL     1     -10.182  15.820  66.279  1.00  0.00    -0.317 A  
HETATM   10  C   UNL     1     -10.653  14.497  66.196  1.00  0.00    -0.308 A  
HETATM   11  H   UNL     1     -10.778  11.594  66.136  1.00  0.00     0.000 HD 
HETATM   12  C   UNL     1      -8.329   7.582  65.544  1.00  0.00    -0.137 C  
HETATM   13  C   UNL     1      -9.721  13.449  66.349  1.00  0.00    -0.277 A  
HETATM   14  N   UNL     1      -9.896  12.070  66.331  1.00  0.00    -0.215 NA 
HETATM   15  C   UNL     1      -8.706  11.440  66.614  1.00  0.00    -0.178 A  
HETATM   16  C   UNL     1      -7.758  12.445  66.764  1.00  0.00     0.115 A  
HETATM   17  C   UNL     1      -9.144   8.902  65.947  1.00  0.00    -0.271 C  
HETATM   18  C   UNL     1      -6.367  12.149  67.191  1.00  0.00    -0.139 C  
HETATM   19  C   UNL     1      -8.497   9.960  66.945  1.00  0.00    -0.125 C  
HETATM   20  C   UNL     1      -6.374  10.807  67.936  1.00  0.00    -0.061 C  
HETATM   21  C   UNL     1      -6.385   9.283  66.021  1.00  0.00    -0.068 C  
HETATM   22  N   UNL     1      -7.070   9.725  67.218  1.00  0.00    -0.085 NA 
ENDROOT
BRANCH   3  23
HETATM   23  O   UNL     1      -8.670   7.283  68.310  1.00  0.00    -0.126 OA 
BRANCH  23  24
HETATM   24  C   UNL     1      -8.697   7.691  69.622  1.00  0.00    -0.136 C  
HETATM   25  O   UNL     1      -7.682   7.967  70.256  1.00  0.00    -0.084 OA 
BRANCH  24  26
HETATM   26  C   UNL     1     -10.006   7.751  70.357  1.00  0.00    -0.188 A  
HETATM   27  C   UNL     1     -12.100   8.063  72.251  1.00  0.00    -0.341 A  
HETATM   28  C   UNL     1     -11.001   8.698  70.161  1.00  0.00    -0.234 A  
HETATM   29  C   UNL     1     -10.157   6.860  71.431  1.00  0.00    -0.197 A  
HETATM   30  C   UNL     1     -11.161   7.026  72.393  1.00  0.00    -0.259 A  
HETATM   31  C   UNL     1     -12.029   8.885  71.108  1.00  0.00    -0.293 A  
BRANCH  30  32
HETATM   32  O   UNL     1     -11.245   6.236  73.518  1.00  0.00    -0.067 OA 
HETATM   33  C   UNL     1     -10.183   6.388  74.459  1.00  0.00    -0.288 C  
ENDBRANCH  30  32
BRANCH  27  34
HETATM   34  O   UNL     1     -13.039   8.171  73.250  1.00  0.00     0.420 OA 
HETATM   35  C   UNL     1     -14.395   7.932  72.882  1.00  0.00     0.584 C  
ENDBRANCH  27  34
BRANCH  31  36
HETATM   36  O   UNL     1     -12.989   9.853  70.943  1.00  0.00    -0.335 OA 
HETATM   37  C   UNL     1     -12.642  10.932  70.080  1.00  0.00    -0.234 C  
ENDBRANCH  31  36
ENDBRANCH  24  26
ENDBRANCH  23  24
ENDBRANCH   3  23
BRANCH   5  38
HETATM   38  O   UNL     1      -6.843   4.494  66.762  1.00  0.00    -0.050 OA 
HETATM   39  C   UNL     1      -7.041   3.143  66.396  1.00  0.00    -0.058 C  
ENDBRANCH   5  38
BRANCH   8  40
HETATM   40  C   UNL     1     -10.165   5.600  65.956  1.00  0.00     0.049 C  
HETATM   41  O   UNL     1     -10.959   6.059  66.762  1.00  0.00    -0.316 OA 
BRANCH  40  42
HETATM   42  O   UNL     1     -10.452   4.608  65.070  1.00  0.00    -0.086 OA 
HETATM   43  C   UNL     1      -9.662   4.459  63.882  1.00  0.00     0.001 C  
ENDBRANCH  40  42
ENDBRANCH   8  40
TORSDOF 9
ENDMDL
MODEL      122
REMARK 921   NORMALIZED FREE ENERGY PREDICTED BY IDOCK:   -2.15 KCAL/MOL
REMARK 922        TOTAL FREE ENERGY PREDICTED BY IDOCK:   -5.92 KCAL/MOL
REMARK 923 INTER-LIGAND FREE ENERGY PREDICTED BY IDOCK:   -5.02 KCAL/MOL
REMARK 924 INTRA-LIGAND FREE ENERGY PREDICTED BY IDOCK:   -0.90 KCAL/MOL
REMARK 927      BINDING AFFINITY PREDICTED BY RF-SCORE:    0.00 PKD
ROOT
HETATM    1  C   UNL     1     -10.768   9.095  67.851  1.00  0.00    -0.224 C  
HETATM    2  C   UNL     1      -9.741   8.050  67.403  1.00  0.00    -0.216 C  
HETATM    3  C   UNL     1      -8.549   7.776  68.389  1.00  0.00    -0.128 C  
HETATM    4  C   UNL     1      -9.455  14.991  66.873  1.00  0.00    -0.252 A  
HETATM    5  C   UNL     1      -9.242   6.973  69.484  1.00  0.00    -0.149 C  
HETATM    6  C   UNL     1      -9.493  16.068  65.961  1.00  0.00    -0.384 A  
HETATM    7  C   UNL     1      -9.352  17.384  66.432  1.00  0.00    -0.272 A  
HETATM    8  C   UNL     1     -10.205   8.015  70.185  1.00  0.00    -0.203 C  
HETATM    9  C   UNL     1      -9.178  17.620  67.786  1.00  0.00    -0.251 A  
HETATM   10  C   UNL     1      -9.150  16.563  68.715  1.00  0.00    -0.256 A  
HETATM   11  H   UNL     1      -9.234  13.915  69.908  1.00  0.00     0.000 HD 
HETATM   12  C   UNL     1     -10.590   9.410  69.350  1.00  0.00    -0.235 C  
HETATM   13  C   UNL     1      -9.294  15.248  68.228  1.00  0.00    -0.194 A  
HETATM   14  N   UNL     1      -9.291  14.028  68.896  1.00  0.00    -0.047 NA 
HETATM   15  C   UNL     1      -9.375  12.995  67.991  1.00  0.00    -0.213 A  
HETATM   16  C   UNL     1      -9.482  13.581  66.736  1.00  0.00    -0.272 A  
HETATM   17  C   UNL     1      -9.942  10.870  69.488  1.00  0.00    -0.010 C  
HETATM   18  C   UNL     1      -9.479  12.772  65.492  1.00  0.00     0.098 C  
HETATM   19  C   UNL     1      -9.150  11.505  68.263  1.00  0.00    -0.185 C  
HETATM   20  C   UNL     1      -8.793  11.434  65.797  1.00  0.00    -0.111 C  
HETATM   21  C   UNL     1     -10.656  10.259  66.865  1.00  0.00    -0.217 C  
HETATM   22  N   UNL     1      -9.304  10.758  67.004  1.00  0.00    -0.155 NA 
ENDROOT
BRANCH   3  23
HETATM   23  O   UNL     1      -7.850   8.905  69.046  1.00  0.00    -0.089 OA 
BRANCH  23  24
HETATM   24  C   UNL     1      -6.537   8.651  69.362  1.00  0.00    -0.045 C  
HETATM   25  O   UNL     1      -5.731   9.538  69.627  1.00  0.00    -0.033 OA 
BRANCH  24  26
HETATM   26  C   UNL     1      -6.023   7.240  69.328  1.00  0.00    -0.030 A  
HETATM   27  C   UNL     1      -5.585   4.450  69.637  1.00  0.00    -0.016 A  
HETATM   28  C   UNL     1      -6.057   6.392  68.229  1.00  0.00    -0.027 A  
HETATM   29  C   UNL     1      -5.615   6.697  70.556  1.00  0.00    -0.023 A  
HETATM   30  C   UNL     1      -5.433   5.320  70.732  1.00  0.00    -0.005 A  
HETATM   31  C   UNL     1      -5.872   5.001  68.373  1.00  0.00    -0.017 A  
BRANCH  30  32
HETATM   32  O   UNL     1      -5.155   4.761  71.960  1.00  0.00    -0.004 OA 
HETATM   33  C   UNL     1      -5.388   5.605  73.087  1.00  0.00    -0.023 C  
ENDBRANCH  30  32
BRANCH  27  34
HETATM   34  O   UNL     1      -5.412   3.111  69.899  1.00  0.00    -0.014 OA 
HETATM   35  C   UNL     1      -6.572   2.287  69.811  1.00  0.00    -0.029 C  
ENDBRANCH  27  34
BRANCH  31  36
HETATM   36  O   UNL     1      -5.953   4.152  67.296  1.00  0.00    -0.022 OA 
HETATM   37  C   UNL     1      -7.264   3.906  66.796  1.00  0.00    -0.068 C  
ENDBRANCH  31  36
ENDBRANCH  24  26
ENDBRANCH  23  24
ENDBRANCH   3  23
BRANCH   5  38
HETATM   38  O   UNL     1      -9.917   5.872  68.841  1.00  0.00    -0.139 OA 
HETATM   39  C   UNL     1     -10.908   5.168  69.563  1.00  0.00     0.319 C  
ENDBRANCH   5  38
BRANCH   8  40
HETATM   40  C   UNL     1      -9.710   8.153  71.611  1.00  0.00    -0.179 C  
HETATM   41  O   UNL     1      -8.732   7.581  72.066  1.00  0.00    -0.108 OA 
BRANCH  40  42
HETATM   42  O   UNL     1     -10.556   8.932  72.339  1.00  0.00    -0.261 OA 
HETATM   43  C   UNL     1     -11.906   8.503  72.567  1.00  0.00    -0.328 C  
ENDBRANCH  40  42
ENDBRANCH   8  40
TORSDOF 9
ENDMDL
MODEL      123
REMARK 921   NORMALIZED FREE ENERGY PREDICTED BY IDOCK:   -2.06 KCAL/MOL
REMARK 922        TOTAL FREE ENERGY PREDICTED BY IDOCK:   -5.78 KCAL/MOL
REMARK 923 INTER-LIGAND FREE ENERGY PREDICTED BY IDOCK:   -6.65 KCAL/MOL
REMARK 924 INTRA-LIGAND FREE ENERGY PREDICTED BY IDOCK:    0.87 KCAL/MOL
REMARK 927      BINDING AFFINITY PREDICTED BY RF-SCORE:    0.00 PKD
ROOT
HETATM    1  C   UNL     1      -5.565  15.542  68.852  1.00  0.00    -0.102 C  
HETATM    2  C   UNL     1      -5.315  16.233  67.509  1.00  0.00    -0.159 C  
HETATM    3  C   UNL     1      -6.586  16.751  66.744  1.00  0.00    -0.212 C  
HETATM    4  C   UNL     1      -7.125   9.625  68.769  1.00  0.00    -0.067 A  
HETATM    5  C   UNL     1      -6.961  17.974  67.574  1.00  0.00    -0.192 C  
HETATM    6  C   UNL     1      -6.669   8.289  68.728  1.00  0.00    -0.058 A  
HETATM    7  C   UNL     1      -7.533   7.247  69.103  1.00  0.00    -0.093 A  
HETATM    8  C   UNL     1      -7.452  17.374  68.954  1.00  0.00    -0.235 C  
HETATM    9  C   UNL     1      -8.825   7.532  69.511  1.00  0.00    -0.137 A  
HETATM   10  C   UNL     1      -9.297   8.857  69.573  1.00  0.00    -0.155 A  
HETATM   11  H   UNL     1      -9.456  11.755  69.440  1.00  0.00     0.000 HD 
HETATM   12  C   UNL     1      -7.006  15.809  69.331  1.00  0.00    -0.202 C  
HETATM   13  C   UNL     1      -8.419   9.893  69.195  1.00  0.00    -0.148 A  
HETATM   14  N   UNL     1      -8.610  11.269  69.140  1.00  0.00     0.032 NA 
HETATM   15  C   UNL     1      -7.491  11.880  68.622  1.00  0.00    -0.118 A  
HETATM   16  C   UNL     1      -6.564  10.870  68.394  1.00  0.00    -0.058 A  
HETATM   17  C   UNL     1      -7.855  14.459  69.164  1.00  0.00    -0.026 C  
HETATM   18  C   UNL     1      -5.266  11.138  67.727  1.00  0.00    -0.040 C  
HETATM   19  C   UNL     1      -7.362  13.332  68.154  1.00  0.00    -0.120 C  
HETATM   20  C   UNL     1      -5.413  12.420  66.897  1.00  0.00     0.174 C  
HETATM   21  C   UNL     1      -5.139  14.084  68.671  1.00  0.00    -0.090 C  
HETATM   22  N   UNL     1      -6.001  13.551  67.637  1.00  0.00    -0.287 NA 
ENDROOT
BRANCH   3  23
HETATM   23  O   UNL     1      -7.794  15.899  66.643  1.00  0.00    -0.243 OA 
BRANCH  23  24
HETATM   24  C   UNL     1      -8.881  16.524  66.081  1.00  0.00    -0.306 C  
HETATM   25  O   UNL     1      -8.833  17.661  65.620  1.00  0.00    -0.383 OA 
BRANCH  24  26
HETATM   26  C   UNL     1     -10.215  15.833  66.074  1.00  0.00    -0.352 A  
HETATM   27  C   UNL     1     -12.428  14.102  65.656  1.00  0.00    -0.469 A  
HETATM   28  C   UNL     1     -10.760  15.114  67.129  1.00  0.00    -0.310 A  
HETATM   29  C   UNL     1     -10.887  15.793  64.842  1.00  0.00    -0.433 A  
HETATM   30  C   UNL     1     -11.955  14.916  64.611  1.00  0.00    -0.401 A  
HETATM   31  C   UNL     1     -11.839  14.228  66.929  1.00  0.00    -0.433 A  
BRANCH  30  32
HETATM   32  O   UNL     1     -12.542  14.776  63.373  1.00  0.00    -0.466 OA 
HETATM   33  C   UNL     1     -12.297  13.534  62.713  1.00  0.00     1.082 C  
ENDBRANCH  30  32
BRANCH  27  34
HETATM   34  O   UNL     1     -13.464  13.253  65.340  1.00  0.00    -0.392 OA 
HETATM   35  C   UNL     1     -13.116  12.038  64.680  1.00  0.00     0.689 C  
ENDBRANCH  27  34
BRANCH  31  36
HETATM   36  O   UNL     1     -12.351  13.478  67.959  1.00  0.00    -0.215 OA 
HETATM   37  C   UNL     1     -11.959  13.874  69.271  1.00  0.00    -0.357 C  
ENDBRANCH  31  36
ENDBRANCH  24  26
ENDBRANCH  23  24
ENDBRANCH   3  23
BRANCH   5  38
HETATM   38  O   UNL     1      -5.784  18.802  67.666  1.00  0.00    -0.177 OA 
HETATM   39  C   UNL     1      -5.908  20.188  67.416  1.00  0.00    -0.182 C  
ENDBRANCH   5  38
BRANCH   8  40
HETATM   40  C   UNL     1      -8.915  17.747  69.079  1.00  0.00    -0.007 C  
HETATM   41  O   UNL     1      -9.815  16.960  69.327  1.00  0.00    -0.237 OA 
BRANCH  40  42
HETATM   42  O   UNL     1      -9.101  19.065  68.789  1.00  0.00    -0.353 OA 
HETATM   43  C   UNL     1     -10.374  19.520  68.310  1.00  0.00    -0.411 C  
ENDBRANCH  40  42
ENDBRANCH   8  40
TORSDOF 9
ENDMDL
MODEL      124
REMARK 921   NORMALIZED FREE ENERGY PREDICTED BY IDOCK:   -1.99 KCAL/MOL
REMARK 922        TOTAL FREE ENERGY PREDICTED BY IDOCK:   -5.67 KCAL/MOL
REMARK 923 INTER-LIGAND FREE ENERGY PREDICTED BY IDOCK:   -6.50 KCAL/MOL
REMARK 924 INTRA-LIGAND FREE ENERGY PREDICTED BY IDOCK:    0.83 KCAL/MOL
REMARK 927      BINDING AFFINITY PREDICTED BY RF-SCORE:    0.00 PKD
ROOT
HETATM    1  C   UNL     1     -10.461   7.636  66.404  1.00  0.00     0.218 C  
HETATM    2  C   UNL     1      -8.977   7.504  66.050  1.00  0.00    -0.164 C  
HETATM    3  C   UNL     1      -8.063   6.810  67.125  1.00  0.00    -0.117 C  
HETATM    4  C   UNL     1     -12.147  12.344  69.931  1.00  0.00    -0.317 A  
HETATM    5  C   UNL     1      -8.474   5.350  66.973  1.00  0.00    -0.106 C  
HETATM    6  C   UNL     1     -12.524  13.704  69.974  1.00  0.00    -0.267 A  
HETATM    7  C   UNL     1     -13.179  14.208  71.110  1.00  0.00    -0.369 A  
HETATM    8  C   UNL     1      -9.960   5.302  67.515  1.00  0.00    -0.206 C  
HETATM    9  C   UNL     1     -13.454  13.372  72.179  1.00  0.00    -0.646 A  
HETATM   10  C   UNL     1     -13.099  12.010  72.152  1.00  0.00    -0.352 A  
HETATM   11  H   UNL     1     -12.088   9.422  71.301  1.00  0.00     0.000 HD 
HETATM   12  C   UNL     1     -10.805   6.741  67.612  1.00  0.00    -0.361 C  
HETATM   13  C   UNL     1     -12.443  11.517  71.006  1.00  0.00    -0.356 A  
HETATM   14  N   UNL     1     -11.968  10.244  70.709  1.00  0.00    -0.331 NA 
HETATM   15  C   UNL     1     -11.313  10.256  69.499  1.00  0.00    -0.241 A  
HETATM   16  C   UNL     1     -11.424  11.551  69.006  1.00  0.00    -0.355 A  
HETATM   17  C   UNL     1     -11.037   7.680  68.890  1.00  0.00     0.179 C  
HETATM   18  C   UNL     1     -10.735  11.975  67.762  1.00  0.00    -0.243 C  
HETATM   19  C   UNL     1     -10.429   9.151  68.913  1.00  0.00    -0.218 C  
HETATM   20  C   UNL     1      -9.551  11.026  67.527  1.00  0.00    -0.164 C  
HETATM   21  C   UNL     1     -10.741   9.134  66.531  1.00  0.00     0.111 C  
HETATM   22  N   UNL     1      -9.900   9.597  67.614  1.00  0.00    -0.157 NA 
ENDROOT
BRANCH   3  23
HETATM   23  O   UNL     1      -8.200   7.160  68.557  1.00  0.00    -0.123 OA 
BRANCH  23  24
HETATM   24  C   UNL     1      -7.284   6.548  69.379  1.00  0.00    -0.086 C  
HETATM   25  O   UNL     1      -6.582   5.610  69.013  1.00  0.00    -0.047 OA 
BRANCH  24  26
HETATM   26  C   UNL     1      -7.162   6.983  70.812  1.00  0.00    -0.071 A  
HETATM   27  C   UNL     1      -7.075   8.403  73.271  1.00  0.00    -0.072 A  
HETATM   28  C   UNL     1      -8.068   6.700  71.824  1.00  0.00    -0.103 A  
HETATM   29  C   UNL     1      -6.118   7.875  71.102  1.00  0.00    -0.034 A  
HETATM   30  C   UNL     1      -6.084   8.610  72.294  1.00  0.00    -0.072 A  
HETATM   31  C   UNL     1      -8.056   7.418  73.038  1.00  0.00    -0.105 A  
BRANCH  30  32
HETATM   32  O   UNL     1      -5.137   9.579  72.540  1.00  0.00    -0.074 OA 
HETATM   33  C   UNL     1      -5.130  10.679  71.629  1.00  0.00    -0.047 C  
ENDBRANCH  30  32
BRANCH  27  34
HETATM   34  O   UNL     1      -6.983   9.181  74.401  1.00  0.00    -0.391 OA 
HETATM   35  C   UNL     1      -5.828  10.008  74.517  1.00  0.00     0.371 C  
ENDBRANCH  27  34
BRANCH  31  36
HETATM   36  O   UNL     1      -8.980   7.176  74.025  1.00  0.00    -0.175 OA 
HETATM   37  C   UNL     1      -9.917   6.136  73.755  1.00  0.00    -0.214 C  
ENDBRANCH  31  36
ENDBRANCH  24  26
ENDBRANCH  23  24
ENDBRANCH   3  23
BRANCH   5  38
HETATM   38  O   UNL     1      -8.335   5.012  65.578  1.00  0.00    -0.117 OA 
HETATM   39  C   UNL     1      -9.351   4.248  64.959  1.00  0.00    -0.165 C  
ENDBRANCH   5  38
BRANCH   8  40
HETATM   40  C   UNL     1      -9.933   4.409  68.740  1.00  0.00    -0.011 C  
HETATM   41  O   UNL     1     -10.327   4.736  69.848  1.00  0.00    -0.238 OA 
BRANCH  40  42
HETATM   42  O   UNL     1      -9.329   3.223  68.455  1.00  0.00    -0.170 OA 
HETATM   43  C   UNL     1      -8.870   2.379  69.520  1.00  0.00    -0.091 C  
ENDBRANCH  40  42
ENDBRANCH   8  40
TORSDOF 9
ENDMDL
MODEL      125
REMARK 921   NORMALIZED FREE ENERGY PREDICTED BY IDOCK:   -1.81 KCAL/MOL
REMARK 922        TOTAL FREE ENERGY PREDICTED BY IDOCK:   -5.40 KCAL/MOL
REMARK 923 INTER-LIGAND FREE ENERGY PREDICTED BY IDOCK:   -4.27 KCAL/MOL
REMARK 924 INTRA-LIGAND FREE ENERGY PREDICTED BY IDOCK:   -1.13 KCAL/MOL
REMARK 927      BINDING AFFINITY PREDICTED BY RF-SCORE:    0.00 PKD
ROOT
HETATM    1  C   UNL     1      -9.741  17.795  69.093  1.00  0.00    -0.090 C  
HETATM    2  C   UNL     1      -8.372  17.628  69.760  1.00  0.00     1.310 C  
HETATM    3  C   UNL     1      -7.120  18.000  68.886  1.00  0.00    -0.263 C  
HETATM    4  C   UNL     1     -11.728  13.271  65.483  1.00  0.00    -0.376 A  
HETATM    5  C   UNL     1      -7.197  19.523  68.881  1.00  0.00    -0.362 C  
HETATM    6  C   UNL     1     -12.397  12.030  65.414  1.00  0.00     0.198 A  
HETATM    7  C   UNL     1     -12.905  11.580  64.184  1.00  0.00     0.405 A  
HETATM    8  C   UNL     1      -8.487  19.847  68.022  1.00  0.00    -0.301 C  
HETATM    9  C   UNL     1     -12.749  12.355  63.046  1.00  0.00     0.097 A  
HETATM   10  C   UNL     1     -12.097  13.601  63.093  1.00  0.00     0.112 A  
HETATM   11  H   UNL     1     -10.702  15.968  64.037  1.00  0.00     0.000 HD 
HETATM   12  C   UNL     1      -9.608  18.628  67.802  1.00  0.00    -0.332 C  
HETATM   13  C   UNL     1     -11.593  14.040  64.335  1.00  0.00    -0.369 A  
HETATM   14  N   UNL     1     -10.904  15.198  64.675  1.00  0.00    -0.337 NA 
HETATM   15  C   UNL     1     -10.532  15.154  65.999  1.00  0.00    -0.319 A  
HETATM   16  C   UNL     1     -11.043  13.966  66.510  1.00  0.00    -0.310 A  
HETATM   17  C   UNL     1      -9.788  17.649  66.545  1.00  0.00    -0.323 C  
HETATM   18  C   UNL     1     -10.744  13.517  67.892  1.00  0.00    -0.258 C  
HETATM   19  C   UNL     1      -9.552  16.085  66.719  1.00  0.00    -0.232 C  
HETATM   20  C   UNL     1      -9.444  14.198  68.342  1.00  0.00    -0.214 C  
HETATM   21  C   UNL     1     -10.334  16.390  68.970  1.00  0.00    -0.278 C  
HETATM   22  N   UNL     1      -9.421  15.655  68.120  1.00  0.00    -0.194 NA 
ENDROOT
BRANCH   3  23
HETATM   23  O   UNL     1      -7.039  17.558  67.474  1.00  0.00    -0.163 OA 
BRANCH  23  24
HETATM   24  C   UNL     1      -5.969  16.740  67.199  1.00  0.00    -0.173 C  
HETATM   25  O   UNL     1      -5.129  17.006  66.344  1.00  0.00    -0.319 OA 
BRANCH  24  26
HETATM   26  C   UNL     1      -5.831  15.428  67.916  1.00  0.00    -0.162 A  
HETATM   27  C   UNL     1      -6.040  13.199  69.665  1.00  0.00    -0.120 A  
HETATM   28  C   UNL     1      -6.273  14.199  67.446  1.00  0.00     0.182 A  
HETATM   29  C   UNL     1      -5.350  15.487  69.233  1.00  0.00    -0.097 A  
HETATM   30  C   UNL     1      -5.482  14.409  70.117  1.00  0.00    -0.106 A  
HETATM   31  C   UNL     1      -6.411  13.092  68.310  1.00  0.00    -0.096 A  
BRANCH  30  32
HETATM   32  O   UNL     1      -5.129  14.494  71.446  1.00  0.00    -0.122 OA 
HETATM   33  C   UNL     1      -5.535  15.687  72.115  1.00  0.00     0.479 C  
ENDBRANCH  30  32
BRANCH  27  34
HETATM   34  O   UNL     1      -6.155  12.198  70.601  1.00  0.00    -0.269 OA 
HETATM   35  C   UNL     1      -5.522  10.958  70.293  1.00  0.00    -0.079 C  
ENDBRANCH  27  34
BRANCH  31  36
HETATM   36  O   UNL     1      -6.893  11.887  67.861  1.00  0.00    -0.072 OA 
HETATM   37  C   UNL     1      -6.126  11.252  66.842  1.00  0.00    -0.120 C  
ENDBRANCH  31  36
ENDBRANCH  24  26
ENDBRANCH  23  24
ENDBRANCH   3  23
BRANCH   5  38
HETATM   38  O   UNL     1      -7.272  19.949  70.257  1.00  0.00     0.020 OA 
HETATM   39  C   UNL     1      -6.099  20.426  70.885  1.00  0.00    -0.168 C  
ENDBRANCH   5  38
BRANCH   8  40
HETATM   40  C   UNL     1      -8.000  20.596  66.798  1.00  0.00    -0.117 C  
HETATM   41  O   UNL     1      -8.599  20.656  65.736  1.00  0.00     0.238 OA 
BRANCH  40  42
HETATM   42  O   UNL     1      -6.762  21.118  67.016  1.00  0.00    -0.329 OA 
HETATM   43  C   UNL     1      -5.738  20.973  66.021  1.00  0.00    -0.242 C  
ENDBRANCH  40  42
ENDBRANCH   8  40
TORSDOF 9
ENDMDL
MODEL      126
REMARK 921   NORMALIZED FREE ENERGY PREDICTED BY IDOCK:   -1.79 KCAL/MOL
REMARK 922        TOTAL FREE ENERGY PREDICTED BY IDOCK:   -5.37 KCAL/MOL
REMARK 923 INTER-LIGAND FREE ENERGY PREDICTED BY IDOCK:   -6.74 KCAL/MOL
REMARK 924 INTRA-LIGAND FREE ENERGY PREDICTED BY IDOCK:    1.37 KCAL/MOL
REMARK 927      BINDING AFFINITY PREDICTED BY RF-SCORE:    0.00 PKD
ROOT
HETATM    1  C   UNL     1     -10.644  11.954  69.166  1.00  0.00    -0.085 C  
HETATM    2  C   UNL     1     -11.254  10.852  68.295  1.00  0.00    -0.347 C  
HETATM    3  C   UNL     1     -10.261  10.076  67.355  1.00  0.00    -0.219 C  
HETATM    4  C   UNL     1      -9.780  17.453  66.623  1.00  0.00    -0.296 A  
HETATM    5  C   UNL     1      -9.517   9.201  68.358  1.00  0.00    -0.142 C  
HETATM    6  C   UNL     1     -10.351  18.704  66.306  1.00  0.00    -0.483 A  
HETATM    7  C   UNL     1      -9.518  19.792  66.000  1.00  0.00    -0.393 A  
HETATM    8  C   UNL     1      -8.660  10.224  69.210  1.00  0.00    -0.175 C  
HETATM    9  C   UNL     1      -8.142  19.635  66.011  1.00  0.00    -0.322 A  
HETATM   10  C   UNL     1      -7.549  18.400  66.336  1.00  0.00    -0.282 A  
HETATM   11  H   UNL     1      -7.163  15.627  67.113  1.00  0.00     0.000 HD 
HETATM   12  C   UNL     1      -9.106  11.834  69.182  1.00  0.00     0.390 C  
HETATM   13  C   UNL     1      -8.398  17.317  66.643  1.00  0.00    -0.257 A  
HETATM   14  N   UNL     1      -8.103  16.001  66.980  1.00  0.00    -0.198 NA 
HETATM   15  C   UNL     1      -9.265  15.274  67.106  1.00  0.00    -0.209 A  
HETATM   16  C   UNL     1     -10.310  16.166  66.893  1.00  0.00    -0.297 A  
HETATM   17  C   UNL     1      -8.495  13.026  68.303  1.00  0.00    -0.159 C  
HETATM   18  C   UNL     1     -11.723  15.716  66.837  1.00  0.00     0.327 C  
HETATM   19  C   UNL     1      -9.400  13.753  67.214  1.00  0.00    -0.239 C  
HETATM   20  C   UNL     1     -11.733  14.225  66.474  1.00  0.00    -0.394 C  
HETATM   21  C   UNL     1     -11.245  13.272  68.676  1.00  0.00    -0.274 C  
HETATM   22  N   UNL     1     -10.827  13.401  67.296  1.00  0.00    -0.266 NA 
ENDROOT
BRANCH   3  23
HETATM   23  O   UNL     1      -9.243  10.816  66.574  1.00  0.00    -0.163 OA 
BRANCH  23  24
HETATM   24  C   UNL     1      -8.897  10.218  65.385  1.00  0.00    -0.172 C  
HETATM   25  O   UNL     1      -8.690  10.853  64.355  1.00  0.00    -0.128 OA 
BRANCH  24  26
HETATM   26  C   UNL     1      -8.824   8.721  65.299  1.00  0.00    -0.205 A  
HETATM   27  C   UNL     1      -8.040   5.991  65.242  1.00  0.00    -0.134 A  
HETATM   28  C   UNL     1      -9.291   7.831  66.256  1.00  0.00    -0.210 A  
HETATM   29  C   UNL     1      -8.086   8.196  64.226  1.00  0.00    -0.127 A  
HETATM   30  C   UNL     1      -7.660   6.862  64.205  1.00  0.00    -0.108 A  
HETATM   31  C   UNL     1      -8.885   6.480  66.258  1.00  0.00    -0.146 A  
BRANCH  30  32
HETATM   32  O   UNL     1      -6.831   6.366  63.223  1.00  0.00    -0.042 OA 
HETATM   33  C   UNL     1      -5.791   7.244  62.793  1.00  0.00    -0.049 C  
ENDBRANCH  30  32
BRANCH  27  34
HETATM   34  O   UNL     1      -7.561   4.704  65.158  1.00  0.00    -0.075 OA 
HETATM   35  C   UNL     1      -6.288   4.455  65.750  1.00  0.00    -0.036 C  
ENDBRANCH  27  34
BRANCH  31  36
HETATM   36  O   UNL     1      -9.305   5.606  67.231  1.00  0.00    -0.113 OA 
HETATM   37  C   UNL     1     -10.423   4.791  66.891  1.00  0.00    -0.080 C  
ENDBRANCH  31  36
ENDBRANCH  24  26
ENDBRANCH  23  24
ENDBRANCH   3  23
BRANCH   5  38
HETATM   38  O   UNL     1     -10.512   8.480  69.112  1.00  0.00    -0.217 OA 
HETATM   39  C   UNL     1     -10.503   8.585  70.522  1.00  0.00    -0.204 C  
ENDBRANCH   5  38
BRANCH   8  40
HETATM   40  C   UNL     1      -7.208   9.883  68.940  1.00  0.00    -0.076 C  
HETATM   41  O   UNL     1      -6.650  10.020  67.864  1.00  0.00    -0.062 OA 
BRANCH  40  42
HETATM   42  O   UNL     1      -6.636   9.320  70.040  1.00  0.00    -0.044 OA 
HETATM   43  C   UNL     1      -5.212   9.359  70.205  1.00  0.00    -0.027 C  
ENDBRANCH  40  42
ENDBRANCH   8  40
TORSDOF 9
ENDMDL
MODEL      127
REMARK 921   NORMALIZED FREE ENERGY PREDICTED BY IDOCK:   -1.68 KCAL/MOL
REMARK 922        TOTAL FREE ENERGY PREDICTED BY IDOCK:   -5.20 KCAL/MOL
REMARK 923 INTER-LIGAND FREE ENERGY PREDICTED BY IDOCK:   -4.61 KCAL/MOL
REMARK 924 INTRA-LIGAND FREE ENERGY PREDICTED BY IDOCK:   -0.59 KCAL/MOL
REMARK 927      BINDING AFFINITY PREDICTED BY RF-SCORE:    0.00 PKD
ROOT
HETATM    1  C   UNL     1     -11.799  10.304  69.060  1.00  0.00     0.005 C  
HETATM    2  C   UNL     1     -11.491   9.053  68.231  1.00  0.00     0.862 C  
HETATM    3  C   UNL     1     -10.039   8.465  68.369  1.00  0.00    -0.198 C  
HETATM    4  C   UNL     1     -10.089  15.723  66.788  1.00  0.00    -0.276 A  
HETATM    5  C   UNL     1     -10.103   7.825  69.751  1.00  0.00    -0.194 C  
HETATM    6  C   UNL     1     -10.426  16.802  65.944  1.00  0.00    -0.311 A  
HETATM    7  C   UNL     1      -9.755  18.029  66.080  1.00  0.00    -0.220 A  
HETATM    8  C   UNL     1     -10.213   9.051  70.746  1.00  0.00    -0.305 C  
HETATM    9  C   UNL     1      -8.768  18.175  67.041  1.00  0.00    -0.263 A  
HETATM   10  C   UNL     1      -8.425  17.117  67.903  1.00  0.00    -0.212 A  
HETATM   11  H   UNL     1      -8.353  14.537  69.238  1.00  0.00     0.000 HD 
HETATM   12  C   UNL     1     -10.706  10.522  70.126  1.00  0.00    -0.232 C  
HETATM   13  C   UNL     1      -9.107  15.892  67.755  1.00  0.00    -0.196 A  
HETATM   14  N   UNL     1      -8.972  14.690  68.441  1.00  0.00    -0.175 NA 
HETATM   15  C   UNL     1      -9.794  13.736  67.887  1.00  0.00    -0.232 A  
HETATM   16  C   UNL     1     -10.495  14.368  66.866  1.00  0.00    -0.269 A  
HETATM   17  C   UNL     1      -9.807  11.773  69.683  1.00  0.00     1.037 C  
HETATM   18  C   UNL     1     -11.402  13.619  65.962  1.00  0.00    -0.322 C  
HETATM   19  C   UNL     1      -9.779  12.229  68.158  1.00  0.00    -0.213 C  
HETATM   20  C   UNL     1     -10.975  12.145  65.974  1.00  0.00    -0.293 C  
HETATM   21  C   UNL     1     -12.044  11.433  68.058  1.00  0.00     0.097 C  
HETATM   22  N   UNL     1     -10.804  11.580  67.325  1.00  0.00    -0.241 NA 
ENDROOT
BRANCH   3  23
HETATM   23  O   UNL     1      -8.866   9.368  68.355  1.00  0.00    -0.127 OA 
BRANCH  23  24
HETATM   24  C   UNL     1      -7.803   8.903  67.617  1.00  0.00    -0.101 C  
HETATM   25  O   UNL     1      -6.962   9.644  67.118  1.00  0.00    -0.083 OA 
BRANCH  24  26
HETATM   26  C   UNL     1      -7.676   7.432  67.340  1.00  0.00    -0.114 A  
HETATM   27  C   UNL     1      -7.850   4.596  67.332  1.00  0.00    -0.090 A  
HETATM   28  C   UNL     1      -8.233   6.760  66.261  1.00  0.00    -0.120 A  
HETATM   29  C   UNL     1      -7.069   6.661  68.344  1.00  0.00    -0.083 A  
HETATM   30  C   UNL     1      -7.181   5.265  68.372  1.00  0.00    -0.067 A  
HETATM   31  C   UNL     1      -8.354   5.355  66.257  1.00  0.00    -0.115 A  
BRANCH  30  32
HETATM   32  O   UNL     1      -6.698   4.506  69.415  1.00  0.00    -0.042 OA 
HETATM   33  C   UNL     1      -5.729   3.519  69.061  1.00  0.00    -0.022 C  
ENDBRANCH  30  32
BRANCH  27  34
HETATM   34  O   UNL     1      -7.935   3.228  67.447  1.00  0.00    -0.077 OA 
HETATM   35  C   UNL     1      -9.229   2.687  67.705  1.00  0.00    -0.200 C  
ENDBRANCH  27  34
BRANCH  31  36
HETATM   36  O   UNL     1      -8.948   4.689  65.213  1.00  0.00    -0.138 OA 
HETATM   37  C   UNL     1      -8.075   3.920  64.390  1.00  0.00    -0.090 C  
ENDBRANCH  31  36
ENDBRANCH  24  26
ENDBRANCH  23  24
ENDBRANCH   3  23
BRANCH   5  38
HETATM   38  O   UNL     1     -11.245   6.943  69.759  1.00  0.00    -0.283 OA 
HETATM   39  C   UNL     1     -11.034   5.558  69.575  1.00  0.00    -0.055 C  
ENDBRANCH   5  38
BRANCH   8  40
HETATM   40  C   UNL     1      -8.955   9.020  71.592  1.00  0.00    -0.074 C  
HETATM   41  O   UNL     1      -7.819   8.977  71.148  1.00  0.00    -0.144 OA 
BRANCH  40  42
HETATM   42  O   UNL     1      -9.269   8.960  72.915  1.00  0.00    -0.200 OA 
HETATM   43  C   UNL     1      -9.797   7.747  73.471  1.00  0.00    -0.234 C  
ENDBRANCH  40  42
ENDBRANCH   8  40
TORSDOF 9
ENDMDL
MODEL      128
REMARK 921   NORMALIZED FREE ENERGY PREDICTED BY IDOCK:   -1.30 KCAL/MOL
REMARK 922        TOTAL FREE ENERGY PREDICTED BY IDOCK:   -4.62 KCAL/MOL
REMARK 923 INTER-LIGAND FREE ENERGY PREDICTED BY IDOCK:   -3.11 KCAL/MOL
REMARK 924 INTRA-LIGAND FREE ENERGY PREDICTED BY IDOCK:   -1.51 KCAL/MOL
REMARK 927      BINDING AFFINITY PREDICTED BY RF-SCORE:    0.00 PKD
ROOT
HETATM    1  C   UNL     1      -6.752  15.260  70.013  1.00  0.00    -0.104 C  
HETATM    2  C   UNL     1      -6.053  16.153  68.984  1.00  0.00    -0.131 C  
HETATM    3  C   UNL     1      -6.908  16.578  67.734  1.00  0.00    -0.140 C  
HETATM    4  C   UNL     1      -6.941   9.243  68.911  1.00  0.00    -0.064 A  
HETATM    5  C   UNL     1      -7.846  17.612  68.347  1.00  0.00    -0.268 C  
HETATM    6  C   UNL     1      -6.271   8.006  69.026  1.00  0.00    -0.039 A  
HETATM    7  C   UNL     1      -6.994   6.809  68.896  1.00  0.00    -0.086 A  
HETATM    8  C   UNL     1      -8.788  16.769  69.300  1.00  0.00     0.010 C  
HETATM    9  C   UNL     1      -8.358   6.846  68.658  1.00  0.00    -0.121 A  
HETATM   10  C   UNL     1      -9.049   8.068  68.553  1.00  0.00    -0.136 A  
HETATM   11  H   UNL     1      -9.679  10.904  68.503  1.00  0.00     0.000 HD 
HETATM   12  C   UNL     1      -8.275  15.249  69.765  1.00  0.00    -0.009 C  
HETATM   13  C   UNL     1      -8.311   9.262  68.687  1.00  0.00    -0.118 A  
HETATM   14  N   UNL     1      -8.715  10.590  68.616  1.00  0.00    -0.135 NA 
HETATM   15  C   UNL     1      -7.623  11.421  68.719  1.00  0.00    -0.132 A  
HETATM   16  C   UNL     1      -6.520  10.596  68.908  1.00  0.00    -0.049 A  
HETATM   17  C   UNL     1      -8.678  13.825  69.151  1.00  0.00     0.418 C  
HETATM   18  C   UNL     1      -5.138  11.136  68.949  1.00  0.00    -0.040 C  
HETATM   19  C   UNL     1      -7.573  12.926  68.441  1.00  0.00    -0.133 C  
HETATM   20  C   UNL     1      -5.132  12.482  68.211  1.00  0.00    -0.062 C  
HETATM   21  C   UNL     1      -6.021  13.917  69.984  1.00  0.00    -0.143 C  
HETATM   22  N   UNL     1      -6.197  13.407  68.640  1.00  0.00    -0.082 NA 
ENDROOT
BRANCH   3  23
HETATM   23  O   UNL     1      -7.748  15.580  67.033  1.00  0.00    -0.210 OA 
BRANCH  23  24
HETATM   24  C   UNL     1      -8.522  16.102  66.024  1.00  0.00    -0.120 C  
HETATM   25  O   UNL     1      -8.402  17.255  65.620  1.00  0.00    -0.475 OA 
BRANCH  24  26
HETATM   26  C   UNL     1      -9.613  15.268  65.414  1.00  0.00    -0.150 A  
HETATM   27  C   UNL     1     -11.829  13.569  64.895  1.00  0.00    -0.374 A  
HETATM   28  C   UNL     1     -10.744  15.756  64.775  1.00  0.00    -0.282 A  
HETATM   29  C   UNL     1      -9.543  13.886  65.651  1.00  0.00    -0.067 A  
HETATM   30  C   UNL     1     -10.641  13.044  65.436  1.00  0.00    -0.292 A  
HETATM   31  C   UNL     1     -11.863  14.932  64.539  1.00  0.00    -0.396 A  
BRANCH  30  32
HETATM   32  O   UNL     1     -10.629  11.710  65.780  1.00  0.00    -0.256 OA 
HETATM   33  C   UNL     1      -9.739  10.888  65.025  1.00  0.00    -0.267 C  
ENDBRANCH  30  32
BRANCH  27  34
HETATM   34  O   UNL     1     -12.866  12.680  64.736  1.00  0.00    -0.730 OA 
HETATM   35  C   UNL     1     -13.143  12.250  63.405  1.00  0.00     0.144 C  
ENDBRANCH  27  34
BRANCH  31  36
HETATM   36  O   UNL     1     -13.004  15.421  63.950  1.00  0.00    -0.469 OA 
HETATM   37  C   UNL     1     -14.033  15.839  64.842  1.00  0.00     3.830 C  
ENDBRANCH  31  36
ENDBRANCH  24  26
ENDBRANCH  23  24
ENDBRANCH   3  23
BRANCH   5  38
HETATM   38  O   UNL     1      -7.023  18.583  69.025  1.00  0.00    -0.276 OA 
HETATM   39  C   UNL     1      -7.604  19.811  69.416  1.00  0.00    -0.043 C  
ENDBRANCH   5  38
BRANCH   8  40
HETATM   40  C   UNL     1     -10.188  16.906  68.735  1.00  0.00    -0.311 C  
HETATM   41  O   UNL     1     -10.564  17.822  68.021  1.00  0.00    -0.382 OA 
BRANCH  40  42
HETATM   42  O   UNL     1     -10.993  15.914  69.206  1.00  0.00    -0.250 OA 
HETATM   43  C   UNL     1     -11.984  15.329  68.349  1.00  0.00    -0.163 C  
ENDBRANCH  40  42
ENDBRANCH   8  40
TORSDOF 9
ENDMDL
MODEL      129
REMARK 921   NORMALIZED FREE ENERGY PREDICTED BY IDOCK:   -0.68 KCAL/MOL
REMARK 922        TOTAL FREE ENERGY PREDICTED BY IDOCK:   -3.66 KCAL/MOL
REMARK 923 INTER-LIGAND FREE ENERGY PREDICTED BY IDOCK:   -5.11 KCAL/MOL
REMARK 924 INTRA-LIGAND FREE ENERGY PREDICTED BY IDOCK:    1.45 KCAL/MOL
REMARK 927      BINDING AFFINITY PREDICTED BY RF-SCORE:    0.00 PKD
ROOT
HETATM    1  C   UNL     1      -8.686   6.941  71.635  1.00  0.00    -0.124 C  
HETATM    2  C   UNL     1      -9.517   5.692  71.942  1.00  0.00    -0.171 C  
HETATM    3  C   UNL     1      -9.376   4.495  70.934  1.00  0.00    -0.153 C  
HETATM    4  C   UNL     1     -10.929  10.939  67.581  1.00  0.00    -0.350 A  
HETATM    5  C   UNL     1      -7.996   3.956  71.296  1.00  0.00    -0.067 C  
HETATM    6  C   UNL     1     -11.771  12.052  67.371  1.00  0.00    -0.352 A  
HETATM    7  C   UNL     1     -11.627  12.824  66.206  1.00  0.00    -0.433 A  
HETATM    8  C   UNL     1      -6.997   5.090  70.827  1.00  0.00    -0.048 C  
HETATM    9  C   UNL     1     -10.661  12.491  65.271  1.00  0.00    -0.318 A  
HETATM   10  C   UNL     1      -9.802  11.394  65.465  1.00  0.00    -0.271 A  
HETATM   11  H   UNL     1      -8.477   9.077  66.613  1.00  0.00     0.000 HD 
HETATM   12  C   UNL     1      -7.614   6.622  70.573  1.00  0.00    -0.099 C  
HETATM   13  C   UNL     1      -9.957  10.629  66.640  1.00  0.00    -0.212 A  
HETATM   14  N   UNL     1      -9.276   9.502  67.085  1.00  0.00    -0.133 NA 
HETATM   15  C   UNL     1      -9.836   9.043  68.254  1.00  0.00    -0.166 A  
HETATM   16  C   UNL     1     -10.858   9.930  68.573  1.00  0.00    -0.257 A  
HETATM   17  C   UNL     1      -8.048   7.310  69.191  1.00  0.00    -0.121 C  
HETATM   18  C   UNL     1     -11.769   9.693  69.720  1.00  0.00     0.057 C  
HETATM   19  C   UNL     1      -9.571   7.703  68.946  1.00  0.00    -0.150 C  
HETATM   20  C   UNL     1     -11.761   8.190  70.031  1.00  0.00     0.307 C  
HETATM   21  C   UNL     1      -9.684   8.056  71.320  1.00  0.00    -0.163 C  
HETATM   22  N   UNL     1     -10.411   7.609  70.150  1.00  0.00    -0.222 NA 
ENDROOT
BRANCH   3  23
HETATM   23  O   UNL     1      -9.382   4.746  69.474  1.00  0.00    -0.110 OA 
BRANCH  23  24
HETATM   24  C   UNL     1      -9.134   3.632  68.708  1.00  0.00    -0.142 C  
HETATM   25  O   UNL     1      -8.946   2.518  69.190  1.00  0.00    -0.087 OA 
BRANCH  24  26
HETATM   26  C   UNL     1      -9.020   3.764  67.216  1.00  0.00    -0.158 A  
HETATM   27  C   UNL     1      -8.811   3.352  64.413  1.00  0.00    -0.105 A  
HETATM   28  C   UNL     1     -10.029   4.187  66.361  1.00  0.00    -0.177 A  
HETATM   29  C   UNL     1      -7.839   3.274  66.637  1.00  0.00    -0.080 A  
HETATM   30  C   UNL     1      -7.736   3.029  65.262  1.00  0.00    -0.081 A  
HETATM   31  C   UNL     1      -9.952   3.961  64.971  1.00  0.00    -0.184 A  
BRANCH  30  32
HETATM   32  O   UNL     1      -6.631   2.433  64.697  1.00  0.00    -0.029 OA 
HETATM   33  C   UNL     1      -5.683   1.894  65.619  1.00  0.00    -0.017 C  
ENDBRANCH  30  32
BRANCH  27  34
HETATM   34  O   UNL     1      -8.638   3.060  63.080  1.00  0.00    -0.085 OA 
HETATM   35  C   UNL     1      -7.477   3.599  62.452  1.00  0.00    -0.048 C  
ENDBRANCH  27  34
BRANCH  31  36
HETATM   36  O   UNL     1     -10.969   4.333  64.126  1.00  0.00    -0.105 OA 
HETATM   37  C   UNL     1     -10.980   3.699  62.851  1.00  0.00    -0.053 C  
ENDBRANCH  31  36
ENDBRANCH  24  26
ENDBRANCH  23  24
ENDBRANCH   3  23
BRANCH   5  38
HETATM   38  O   UNL     1      -7.997   3.710  72.717  1.00  0.00    -0.074 OA 
HETATM   39  C   UNL     1      -8.497   2.476  73.192  1.00  0.00    -0.070 C  
ENDBRANCH   5  38
BRANCH   8  40
HETATM   40  C   UNL     1      -6.146   4.476  69.733  1.00  0.00    -0.019 C  
HETATM   41  O   UNL     1      -5.758   3.318  69.722  1.00  0.00    -0.016 OA 
BRANCH  40  42
HETATM   42  O   UNL     1      -5.801   5.414  68.810  1.00  0.00    -0.014 OA 
HETATM   43  C   UNL     1      -5.463   5.015  67.474  1.00  0.00    -0.012 C  
ENDBRANCH  40  42
ENDBRANCH   8  40
TORSDOF 9
ENDMDL
MODEL      130
REMARK 921   NORMALIZED FREE ENERGY PREDICTED BY IDOCK:   -0.40 KCAL/MOL
REMARK 922        TOTAL FREE ENERGY PREDICTED BY IDOCK:   -3.25 KCAL/MOL
REMARK 923 INTER-LIGAND FREE ENERGY PREDICTED BY IDOCK:   -1.43 KCAL/MOL
REMARK 924 INTRA-LIGAND FREE ENERGY PREDICTED BY IDOCK:   -1.82 KCAL/MOL
REMARK 927      BINDING AFFINITY PREDICTED BY RF-SCORE:    0.00 PKD
ROOT
HETATM    1  C   UNL     1      -7.342  13.187  69.598  1.00  0.00     0.597 C  
HETATM    2  C   UNL     1      -6.345  13.687  68.548  1.00  0.00    -0.092 C  
HETATM    3  C   UNL     1      -6.725  13.428  67.045  1.00  0.00     0.650 C  
HETATM    4  C   UNL     1      -7.062   7.293  71.220  1.00  0.00    -0.064 A  
HETATM    5  C   UNL     1      -7.830  14.456  66.831  1.00  0.00     0.212 C  
HETATM    6  C   UNL     1      -6.456   6.332  72.058  1.00  0.00    -0.058 A  
HETATM    7  C   UNL     1      -7.074   5.085  72.248  1.00  0.00    -0.083 A  
HETATM    8  C   UNL     1      -9.030  13.932  67.720  1.00  0.00    -0.188 C  
HETATM    9  C   UNL     1      -8.275   4.804  71.617  1.00  0.00    -0.109 A  
HETATM   10  C   UNL     1      -8.905   5.752  70.788  1.00  0.00    -0.142 A  
HETATM   11  H   UNL     1      -9.517   8.185  69.323  1.00  0.00     0.000 HD 
HETATM   12  C   UNL     1      -8.687  12.833  68.931  1.00  0.00     0.326 C  
HETATM   13  C   UNL     1      -8.272   6.999  70.606  1.00  0.00    -0.119 A  
HETATM   14  N   UNL     1      -8.645   8.102  69.847  1.00  0.00    -0.129 NA 
HETATM   15  C   UNL     1      -7.666   9.067  69.905  1.00  0.00    -0.076 A  
HETATM   16  C   UNL     1      -6.683   8.577  70.757  1.00  0.00    -0.043 A  
HETATM   17  C   UNL     1      -8.837  11.237  68.906  1.00  0.00    -0.055 C  
HETATM   18  C   UNL     1      -5.406   9.301  70.976  1.00  0.00    -0.036 C  
HETATM   19  C   UNL     1      -7.544  10.317  69.029  1.00  0.00    -0.102 C  
HETATM   20  C   UNL     1      -5.166  10.216  69.768  1.00  0.00    -0.038 C  
HETATM   21  C   UNL     1      -6.627  12.082  70.378  1.00  0.00     0.649 C  
HETATM   22  N   UNL     1      -6.326  11.052  69.407  1.00  0.00    -0.071 NA 
ENDROOT
BRANCH   3  23
HETATM   23  O   UNL     1      -7.261  12.111  66.629  1.00  0.00     0.023 OA 
BRANCH  23  24
HETATM   24  C   UNL     1      -6.335  11.285  66.036  1.00  0.00     0.078 C  
HETATM   25  O   UNL     1      -5.130  11.516  66.051  1.00  0.00    -0.302 OA 
BRANCH  24  26
HETATM   26  C   UNL     1      -6.796  10.074  65.277  1.00  0.00    -0.128 A  
HETATM   27  C   UNL     1      -8.037   7.681  64.382  1.00  0.00    -0.084 A  
HETATM   28  C   UNL     1      -7.634  10.083  64.170  1.00  0.00    -0.140 A  
HETATM   29  C   UNL     1      -6.466   8.829  65.834  1.00  0.00    -0.057 A  
HETATM   30  C   UNL     1      -7.099   7.647  65.429  1.00  0.00    -0.063 A  
HETATM   31  C   UNL     1      -8.281   8.908  63.734  1.00  0.00    -0.172 A  
BRANCH  30  32
HETATM   32  O   UNL     1      -6.877   6.438  66.051  1.00  0.00    -0.054 OA 
HETATM   33  C   UNL     1      -7.477   6.289  67.338  1.00  0.00    -0.085 C  
ENDBRANCH  30  32
BRANCH  27  34
HETATM   34  O   UNL     1      -8.629   6.482  64.061  1.00  0.00     0.180 OA 
HETATM   35  C   UNL     1      -8.038   5.741  62.996  1.00  0.00    -0.107 C  
ENDBRANCH  27  34
BRANCH  31  36
HETATM   36  O   UNL     1      -9.149   8.920  62.669  1.00  0.00    -0.065 OA 
HETATM   37  C   UNL     1      -9.719  10.185  62.347  1.00  0.00     0.040 C  
ENDBRANCH  31  36
ENDBRANCH  24  26
ENDBRANCH  23  24
ENDBRANCH   3  23
BRANCH   5  38
HETATM   38  O   UNL     1      -7.302  15.736  67.234  1.00  0.00    -0.183 OA 
HETATM   39  C   UNL     1      -8.205  16.798  67.475  1.00  0.00    -0.173 C  
ENDBRANCH   5  38
BRANCH   8  40
HETATM   40  C   UNL     1     -10.154  13.602  66.757  1.00  0.00    -0.269 C  
HETATM   41  O   UNL     1     -10.200  12.603  66.058  1.00  0.00    -0.260 OA 
BRANCH  40  42
HETATM   42  O   UNL     1     -11.061  14.616  66.714  1.00  0.00    -0.320 OA 
HETATM   43  C   UNL     1     -11.509  15.228  67.932  1.00  0.00    -0.316 C  
ENDBRANCH  40  42
ENDBRANCH   8  40
TORSDOF 9
ENDMDL
MODEL      131
REMARK 921   NORMALIZED FREE ENERGY PREDICTED BY IDOCK:   -0.23 KCAL/MOL
REMARK 922        TOTAL FREE ENERGY PREDICTED BY IDOCK:   -2.98 KCAL/MOL
REMARK 923 INTER-LIGAND FREE ENERGY PREDICTED BY IDOCK:   -2.29 KCAL/MOL
REMARK 924 INTRA-LIGAND FREE ENERGY PREDICTED BY IDOCK:   -0.69 KCAL/MOL
REMARK 927      BINDING AFFINITY PREDICTED BY RF-SCORE:    0.00 PKD
ROOT
HETATM    1  C   UNL     1      -8.628  13.377  68.946  1.00  0.00     0.236 C  
HETATM    2  C   UNL     1      -7.887  13.849  67.691  1.00  0.00    -0.187 C  
HETATM    3  C   UNL     1      -8.180  13.053  66.367  1.00  0.00     0.635 C  
HETATM    4  C   UNL     1      -6.280   8.645  72.036  1.00  0.00    -0.072 A  
HETATM    5  C   UNL     1      -9.578  13.552  66.019  1.00  0.00    -0.161 C  
HETATM    6  C   UNL     1      -5.361   8.225  73.022  1.00  0.00    -0.045 A  
HETATM    7  C   UNL     1      -5.502   6.957  73.610  1.00  0.00    -0.046 A  
HETATM    8  C   UNL     1     -10.504  12.944  67.150  1.00  0.00    -0.241 C  
HETATM    9  C   UNL     1      -6.540   6.126  73.222  1.00  0.00    -0.073 A  
HETATM   10  C   UNL     1      -7.476   6.529  72.251  1.00  0.00    -0.095 A  
HETATM   11  H   UNL     1      -8.925   8.087  70.272  1.00  0.00     0.000 HD 
HETATM   12  C   UNL     1      -9.777  12.422  68.561  1.00  0.00    -0.140 C  
HETATM   13  C   UNL     1      -7.322   7.805  71.670  1.00  0.00    -0.067 A  
HETATM   14  N   UNL     1      -8.070   8.452  70.693  1.00  0.00    -0.106 NA 
HETATM   15  C   UNL     1      -7.488   9.658  70.376  1.00  0.00    -0.158 A  
HETATM   16  C   UNL     1      -6.382   9.789  71.206  1.00  0.00     0.066 A  
HETATM   17  C   UNL     1      -9.361  10.932  68.980  1.00  0.00    -0.144 C  
HETATM   18  C   UNL     1      -5.434  10.923  71.072  1.00  0.00    -0.081 C  
HETATM   19  C   UNL     1      -7.826  10.567  69.191  1.00  0.00    -0.138 C  
HETATM   20  C   UNL     1      -5.549  11.473  69.644  1.00  0.00    -0.070 C  
HETATM   21  C   UNL     1      -7.559  12.846  69.902  1.00  0.00     1.496 C  
HETATM   22  N   UNL     1      -6.934  11.737  69.212  1.00  0.00    -0.095 NA 
ENDROOT
BRANCH   3  23
HETATM   23  O   UNL     1      -8.231  11.573  66.383  1.00  0.00    -0.161 OA 
BRANCH  23  24
HETATM   24  C   UNL     1      -7.041  10.963  66.061  1.00  0.00    -0.067 C  
HETATM   25  O   UNL     1      -5.960  11.543  66.109  1.00  0.00    -0.122 OA 
BRANCH  24  26
HETATM   26  C   UNL     1      -7.042   9.545  65.566  1.00  0.00    -0.090 A  
HETATM   27  C   UNL     1      -7.700   6.947  64.626  1.00  0.00    -0.116 A  
HETATM   28  C   UNL     1      -6.647   9.129  64.302  1.00  0.00    -0.084 A  
HETATM   29  C   UNL     1      -7.634   8.593  66.410  1.00  0.00    -0.091 A  
HETATM   30  C   UNL     1      -7.999   7.322  65.948  1.00  0.00    -0.115 A  
HETATM   31  C   UNL     1      -6.994   7.853  63.811  1.00  0.00    -0.071 A  
BRANCH  30  32
HETATM   32  O   UNL     1      -8.693   6.423  66.727  1.00  0.00    -0.114 OA 
HETATM   33  C   UNL     1      -9.762   6.972  67.498  1.00  0.00    -0.136 C  
ENDBRANCH  30  32
BRANCH  27  34
HETATM   34  O   UNL     1      -8.113   5.691  64.245  1.00  0.00    -0.120 OA 
HETATM   35  C   UNL     1      -9.110   5.627  63.228  1.00  0.00     0.561 C  
ENDBRANCH  27  34
BRANCH  31  36
HETATM   36  O   UNL     1      -6.648   7.454  62.543  1.00  0.00    -0.067 OA 
HETATM   37  C   UNL     1      -5.942   6.220  62.452  1.00  0.00    -0.027 C  
ENDBRANCH  31  36
ENDBRANCH  24  26
ENDBRANCH  23  24
ENDBRANCH   3  23
BRANCH   5  38
HETATM   38  O   UNL     1      -9.523  14.993  66.000  1.00  0.00    -0.298 OA 
HETATM   39  C   UNL     1     -10.699  15.721  66.291  1.00  0.00    -0.282 C  
ENDBRANCH   5  38
BRANCH   8  40
HETATM   40  C   UNL     1     -11.459  11.998  66.449  1.00  0.00    -0.353 C  
HETATM   41  O   UNL     1     -11.312  10.789  66.377  1.00  0.00    -0.065 OA 
BRANCH  40  42
HETATM   42  O   UNL     1     -12.457  12.692  65.835  1.00  0.00    -0.584 OA 
HETATM   43  C   UNL     1     -12.515  12.747  64.403  1.00  0.00    -0.399 C  
ENDBRANCH  40  42
ENDBRANCH   8  40
TORSDOF 9
ENDMDL
MODEL      132
REMARK 921   NORMALIZED FREE ENERGY PREDICTED BY IDOCK:    0.02 KCAL/MOL
REMARK 922        TOTAL FREE ENERGY PREDICTED BY IDOCK:   -2.60 KCAL/MOL
REMARK 923 INTER-LIGAND FREE ENERGY PREDICTED BY IDOCK:   -1.78 KCAL/MOL
REMARK 924 INTRA-LIGAND FREE ENERGY PREDICTED BY IDOCK:   -0.82 KCAL/MOL
REMARK 927      BINDING AFFINITY PREDICTED BY RF-SCORE:    0.00 PKD
ROOT
HETATM    1  C   UNL     1     -12.104  11.589  70.492  1.00  0.00    -0.472 C  
HETATM    2  C   UNL     1     -12.897  10.500  69.764  1.00  0.00     0.206 C  
HETATM    3  C   UNL     1     -12.064   9.296  69.190  1.00  0.00     1.537 C  
HETATM    4  C   UNL     1      -9.415  15.914  67.099  1.00  0.00    -0.221 A  
HETATM    5  C   UNL     1     -11.724   8.531  70.463  1.00  0.00    -0.072 C  
HETATM    6  C   UNL     1      -9.565  17.155  66.442  1.00  0.00    -0.296 A  
HETATM    7  C   UNL     1      -8.426  17.891  66.078  1.00  0.00    -0.054 A  
HETATM    8  C   UNL     1     -10.716   9.478  71.233  1.00  0.00    -0.386 C  
HETATM    9  C   UNL     1      -7.163  17.400  66.365  1.00  0.00    -0.333 A  
HETATM   10  C   UNL     1      -6.990  16.172  67.031  1.00  0.00    -0.234 A  
HETATM   11  H   UNL     1      -7.505  13.662  68.401  1.00  0.00     0.000 HD 
HETATM   12  C   UNL     1     -10.678  11.093  70.805  1.00  0.00     1.609 C  
HETATM   13  C   UNL     1      -8.142  15.444  67.391  1.00  0.00    -0.180 A  
HETATM   14  N   UNL     1      -8.277  14.216  68.030  1.00  0.00    -0.141 NA 
HETATM   15  C   UNL     1      -9.604  13.859  68.090  1.00  0.00    -0.218 A  
HETATM   16  C   UNL     1     -10.318  14.907  67.521  1.00  0.00    -0.239 A  
HETATM   17  C   UNL     1      -9.653  11.845  69.829  1.00  0.00     1.711 C  
HETATM   18  C   UNL     1     -11.784  14.827  67.305  1.00  0.00    -0.366 C  
HETATM   19  C   UNL     1     -10.180  12.492  68.473  1.00  0.00    -0.203 C  
HETATM   20  C   UNL     1     -12.177  13.345  67.252  1.00  0.00    -0.233 C  
HETATM   21  C   UNL     1     -12.243  12.858  69.650  1.00  0.00    -0.141 C  
HETATM   22  N   UNL     1     -11.647  12.542  68.369  1.00  0.00    -0.301 NA 
ENDROOT
BRANCH   3  23
HETATM   23  O   UNL     1     -10.794   9.546  68.471  1.00  0.00    -0.203 OA 
BRANCH  23  24
HETATM   24  C   UNL     1     -10.289   8.447  67.817  1.00  0.00    -0.235 C  
HETATM   25  O   UNL     1     -10.852   7.357  67.813  1.00  0.00    -0.194 OA 
BRANCH  24  26
HETATM   26  C   UNL     1      -8.960   8.540  67.123  1.00  0.00    -0.145 A  
HETATM   27  C   UNL     1      -6.766   9.151  65.425  1.00  0.00    -0.073 A  
HETATM   28  C   UNL     1      -7.823   9.152  67.630  1.00  0.00    -0.096 A  
HETATM   29  C   UNL     1      -8.923   8.098  65.791  1.00  0.00    -0.165 A  
HETATM   30  C   UNL     1      -7.866   8.425  64.933  1.00  0.00    -0.121 A  
HETATM   31  C   UNL     1      -6.739   9.490  66.792  1.00  0.00    -0.072 A  
BRANCH  30  32
HETATM   32  O   UNL     1      -7.875   8.106  63.593  1.00  0.00    -0.139 OA 
HETATM   33  C   UNL     1      -7.007   7.040  63.209  1.00  0.00    -0.054 C  
ENDBRANCH  30  32
BRANCH  27  34
HETATM   34  O   UNL     1      -5.782   9.451  64.513  1.00  0.00    -0.066 OA 
HETATM   35  C   UNL     1      -5.694  10.810  64.090  1.00  0.00     0.070 C  
ENDBRANCH  27  34
BRANCH  31  36
HETATM   36  O   UNL     1      -5.631  10.140  67.279  1.00  0.00    -0.042 OA 
HETATM   37  C   UNL     1      -5.862  11.030  68.367  1.00  0.00    -0.042 C  
ENDBRANCH  31  36
ENDBRANCH  24  26
ENDBRANCH  23  24
ENDBRANCH   3  23
BRANCH   5  38
HETATM   38  O   UNL     1     -12.964   8.286  71.157  1.00  0.00    -0.198 OA 
HETATM   39  C   UNL     1     -13.474   6.968  71.193  1.00  0.00    -0.071 C  
ENDBRANCH   5  38
BRANCH   8  40
HETATM   40  C   UNL     1      -9.401   8.728  71.300  1.00  0.00    -0.250 C  
HETATM   41  O   UNL     1      -8.929   8.068  70.387  1.00  0.00    -0.143 OA 
BRANCH  40  42
HETATM   42  O   UNL     1      -8.860   8.819  72.546  1.00  0.00    -0.402 OA 
HETATM   43  C   UNL     1      -7.549   8.294  72.797  1.00  0.00    -0.113 C  
ENDBRANCH  40  42
ENDBRANCH   8  40
TORSDOF 9
ENDMDL
MODEL      133
REMARK 921   NORMALIZED FREE ENERGY PREDICTED BY IDOCK:    0.02 KCAL/MOL
REMARK 922        TOTAL FREE ENERGY PREDICTED BY IDOCK:   -2.60 KCAL/MOL
REMARK 923 INTER-LIGAND FREE ENERGY PREDICTED BY IDOCK:   -2.55 KCAL/MOL
REMARK 924 INTRA-LIGAND FREE ENERGY PREDICTED BY IDOCK:   -0.05 KCAL/MOL
REMARK 927      BINDING AFFINITY PREDICTED BY RF-SCORE:    0.00 PKD
ROOT
HETATM    1  C   UNL     1     -12.128  14.418  67.865  1.00  0.00    -0.280 C  
HETATM    2  C   UNL     1     -11.676  12.956  67.795  1.00  0.00    -0.412 C  
HETATM    3  C   UNL     1     -10.968  12.383  69.077  1.00  0.00    -0.197 C  
HETATM    4  C   UNL     1      -7.963  18.751  66.712  1.00  0.00    -0.265 A  
HETATM    5  C   UNL     1     -12.150  12.221  70.027  1.00  0.00    -0.273 C  
HETATM    6  C   UNL     1      -7.306  19.518  65.725  1.00  0.00    -0.297 A  
HETATM    7  C   UNL     1      -6.632  20.694  66.091  1.00  0.00    -0.269 A  
HETATM    8  C   UNL     1     -12.594  13.704  70.356  1.00  0.00    -0.297 C  
HETATM    9  C   UNL     1      -6.615  21.098  67.416  1.00  0.00    -0.437 A  
HETATM   10  C   UNL     1      -7.273  20.357  68.415  1.00  0.00    -0.133 A  
HETATM   11  H   UNL     1      -8.847  18.338  69.789  1.00  0.00     0.000 HD 
HETATM   12  C   UNL     1     -12.094  14.919  69.324  1.00  0.00    -0.286 C  
HETATM   13  C   UNL     1      -7.946  19.179  68.033  1.00  0.00    -0.296 A  
HETATM   14  N   UNL     1      -8.657  18.254  68.790  1.00  0.00    -0.269 NA 
HETATM   15  C   UNL     1      -9.067  17.209  67.994  1.00  0.00    -0.240 A  
HETATM   16  C   UNL     1      -8.646  17.510  66.704  1.00  0.00    -0.284 A  
HETATM   17  C   UNL     1     -10.856  15.924  69.487  1.00  0.00    -0.305 C  
HETATM   18  C   UNL     1      -8.811  16.550  65.584  1.00  0.00     0.302 C  
HETATM   19  C   UNL     1      -9.648  15.868  68.453  1.00  0.00    -0.208 C  
HETATM   20  C   UNL     1      -8.930  15.141  66.180  1.00  0.00    -0.166 C  
HETATM   21  C   UNL     1     -11.287  15.178  66.837  1.00  0.00    -0.264 C  
HETATM   22  N   UNL     1      -9.914  15.031  67.272  1.00  0.00    -0.232 NA 
ENDROOT
BRANCH   3  23
HETATM   23  O   UNL     1      -9.941  13.184  69.782  1.00  0.00     1.063 OA 
BRANCH  23  24
HETATM   24  C   UNL     1      -8.647  12.873  69.440  1.00  0.00     1.223 C  
HETATM   25  O   UNL     1      -7.764  13.718  69.333  1.00  0.00     0.155 OA 
BRANCH  24  26
HETATM   26  C   UNL     1      -8.285  11.452  69.115  1.00  0.00     0.098 A  
HETATM   27  C   UNL     1      -7.358   9.034  67.945  1.00  0.00    -0.084 A  
HETATM   28  C   UNL     1      -7.272  10.717  69.717  1.00  0.00    -0.106 A  
HETATM   29  C   UNL     1      -8.931  10.883  68.007  1.00  0.00    -0.145 A  
HETATM   30  C   UNL     1      -8.461   9.713  67.397  1.00  0.00    -0.125 A  
HETATM   31  C   UNL     1      -6.781   9.532  69.130  1.00  0.00    -0.049 A  
BRANCH  30  32
HETATM   32  O   UNL     1      -9.009   9.212  66.236  1.00  0.00    -0.142 OA 
HETATM   33  C   UNL     1      -9.798  10.132  65.481  1.00  0.00    -0.298 C  
ENDBRANCH  30  32
BRANCH  27  34
HETATM   34  O   UNL     1      -6.946   7.907  67.273  1.00  0.00    -0.071 OA 
HETATM   35  C   UNL     1      -5.987   8.096  66.235  1.00  0.00    -0.041 C  
ENDBRANCH  27  34
BRANCH  31  36
HETATM   36  O   UNL     1      -5.747   8.827  69.696  1.00  0.00    -0.029 OA 
HETATM   37  C   UNL     1      -6.055   8.134  70.902  1.00  0.00    -0.033 C  
ENDBRANCH  31  36
ENDBRANCH  24  26
ENDBRANCH  23  24
ENDBRANCH   3  23
BRANCH   5  38
HETATM   38  O   UNL     1     -13.145  11.437  69.337  1.00  0.00     0.365 OA 
HETATM   39  C   UNL     1     -13.652  10.277  69.967  1.00  0.00     1.080 C  
ENDBRANCH   5  38
BRANCH   8  40
HETATM   40  C   UNL     1     -12.363  13.893  71.842  1.00  0.00    -0.067 C  
HETATM   41  O   UNL     1     -12.329  12.988  72.661  1.00  0.00     0.504 OA 
BRANCH  40  42
HETATM   42  O   UNL     1     -12.288  15.217  72.151  1.00  0.00    -0.319 OA 
HETATM   43  C   UNL     1     -11.964  15.622  73.488  1.00  0.00    -0.419 C  
ENDBRANCH  40  42
ENDBRANCH   8  40
TORSDOF 9
ENDMDL
MODEL      134
REMARK 921   NORMALIZED FREE ENERGY PREDICTED BY IDOCK:    0.21 KCAL/MOL
REMARK 922        TOTAL FREE ENERGY PREDICTED BY IDOCK:   -2.32 KCAL/MOL
REMARK 923 INTER-LIGAND FREE ENERGY PREDICTED BY IDOCK:   -6.62 KCAL/MOL
REMARK 924 INTRA-LIGAND FREE ENERGY PREDICTED BY IDOCK:    4.31 KCAL/MOL
REMARK 927      BINDING AFFINITY PREDICTED BY RF-SCORE:    0.00 PKD
ROOT
HETATM    1  C   UNL     1     -11.166   9.725  69.205  1.00  0.00    -0.128 C  
HETATM    2  C   UNL     1     -10.677  11.045  69.810  1.00  0.00    -0.135 C  
HETATM    3  C   UNL     1      -9.839  11.979  68.863  1.00  0.00     0.057 C  
HETATM    4  C   UNL     1      -7.258   5.017  69.092  1.00  0.00    -0.057 A  
HETATM    5  C   UNL     1     -10.924  12.527  67.943  1.00  0.00    -0.227 C  
HETATM    6  C   UNL     1      -6.718   3.921  69.799  1.00  0.00    -0.034 A  
HETATM    7  C   UNL     1      -6.050   2.903  69.099  1.00  0.00    -0.025 A  
HETATM    8  C   UNL     1     -11.383  11.276  67.089  1.00  0.00    -0.295 C  
HETATM    9  C   UNL     1      -5.925   2.976  67.722  1.00  0.00    -0.027 A  
HETATM   10  C   UNL     1      -6.467   4.053  66.995  1.00  0.00    -0.041 A  
HETATM   11  H   UNL     1      -7.848   6.511  66.293  1.00  0.00     0.000 HD 
HETATM   12  C   UNL     1     -11.016   9.753  67.670  1.00  0.00    -0.226 C  
HETATM   13  C   UNL     1      -7.136   5.067  67.710  1.00  0.00    -0.066 A  
HETATM   14  N   UNL     1      -7.746   6.236  67.270  1.00  0.00    -0.099 NA 
HETATM   15  C   UNL     1      -8.194   6.969  68.345  1.00  0.00    -0.124 A  
HETATM   16  C   UNL     1      -7.901   6.219  69.479  1.00  0.00    -0.101 A  
HETATM   17  C   UNL     1      -9.800   8.792  67.262  1.00  0.00    -0.260 C  
HETATM   18  C   UNL     1      -8.137   6.745  70.846  1.00  0.00    -0.118 C  
HETATM   19  C   UNL     1      -8.689   8.418  68.338  1.00  0.00    -0.136 C  
HETATM   20  C   UNL     1      -8.158   8.278  70.769  1.00  0.00    -0.109 C  
HETATM   21  C   UNL     1     -10.446   8.611  69.966  1.00  0.00    -0.223 C  
HETATM   22  N   UNL     1      -9.035   8.814  69.713  1.00  0.00    -0.143 NA 
ENDROOT
BRANCH   3  23
HETATM   23  O   UNL     1      -8.778  11.407  68.002  1.00  0.00    -0.136 OA 
BRANCH  23  24
HETATM   24  C   UNL     1      -8.049  12.343  67.307  1.00  0.00    -0.182 C  
HETATM   25  O   UNL     1      -7.347  12.058  66.342  1.00  0.00     0.146 OA 
BRANCH  24  26
HETATM   26  C   UNL     1      -8.044  13.773  67.765  1.00  0.00    -0.176 A  
HETATM   27  C   UNL     1      -7.757  16.586  68.039  1.00  0.00    -0.159 A  
HETATM   28  C   UNL     1      -9.160  14.590  67.881  1.00  0.00    -0.191 A  
HETATM   29  C   UNL     1      -6.783  14.364  67.943  1.00  0.00    -0.177 A  
HETATM   30  C   UNL     1      -6.625  15.752  68.040  1.00  0.00    -0.135 A  
HETATM   31  C   UNL     1      -9.033  15.991  67.986  1.00  0.00    -0.187 A  
BRANCH  30  32
HETATM   32  O   UNL     1      -5.387  16.354  68.089  1.00  0.00    -0.101 OA 
HETATM   33  C   UNL     1      -5.208  17.310  69.134  1.00  0.00    -0.153 C  
ENDBRANCH  30  32
BRANCH  27  34
HETATM   34  O   UNL     1      -7.514  17.938  68.115  1.00  0.00    -0.233 OA 
HETATM   35  C   UNL     1      -8.134  18.756  67.125  1.00  0.00    -0.250 C  
ENDBRANCH  27  34
BRANCH  31  36
HETATM   36  O   UNL     1     -10.135  16.808  68.053  1.00  0.00    -0.264 OA 
HETATM   37  C   UNL     1     -10.735  16.938  69.338  1.00  0.00    -0.258 C  
ENDBRANCH  31  36
ENDBRANCH  24  26
ENDBRANCH  23  24
ENDBRANCH   3  23
BRANCH   5  38
HETATM   38  O   UNL     1     -11.953  13.086  68.785  1.00  0.00    -0.314 OA 
HETATM   39  C   UNL     1     -12.187  12.502  70.052  1.00  0.00    -0.192 C  
ENDBRANCH   5  38
BRANCH   8  40
HETATM   40  C   UNL     1     -11.024  11.594  65.651  1.00  0.00    -0.266 C  
HETATM   41  O   UNL     1     -10.317  10.898  64.940  1.00  0.00    -0.295 OA 
BRANCH  40  42
HETATM   42  O   UNL     1     -11.526  12.806  65.289  1.00  0.00    -0.304 OA 
HETATM   43  C   UNL     1     -10.847  13.597  64.303  1.00  0.00    -0.280 C  
ENDBRANCH  40  42
ENDBRANCH   8  40
TORSDOF 9
ENDMDL
MODEL      135
REMARK 921   NORMALIZED FREE ENERGY PREDICTED BY IDOCK:    0.28 KCAL/MOL
REMARK 922        TOTAL FREE ENERGY PREDICTED BY IDOCK:   -2.20 KCAL/MOL
REMARK 923 INTER-LIGAND FREE ENERGY PREDICTED BY IDOCK:   -3.36 KCAL/MOL
REMARK 924 INTRA-LIGAND FREE ENERGY PREDICTED BY IDOCK:    1.16 KCAL/MOL
REMARK 927      BINDING AFFINITY PREDICTED BY RF-SCORE:    0.00 PKD
ROOT
HETATM    1  C   UNL     1      -8.585  10.127  65.492  1.00  0.00    -0.162 C  
HETATM    2  C   UNL     1      -7.289   9.435  65.925  1.00  0.00    -0.095 C  
HETATM    3  C   UNL     1      -7.447   8.185  66.866  1.00  0.00    -0.091 C  
HETATM    4  C   UNL     1     -11.089  14.163  69.352  1.00  0.00    -0.261 A  
HETATM    5  C   UNL     1      -7.963   7.135  65.889  1.00  0.00    -0.116 C  
HETATM    6  C   UNL     1     -11.108  15.500  69.805  1.00  0.00    -0.300 A  
HETATM    7  C   UNL     1     -12.211  15.971  70.535  1.00  0.00    -0.180 A  
HETATM    8  C   UNL     1      -9.418   7.630  65.513  1.00  0.00     0.497 C  
HETATM    9  C   UNL     1     -13.275  15.126  70.806  1.00  0.00    -0.433 A  
HETATM   10  C   UNL     1     -13.284  13.793  70.352  1.00  0.00     0.239 A  
HETATM   11  H   UNL     1     -12.539  11.293  69.074  1.00  0.00     0.000 HD 
HETATM   12  C   UNL     1      -9.800   9.231  65.804  1.00  0.00    -0.302 C  
HETATM   13  C   UNL     1     -12.170  13.334  69.620  1.00  0.00    -0.199 A  
HETATM   14  N   UNL     1     -11.898  12.087  69.069  1.00  0.00    -0.320 NA 
HETATM   15  C   UNL     1     -10.638  12.079  68.516  1.00  0.00    -0.231 A  
HETATM   16  C   UNL     1     -10.131  13.363  68.681  1.00  0.00    -0.162 A  
HETATM   17  C   UNL     1     -10.590   9.861  67.049  1.00  0.00    -0.272 C  
HETATM   18  C   UNL     1      -8.737  13.706  68.306  1.00  0.00    -0.171 C  
HETATM   19  C   UNL     1      -9.844  10.861  68.036  1.00  0.00    -0.171 C  
HETATM   20  C   UNL     1      -7.912  12.412  68.307  1.00  0.00    -0.160 C  
HETATM   21  C   UNL     1      -8.556  11.522  66.119  1.00  0.00    -0.094 C  
HETATM   22  N   UNL     1      -8.528  11.306  67.550  1.00  0.00    -0.129 NA 
ENDROOT
BRANCH   3  23
HETATM   23  O   UNL     1      -8.389   8.226  68.007  1.00  0.00    -0.126 OA 
BRANCH  23  24
HETATM   24  C   UNL     1      -8.677   6.996  68.548  1.00  0.00    -0.122 C  
HETATM   25  O   UNL     1      -9.823   6.578  68.684  1.00  0.00    -0.136 OA 
BRANCH  24  26
HETATM   26  C   UNL     1      -7.562   6.130  69.062  1.00  0.00    -0.091 A  
HETATM   27  C   UNL     1      -5.918   4.282  70.460  1.00  0.00    -0.014 A  
HETATM   28  C   UNL     1      -7.031   5.024  68.413  1.00  0.00    -0.057 A  
HETATM   29  C   UNL     1      -7.135   6.382  70.375  1.00  0.00    -0.068 A  
HETATM   30  C   UNL     1      -6.357   5.461  71.089  1.00  0.00    -0.034 A  
HETATM   31  C   UNL     1      -6.239   4.082  69.102  1.00  0.00    -0.028 A  
BRANCH  30  32
HETATM   32  O   UNL     1      -6.035   5.636  72.417  1.00  0.00    -0.032 OA 
HETATM   33  C   UNL     1      -7.092   6.115  73.248  1.00  0.00    -0.084 C  
ENDBRANCH  30  32
BRANCH  27  34
HETATM   34  O   UNL     1      -5.179   3.421  71.236  1.00  0.00    -0.003 OA 
HETATM   35  C   UNL     1      -5.854   2.807  72.332  1.00  0.00    -0.009 C  
ENDBRANCH  27  34
BRANCH  31  36
HETATM   36  O   UNL     1      -5.751   2.961  68.477  1.00  0.00    -0.021 OA 
HETATM   37  C   UNL     1      -6.642   2.318  67.570  1.00  0.00    -0.035 C  
ENDBRANCH  31  36
ENDBRANCH  24  26
ENDBRANCH  23  24
ENDBRANCH   3  23
BRANCH   5  38
HETATM   38  O   UNL     1      -7.040   7.095  64.781  1.00  0.00    -0.062 OA 
HETATM   39  C   UNL     1      -7.073   5.983  63.909  1.00  0.00    -0.053 C  
ENDBRANCH   5  38
BRANCH   8  40
HETATM   40  C   UNL     1     -10.370   6.567  66.024  1.00  0.00     0.601 C  
HETATM   41  O   UNL     1     -11.465   6.792  66.515  1.00  0.00     0.273 OA 
BRANCH  40  42
HETATM   42  O   UNL     1      -9.800   5.334  65.943  1.00  0.00    -0.152 OA 
HETATM   43  C   UNL     1     -10.087   4.485  64.822  1.00  0.00     0.003 C  
ENDBRANCH  40  42
ENDBRANCH   8  40
TORSDOF 9
ENDMDL
MODEL      136
REMARK 921   NORMALIZED FREE ENERGY PREDICTED BY IDOCK:    0.32 KCAL/MOL
REMARK 922        TOTAL FREE ENERGY PREDICTED BY IDOCK:   -2.14 KCAL/MOL
REMARK 923 INTER-LIGAND FREE ENERGY PREDICTED BY IDOCK:   -2.88 KCAL/MOL
REMARK 924 INTRA-LIGAND FREE ENERGY PREDICTED BY IDOCK:    0.73 KCAL/MOL
REMARK 927      BINDING AFFINITY PREDICTED BY RF-SCORE:    0.00 PKD
ROOT
HETATM    1  C   UNL     1      -9.005  10.604  66.202  1.00  0.00    -0.184 C  
HETATM    2  C   UNL     1     -10.483  10.998  66.120  1.00  0.00    -0.301 C  
HETATM    3  C   UNL     1     -10.861  12.411  66.695  1.00  0.00    -0.246 C  
HETATM    4  C   UNL     1      -6.957   8.283  71.481  1.00  0.00    -0.068 A  
HETATM    5  C   UNL     1     -10.309  13.334  65.615  1.00  0.00    -0.287 C  
HETATM    6  C   UNL     1      -6.799   7.125  72.273  1.00  0.00    -0.060 A  
HETATM    7  C   UNL     1      -5.882   7.130  73.337  1.00  0.00    -0.053 A  
HETATM    8  C   UNL     1      -8.738  13.180  65.732  1.00  0.00     1.047 C  
HETATM    9  C   UNL     1      -5.136   8.267  73.603  1.00  0.00    -0.043 A  
HETATM   10  C   UNL     1      -5.268   9.428  72.819  1.00  0.00    -0.068 A  
HETATM   11  H   UNL     1      -6.103  11.314  70.773  1.00  0.00     0.000 HD 
HETATM   12  C   UNL     1      -8.140  11.838  66.528  1.00  0.00    -0.035 C  
HETATM   13  C   UNL     1      -6.192   9.409  71.754  1.00  0.00     0.066 A  
HETATM   14  N   UNL     1      -6.540  10.394  70.837  1.00  0.00    -0.334 NA 
HETATM   15  C   UNL     1      -7.561   9.948  70.030  1.00  0.00    -0.172 A  
HETATM   16  C   UNL     1      -7.822   8.639  70.417  1.00  0.00    -0.091 A  
HETATM   17  C   UNL     1      -7.633  11.717  68.043  1.00  0.00    -0.117 C  
HETATM   18  C   UNL     1      -8.949   7.864  69.840  1.00  0.00    -0.146 C  
HETATM   19  C   UNL     1      -8.412  10.781  69.068  1.00  0.00    -0.133 C  
HETATM   20  C   UNL     1      -9.984   8.860  69.299  1.00  0.00    -0.192 C  
HETATM   21  C   UNL     1      -8.930   9.414  67.160  1.00  0.00    -0.130 C  
HETATM   22  N   UNL     1      -9.413   9.908  68.433  1.00  0.00    -0.136 NA 
ENDROOT
BRANCH   3  23
HETATM   23  O   UNL     1     -10.300  12.863  67.990  1.00  0.00    -0.215 OA 
BRANCH  23  24
HETATM   24  C   UNL     1     -10.805  14.060  68.438  1.00  0.00    -0.249 C  
HETATM   25  O   UNL     1     -11.994  14.356  68.355  1.00  0.00    -0.331 OA 
BRANCH  24  26
HETATM   26  C   UNL     1      -9.875  15.096  69.001  1.00  0.00    -0.238 A  
HETATM   27  C   UNL     1      -7.748  16.901  69.537  1.00  0.00     0.279 A  
HETATM   28  C   UNL     1     -10.093  16.467  68.997  1.00  0.00    -0.262 A  
HETATM   29  C   UNL     1      -8.619  14.637  69.428  1.00  0.00     0.110 A  
HETATM   30  C   UNL     1      -7.551  15.514  69.658  1.00  0.00    -0.144 A  
HETATM   31  C   UNL     1      -9.039  17.375  69.231  1.00  0.00     0.180 A  
BRANCH  30  32
HETATM   32  O   UNL     1      -6.281  15.071  69.956  1.00  0.00    -0.139 OA 
HETATM   33  C   UNL     1      -6.161  13.671  70.208  1.00  0.00    -0.071 C  
ENDBRANCH  30  32
BRANCH  27  34
HETATM   34  O   UNL     1      -6.643  17.691  69.757  1.00  0.00    -0.158 OA 
HETATM   35  C   UNL     1      -5.724  17.821  68.675  1.00  0.00    -0.173 C  
ENDBRANCH  27  34
BRANCH  31  36
HETATM   36  O   UNL     1      -9.238  18.733  69.180  1.00  0.00    -0.192 OA 
HETATM   37  C   UNL     1      -8.418  19.447  68.259  1.00  0.00    -0.341 C  
ENDBRANCH  31  36
ENDBRANCH  24  26
ENDBRANCH  23  24
ENDBRANCH   3  23
BRANCH   5  38
HETATM   38  O   UNL     1     -10.861  12.893  64.357  1.00  0.00    -0.335 OA 
HETATM   39  C   UNL     1     -11.601  13.814  63.580  1.00  0.00     0.192 C  
ENDBRANCH   5  38
BRANCH   8  40
HETATM   40  C   UNL     1      -8.211  14.542  66.139  1.00  0.00     1.220 C  
HETATM   41  O   UNL     1      -7.280  14.726  66.906  1.00  0.00    -0.038 OA 
BRANCH  40  42
HETATM   42  O   UNL     1      -8.976  15.532  65.602  1.00  0.00    -0.130 OA 
HETATM   43  C   UNL     1      -8.812  16.885  66.048  1.00  0.00    -0.159 C  
ENDBRANCH  40  42
ENDBRANCH   8  40
TORSDOF 9
ENDMDL
MODEL      137
REMARK 921   NORMALIZED FREE ENERGY PREDICTED BY IDOCK:    0.37 KCAL/MOL
REMARK 922        TOTAL FREE ENERGY PREDICTED BY IDOCK:   -2.07 KCAL/MOL
REMARK 923 INTER-LIGAND FREE ENERGY PREDICTED BY IDOCK:   -0.78 KCAL/MOL
REMARK 924 INTRA-LIGAND FREE ENERGY PREDICTED BY IDOCK:   -1.29 KCAL/MOL
REMARK 927      BINDING AFFINITY PREDICTED BY RF-SCORE:    0.00 PKD
ROOT
HETATM    1  C   UNL     1      -7.662  13.519  69.758  1.00  0.00     1.029 C  
HETATM    2  C   UNL     1      -6.607  13.976  68.746  1.00  0.00    -0.096 C  
HETATM    3  C   UNL     1      -6.939  13.720  67.230  1.00  0.00     0.125 C  
HETATM    4  C   UNL     1      -7.661   7.630  71.422  1.00  0.00    -0.081 A  
HETATM    5  C   UNL     1      -7.997  14.787  66.969  1.00  0.00    -0.104 C  
HETATM    6  C   UNL     1      -7.123   6.653  72.287  1.00  0.00    -0.073 A  
HETATM    7  C   UNL     1      -7.794   5.432  72.461  1.00  0.00    -0.103 A  
HETATM    8  C   UNL     1      -9.249  14.313  67.813  1.00  0.00    -0.194 C  
HETATM    9  C   UNL     1      -8.979   5.190  71.785  1.00  0.00    -0.148 A  
HETATM   10  C   UNL     1      -9.541   6.155  70.928  1.00  0.00    -0.193 A  
HETATM   11  H   UNL     1     -10.007   8.598  69.427  1.00  0.00     0.000 HD 
HETATM   12  C   UNL     1      -8.993  13.210  69.042  1.00  0.00     0.473 C  
HETATM   13  C   UNL     1      -8.857   7.377  70.764  1.00  0.00    -0.149 A  
HETATM   14  N   UNL     1      -9.160   8.488  69.985  1.00  0.00    -0.145 NA 
HETATM   15  C   UNL     1      -8.148   9.416  70.075  1.00  0.00    -0.152 A  
HETATM   16  C   UNL     1      -7.218   8.897  70.967  1.00  0.00    -0.101 A  
HETATM   17  C   UNL     1      -9.200  11.621  69.020  1.00  0.00     0.169 C  
HETATM   18  C   UNL     1      -5.924   9.575  71.231  1.00  0.00    -0.069 C  
HETATM   19  C   UNL     1      -7.947  10.656  69.198  1.00  0.00    -0.139 C  
HETATM   20  C   UNL     1      -5.605  10.472  70.028  1.00  0.00    -0.053 C  
HETATM   21  C   UNL     1      -7.019  12.395  70.571  1.00  0.00     1.934 C  
HETATM   22  N   UNL     1      -6.718  11.347  69.618  1.00  0.00    -0.126 NA 
ENDROOT
BRANCH   3  23
HETATM   23  O   UNL     1      -7.507  12.421  66.801  1.00  0.00    -0.005 OA 
BRANCH  23  24
HETATM   24  C   UNL     1      -6.567  11.471  66.482  1.00  0.00    -0.022 C  
HETATM   25  O   UNL     1      -5.359  11.677  66.554  1.00  0.00    -0.196 OA 
BRANCH  24  26
HETATM   26  C   UNL     1      -7.007  10.134  65.959  1.00  0.00    -0.117 A  
HETATM   27  C   UNL     1      -7.344   7.695  64.540  1.00  0.00    -0.086 A  
HETATM   28  C   UNL     1      -6.817   8.914  66.593  1.00  0.00    -0.076 A  
HETATM   29  C   UNL     1      -7.518  10.115  64.652  1.00  0.00    -0.132 A  
HETATM   30  C   UNL     1      -7.652   8.924  63.928  1.00  0.00    -0.121 A  
HETATM   31  C   UNL     1      -6.950   7.697  65.893  1.00  0.00    -0.061 A  
BRANCH  30  32
HETATM   32  O   UNL     1      -8.032   8.901  62.604  1.00  0.00    -0.130 OA 
HETATM   33  C   UNL     1      -9.381   9.291  62.344  1.00  0.00     0.222 C  
ENDBRANCH  30  32
BRANCH  27  34
HETATM   34  O   UNL     1      -7.481   6.575  63.754  1.00  0.00    -0.071 OA 
HETATM   35  C   UNL     1      -6.282   6.015  63.224  1.00  0.00    -0.022 C  
ENDBRANCH  27  34
BRANCH  31  36
HETATM   36  O   UNL     1      -6.716   6.489  66.503  1.00  0.00    -0.053 OA 
HETATM   37  C   UNL     1      -7.639   6.120  67.525  1.00  0.00    -0.093 C  
ENDBRANCH  31  36
ENDBRANCH  24  26
ENDBRANCH  23  24
ENDBRANCH   3  23
BRANCH   5  38
HETATM   38  O   UNL     1      -7.438  16.050  67.384  1.00  0.00    -0.144 OA 
HETATM   39  C   UNL     1      -7.020  16.967  66.393  1.00  0.00    -0.232 C  
ENDBRANCH   5  38
BRANCH   8  40
HETATM   40  C   UNL     1     -10.346  14.018  66.810  1.00  0.00    -0.271 C  
HETATM   41  O   UNL     1     -10.180  13.438  65.749  1.00  0.00    -0.285 OA 
BRANCH  40  42
HETATM   42  O   UNL     1     -11.524  14.567  67.214  1.00  0.00    -0.335 OA 
HETATM   43  C   UNL     1     -11.562  15.405  68.378  1.00  0.00    -0.354 C  
ENDBRANCH  40  42
ENDBRANCH   8  40
TORSDOF 9
ENDMDL
MODEL      138
REMARK 921   NORMALIZED FREE ENERGY PREDICTED BY IDOCK:    1.13 KCAL/MOL
REMARK 922        TOTAL FREE ENERGY PREDICTED BY IDOCK:   -0.90 KCAL/MOL
REMARK 923 INTER-LIGAND FREE ENERGY PREDICTED BY IDOCK:   -2.21 KCAL/MOL
REMARK 924 INTRA-LIGAND FREE ENERGY PREDICTED BY IDOCK:    1.30 KCAL/MOL
REMARK 927      BINDING AFFINITY PREDICTED BY RF-SCORE:    0.00 PKD
ROOT
HETATM    1  C   UNL     1     -11.237   8.934  68.225  1.00  0.00     0.396 C  
HETATM    2  C   UNL     1     -11.222   8.224  66.868  1.00  0.00     1.031 C  
HETATM    3  C   UNL     1      -9.836   7.655  66.394  1.00  0.00    -0.104 C  
HETATM    4  C   UNL     1      -9.503  14.801  68.396  1.00  0.00    -0.213 A  
HETATM    5  C   UNL     1      -9.683   6.438  67.300  1.00  0.00    -0.130 C  
HETATM    6  C   UNL     1      -9.897  16.148  68.243  1.00  0.00    -0.224 A  
HETATM    7  C   UNL     1      -9.097  17.171  68.778  1.00  0.00    -0.244 A  
HETATM    8  C   UNL     1      -9.474   7.050  68.745  1.00  0.00    -0.136 C  
HETATM    9  C   UNL     1      -7.930  16.857  69.453  1.00  0.00     0.175 A  
HETATM   10  C   UNL     1      -7.524  15.520  69.630  1.00  0.00    -0.156 A  
HETATM   11  H   UNL     1      -7.435  12.617  69.570  1.00  0.00     0.000 HD 
HETATM   12  C   UNL     1      -9.938   8.635  69.000  1.00  0.00    -0.197 C  
HETATM   13  C   UNL     1      -8.336  14.503  69.088  1.00  0.00    -0.001 A  
HETATM   14  N   UNL     1      -8.183  13.121  69.092  1.00  0.00     0.391 NA 
HETATM   15  C   UNL     1      -9.187  12.533  68.358  1.00  0.00    -0.139 A  
HETATM   16  C   UNL     1     -10.013  13.565  67.928  1.00  0.00    -0.245 A  
HETATM   17  C   UNL     1      -9.029   9.955  68.998  1.00  0.00    -0.160 C  
HETATM   18  C   UNL     1     -11.150  13.322  67.005  1.00  0.00    -0.304 C  
HETATM   19  C   UNL     1      -9.263  11.076  67.892  1.00  0.00    -0.155 C  
HETATM   20  C   UNL     1     -10.873  12.020  66.241  1.00  0.00    -0.279 C  
HETATM   21  C   UNL     1     -11.568  10.400  67.939  1.00  0.00     0.159 C  
HETATM   22  N   UNL     1     -10.491  10.887  67.104  1.00  0.00    -0.224 NA 
ENDROOT
BRANCH   3  23
HETATM   23  O   UNL     1      -8.607   8.469  66.539  1.00  0.00    -0.113 OA 
BRANCH  23  24
HETATM   24  C   UNL     1      -7.628   8.184  65.617  1.00  0.00    -0.083 C  
HETATM   25  O   UNL     1      -7.063   9.050  64.955  1.00  0.00    -0.089 OA 
BRANCH  24  26
HETATM   26  C   UNL     1      -7.257   6.755  65.343  1.00  0.00    -0.077 A  
HETATM   27  C   UNL     1      -6.915   3.935  65.369  1.00  0.00    -0.061 A  
HETATM   28  C   UNL     1      -7.757   5.973  64.312  1.00  0.00    -0.105 A  
HETATM   29  C   UNL     1      -6.452   6.127  66.306  1.00  0.00    -0.047 A  
HETATM   30  C   UNL     1      -6.307   4.735  66.353  1.00  0.00    -0.036 A  
HETATM   31  C   UNL     1      -7.622   4.569  64.327  1.00  0.00    -0.072 A  
BRANCH  30  32
HETATM   32  O   UNL     1      -5.623   4.096  67.364  1.00  0.00    -0.019 OA 
HETATM   33  C   UNL     1      -5.160   4.936  68.421  1.00  0.00     0.000 C  
ENDBRANCH  30  32
BRANCH  27  34
HETATM   34  O   UNL     1      -6.743   2.577  65.500  1.00  0.00    -0.037 OA 
HETATM   35  C   UNL     1      -7.419   1.948  66.587  1.00  0.00    -0.061 C  
ENDBRANCH  27  34
BRANCH  31  36
HETATM   36  O   UNL     1      -8.157   3.785  63.334  1.00  0.00    -0.085 OA 
HETATM   37  C   UNL     1      -8.790   2.583  63.764  1.00  0.00    -0.090 C  
ENDBRANCH  31  36
ENDBRANCH  24  26
ENDBRANCH  23  24
ENDBRANCH   3  23
BRANCH   5  38
HETATM   38  O   UNL     1     -10.879   5.646  67.152  1.00  0.00    -0.263 OA 
HETATM   39  C   UNL     1     -11.028   4.850  65.994  1.00  0.00     0.091 C  
ENDBRANCH   5  38
BRANCH   8  40
HETATM   40  C   UNL     1      -8.082   6.637  69.179  1.00  0.00    -0.116 C  
HETATM   41  O   UNL     1      -7.797   5.550  69.657  1.00  0.00    -0.086 OA 
BRANCH  40  42
HETATM   42  O   UNL     1      -7.211   7.674  69.046  1.00  0.00    -0.076 OA 
HETATM   43  C   UNL     1      -5.971   7.665  69.768  1.00  0.00    -0.023 C  
ENDBRANCH  40  42
ENDBRANCH   8  40
TORSDOF 9
ENDMDL
MODEL      139
REMARK 921   NORMALIZED FREE ENERGY PREDICTED BY IDOCK:    1.22 KCAL/MOL
REMARK 922        TOTAL FREE ENERGY PREDICTED BY IDOCK:   -0.78 KCAL/MOL
REMARK 923 INTER-LIGAND FREE ENERGY PREDICTED BY IDOCK:    0.24 KCAL/MOL
REMARK 924 INTRA-LIGAND FREE ENERGY PREDICTED BY IDOCK:   -1.02 KCAL/MOL
REMARK 927      BINDING AFFINITY PREDICTED BY RF-SCORE:    0.00 PKD
ROOT
HETATM    1  C   UNL     1      -5.392   7.320  70.465  1.00  0.00    -0.023 C  
HETATM    2  C   UNL     1      -5.494   7.184  71.987  1.00  0.00    -0.037 C  
HETATM    3  C   UNL     1      -6.787   6.481  72.540  1.00  0.00    -0.069 C  
HETATM    4  C   UNL     1      -8.287  12.018  67.820  1.00  0.00    -0.156 A  
HETATM    5  C   UNL     1      -6.512   5.023  72.189  1.00  0.00    -0.039 C  
HETATM    6  C   UNL     1      -8.225  13.379  67.450  1.00  0.00    -0.188 A  
HETATM    7  C   UNL     1      -9.118  13.880  66.489  1.00  0.00    -0.165 A  
HETATM    8  C   UNL     1      -6.589   4.979  70.609  1.00  0.00    -0.035 C  
HETATM    9  C   UNL     1     -10.053  13.039  65.908  1.00  0.00    -0.291 A  
HETATM   10  C   UNL     1     -10.125  11.676  66.251  1.00  0.00    -0.254 A  
HETATM   11  H   UNL     1      -9.597   9.089  67.463  1.00  0.00     0.000 HD 
HETATM   12  C   UNL     1      -6.439   6.421  69.777  1.00  0.00    -0.047 C  
HETATM   13  C   UNL     1      -9.222  11.187  67.217  1.00  0.00    -0.160 A  
HETATM   14  N   UNL     1      -9.071   9.914  67.755  1.00  0.00    -0.131 NA 
HETATM   15  C   UNL     1      -8.110   9.928  68.739  1.00  0.00    -0.102 A  
HETATM   16  C   UNL     1      -7.614  11.226  68.783  1.00  0.00    -0.130 A  
HETATM   17  C   UNL     1      -7.595   7.355  69.178  1.00  0.00    -0.105 C  
HETATM   18  C   UNL     1      -6.633  11.653  69.811  1.00  0.00    -0.071 C  
HETATM   19  C   UNL     1      -7.807   8.823  69.755  1.00  0.00    -0.090 C  
HETATM   20  C   UNL     1      -6.754  10.702  71.009  1.00  0.00     0.860 C  
HETATM   21  C   UNL     1      -5.439   8.818  70.163  1.00  0.00    -0.027 C  
HETATM   22  N   UNL     1      -6.726   9.273  70.647  1.00  0.00    -0.074 NA 
ENDROOT
BRANCH   3  23
HETATM   23  O   UNL     1      -8.116   6.825  71.985  1.00  0.00    -0.101 OA 
BRANCH  23  24
HETATM   24  C   UNL     1      -8.930   7.516  72.852  1.00  0.00    -0.158 C  
HETATM   25  O   UNL     1      -8.700   7.603  74.055  1.00  0.00    -0.217 OA 
BRANCH  24  26
HETATM   26  C   UNL     1     -10.194   8.148  72.344  1.00  0.00    -0.368 A  
HETATM   27  C   UNL     1     -12.262   9.340  70.803  1.00  0.00    -0.134 A  
HETATM   28  C   UNL     1     -11.408   7.499  72.167  1.00  0.00    -0.326 A  
HETATM   29  C   UNL     1     -10.084   9.464  71.870  1.00  0.00     0.251 A  
HETATM   30  C   UNL     1     -11.078  10.050  71.077  1.00  0.00    -0.271 A  
HETATM   31  C   UNL     1     -12.432   8.066  71.379  1.00  0.00    -0.301 A  
BRANCH  30  32
HETATM   32  O   UNL     1     -10.930  11.293  70.503  1.00  0.00     0.263 OA 
HETATM   33  C   UNL     1     -11.831  12.298  70.967  1.00  0.00     0.573 C  
ENDBRANCH  30  32
BRANCH  27  34
HETATM   34  O   UNL     1     -13.177   9.977  69.999  1.00  0.00     0.170 OA 
HETATM   35  C   UNL     1     -12.775  10.243  68.657  1.00  0.00     2.611 C  
ENDBRANCH  27  34
BRANCH  31  36
HETATM   36  O   UNL     1     -13.618   7.407  71.162  1.00  0.00    -0.307 OA 
HETATM   37  C   UNL     1     -14.128   6.666  72.266  1.00  0.00     0.250 C  
ENDBRANCH  31  36
ENDBRANCH  24  26
ENDBRANCH  23  24
ENDBRANCH   3  23
BRANCH   5  38
HETATM   38  O   UNL     1      -5.219   4.692  72.735  1.00  0.00    -0.007 OA 
HETATM   39  C   UNL     1      -5.153   3.807  73.836  1.00  0.00     0.000 C  
ENDBRANCH   5  38
BRANCH   8  40
HETATM   40  C   UNL     1      -7.761   4.080  70.269  1.00  0.00    -0.048 C  
HETATM   41  O   UNL     1      -8.062   3.727  69.140  1.00  0.00    -0.058 OA 
BRANCH  40  42
HETATM   42  O   UNL     1      -8.483   3.792  71.386  1.00  0.00    -0.071 OA 
HETATM   43  C   UNL     1      -9.905   3.988  71.390  1.00  0.00    -0.179 C  
ENDBRANCH  40  42
ENDBRANCH   8  40
TORSDOF 9
ENDMDL
MODEL      140
REMARK 921   NORMALIZED FREE ENERGY PREDICTED BY IDOCK:    1.43 KCAL/MOL
REMARK 922        TOTAL FREE ENERGY PREDICTED BY IDOCK:   -0.46 KCAL/MOL
REMARK 923 INTER-LIGAND FREE ENERGY PREDICTED BY IDOCK:   -2.16 KCAL/MOL
REMARK 924 INTRA-LIGAND FREE ENERGY PREDICTED BY IDOCK:    1.71 KCAL/MOL
REMARK 927      BINDING AFFINITY PREDICTED BY RF-SCORE:    0.00 PKD
ROOT
HETATM    1  C   UNL     1      -6.223  10.317  69.410  1.00  0.00    -0.047 C  
HETATM    2  C   UNL     1      -6.752   9.451  70.558  1.00  0.00    -0.087 C  
HETATM    3  C   UNL     1      -7.395   8.075  70.155  1.00  0.00    -0.061 C  
HETATM    4  C   UNL     1     -10.236  13.816  66.392  1.00  0.00    -0.292 A  
HETATM    5  C   UNL     1      -6.160   7.259  69.792  1.00  0.00    -0.027 C  
HETATM    6  C   UNL     1     -10.921  15.049  66.350  1.00  0.00    -0.336 A  
HETATM    7  C   UNL     1     -11.508  15.478  65.148  1.00  0.00    -0.156 A  
HETATM    8  C   UNL     1      -5.619   7.935  68.466  1.00  0.00    -0.028 C  
HETATM    9  C   UNL     1     -11.412  14.693  64.012  1.00  0.00     0.132 A  
HETATM   10  C   UNL     1     -10.723  13.465  64.027  1.00  0.00    -0.168 A  
HETATM   11  H   UNL     1      -9.159  11.172  64.886  1.00  0.00     0.000 HD 
HETATM   12  C   UNL     1      -6.129   9.486  68.114  1.00  0.00    -0.055 C  
HETATM   13  C   UNL     1     -10.138  13.048  65.240  1.00  0.00    -0.231 A  
HETATM   14  N   UNL     1      -9.423  11.897  65.553  1.00  0.00    -0.188 NA 
HETATM   15  C   UNL     1      -9.123  11.879  66.896  1.00  0.00    -0.196 A  
HETATM   16  C   UNL     1      -9.618  13.066  67.424  1.00  0.00    -0.211 A  
HETATM   17  C   UNL     1      -7.300   9.954  67.125  1.00  0.00    -0.091 C  
HETATM   18  C   UNL     1      -9.580  13.349  68.880  1.00  0.00     0.155 C  
HETATM   19  C   UNL     1      -8.580  10.700  67.708  1.00  0.00    -0.123 C  
HETATM   20  C   UNL     1      -9.491  12.009  69.623  1.00  0.00     1.599 C  
HETATM   21  C   UNL     1      -7.095  11.574  69.383  1.00  0.00    -0.037 C  
HETATM   22  N   UNL     1      -8.440  11.110  69.115  1.00  0.00    -0.033 NA 
ENDROOT
BRANCH   3  23
HETATM   23  O   UNL     1      -8.328   7.997  69.007  1.00  0.00    -0.126 OA 
BRANCH  23  24
HETATM   24  C   UNL     1      -8.858   6.746  68.793  1.00  0.00    -0.131 C  
HETATM   25  O   UNL     1      -9.462   6.120  69.660  1.00  0.00    -0.144 OA 
BRANCH  24  26
HETATM   26  C   UNL     1      -8.649   6.066  67.471  1.00  0.00    -0.106 A  
HETATM   27  C   UNL     1      -8.895   4.620  65.038  1.00  0.00    -0.150 A  
HETATM   28  C   UNL     1      -8.488   6.704  66.249  1.00  0.00    -0.130 A  
HETATM   29  C   UNL     1      -8.782   4.669  67.463  1.00  0.00    -0.107 A  
HETATM   30  C   UNL     1      -8.943   3.948  66.273  1.00  0.00    -0.132 A  
HETATM   31  C   UNL     1      -8.638   6.005  65.033  1.00  0.00    -0.038 A  
BRANCH  30  32
HETATM   32  O   UNL     1      -9.199   2.595  66.256  1.00  0.00    -0.131 OA 
HETATM   33  C   UNL     1      -9.012   1.918  67.499  1.00  0.00    -0.141 C  
ENDBRANCH  30  32
BRANCH  27  34
HETATM   34  O   UNL     1      -9.085   3.843  63.919  1.00  0.00    -0.118 OA 
HETATM   35  C   UNL     1     -10.418   3.410  63.659  1.00  0.00    -0.254 C  
ENDBRANCH  27  34
BRANCH  31  36
HETATM   36  O   UNL     1      -8.527   6.641  63.821  1.00  0.00     0.113 OA 
HETATM   37  C   UNL     1      -8.401   8.059  63.873  1.00  0.00     0.043 C  
ENDBRANCH  31  36
ENDBRANCH  24  26
ENDBRANCH  23  24
ENDBRANCH   3  23
BRANCH   5  38
HETATM   38  O   UNL     1      -5.256   7.334  70.913  1.00  0.00    -0.023 OA 
HETATM   39  C   UNL     1      -5.172   6.231  71.794  1.00  0.00    -0.022 C  
ENDBRANCH   5  38
BRANCH   8  40
HETATM   40  C   UNL     1      -5.736   6.884  67.380  1.00  0.00    -0.017 C  
HETATM   41  O   UNL     1      -5.529   7.084  66.194  1.00  0.00    -0.022 OA 
BRANCH  40  42
HETATM   42  O   UNL     1      -6.188   5.708  67.897  1.00  0.00    -0.033 OA 
HETATM   43  C   UNL     1      -5.282   4.610  68.077  1.00  0.00    -0.011 C  
ENDBRANCH  40  42
ENDBRANCH   8  40
TORSDOF 9
ENDMDL
MODEL      141
REMARK 921   NORMALIZED FREE ENERGY PREDICTED BY IDOCK:    1.45 KCAL/MOL
REMARK 922        TOTAL FREE ENERGY PREDICTED BY IDOCK:   -0.42 KCAL/MOL
REMARK 923 INTER-LIGAND FREE ENERGY PREDICTED BY IDOCK:   -1.73 KCAL/MOL
REMARK 924 INTRA-LIGAND FREE ENERGY PREDICTED BY IDOCK:    1.32 KCAL/MOL
REMARK 927      BINDING AFFINITY PREDICTED BY RF-SCORE:    0.00 PKD
ROOT
HETATM    1  C   UNL     1      -8.643  16.492  65.752  1.00  0.00     0.151 C  
HETATM    2  C   UNL     1      -9.996  17.177  65.538  1.00  0.00     0.085 C  
HETATM    3  C   UNL     1     -10.755  17.643  66.834  1.00  0.00    -0.147 C  
HETATM    4  C   UNL     1      -8.649  10.525  67.111  1.00  0.00    -0.127 A  
HETATM    5  C   UNL     1      -9.934  18.861  67.242  1.00  0.00    -0.334 C  
HETATM    6  C   UNL     1      -8.680   9.205  66.610  1.00  0.00    -0.140 A  
HETATM    7  C   UNL     1      -8.286   8.138  67.434  1.00  0.00    -0.122 A  
HETATM    8  C   UNL     1      -8.543  18.261  67.699  1.00  0.00    -0.261 C  
HETATM    9  C   UNL     1      -7.868   8.384  68.732  1.00  0.00    -0.115 A  
HETATM   10  C   UNL     1      -7.816   9.692  69.248  1.00  0.00    -0.098 A  
HETATM   11  H   UNL     1      -7.979  12.582  69.506  1.00  0.00     0.000 HD 
HETATM   12  C   UNL     1      -8.154  16.715  67.197  1.00  0.00    -0.211 C  
HETATM   13  C   UNL     1      -8.214  10.753  68.409  1.00  0.00    -0.129 A  
HETATM   14  N   UNL     1      -8.281  12.122  68.647  1.00  0.00    -0.087 NA 
HETATM   15  C   UNL     1      -8.817  12.764  67.555  1.00  0.00    -0.187 A  
HETATM   16  C   UNL     1      -9.043  11.784  66.596  1.00  0.00    -0.194 A  
HETATM   17  C   UNL     1      -8.299  15.336  68.001  1.00  0.00    -0.146 C  
HETATM   18  C   UNL     1      -9.725  12.089  65.314  1.00  0.00    -0.183 C  
HETATM   19  C   UNL     1      -9.301  14.215  67.479  1.00  0.00    -0.204 C  
HETATM   20  C   UNL     1     -10.568  13.356  65.513  1.00  0.00    -0.290 C  
HETATM   21  C   UNL     1      -8.813  15.047  65.278  1.00  0.00     1.939 C  
HETATM   22  N   UNL     1      -9.833  14.474  66.132  1.00  0.00    -0.303 NA 
ENDROOT
BRANCH   3  23
HETATM   23  O   UNL     1     -10.835  16.749  68.012  1.00  0.00    -0.355 OA 
BRANCH  23  24
HETATM   24  C   UNL     1     -11.862  15.837  67.961  1.00  0.00     0.033 C  
HETATM   25  O   UNL     1     -12.645  15.766  67.018  1.00  0.00     1.488 OA 
BRANCH  24  26
HETATM   26  C   UNL     1     -12.099  14.917  69.124  1.00  0.00    -0.267 A  
HETATM   27  C   UNL     1     -13.171  13.394  71.269  1.00  0.00    -0.174 A  
HETATM   28  C   UNL     1     -12.113  13.530  69.069  1.00  0.00    -0.330 A  
HETATM   29  C   UNL     1     -12.485  15.525  70.329  1.00  0.00    -0.403 A  
HETATM   30  C   UNL     1     -13.051  14.791  71.379  1.00  0.00    -0.354 A  
HETATM   31  C   UNL     1     -12.671  12.763  70.113  1.00  0.00     0.230 A  
BRANCH  30  32
HETATM   32  O   UNL     1     -13.549  15.389  72.516  1.00  0.00    -0.441 OA 
HETATM   33  C   UNL     1     -12.731  15.275  73.680  1.00  0.00    -0.566 C  
ENDBRANCH  30  32
BRANCH  27  34
HETATM   34  O   UNL     1     -13.758  12.751  72.334  1.00  0.00    -0.546 OA 
HETATM   35  C   UNL     1     -13.541  11.345  72.432  1.00  0.00     0.369 C  
ENDBRANCH  27  34
BRANCH  31  36
HETATM   36  O   UNL     1     -12.731  11.392  70.043  1.00  0.00    -0.105 OA 
HETATM   37  C   UNL     1     -11.483  10.711  70.131  1.00  0.00    -0.329 C  
ENDBRANCH  31  36
ENDBRANCH  24  26
ENDBRANCH  23  24
ENDBRANCH   3  23
BRANCH   5  38
HETATM   38  O   UNL     1      -9.863  19.730  66.093  1.00  0.00    -0.412 OA 
HETATM   39  C   UNL     1     -11.056  20.310  65.605  1.00  0.00     0.425 C  
ENDBRANCH   5  38
BRANCH   8  40
HETATM   40  C   UNL     1      -8.408  18.585  69.174  1.00  0.00     0.056 C  
HETATM   41  O   UNL     1      -7.354  18.598  69.789  1.00  0.00     0.169 OA 
BRANCH  40  42
HETATM   42  O   UNL     1      -9.633  18.773  69.737  1.00  0.00     0.339 OA 
HETATM   43  C   UNL     1     -10.114  20.103  69.978  1.00  0.00     0.539 C  
ENDBRANCH  40  42
ENDBRANCH   8  40
TORSDOF 9
ENDMDL
MODEL      142
REMARK 921   NORMALIZED FREE ENERGY PREDICTED BY IDOCK:    1.66 KCAL/MOL
REMARK 922        TOTAL FREE ENERGY PREDICTED BY IDOCK:   -0.11 KCAL/MOL
REMARK 923 INTER-LIGAND FREE ENERGY PREDICTED BY IDOCK:   -4.17 KCAL/MOL
REMARK 924 INTRA-LIGAND FREE ENERGY PREDICTED BY IDOCK:    4.06 KCAL/MOL
REMARK 927      BINDING AFFINITY PREDICTED BY RF-SCORE:    0.00 PKD
ROOT
HETATM    1  C   UNL     1      -7.614   7.567  66.818  1.00  0.00    -0.101 C  
HETATM    2  C   UNL     1      -7.212   6.682  68.001  1.00  0.00    -0.091 C  
HETATM    3  C   UNL     1      -8.349   5.797  68.629  1.00  0.00    -0.107 C  
HETATM    4  C   UNL     1     -10.234  12.959  68.048  1.00  0.00    -0.229 A  
HETATM    5  C   UNL     1      -8.511   4.715  67.567  1.00  0.00    -0.104 C  
HETATM    6  C   UNL     1     -10.031  14.320  68.360  1.00  0.00    -0.240 A  
HETATM    7  C   UNL     1     -11.080  15.238  68.186  1.00  0.00    -0.309 A  
HETATM    8  C   UNL     1      -9.133   5.474  66.325  1.00  0.00    -0.149 C  
HETATM    9  C   UNL     1     -12.306  14.806  67.709  1.00  0.00     0.178 A  
HETATM   10  C   UNL     1     -12.528  13.456  67.379  1.00  0.00     0.102 A  
HETATM   11  H   UNL     1     -12.147  10.610  66.932  1.00  0.00     0.000 HD 
HETATM   12  C   UNL     1      -8.992   7.138  66.273  1.00  0.00    -0.181 C  
HETATM   13  C   UNL     1     -11.466  12.546  67.558  1.00  0.00    -0.336 A  
HETATM   14  N   UNL     1     -11.399  11.175  67.335  1.00  0.00    -0.453 NA 
HETATM   15  C   UNL     1     -10.176  10.691  67.739  1.00  0.00    -0.180 A  
HETATM   16  C   UNL     1      -9.445  11.789  68.177  1.00  0.00    -0.193 A  
HETATM   17  C   UNL     1     -10.070   8.247  66.691  1.00  0.00    -0.351 C  
HETATM   18  C   UNL     1      -8.106  11.639  68.798  1.00  0.00    -0.072 C  
HETATM   19  C   UNL     1      -9.771   9.224  67.912  1.00  0.00    -0.153 C  
HETATM   20  C   UNL     1      -7.997  10.213  69.356  1.00  0.00    -0.154 C  
HETATM   21  C   UNL     1      -7.459   9.013  67.291  1.00  0.00    -0.084 C  
HETATM   22  N   UNL     1      -8.383   9.162  68.396  1.00  0.00    -0.119 NA 
ENDROOT
BRANCH   3  23
HETATM   23  O   UNL     1      -9.690   6.374  68.877  1.00  0.00    -0.126 OA 
BRANCH  23  24
HETATM   24  C   UNL     1     -10.247   6.013  70.081  1.00  0.00    -0.208 C  
HETATM   25  O   UNL     1     -11.372   6.362  70.427  1.00  0.00    -0.336 OA 
BRANCH  24  26
HETATM   26  C   UNL     1      -9.443   5.209  71.062  1.00  0.00    -0.214 A  
HETATM   27  C   UNL     1      -8.212   4.085  73.362  1.00  0.00    -0.089 A  
HETATM   28  C   UNL     1      -9.690   3.892  71.425  1.00  0.00    -0.246 A  
HETATM   29  C   UNL     1      -8.455   5.906  71.775  1.00  0.00    -0.131 A  
HETATM   30  C   UNL     1      -7.869   5.379  72.932  1.00  0.00    -0.098 A  
HETATM   31  C   UNL     1      -9.110   3.331  72.582  1.00  0.00    -0.088 A  
BRANCH  30  32
HETATM   32  O   UNL     1      -6.991   6.101  73.711  1.00  0.00    -0.079 OA 
HETATM   33  C   UNL     1      -5.657   6.191  73.213  1.00  0.00    -0.037 C  
ENDBRANCH  30  32
BRANCH  27  34
HETATM   34  O   UNL     1      -7.609   3.652  74.520  1.00  0.00    -0.060 OA 
HETATM   35  C   UNL     1      -6.698   2.561  74.398  1.00  0.00    -0.029 C  
ENDBRANCH  27  34
BRANCH  31  36
HETATM   36  O   UNL     1      -9.389   2.044  72.972  1.00  0.00    -0.075 OA 
HETATM   37  C   UNL     1     -10.575   1.872  73.743  1.00  0.00    -0.122 C  
ENDBRANCH  31  36
ENDBRANCH  24  26
ENDBRANCH  23  24
ENDBRANCH   3  23
BRANCH   5  38
HETATM   38  O   UNL     1      -7.204   4.153  67.331  1.00  0.00    -0.066 OA 
HETATM   39  C   UNL     1      -6.677   3.240  68.273  1.00  0.00    -0.045 C  
ENDBRANCH   5  38
BRANCH   8  40
HETATM   40  C   UNL     1     -10.505   4.869  66.106  1.00  0.00    -0.302 C  
HETATM   41  O   UNL     1     -11.408   5.402  65.481  1.00  0.00     0.540 OA 
BRANCH  40  42
HETATM   42  O   UNL     1     -10.622   3.691  66.778  1.00  0.00     1.109 OA 
HETATM   43  C   UNL     1      -9.531   3.210  67.575  1.00  0.00    -0.142 C  
ENDBRANCH  40  42
ENDBRANCH   8  40
TORSDOF 9
ENDMDL
MODEL      143
REMARK 921   NORMALIZED FREE ENERGY PREDICTED BY IDOCK:    2.05 KCAL/MOL
REMARK 922        TOTAL FREE ENERGY PREDICTED BY IDOCK:    0.49 KCAL/MOL
REMARK 923 INTER-LIGAND FREE ENERGY PREDICTED BY IDOCK:   -3.06 KCAL/MOL
REMARK 924 INTRA-LIGAND FREE ENERGY PREDICTED BY IDOCK:    3.55 KCAL/MOL
REMARK 927      BINDING AFFINITY PREDICTED BY RF-SCORE:    0.00 PKD
ROOT
HETATM    1  C   UNL     1      -7.897   7.445  66.598  1.00  0.00    -0.109 C  
HETATM    2  C   UNL     1      -8.941   8.460  66.123  1.00  0.00    -0.218 C  
HETATM    3  C   UNL     1      -9.011   9.814  66.919  1.00  0.00    -0.138 C  
HETATM    4  C   UNL     1      -9.364   3.840  71.320  1.00  0.00    -0.215 A  
HETATM    5  C   UNL     1      -7.752  10.519  66.426  1.00  0.00    -0.135 C  
HETATM    6  C   UNL     1      -9.991   2.646  71.737  1.00  0.00    -0.188 A  
HETATM    7  C   UNL     1      -9.704   2.115  73.006  1.00  0.00    -0.140 A  
HETATM    8  C   UNL     1      -6.563   9.672  67.037  1.00  0.00    -0.067 C  
HETATM    9  C   UNL     1      -8.808   2.762  73.840  1.00  0.00    -0.075 A  
HETATM   10  C   UNL     1      -8.161   3.946  73.441  1.00  0.00    -0.088 A  
HETATM   11  H   UNL     1      -7.279   6.238  71.888  1.00  0.00     0.000 HD 
HETATM   12  C   UNL     1      -6.894   8.118  67.556  1.00  0.00    -0.070 C  
HETATM   13  C   UNL     1      -8.458   4.467  72.165  1.00  0.00    -0.113 A  
HETATM   14  N   UNL     1      -7.992   5.607  71.520  1.00  0.00    -0.115 NA 
HETATM   15  C   UNL     1      -8.633   5.761  70.312  1.00  0.00    -0.133 A  
HETATM   16  C   UNL     1      -9.480   4.668  70.177  1.00  0.00    -0.246 A  
HETATM   17  C   UNL     1      -7.190   7.603  69.045  1.00  0.00    -0.080 C  
HETATM   18  C   UNL     1     -10.426   4.549  69.039  1.00  0.00     0.471 C  
HETATM   19  C   UNL     1      -8.616   6.994  69.404  1.00  0.00    -0.134 C  
HETATM   20  C   UNL     1     -10.689   5.957  68.490  1.00  0.00    -0.255 C  
HETATM   21  C   UNL     1      -8.678   6.239  67.124  1.00  0.00    -0.109 C  
HETATM   22  N   UNL     1      -9.467   6.739  68.231  1.00  0.00    -0.126 NA 
ENDROOT
BRANCH   3  23
HETATM   23  O   UNL     1      -8.963   9.810  68.399  1.00  0.00    -0.122 OA 
BRANCH  23  24
HETATM   24  C   UNL     1      -9.893  10.627  68.997  1.00  0.00    -0.205 C  
HETATM   25  O   UNL     1     -10.788  10.202  69.721  1.00  0.00    -0.240 OA 
BRANCH  24  26
HETATM   26  C   UNL     1      -9.874  12.104  68.720  1.00  0.00    -0.034 A  
HETATM   27  C   UNL     1     -10.460  14.786  67.990  1.00  0.00    -0.246 A  
HETATM   28  C   UNL     1      -9.901  13.107  69.678  1.00  0.00     1.392 A  
HETATM   29  C   UNL     1      -9.991  12.484  67.374  1.00  0.00    -0.207 A  
HETATM   30  C   UNL     1     -10.318  13.795  67.003  1.00  0.00    -0.260 A  
HETATM   31  C   UNL     1     -10.221  14.438  69.335  1.00  0.00     0.021 A  
BRANCH  30  32
HETATM   32  O   UNL     1     -10.558  14.155  65.695  1.00  0.00    -0.287 OA 
HETATM   33  C   UNL     1      -9.421  14.136  64.832  1.00  0.00     0.880 C  
ENDBRANCH  30  32
BRANCH  27  34
HETATM   34  O   UNL     1     -10.804  16.041  67.544  1.00  0.00    -0.317 OA 
HETATM   35  C   UNL     1      -9.752  16.999  67.456  1.00  0.00    -0.251 C  
ENDBRANCH  27  34
BRANCH  31  36
HETATM   36  O   UNL     1     -10.296  15.426  70.285  1.00  0.00    -0.289 OA 
HETATM   37  C   UNL     1     -11.602  15.720  70.773  1.00  0.00    -0.398 C  
ENDBRANCH  31  36
ENDBRANCH  24  26
ENDBRANCH  23  24
ENDBRANCH   3  23
BRANCH   5  38
HETATM   38  O   UNL     1      -7.805  10.524  64.985  1.00  0.00    -0.134 OA 
HETATM   39  C   UNL     1      -6.592  10.471  64.260  1.00  0.00     0.081 C  
ENDBRANCH   5  38
BRANCH   8  40
HETATM   40  C   UNL     1      -5.830  10.598  67.986  1.00  0.00    -0.042 C  
HETATM   41  O   UNL     1      -5.128  11.535  67.639  1.00  0.00    -0.045 OA 
BRANCH  40  42
HETATM   42  O   UNL     1      -5.990  10.189  69.274  1.00  0.00    -0.037 OA 
HETATM   43  C   UNL     1      -5.626   8.853  69.651  1.00  0.00    -0.033 C  
ENDBRANCH  40  42
ENDBRANCH   8  40
TORSDOF 9
ENDMDL
MODEL      144
REMARK 921   NORMALIZED FREE ENERGY PREDICTED BY IDOCK:    2.14 KCAL/MOL
REMARK 922        TOTAL FREE ENERGY PREDICTED BY IDOCK:    0.64 KCAL/MOL
REMARK 923 INTER-LIGAND FREE ENERGY PREDICTED BY IDOCK:    1.45 KCAL/MOL
REMARK 924 INTRA-LIGAND FREE ENERGY PREDICTED BY IDOCK:   -0.81 KCAL/MOL
REMARK 927      BINDING AFFINITY PREDICTED BY RF-SCORE:    0.00 PKD
ROOT
HETATM    1  C   UNL     1      -9.390  16.728  69.602  1.00  0.00     0.409 C  
HETATM    2  C   UNL     1      -8.027  16.348  70.188  1.00  0.00     1.533 C  
HETATM    3  C   UNL     1      -6.766  16.746  69.337  1.00  0.00    -0.226 C  
HETATM    4  C   UNL     1     -11.841  12.994  65.420  1.00  0.00    -0.428 A  
HETATM    5  C   UNL     1      -6.710  18.252  69.565  1.00  0.00    -0.101 C  
HETATM    6  C   UNL     1     -12.617  11.838  65.187  1.00  0.00     0.977 A  
HETATM    7  C   UNL     1     -13.189  11.626  63.922  1.00  0.00     0.356 A  
HETATM    8  C   UNL     1      -7.985  18.810  68.811  1.00  0.00    -0.335 C  
HETATM    9  C   UNL     1     -12.991  12.551  62.910  1.00  0.00     0.705 A  
HETATM   10  C   UNL     1     -12.232  13.717  63.122  1.00  0.00     0.107 A  
HETATM   11  H   UNL     1     -10.616  15.787  64.364  1.00  0.00     0.000 HD 
HETATM   12  C   UNL     1      -9.213  17.736  68.448  1.00  0.00    -0.285 C  
HETATM   13  C   UNL     1     -11.665  13.916  64.397  1.00  0.00    -0.404 A  
HETATM   14  N   UNL     1     -10.870  14.947  64.885  1.00  0.00    -0.410 NA 
HETATM   15  C   UNL     1     -10.475  14.669  66.173  1.00  0.00    -0.302 A  
HETATM   16  C   UNL     1     -11.076  13.464  66.516  1.00  0.00    -0.312 A  
HETATM   17  C   UNL     1      -9.505  16.981  67.065  1.00  0.00    -0.256 C  
HETATM   18  C   UNL     1     -10.787  12.784  67.803  1.00  0.00    -0.248 C  
HETATM   19  C   UNL     1      -9.402  15.394  66.991  1.00  0.00    -0.224 C  
HETATM   20  C   UNL     1      -9.424  13.278  68.306  1.00  0.00    -0.209 C  
HETATM   21  C   UNL     1     -10.105  15.413  69.289  1.00  0.00    -0.253 C  
HETATM   22  N   UNL     1      -9.279  14.745  68.306  1.00  0.00    -0.181 NA 
ENDROOT
BRANCH   3  23
HETATM   23  O   UNL     1      -6.754  16.521  67.873  1.00  0.00    -0.129 OA 
BRANCH  23  24
HETATM   24  C   UNL     1      -5.931  15.498  67.465  1.00  0.00    -0.070 C  
HETATM   25  O   UNL     1      -5.150  15.606  66.524  1.00  0.00     0.550 OA 
BRANCH  24  26
HETATM   26  C   UNL     1      -6.016  14.159  68.140  1.00  0.00    -0.133 A  
HETATM   27  C   UNL     1      -5.621  11.506  69.075  1.00  0.00    -0.050 A  
HETATM   28  C   UNL     1      -5.762  13.913  69.482  1.00  0.00    -0.093 A  
HETATM   29  C   UNL     1      -6.222  13.053  67.302  1.00  0.00     0.052 A  
HETATM   30  C   UNL     1      -5.993  11.742  67.740  1.00  0.00    -0.057 A  
HETATM   31  C   UNL     1      -5.533  12.604  69.955  1.00  0.00    -0.104 A  
BRANCH  30  32
HETATM   32  O   UNL     1      -6.070  10.656  66.895  1.00  0.00    -0.056 OA 
HETATM   33  C   UNL     1      -6.338  10.959  65.526  1.00  0.00     0.048 C  
ENDBRANCH  30  32
BRANCH  27  34
HETATM   34  O   UNL     1      -5.393  10.194  69.418  1.00  0.00    -0.038 OA 
HETATM   35  C   UNL     1      -6.412   9.544  70.174  1.00  0.00    -0.067 C  
ENDBRANCH  27  34
BRANCH  31  36
HETATM   36  O   UNL     1      -5.234  12.358  71.273  1.00  0.00    -0.189 OA 
HETATM   37  C   UNL     1      -6.029  13.054  72.229  1.00  0.00     1.504 C  
ENDBRANCH  31  36
ENDBRANCH  24  26
ENDBRANCH  23  24
ENDBRANCH   3  23
BRANCH   5  38
HETATM   38  O   UNL     1      -6.718  18.466  70.991  1.00  0.00     1.519 OA 
HETATM   39  C   UNL     1      -5.593  19.077  71.592  1.00  0.00    -0.141 C  
ENDBRANCH   5  38
BRANCH   8  40
HETATM   40  C   UNL     1      -7.462  19.695  67.698  1.00  0.00    -0.269 C  
HETATM   41  O   UNL     1      -7.129  20.861  67.835  1.00  0.00    -0.262 OA 
BRANCH  40  42
HETATM   42  O   UNL     1      -7.497  19.038  66.506  1.00  0.00    -0.227 OA 
HETATM   43  C   UNL     1      -6.365  19.089  65.626  1.00  0.00    -0.251 C  
ENDBRANCH  40  42
ENDBRANCH   8  40
TORSDOF 9
ENDMDL
MODEL      145
REMARK 921   NORMALIZED FREE ENERGY PREDICTED BY IDOCK:    2.58 KCAL/MOL
REMARK 922        TOTAL FREE ENERGY PREDICTED BY IDOCK:    1.31 KCAL/MOL
REMARK 923 INTER-LIGAND FREE ENERGY PREDICTED BY IDOCK:    1.03 KCAL/MOL
REMARK 924 INTRA-LIGAND FREE ENERGY PREDICTED BY IDOCK:    0.28 KCAL/MOL
REMARK 927      BINDING AFFINITY PREDICTED BY RF-SCORE:    0.00 PKD
ROOT
HETATM    1  C   UNL     1      -6.555  15.543  68.337  1.00  0.00    -0.117 C  
HETATM    2  C   UNL     1      -6.472  15.965  66.867  1.00  0.00     0.175 C  
HETATM    3  C   UNL     1      -7.694  16.779  66.304  1.00  0.00    -0.275 C  
HETATM    4  C   UNL     1      -9.713  10.475  69.676  1.00  0.00    -0.092 A  
HETATM    5  C   UNL     1      -7.476  18.140  66.955  1.00  0.00    -0.207 C  
HETATM    6  C   UNL     1      -9.685   9.067  69.786  1.00  0.00    -0.183 A  
HETATM    7  C   UNL     1     -10.684   8.407  70.520  1.00  0.00    -0.247 A  
HETATM    8  C   UNL     1      -7.745  17.886  68.494  1.00  0.00    -0.299 C  
HETATM    9  C   UNL     1     -11.690   9.137  71.132  1.00  0.00    -0.380 A  
HETATM   10  C   UNL     1     -11.731  10.541  71.046  1.00  0.00    -0.384 A  
HETATM   11  H   UNL     1     -11.080  13.303  70.417  1.00  0.00     0.000 HD 
HETATM   12  C   UNL     1      -7.686  16.312  69.050  1.00  0.00    -0.224 C  
HETATM   13  C   UNL     1     -10.720  11.191  70.307  1.00  0.00     0.564 A  
HETATM   14  N   UNL     1     -10.516  12.540  70.041  1.00  0.00     1.296 NA 
HETATM   15  C   UNL     1      -9.442  12.697  69.196  1.00  0.00     0.627 A  
HETATM   16  C   UNL     1      -8.934  11.423  68.968  1.00  0.00     0.075 A  
HETATM   17  C   UNL     1      -8.899  15.299  69.317  1.00  0.00    -0.242 C  
HETATM   18  C   UNL     1      -7.831  11.183  68.005  1.00  0.00    -0.114 C  
HETATM   19  C   UNL     1      -9.026  13.969  68.452  1.00  0.00    -0.189 C  
HETATM   20  C   UNL     1      -7.813  12.345  67.002  1.00  0.00    -0.085 C  
HETATM   21  C   UNL     1      -6.627  14.015  68.342  1.00  0.00    -0.106 C  
HETATM   22  N   UNL     1      -7.841  13.679  67.629  1.00  0.00    -0.159 NA 
ENDROOT
BRANCH   3  23
HETATM   23  O   UNL     1      -9.078  16.356  66.619  1.00  0.00    -0.214 OA 
BRANCH  23  24
HETATM   24  C   UNL     1      -9.840  16.049  65.516  1.00  0.00    -0.189 C  
HETATM   25  O   UNL     1     -10.125  16.873  64.652  1.00  0.00     0.501 OA 
BRANCH  24  26
HETATM   26  C   UNL     1     -10.414  14.668  65.369  1.00  0.00    -0.400 A  
HETATM   27  C   UNL     1     -10.872  11.870  65.194  1.00  0.00    -0.300 A  
HETATM   28  C   UNL     1     -11.222  14.025  66.295  1.00  0.00    -0.320 A  
HETATM   29  C   UNL     1      -9.964  13.923  64.268  1.00  0.00     0.813 A  
HETATM   30  C   UNL     1     -10.149  12.537  64.188  1.00  0.00    -0.284 A  
HETATM   31  C   UNL     1     -11.433  12.631  66.238  1.00  0.00    -0.364 A  
BRANCH  30  32
HETATM   32  O   UNL     1      -9.606  11.775  63.178  1.00  0.00    -0.371 OA 
HETATM   33  C   UNL     1      -8.207  11.955  62.955  1.00  0.00     1.479 C  
ENDBRANCH  30  32
BRANCH  27  34
HETATM   34  O   UNL     1     -10.988  10.507  65.053  1.00  0.00     0.079 OA 
HETATM   35  C   UNL     1     -10.228   9.703  65.952  1.00  0.00    -0.149 C  
ENDBRANCH  27  34
BRANCH  31  36
HETATM   36  O   UNL     1     -12.193  11.982  67.180  1.00  0.00    -0.505 OA 
HETATM   37  C   UNL     1     -12.655  12.782  68.265  1.00  0.00     0.999 C  
ENDBRANCH  31  36
ENDBRANCH  24  26
ENDBRANCH  23  24
ENDBRANCH   3  23
BRANCH   5  38
HETATM   38  O   UNL     1      -6.129  18.549  66.642  1.00  0.00    -0.152 OA 
HETATM   39  C   UNL     1      -5.508  18.019  65.488  1.00  0.00    -0.152 C  
ENDBRANCH   5  38
BRANCH   8  40
HETATM   40  C   UNL     1      -8.957  18.723  68.852  1.00  0.00    -0.204 C  
HETATM   41  O   UNL     1      -8.970  19.600  69.702  1.00  0.00     0.093 OA 
BRANCH  40  42
HETATM   42  O   UNL     1     -10.052  18.302  68.161  1.00  0.00    -0.340 OA 
HETATM   43  C   UNL     1     -11.346  18.835  68.476  1.00  0.00     1.579 C  
ENDBRANCH  40  42
ENDBRANCH   8  40
TORSDOF 9
ENDMDL
MODEL      146
REMARK 921   NORMALIZED FREE ENERGY PREDICTED BY IDOCK:    3.02 KCAL/MOL
REMARK 922        TOTAL FREE ENERGY PREDICTED BY IDOCK:    1.97 KCAL/MOL
REMARK 923 INTER-LIGAND FREE ENERGY PREDICTED BY IDOCK:   -3.38 KCAL/MOL
REMARK 924 INTRA-LIGAND FREE ENERGY PREDICTED BY IDOCK:    5.35 KCAL/MOL
REMARK 927      BINDING AFFINITY PREDICTED BY RF-SCORE:    0.00 PKD
ROOT
HETATM    1  C   UNL     1      -6.977   8.736  69.135  1.00  0.00    -0.059 C  
HETATM    2  C   UNL     1      -7.599   7.463  69.717  1.00  0.00    -0.095 C  
HETATM    3  C   UNL     1      -8.225   6.457  68.683  1.00  0.00    -0.121 C  
HETATM    4  C   UNL     1     -10.716  13.405  67.841  1.00  0.00    -0.259 A  
HETATM    5  C   UNL     1      -6.974   5.848  68.060  1.00  0.00    -0.069 C  
HETATM    6  C   UNL     1     -11.383  14.548  68.333  1.00  0.00    -0.311 A  
HETATM    7  C   UNL     1     -11.874  15.508  67.433  1.00  0.00     0.179 A  
HETATM    8  C   UNL     1      -6.329   7.034  67.235  1.00  0.00    -0.052 C  
HETATM    9  C   UNL     1     -11.701  15.332  66.070  1.00  0.00     0.104 A  
HETATM   10  C   UNL     1     -11.028  14.207  65.558  1.00  0.00    -0.310 A  
HETATM   11  H   UNL     1      -9.557  11.710  65.350  1.00  0.00     0.000 HD 
HETATM   12  C   UNL     1      -6.795   8.594  67.610  1.00  0.00    -0.071 C  
HETATM   13  C   UNL     1     -10.540  13.251  66.473  1.00  0.00    -0.286 A  
HETATM   14  N   UNL     1      -9.862  12.056  66.260  1.00  0.00    -0.226 NA 
HETATM   15  C   UNL     1      -9.664  11.407  67.458  1.00  0.00    -0.178 A  
HETATM   16  C   UNL     1     -10.185  12.238  68.443  1.00  0.00    -0.220 A  
HETATM   17  C   UNL     1      -7.884   9.516  66.881  1.00  0.00    -0.101 C  
HETATM   18  C   UNL     1     -10.253  11.815  69.864  1.00  0.00     1.187 C  
HETATM   19  C   UNL     1      -9.196   9.964  67.663  1.00  0.00    -0.133 C  
HETATM   20  C   UNL     1     -10.234  10.281  69.906  1.00  0.00    -0.202 C  
HETATM   21  C   UNL     1      -7.831   9.901  69.640  1.00  0.00    -0.154 C  
HETATM   22  N   UNL     1      -9.157   9.672  69.105  1.00  0.00    -0.146 NA 
ENDROOT
BRANCH   3  23
HETATM   23  O   UNL     1      -9.070   6.958  67.575  1.00  0.00    -0.119 OA 
BRANCH  23  24
HETATM   24  C   UNL     1      -9.811   5.987  66.945  1.00  0.00    -0.158 C  
HETATM   25  O   UNL     1     -11.014   6.101  66.727  1.00  0.00    -0.333 OA 
BRANCH  24  26
HETATM   26  C   UNL     1      -9.160   4.692  66.551  1.00  0.00    -0.123 A  
HETATM   27  C   UNL     1      -7.782   2.575  65.250  1.00  0.00    -0.077 A  
HETATM   28  C   UNL     1      -7.980   4.186  67.079  1.00  0.00    -0.097 A  
HETATM   29  C   UNL     1      -9.721   4.023  65.452  1.00  0.00    -0.196 A  
HETATM   30  C   UNL     1      -9.035   3.005  64.778  1.00  0.00    -0.129 A  
HETATM   31  C   UNL     1      -7.269   3.157  66.427  1.00  0.00    -0.070 A  
BRANCH  30  32
HETATM   32  O   UNL     1      -9.518   2.426  63.625  1.00  0.00    -0.100 OA 
HETATM   33  C   UNL     1     -10.895   2.051  63.653  1.00  0.00    -0.040 C  
ENDBRANCH  30  32
BRANCH  27  34
HETATM   34  O   UNL     1      -7.166   1.587  64.519  1.00  0.00    -0.048 OA 
HETATM   35  C   UNL     1      -5.937   1.933  63.884  1.00  0.00    -0.013 C  
ENDBRANCH  27  34
BRANCH  31  36
HETATM   36  O   UNL     1      -6.077   2.685  66.919  1.00  0.00    -0.023 OA 
HETATM   37  C   UNL     1      -6.150   1.477  67.671  1.00  0.00    -0.020 C  
ENDBRANCH  31  36
ENDBRANCH  24  26
ENDBRANCH  23  24
ENDBRANCH   3  23
BRANCH   5  38
HETATM   38  O   UNL     1      -6.156   5.357  69.142  1.00  0.00    -0.022 OA 
HETATM   39  C   UNL     1      -6.792   4.795  70.273  1.00  0.00    -0.037 C  
ENDBRANCH   5  38
BRANCH   8  40
HETATM   40  C   UNL     1      -6.375   6.609  65.780  1.00  0.00    -0.042 C  
HETATM   41  O   UNL     1      -5.403   6.271  65.124  1.00  0.00    -0.016 OA 
BRANCH  40  42
HETATM   42  O   UNL     1      -7.635   6.740  65.282  1.00  0.00    -0.081 OA 
HETATM   43  C   UNL     1      -7.830   7.248  63.955  1.00  0.00    -0.111 C  
ENDBRANCH  40  42
ENDBRANCH   8  40
TORSDOF 9
ENDMDL
MODEL      147
REMARK 921   NORMALIZED FREE ENERGY PREDICTED BY IDOCK:    3.26 KCAL/MOL
REMARK 922        TOTAL FREE ENERGY PREDICTED BY IDOCK:    2.34 KCAL/MOL
REMARK 923 INTER-LIGAND FREE ENERGY PREDICTED BY IDOCK:   -0.11 KCAL/MOL
REMARK 924 INTRA-LIGAND FREE ENERGY PREDICTED BY IDOCK:    2.44 KCAL/MOL
REMARK 927      BINDING AFFINITY PREDICTED BY RF-SCORE:    0.00 PKD
ROOT
HETATM    1  C   UNL     1     -11.804  10.592  70.828  1.00  0.00    -0.465 C  
HETATM    2  C   UNL     1     -12.833   9.893  69.934  1.00  0.00     0.551 C  
HETATM    3  C   UNL     1     -12.262   8.890  68.866  1.00  0.00     2.840 C  
HETATM    4  C   UNL     1      -8.999  15.559  68.612  1.00  0.00    -0.194 A  
HETATM    5  C   UNL     1     -11.868   7.707  69.744  1.00  0.00     0.531 C  
HETATM    6  C   UNL     1      -9.057  16.957  68.429  1.00  0.00    -0.243 A  
HETATM    7  C   UNL     1      -7.882  17.669  68.134  1.00  0.00    -0.257 A  
HETATM    8  C   UNL     1     -10.644   8.240  70.595  1.00  0.00    -0.235 C  
HETATM    9  C   UNL     1      -6.675  16.998  68.025  1.00  0.00    -0.155 A  
HETATM   10  C   UNL     1      -6.592  15.606  68.217  1.00  0.00    -0.126 A  
HETATM   11  H   UNL     1      -7.273  12.836  68.766  1.00  0.00     0.000 HD 
HETATM   12  C   UNL     1     -10.434   9.893  70.714  1.00  0.00    -0.253 C  
HETATM   13  C   UNL     1      -7.779  14.905  68.513  1.00  0.00    -0.123 A  
HETATM   14  N   UNL     1      -8.001  13.551  68.733  1.00  0.00    -0.062 NA 
HETATM   15  C   UNL     1      -9.346  13.314  68.901  1.00  0.00     0.252 A  
HETATM   16  C   UNL     1      -9.972  14.553  68.833  1.00  0.00    -0.206 A  
HETATM   17  C   UNL     1      -9.450  10.840  69.874  1.00  0.00     0.508 C  
HETATM   18  C   UNL     1     -11.450  14.683  68.858  1.00  0.00    -0.323 C  
HETATM   19  C   UNL     1     -10.053  11.956  68.913  1.00  0.00    -0.042 C  
HETATM   20  C   UNL     1     -12.053  13.350  68.395  1.00  0.00    -0.235 C  
HETATM   21  C   UNL     1     -11.871  12.079  70.479  1.00  0.00    -0.121 C  
HETATM   22  N   UNL     1     -11.500  12.169  69.083  1.00  0.00    -0.276 NA 
ENDROOT
BRANCH   3  23
HETATM   23  O   UNL     1     -11.074   9.256  68.061  1.00  0.00    -0.082 OA 
BRANCH  23  24
HETATM   24  C   UNL     1     -10.849   8.436  66.981  1.00  0.00     0.031 C  
HETATM   25  O   UNL     1     -11.361   7.326  66.867  1.00  0.00    -0.005 OA 
BRANCH  24  26
HETATM   26  C   UNL     1      -9.890   8.865  65.907  1.00  0.00    -0.200 A  
HETATM   27  C   UNL     1      -8.305   9.139  63.565  1.00  0.00    -0.188 A  
HETATM   28  C   UNL     1     -10.050   9.959  65.069  1.00  0.00    -0.110 A  
HETATM   29  C   UNL     1      -8.823   7.992  65.642  1.00  0.00    -0.133 A  
HETATM   30  C   UNL     1      -8.059   8.092  64.473  1.00  0.00    -0.142 A  
HETATM   31  C   UNL     1      -9.292  10.092  63.886  1.00  0.00    -0.263 A  
BRANCH  30  32
HETATM   32  O   UNL     1      -7.093   7.169  64.139  1.00  0.00    -0.056 OA 
HETATM   33  C   UNL     1      -7.413   6.312  63.043  1.00  0.00    -0.070 C  
ENDBRANCH  30  32
BRANCH  27  34
HETATM   34  O   UNL     1      -7.527   9.152  62.431  1.00  0.00    -0.101 OA 
HETATM   35  C   UNL     1      -6.237   9.748  62.547  1.00  0.00    -0.101 C  
ENDBRANCH  27  34
BRANCH  31  36
HETATM   36  O   UNL     1      -9.480  11.147  63.028  1.00  0.00    -0.307 OA 
HETATM   37  C   UNL     1     -10.828  11.403  62.644  1.00  0.00     0.735 C  
ENDBRANCH  31  36
ENDBRANCH  24  26
ENDBRANCH  23  24
ENDBRANCH   3  23
BRANCH   5  38
HETATM   38  O   UNL     1     -13.029   7.352  70.523  1.00  0.00     0.107 OA 
HETATM   39  C   UNL     1     -13.776   8.383  71.138  1.00  0.00    -0.013 C  
ENDBRANCH   5  38
BRANCH   8  40
HETATM   40  C   UNL     1      -9.451   7.398  70.188  1.00  0.00    -0.165 C  
HETATM   41  O   UNL     1      -9.102   7.198  69.036  1.00  0.00    -0.134 OA 
BRANCH  40  42
HETATM   42  O   UNL     1      -8.875   6.825  71.280  1.00  0.00    -0.135 OA 
HETATM   43  C   UNL     1      -9.435   7.043  72.583  1.00  0.00    -0.142 C  
ENDBRANCH  40  42
ENDBRANCH   8  40
TORSDOF 9
ENDMDL
MODEL      148
REMARK 921   NORMALIZED FREE ENERGY PREDICTED BY IDOCK:    3.58 KCAL/MOL
REMARK 922        TOTAL FREE ENERGY PREDICTED BY IDOCK:    2.83 KCAL/MOL
REMARK 923 INTER-LIGAND FREE ENERGY PREDICTED BY IDOCK:   -0.94 KCAL/MOL
REMARK 924 INTRA-LIGAND FREE ENERGY PREDICTED BY IDOCK:    3.77 KCAL/MOL
REMARK 927      BINDING AFFINITY PREDICTED BY RF-SCORE:    0.00 PKD
ROOT
HETATM    1  C   UNL     1      -8.803  13.285  66.266  1.00  0.00     0.214 C  
HETATM    2  C   UNL     1     -10.243  13.474  65.779  1.00  0.00    -0.305 C  
HETATM    3  C   UNL     1     -11.376  13.240  66.844  1.00  0.00    -0.318 C  
HETATM    4  C   UNL     1      -6.570   7.590  66.434  1.00  0.00    -0.053 A  
HETATM    5  C   UNL     1     -11.248  14.494  67.701  1.00  0.00    -0.322 C  
HETATM    6  C   UNL     1      -5.938   6.553  65.713  1.00  0.00    -0.029 A  
HETATM    7  C   UNL     1      -5.310   5.506  66.407  1.00  0.00    -0.012 A  
HETATM    8  C   UNL     1      -9.860  14.324  68.442  1.00  0.00    -0.233 C  
HETATM    9  C   UNL     1      -5.311   5.495  67.792  1.00  0.00    -0.004 A  
HETATM   10  C   UNL     1      -5.923   6.524  68.532  1.00  0.00    -0.021 A  
HETATM   11  H   UNL     1      -7.338   8.956  69.256  1.00  0.00     0.000 HD 
HETATM   12  C   UNL     1      -8.762  13.236  67.807  1.00  0.00    -0.194 C  
HETATM   13  C   UNL     1      -6.549   7.569  67.822  1.00  0.00    -0.061 A  
HETATM   14  N   UNL     1      -7.235   8.690  68.276  1.00  0.00    -0.084 NA 
HETATM   15  C   UNL     1      -7.754   9.389  67.211  1.00  0.00    -0.091 A  
HETATM   16  C   UNL     1      -7.343   8.718  66.065  1.00  0.00    -0.089 A  
HETATM   17  C   UNL     1      -8.473  11.726  68.260  1.00  0.00    -0.161 C  
HETATM   18  C   UNL     1      -7.811   9.119  64.715  1.00  0.00    -0.119 C  
HETATM   19  C   UNL     1      -8.778  10.526  67.259  1.00  0.00    -0.126 C  
HETATM   20  C   UNL     1      -9.130   9.886  64.877  1.00  0.00    -0.224 C  
HETATM   21  C   UNL     1      -8.246  12.080  65.506  1.00  0.00     1.062 C  
HETATM   22  N   UNL     1      -9.081  10.960  65.886  1.00  0.00    -0.187 NA 
ENDROOT
BRANCH   3  23
HETATM   23  O   UNL     1     -11.311  12.074  67.756  1.00  0.00    -0.260 OA 
BRANCH  23  24
HETATM   24  C   UNL     1     -12.190  12.133  68.811  1.00  0.00     0.070 C  
HETATM   25  O   UNL     1     -12.817  13.148  69.102  1.00  0.00     0.577 OA 
BRANCH  24  26
HETATM   26  C   UNL     1     -12.363  10.937  69.704  1.00  0.00    -0.290 A  
HETATM   27  C   UNL     1     -12.084   8.843  71.603  1.00  0.00    -0.346 A  
HETATM   28  C   UNL     1     -13.205  10.864  70.804  1.00  0.00    -0.046 A  
HETATM   29  C   UNL     1     -11.484   9.866  69.484  1.00  0.00    -0.120 A  
HETATM   30  C   UNL     1     -11.308   8.848  70.429  1.00  0.00    -0.202 A  
HETATM   31  C   UNL     1     -13.058   9.847  71.771  1.00  0.00    -0.452 A  
BRANCH  30  32
HETATM   32  O   UNL     1     -10.360   7.859  70.285  1.00  0.00    -0.205 OA 
HETATM   33  C   UNL     1      -9.022   8.237  70.605  1.00  0.00    -0.151 C  
ENDBRANCH  30  32
BRANCH  27  34
HETATM   34  O   UNL     1     -11.835   7.822  72.489  1.00  0.00    -0.335 OA 
HETATM   35  C   UNL     1     -11.958   6.493  71.987  1.00  0.00    -0.326 C  
ENDBRANCH  27  34
BRANCH  31  36
HETATM   36  O   UNL     1     -13.857   9.797  72.887  1.00  0.00     0.006 OA 
HETATM   37  C   UNL     1     -14.363   8.511  73.232  1.00  0.00     1.008 C  
ENDBRANCH  31  36
ENDBRANCH  24  26
ENDBRANCH  23  24
ENDBRANCH   3  23
BRANCH   5  38
HETATM   38  O   UNL     1     -11.316  15.626  66.810  1.00  0.00    -0.163 OA 
HETATM   39  C   UNL     1     -10.327  16.631  66.912  1.00  0.00    -0.299 C  
ENDBRANCH   5  38
BRANCH   8  40
HETATM   40  C   UNL     1     -10.181  14.230  69.921  1.00  0.00     0.526 C  
HETATM   41  O   UNL     1     -10.612  13.232  70.476  1.00  0.00     1.699 OA 
BRANCH  40  42
HETATM   42  O   UNL     1     -10.007  15.436  70.526  1.00  0.00    -0.030 OA 
HETATM   43  C   UNL     1     -11.117  16.335  70.663  1.00  0.00    -0.244 C  
ENDBRANCH  40  42
ENDBRANCH   8  40
TORSDOF 9
ENDMDL
MODEL      149
REMARK 921   NORMALIZED FREE ENERGY PREDICTED BY IDOCK:    3.78 KCAL/MOL
REMARK 922        TOTAL FREE ENERGY PREDICTED BY IDOCK:    3.13 KCAL/MOL
REMARK 923 INTER-LIGAND FREE ENERGY PREDICTED BY IDOCK:    0.15 KCAL/MOL
REMARK 924 INTRA-LIGAND FREE ENERGY PREDICTED BY IDOCK:    2.98 KCAL/MOL
REMARK 927      BINDING AFFINITY PREDICTED BY RF-SCORE:    0.00 PKD
ROOT
HETATM    1  C   UNL     1      -7.442   8.427  70.979  1.00  0.00    -0.075 C  
HETATM    2  C   UNL     1      -7.936   9.612  71.815  1.00  0.00     1.343 C  
HETATM    3  C   UNL     1      -9.467   9.954  71.705  1.00  0.00     2.080 C  
HETATM    4  C   UNL     1      -6.125   9.444  65.090  1.00  0.00    -0.069 A  
HETATM    5  C   UNL     1     -10.089   8.819  72.510  1.00  0.00    -0.047 C  
HETATM    6  C   UNL     1      -5.152   9.870  64.160  1.00  0.00    -0.071 A  
HETATM    7  C   UNL     1      -5.303   9.551  62.800  1.00  0.00    -0.083 A  
HETATM    8  C   UNL     1      -9.828   7.527  71.633  1.00  0.00    -0.185 C  
HETATM    9  C   UNL     1      -6.402   8.821  62.378  1.00  0.00    -0.095 A  
HETATM   10  C   UNL     1      -7.377   8.374  63.289  1.00  0.00    -0.104 A  
HETATM   11  H   UNL     1      -8.852   7.842  65.736  1.00  0.00     0.000 HD 
HETATM   12  C   UNL     1      -8.638   7.602  70.462  1.00  0.00    -0.137 C  
HETATM   13  C   UNL     1      -7.213   8.701  64.651  1.00  0.00    -0.089 A  
HETATM   14  N   UNL     1      -8.008   8.415  65.755  1.00  0.00    -0.103 NA 
HETATM   15  C   UNL     1      -7.491   9.019  66.878  1.00  0.00    -0.090 A  
HETATM   16  C   UNL     1      -6.321   9.654  66.478  1.00  0.00    -0.066 A  
HETATM   17  C   UNL     1      -8.797   7.868  68.890  1.00  0.00    -0.142 C  
HETATM   18  C   UNL     1      -5.542  10.513  67.404  1.00  0.00    -0.044 C  
HETATM   19  C   UNL     1      -8.171   9.180  68.241  1.00  0.00    -0.116 C  
HETATM   20  C   UNL     1      -6.486  10.995  68.513  1.00  0.00    -0.054 C  
HETATM   21  C   UNL     1      -6.481   9.006  69.940  1.00  0.00    -0.038 C  
HETATM   22  N   UNL     1      -7.273   9.919  69.142  1.00  0.00    -0.068 NA 
ENDROOT
BRANCH   3  23
HETATM   23  O   UNL     1     -10.132   9.972  70.382  1.00  0.00    -0.247 OA 
BRANCH  23  24
HETATM   24  C   UNL     1      -9.775  11.033  69.584  1.00  0.00     0.375 C  
HETATM   25  O   UNL     1      -8.855  11.797  69.862  1.00  0.00     1.596 OA 
BRANCH  24  26
HETATM   26  C   UNL     1     -10.568  11.332  68.344  1.00  0.00    -0.226 A  
HETATM   27  C   UNL     1     -11.695  12.446  65.986  1.00  0.00    -0.410 A  
HETATM   28  C   UNL     1     -10.435  10.686  67.123  1.00  0.00    -0.295 A  
HETATM   29  C   UNL     1     -11.402  12.460  68.397  1.00  0.00    -0.330 A  
HETATM   30  C   UNL     1     -11.932  13.042  67.238  1.00  0.00    -0.321 A  
HETATM   31  C   UNL     1     -10.963  11.243  65.939  1.00  0.00    -0.157 A  
BRANCH  30  32
HETATM   32  O   UNL     1     -12.648  14.219  67.262  1.00  0.00    -0.097 OA 
HETATM   33  C   UNL     1     -11.868  15.414  67.217  1.00  0.00     0.142 C  
ENDBRANCH  30  32
BRANCH  27  34
HETATM   34  O   UNL     1     -12.232  13.092  64.897  1.00  0.00    -0.380 OA 
HETATM   35  C   UNL     1     -11.429  14.105  64.295  1.00  0.00    -0.272 C  
ENDBRANCH  27  34
BRANCH  31  36
HETATM   36  O   UNL     1     -10.793  10.633  64.721  1.00  0.00    -0.132 OA 
HETATM   37  C   UNL     1      -9.587  10.950  64.031  1.00  0.00    -0.278 C  
ENDBRANCH  31  36
ENDBRANCH  24  26
ENDBRANCH  23  24
ENDBRANCH   3  23
BRANCH   5  38
HETATM   38  O   UNL     1      -9.441   8.807  73.799  1.00  0.00     0.673 OA 
HETATM   39  C   UNL     1      -8.905   7.591  74.279  1.00  0.00    -0.199 C  
ENDBRANCH   5  38
BRANCH   8  40
HETATM   40  C   UNL     1     -11.195   7.011  71.227  1.00  0.00    -0.264 C  
HETATM   41  O   UNL     1     -11.757   7.284  70.179  1.00  0.00    -0.180 OA 
BRANCH  40  42
HETATM   42  O   UNL     1     -11.746   6.275  72.230  1.00  0.00    -0.302 OA 
HETATM   43  C   UNL     1     -10.938   5.341  72.961  1.00  0.00    -0.298 C  
ENDBRANCH  40  42
ENDBRANCH   8  40
TORSDOF 9
ENDMDL
MODEL      150
REMARK 921   NORMALIZED FREE ENERGY PREDICTED BY IDOCK:    4.02 KCAL/MOL
REMARK 922        TOTAL FREE ENERGY PREDICTED BY IDOCK:    3.51 KCAL/MOL
REMARK 923 INTER-LIGAND FREE ENERGY PREDICTED BY IDOCK:   -2.32 KCAL/MOL
REMARK 924 INTRA-LIGAND FREE ENERGY PREDICTED BY IDOCK:    5.83 KCAL/MOL
REMARK 927      BINDING AFFINITY PREDICTED BY RF-SCORE:    0.00 PKD
ROOT
HETATM    1  C   UNL     1      -7.360  11.342  68.092  1.00  0.00    -0.092 C  
HETATM    2  C   UNL     1      -7.249  12.609  67.239  1.00  0.00    -0.106 C  
HETATM    3  C   UNL     1      -8.598  13.343  66.899  1.00  0.00    -0.100 C  
HETATM    4  C   UNL     1      -8.740   6.101  65.251  1.00  0.00    -0.033 A  
HETATM    5  C   UNL     1      -8.936  13.987  68.239  1.00  0.00    -0.190 C  
HETATM    6  C   UNL     1      -8.248   4.984  64.541  1.00  0.00    -0.126 A  
HETATM    7  C   UNL     1      -9.044   3.833  64.416  1.00  0.00    -0.129 A  
HETATM    8  C   UNL     1      -9.286  12.766  69.184  1.00  0.00     0.686 C  
HETATM    9  C   UNL     1     -10.304   3.797  64.990  1.00  0.00    -0.043 A  
HETATM   10  C   UNL     1     -10.809   4.894  65.714  1.00  0.00    -0.121 A  
HETATM   11  H   UNL     1     -11.067   7.481  67.011  1.00  0.00     0.000 HD 
HETATM   12  C   UNL     1      -8.762  11.247  68.728  1.00  0.00    -0.105 C  
HETATM   13  C   UNL     1      -9.999   6.042  65.831  1.00  0.00     0.261 A  
HETATM   14  N   UNL     1     -10.236   7.258  66.462  1.00  0.00    -0.136 NA 
HETATM   15  C   UNL     1      -9.186   8.118  66.236  1.00  0.00    -0.191 A  
HETATM   16  C   UNL     1      -8.252   7.409  65.492  1.00  0.00    -0.135 A  
HETATM   17  C   UNL     1      -9.580  10.089  67.981  1.00  0.00    -0.154 C  
HETATM   18  C   UNL     1      -7.025   8.053  64.959  1.00  0.00    -0.062 C  
HETATM   19  C   UNL     1      -9.142   9.622  66.523  1.00  0.00    -0.154 C  
HETATM   20  C   UNL     1      -7.284   9.562  64.864  1.00  0.00    -0.111 C  
HETATM   21  C   UNL     1      -6.907  10.184  67.202  1.00  0.00    -0.082 C  
HETATM   22  N   UNL     1      -7.839  10.155  66.095  1.00  0.00    -0.111 NA 
ENDROOT
BRANCH   3  23
HETATM   23  O   UNL     1      -9.783  12.562  66.473  1.00  0.00    -0.234 OA 
BRANCH  23  24
HETATM   24  C   UNL     1     -10.729  13.295  65.797  1.00  0.00    -0.277 C  
HETATM   25  O   UNL     1     -11.446  12.815  64.925  1.00  0.00    -0.302 OA 
BRANCH  24  26
HETATM   26  C   UNL     1     -10.870  14.765  66.074  1.00  0.00    -0.318 A  
HETATM   27  C   UNL     1     -10.485  17.506  66.713  1.00  0.00    -0.270 A  
HETATM   28  C   UNL     1     -11.089  15.751  65.122  1.00  0.00    -0.332 A  
HETATM   29  C   UNL     1     -10.606  15.177  67.390  1.00  0.00    -0.271 A  
HETATM   30  C   UNL     1     -10.376  16.521  67.711  1.00  0.00    -0.291 A  
HETATM   31  C   UNL     1     -10.871  17.113  65.416  1.00  0.00    -0.046 A  
BRANCH  30  32
HETATM   32  O   UNL     1      -9.994  16.926  68.971  1.00  0.00    -0.260 OA 
HETATM   33  C   UNL     1     -10.953  16.705  70.005  1.00  0.00    -0.139 C  
ENDBRANCH  30  32
BRANCH  27  34
HETATM   34  O   UNL     1     -10.221  18.798  67.105  1.00  0.00    -0.343 OA 
HETATM   35  C   UNL     1     -11.175  19.411  67.969  1.00  0.00     0.527 C  
ENDBRANCH  27  34
BRANCH  31  36
HETATM   36  O   UNL     1     -11.040  18.088  64.464  1.00  0.00    -0.389 OA 
HETATM   37  C   UNL     1     -10.758  19.420  64.883  1.00  0.00     1.513 C  
ENDBRANCH  31  36
ENDBRANCH  24  26
ENDBRANCH  23  24
ENDBRANCH   3  23
BRANCH   5  38
HETATM   38  O   UNL     1      -7.782  14.749  68.648  1.00  0.00    -0.116 OA 
HETATM   39  C   UNL     1      -7.511  14.884  70.029  1.00  0.00     0.126 C  
ENDBRANCH   5  38
BRANCH   8  40
HETATM   40  C   UNL     1     -10.744  12.932  69.563  1.00  0.00     0.323 C  
HETATM   41  O   UNL     1     -11.672  12.342  69.033  1.00  0.00    -0.288 OA 
BRANCH  40  42
HETATM   42  O   UNL     1     -10.885  13.895  70.515  1.00  0.00     0.523 OA 
HETATM   43  C   UNL     1     -12.110  13.995  71.255  1.00  0.00    -0.224 C  
ENDBRANCH  40  42
ENDBRANCH   8  40
TORSDOF 9
ENDMDL
MODEL      151
REMARK 921   NORMALIZED FREE ENERGY PREDICTED BY IDOCK:    4.03 KCAL/MOL
REMARK 922        TOTAL FREE ENERGY PREDICTED BY IDOCK:    3.51 KCAL/MOL
REMARK 923 INTER-LIGAND FREE ENERGY PREDICTED BY IDOCK:   -2.07 KCAL/MOL
REMARK 924 INTRA-LIGAND FREE ENERGY PREDICTED BY IDOCK:    5.58 KCAL/MOL
REMARK 927      BINDING AFFINITY PREDICTED BY RF-SCORE:    0.00 PKD
ROOT
HETATM    1  C   UNL     1      -7.826   7.376  66.295  1.00  0.00    -0.106 C  
HETATM    2  C   UNL     1      -9.297   7.371  65.867  1.00  0.00     0.040 C  
HETATM    3  C   UNL     1     -10.169   8.586  66.354  1.00  0.00    -0.123 C  
HETATM    4  C   UNL     1      -6.471   5.276  71.881  1.00  0.00    -0.040 A  
HETATM    5  C   UNL     1      -9.662   9.703  65.448  1.00  0.00    -0.295 C  
HETATM    6  C   UNL     1      -6.185   4.143  72.673  1.00  0.00    -0.017 A  
HETATM    7  C   UNL     1      -5.570   4.307  73.925  1.00  0.00    -0.008 A  
HETATM    8  C   UNL     1      -8.178   9.960  65.936  1.00  0.00    -0.124 C  
HETATM    9  C   UNL     1      -5.246   5.575  74.376  1.00  0.00    -0.027 A  
HETATM   10  C   UNL     1      -5.510   6.718  73.598  1.00  0.00    -0.046 A  
HETATM   11  H   UNL     1      -6.344   8.470  71.436  1.00  0.00     0.000 HD 
HETATM   12  C   UNL     1      -7.431   8.766  66.834  1.00  0.00    -0.090 C  
HETATM   13  C   UNL     1      -6.127   6.538  72.343  1.00  0.00    -0.042 A  
HETATM   14  N   UNL     1      -6.515   7.466  71.382  1.00  0.00    -0.036 NA 
HETATM   15  C   UNL     1      -7.164   6.830  70.349  1.00  0.00    -0.076 A  
HETATM   16  C   UNL     1      -7.137   5.472  70.646  1.00  0.00    -0.062 A  
HETATM   17  C   UNL     1      -7.266   8.665  68.425  1.00  0.00    -0.085 C  
HETATM   18  C   UNL     1      -7.846   4.475  69.806  1.00  0.00    -0.057 C  
HETATM   19  C   UNL     1      -7.970   7.480  69.221  1.00  0.00    -0.121 C  
HETATM   20  C   UNL     1      -8.964   5.202  69.046  1.00  0.00    -0.100 C  
HETATM   21  C   UNL     1      -7.646   6.178  67.229  1.00  0.00    -0.093 C  
HETATM   22  N   UNL     1      -8.522   6.426  68.355  1.00  0.00    -0.116 NA 
ENDROOT
BRANCH   3  23
HETATM   23  O   UNL     1     -10.062   9.068  67.750  1.00  0.00    -0.183 OA 
BRANCH  23  24
HETATM   24  C   UNL     1     -11.024   9.982  68.108  1.00  0.00    -0.235 C  
HETATM   25  O   UNL     1     -11.835   9.780  69.007  1.00  0.00     0.234 OA 
BRANCH  24  26
HETATM   26  C   UNL     1     -11.151  11.267  67.341  1.00  0.00    -0.358 A  
HETATM   27  C   UNL     1     -12.042  13.587  65.964  1.00  0.00    -0.445 A  
HETATM   28  C   UNL     1     -10.867  12.534  67.832  1.00  0.00    -0.251 A  
HETATM   29  C   UNL     1     -11.751  11.178  66.075  1.00  0.00     0.718 A  
HETATM   30  C   UNL     1     -12.230  12.310  65.403  1.00  0.00    -0.208 A  
HETATM   31  C   UNL     1     -11.330  13.694  67.175  1.00  0.00    -0.319 A  
BRANCH  30  32
HETATM   32  O   UNL     1     -12.931  12.227  64.221  1.00  0.00    -0.701 OA 
HETATM   33  C   UNL     1     -12.138  12.053  63.046  1.00  0.00    -0.018 C  
ENDBRANCH  30  32
BRANCH  27  34
HETATM   34  O   UNL     1     -12.562  14.643  65.252  1.00  0.00    -0.286 OA 
HETATM   35  C   UNL     1     -11.793  15.109  64.146  1.00  0.00    -0.148 C  
ENDBRANCH  27  34
BRANCH  31  36
HETATM   36  O   UNL     1     -11.094  14.948  67.681  1.00  0.00    -0.290 OA 
HETATM   37  C   UNL     1     -12.250  15.724  67.983  1.00  0.00     0.612 C  
ENDBRANCH  31  36
ENDBRANCH  24  26
ENDBRANCH  23  24
ENDBRANCH   3  23
BRANCH   5  38
HETATM   38  O   UNL     1      -9.772   9.231  64.090  1.00  0.00     0.429 OA 
HETATM   39  C   UNL     1      -8.883   9.745  63.118  1.00  0.00    -0.246 C  
ENDBRANCH   5  38
BRANCH   8  40
HETATM   40  C   UNL     1      -8.152  11.377  66.474  1.00  0.00    -0.141 C  
HETATM   41  O   UNL     1      -7.997  11.672  67.648  1.00  0.00    -0.123 OA 
BRANCH  40  42
HETATM   42  O   UNL     1      -8.412  12.271  65.481  1.00  0.00     0.649 OA 
HETATM   43  C   UNL     1      -8.714  11.805  64.159  1.00  0.00     0.865 C  
ENDBRANCH  40  42
ENDBRANCH   8  40
TORSDOF 9
ENDMDL
MODEL      152
REMARK 921   NORMALIZED FREE ENERGY PREDICTED BY IDOCK:    4.10 KCAL/MOL
REMARK 922        TOTAL FREE ENERGY PREDICTED BY IDOCK:    3.62 KCAL/MOL
REMARK 923 INTER-LIGAND FREE ENERGY PREDICTED BY IDOCK:   -1.81 KCAL/MOL
REMARK 924 INTRA-LIGAND FREE ENERGY PREDICTED BY IDOCK:    5.43 KCAL/MOL
REMARK 927      BINDING AFFINITY PREDICTED BY RF-SCORE:    0.00 PKD
ROOT
HETATM    1  C   UNL     1      -9.289  13.048  67.069  1.00  0.00    -0.236 C  
HETATM    2  C   UNL     1     -10.681  13.047  66.430  1.00  0.00    -0.295 C  
HETATM    3  C   UNL     1     -11.895  12.811  67.402  1.00  0.00    -0.342 C  
HETATM    4  C   UNL     1      -6.602   7.640  68.062  1.00  0.00    -0.055 A  
HETATM    5  C   UNL     1     -11.966  14.151  68.126  1.00  0.00    -0.332 C  
HETATM    6  C   UNL     1      -5.812   6.604  67.520  1.00  0.00    -0.016 A  
HETATM    7  C   UNL     1      -5.171   5.696  68.379  1.00  0.00    -0.003 A  
HETATM    8  C   UNL     1     -10.654  14.189  69.010  1.00  0.00    -0.227 C  
HETATM    9  C   UNL     1      -5.315   5.822  69.751  1.00  0.00    -0.005 A  
HETATM   10  C   UNL     1      -6.087   6.855  70.314  1.00  0.00    -0.024 A  
HETATM   11  H   UNL     1      -7.775   9.198  70.634  1.00  0.00     0.000 HD 
HETATM   12  C   UNL     1      -9.405  13.156  68.603  1.00  0.00     0.008 C  
HETATM   13  C   UNL     1      -6.725   7.759  69.439  1.00  0.00    -0.040 A  
HETATM   14  N   UNL     1      -7.548   8.848  69.703  1.00  0.00    -0.070 NA 
HETATM   15  C   UNL     1      -8.012   9.384  68.524  1.00  0.00    -0.093 A  
HETATM   16  C   UNL     1      -7.427   8.646  67.501  1.00  0.00    -0.090 A  
HETATM   17  C   UNL     1      -9.035  11.733  69.241  1.00  0.00     0.598 C  
HETATM   18  C   UNL     1      -7.785   8.865  66.077  1.00  0.00    -0.098 C  
HETATM   19  C   UNL     1      -9.130  10.417  68.352  1.00  0.00    -0.147 C  
HETATM   20  C   UNL     1      -9.175   9.513  66.030  1.00  0.00    -0.196 C  
HETATM   21  C   UNL     1      -8.555  11.834  66.499  1.00  0.00    -0.148 C  
HETATM   22  N   UNL     1      -9.324  10.681  66.917  1.00  0.00    -0.158 NA 
ENDROOT
BRANCH   3  23
HETATM   23  O   UNL     1     -11.825  11.753  68.436  1.00  0.00    -0.364 OA 
BRANCH  23  24
HETATM   24  C   UNL     1     -11.717  10.478  67.934  1.00  0.00     0.268 C  
HETATM   25  O   UNL     1     -11.881  10.213  66.747  1.00  0.00     0.931 OA 
BRANCH  24  26
HETATM   26  C   UNL     1     -11.450   9.331  68.867  1.00  0.00     0.437 A  
HETATM   27  C   UNL     1     -11.607   7.133  70.660  1.00  0.00    -0.314 A  
HETATM   28  C   UNL     1     -10.976   8.080  68.496  1.00  0.00     0.164 A  
HETATM   29  C   UNL     1     -11.861   9.504  70.198  1.00  0.00    -0.036 A  
HETATM   30  C   UNL     1     -11.980   8.423  71.080  1.00  0.00    -0.272 A  
HETATM   31  C   UNL     1     -11.076   6.974  69.365  1.00  0.00    -0.157 A  
BRANCH  30  32
HETATM   32  O   UNL     1     -12.499   8.558  72.349  1.00  0.00    -0.373 OA 
HETATM   33  C   UNL     1     -13.809   9.120  72.421  1.00  0.00    -0.457 C  
ENDBRANCH  30  32
BRANCH  27  34
HETATM   34  O   UNL     1     -11.776   6.125  71.579  1.00  0.00    -0.290 OA 
HETATM   35  C   UNL     1     -10.905   5.002  71.464  1.00  0.00     0.036 C  
ENDBRANCH  27  34
BRANCH  31  36
HETATM   36  O   UNL     1     -10.653   5.723  68.986  1.00  0.00    -0.245 OA 
HETATM   37  C   UNL     1      -9.643   5.688  67.982  1.00  0.00    -0.120 C  
ENDBRANCH  31  36
ENDBRANCH  24  26
ENDBRANCH  23  24
ENDBRANCH   3  23
BRANCH   5  38
HETATM   38  O   UNL     1     -12.038  15.177  67.116  1.00  0.00    -0.069 OA 
HETATM   39  C   UNL     1     -10.992  16.125  67.035  1.00  0.00    -0.123 C  
ENDBRANCH   5  38
BRANCH   8  40
HETATM   40  C   UNL     1     -11.118  14.211  70.453  1.00  0.00     0.250 C  
HETATM   41  O   UNL     1     -10.890  15.114  71.242  1.00  0.00    -0.219 OA 
BRANCH  40  42
HETATM   42  O   UNL     1     -11.746  13.047  70.772  1.00  0.00    -0.026 OA 
HETATM   43  C   UNL     1     -12.166  12.807  72.122  1.00  0.00     1.146 C  
ENDBRANCH  40  42
ENDBRANCH   8  40
TORSDOF 9
ENDMDL
MODEL      153
REMARK 921   NORMALIZED FREE ENERGY PREDICTED BY IDOCK:    4.15 KCAL/MOL
REMARK 922        TOTAL FREE ENERGY PREDICTED BY IDOCK:    3.70 KCAL/MOL
REMARK 923 INTER-LIGAND FREE ENERGY PREDICTED BY IDOCK:    1.05 KCAL/MOL
REMARK 924 INTRA-LIGAND FREE ENERGY PREDICTED BY IDOCK:    2.65 KCAL/MOL
REMARK 927      BINDING AFFINITY PREDICTED BY RF-SCORE:    0.00 PKD
ROOT
HETATM    1  C   UNL     1      -7.400   8.247  70.697  1.00  0.00    -0.057 C  
HETATM    2  C   UNL     1      -8.138   9.520  71.122  1.00  0.00     0.249 C  
HETATM    3  C   UNL     1      -9.708   9.470  71.061  1.00  0.00    -0.126 C  
HETATM    4  C   UNL     1      -6.489   7.340  64.714  1.00  0.00    -0.037 A  
HETATM    5  C   UNL     1     -10.030   8.596  72.267  1.00  0.00    -0.291 C  
HETATM    6  C   UNL     1      -5.663   7.598  63.599  1.00  0.00    -0.045 A  
HETATM    7  C   UNL     1      -5.765   6.789  62.455  1.00  0.00    -0.035 A  
HETATM    8  C   UNL     1      -9.495   7.161  71.865  1.00  0.00    -0.157 C  
HETATM    9  C   UNL     1      -6.672   5.743  62.426  1.00  0.00    -0.035 A  
HETATM   10  C   UNL     1      -7.496   5.458  63.531  1.00  0.00    -0.056 A  
HETATM   11  H   UNL     1      -8.751   5.541  66.150  1.00  0.00     0.000 HD 
HETATM   12  C   UNL     1      -8.382   7.060  70.623  1.00  0.00    -0.127 C  
HETATM   13  C   UNL     1      -7.382   6.278  64.673  1.00  0.00    -0.073 A  
HETATM   14  N   UNL     1      -8.064   6.246  65.884  1.00  0.00    -0.116 NA 
HETATM   15  C   UNL     1      -7.677   7.306  66.671  1.00  0.00    -0.101 A  
HETATM   16  C   UNL     1      -6.697   7.986  65.957  1.00  0.00    -0.053 A  
HETATM   17  C   UNL     1      -8.634   6.706  69.080  1.00  0.00    -0.130 C  
HETATM   18  C   UNL     1      -6.119   9.263  66.446  1.00  0.00    -0.063 C  
HETATM   19  C   UNL     1      -8.345   7.797  67.958  1.00  0.00    -0.124 C  
HETATM   20  C   UNL     1      -7.125   9.901  67.414  1.00  0.00    -0.085 C  
HETATM   21  C   UNL     1      -6.624   8.604  69.428  1.00  0.00    -0.045 C  
HETATM   22  N   UNL     1      -7.625   8.982  68.452  1.00  0.00    -0.089 NA 
ENDROOT
BRANCH   3  23
HETATM   23  O   UNL     1     -10.389   8.873  69.888  1.00  0.00    -0.194 OA 
BRANCH  23  24
HETATM   24  C   UNL     1     -11.013   9.786  69.071  1.00  0.00    -0.163 C  
HETATM   25  O   UNL     1     -12.177  10.140  69.233  1.00  0.00     0.084 OA 
BRANCH  24  26
HETATM   26  C   UNL     1     -10.282  10.344  67.884  1.00  0.00    -0.211 A  
HETATM   27  C   UNL     1      -9.431  11.792  65.592  1.00  0.00    -0.192 A  
HETATM   28  C   UNL     1      -9.149  11.145  67.933  1.00  0.00    -0.150 A  
HETATM   29  C   UNL     1     -10.892  10.155  66.634  1.00  0.00    -0.084 A  
HETATM   30  C   UNL     1     -10.508  10.891  65.506  1.00  0.00    -0.219 A  
HETATM   31  C   UNL     1      -8.734  11.894  66.812  1.00  0.00    -0.193 A  
BRANCH  30  32
HETATM   32  O   UNL     1     -11.178  10.808  64.305  1.00  0.00     0.164 OA 
HETATM   33  C   UNL     1     -12.594  10.978  64.377  1.00  0.00     2.502 C  
ENDBRANCH  30  32
BRANCH  27  34
HETATM   34  O   UNL     1      -9.133  12.491  64.446  1.00  0.00     0.659 OA 
HETATM   35  C   UNL     1      -9.941  13.631  64.164  1.00  0.00     0.837 C  
ENDBRANCH  27  34
BRANCH  31  36
HETATM   36  O   UNL     1      -7.643  12.726  66.870  1.00  0.00    -0.017 OA 
HETATM   37  C   UNL     1      -7.849  13.976  67.520  1.00  0.00    -0.184 C  
ENDBRANCH  31  36
ENDBRANCH  24  26
ENDBRANCH  23  24
ENDBRANCH   3  23
BRANCH   5  38
HETATM   38  O   UNL     1      -9.369   9.183  73.406  1.00  0.00     0.784 OA 
HETATM   39  C   UNL     1      -8.728   8.330  74.334  1.00  0.00     0.333 C  
ENDBRANCH   5  38
BRANCH   8  40
HETATM   40  C   UNL     1     -10.712   6.260  71.805  1.00  0.00    -0.236 C  
HETATM   41  O   UNL     1     -11.325   5.986  70.786  1.00  0.00    -0.301 OA 
BRANCH  40  42
HETATM   42  O   UNL     1     -11.080   5.868  73.056  1.00  0.00    -0.263 OA 
HETATM   43  C   UNL     1     -11.195   4.472  73.364  1.00  0.00    -0.315 C  
ENDBRANCH  40  42
ENDBRANCH   8  40
TORSDOF 9
ENDMDL
MODEL      154
REMARK 921   NORMALIZED FREE ENERGY PREDICTED BY IDOCK:    4.34 KCAL/MOL
REMARK 922        TOTAL FREE ENERGY PREDICTED BY IDOCK:    4.00 KCAL/MOL
REMARK 923 INTER-LIGAND FREE ENERGY PREDICTED BY IDOCK:    4.54 KCAL/MOL
REMARK 924 INTRA-LIGAND FREE ENERGY PREDICTED BY IDOCK:   -0.54 KCAL/MOL
REMARK 927      BINDING AFFINITY PREDICTED BY RF-SCORE:    0.00 PKD
ROOT
HETATM    1  C   UNL     1      -9.096  15.487  70.037  1.00  0.00     0.281 C  
HETATM    2  C   UNL     1      -7.959  14.705  70.701  1.00  0.00     1.720 C  
HETATM    3  C   UNL     1      -6.578  14.709  69.951  1.00  0.00    -0.167 C  
HETATM    4  C   UNL     1     -12.244  12.716  65.580  1.00  0.00    -0.501 A  
HETATM    5  C   UNL     1      -6.087  16.125  70.231  1.00  0.00    -0.020 C  
HETATM    6  C   UNL     1     -13.314  11.853  65.258  1.00  0.00     3.264 A  
HETATM    7  C   UNL     1     -13.827  11.839  63.951  1.00  0.00     1.845 A  
HETATM    8  C   UNL     1      -7.074  17.051  69.410  1.00  0.00    -0.113 C  
HETATM    9  C   UNL     1     -13.285  12.669  62.985  1.00  0.00     1.060 A  
HETATM   10  C   UNL     1     -12.227  13.548  63.286  1.00  0.00    -0.214 A  
HETATM   11  H   UNL     1     -10.157  15.016  64.700  1.00  0.00     0.000 HD 
HETATM   12  C   UNL     1      -8.538  16.405  68.930  1.00  0.00    -0.250 C  
HETATM   13  C   UNL     1     -11.722  13.552  64.602  1.00  0.00    -0.381 A  
HETATM   14  N   UNL     1     -10.691  14.288  65.176  1.00  0.00    -0.368 NA 
HETATM   15  C   UNL     1     -10.496  13.890  66.478  1.00  0.00    -0.282 A  
HETATM   16  C   UNL     1     -11.457  12.921  66.740  1.00  0.00    -0.391 A  
HETATM   17  C   UNL     1      -8.941  15.789  67.507  1.00  0.00    -0.201 C  
HETATM   18  C   UNL     1     -11.483  12.172  68.021  1.00  0.00    -0.380 C  
HETATM   19  C   UNL     1      -9.318  14.247  67.389  1.00  0.00    -0.203 C  
HETATM   20  C   UNL     1     -10.076  12.223  68.630  1.00  0.00    -0.144 C  
HETATM   21  C   UNL     1     -10.150  14.455  69.634  1.00  0.00     0.268 C  
HETATM   22  N   UNL     1      -9.494  13.577  68.688  1.00  0.00    -0.119 NA 
ENDROOT
BRANCH   3  23
HETATM   23  O   UNL     1      -6.526  14.506  68.484  1.00  0.00    -0.084 OA 
BRANCH  23  24
HETATM   24  C   UNL     1      -6.049  13.276  68.100  1.00  0.00    -0.108 C  
HETATM   25  O   UNL     1      -5.133  13.137  67.294  1.00  0.00    -0.331 OA 
BRANCH  24  26
HETATM   26  C   UNL     1      -6.698  12.028  68.627  1.00  0.00    -0.080 A  
HETATM   27  C   UNL     1      -7.400   9.371  69.348  1.00  0.00    -0.078 A  
HETATM   28  C   UNL     1      -6.765  11.651  69.961  1.00  0.00     0.147 A  
HETATM   29  C   UNL     1      -7.136  11.103  67.667  1.00  0.00    -0.089 A  
HETATM   30  C   UNL     1      -7.448   9.780  68.003  1.00  0.00    -0.082 A  
HETATM   31  C   UNL     1      -7.081  10.328  70.333  1.00  0.00    -0.027 A  
BRANCH  30  32
HETATM   32  O   UNL     1      -7.758   8.829  67.056  1.00  0.00    -0.093 OA 
HETATM   33  C   UNL     1      -8.212   9.335  65.801  1.00  0.00    -0.117 C  
ENDBRANCH  30  32
BRANCH  27  34
HETATM   34  O   UNL     1      -7.698   8.051  69.591  1.00  0.00    -0.097 OA 
HETATM   35  C   UNL     1      -9.033   7.760  69.997  1.00  0.00    -0.142 C  
ENDBRANCH  27  34
BRANCH  31  36
HETATM   36  O   UNL     1      -7.102   9.937  71.649  1.00  0.00     0.028 OA 
HETATM   37  C   UNL     1      -5.856   9.503  72.187  1.00  0.00     0.099 C  
ENDBRANCH  31  36
ENDBRANCH  24  26
ENDBRANCH  23  24
ENDBRANCH   3  23
BRANCH   5  38
HETATM   38  O   UNL     1      -6.135  16.316  71.659  1.00  0.00     1.180 OA 
HETATM   39  C   UNL     1      -5.357  15.472  72.485  1.00  0.00     0.477 C  
ENDBRANCH   5  38
BRANCH   8  40
HETATM   40  C   UNL     1      -6.226  17.747  68.364  1.00  0.00    -0.179 C  
HETATM   41  O   UNL     1      -6.241  17.487  67.171  1.00  0.00    -0.135 OA 
BRANCH  40  42
HETATM   42  O   UNL     1      -5.380  18.640  68.948  1.00  0.00    -0.192 OA 
HETATM   43  C   UNL     1      -5.879  19.563  69.927  1.00  0.00    -0.267 C  
ENDBRANCH  40  42
ENDBRANCH   8  40
TORSDOF 9
ENDMDL
MODEL      155
REMARK 921   NORMALIZED FREE ENERGY PREDICTED BY IDOCK:    4.70 KCAL/MOL
REMARK 922        TOTAL FREE ENERGY PREDICTED BY IDOCK:    4.54 KCAL/MOL
REMARK 923 INTER-LIGAND FREE ENERGY PREDICTED BY IDOCK:    2.32 KCAL/MOL
REMARK 924 INTRA-LIGAND FREE ENERGY PREDICTED BY IDOCK:    2.22 KCAL/MOL
REMARK 927      BINDING AFFINITY PREDICTED BY RF-SCORE:    0.00 PKD
ROOT
HETATM    1  C   UNL     1      -8.924  10.592  66.167  1.00  0.00    -0.178 C  
HETATM    2  C   UNL     1     -10.336  11.168  66.029  1.00  0.00    -0.308 C  
HETATM    3  C   UNL     1     -10.585  12.572  66.691  1.00  0.00    -0.237 C  
HETATM    4  C   UNL     1      -7.530   7.666  71.358  1.00  0.00    -0.079 A  
HETATM    5  C   UNL     1      -9.855  13.496  65.722  1.00  0.00    -0.201 C  
HETATM    6  C   UNL     1      -7.564   6.444  72.064  1.00  0.00    -0.095 A  
HETATM    7  C   UNL     1      -6.728   6.260  73.177  1.00  0.00    -0.074 A  
HETATM    8  C   UNL     1      -8.325  13.144  65.921  1.00  0.00     1.545 C  
HETATM    9  C   UNL     1      -5.875   7.275  73.577  1.00  0.00    -0.053 A  
HETATM   10  C   UNL     1      -5.815   8.497  72.881  1.00  0.00    -0.074 A  
HETATM   11  H   UNL     1      -6.280  10.613  70.945  1.00  0.00     0.000 HD 
HETATM   12  C   UNL     1      -7.944  11.685  66.641  1.00  0.00    -0.098 C  
HETATM   13  C   UNL     1      -6.659   8.667  71.765  1.00  0.00    -0.075 A  
HETATM   14  N   UNL     1      -6.825   9.751  70.910  1.00  0.00    -0.302 NA 
HETATM   15  C   UNL     1      -7.833   9.492  70.011  1.00  0.00    -0.151 A  
HETATM   16  C   UNL     1      -8.273   8.201  70.276  1.00  0.00    -0.122 A  
HETATM   17  C   UNL     1      -7.560  11.394  68.170  1.00  0.00    -0.114 C  
HETATM   18  C   UNL     1      -9.440   7.612  69.573  1.00  0.00    -0.152 C  
HETATM   19  C   UNL     1      -8.513  10.489  69.068  1.00  0.00    -0.157 C  
HETATM   20  C   UNL     1     -10.311   8.764  69.052  1.00  0.00    -0.213 C  
HETATM   21  C   UNL     1      -9.055   9.336  67.031  1.00  0.00    -0.130 C  
HETATM   22  N   UNL     1      -9.563   9.793  68.307  1.00  0.00    -0.143 NA 
ENDROOT
BRANCH   3  23
HETATM   23  O   UNL     1     -10.065  12.858  68.048  1.00  0.00    -0.221 OA 
BRANCH  23  24
HETATM   24  C   UNL     1     -10.647  13.943  68.659  1.00  0.00    -0.257 C  
HETATM   25  O   UNL     1     -10.382  15.102  68.354  1.00  0.00    -0.222 OA 
BRANCH  24  26
HETATM   26  C   UNL     1     -11.605  13.733  69.797  1.00  0.00    -0.324 A  
HETATM   27  C   UNL     1     -12.879  13.100  72.256  1.00  0.00    -0.129 A  
HETATM   28  C   UNL     1     -12.160  14.732  70.583  1.00  0.00    -0.374 A  
HETATM   29  C   UNL     1     -11.831  12.401  70.180  1.00  0.00    -0.341 A  
HETATM   30  C   UNL     1     -12.423  12.076  71.407  1.00  0.00    -0.135 A  
HETATM   31  C   UNL     1     -12.767  14.436  71.821  1.00  0.00    -0.351 A  
BRANCH  30  32
HETATM   32  O   UNL     1     -12.538  10.777  71.851  1.00  0.00    -0.331 OA 
HETATM   33  C   UNL     1     -13.395   9.936  71.079  1.00  0.00    -0.256 C  
ENDBRANCH  30  32
BRANCH  27  34
HETATM   34  O   UNL     1     -13.426  12.697  73.451  1.00  0.00     1.263 OA 
HETATM   35  C   UNL     1     -14.118  11.450  73.450  1.00  0.00     4.922 C  
ENDBRANCH  27  34
BRANCH  31  36
HETATM   36  O   UNL     1     -13.275  15.426  72.627  1.00  0.00    -0.384 OA 
HETATM   37  C   UNL     1     -12.669  16.708  72.492  1.00  0.00     0.698 C  
ENDBRANCH  31  36
ENDBRANCH  24  26
ENDBRANCH  23  24
ENDBRANCH   3  23
BRANCH   5  38
HETATM   38  O   UNL     1     -10.367  13.218  64.403  1.00  0.00    -0.413 OA 
HETATM   39  C   UNL     1     -11.446  12.313  64.270  1.00  0.00    -0.362 C  
ENDBRANCH   5  38
BRANCH   8  40
HETATM   40  C   UNL     1      -7.671  14.398  66.465  1.00  0.00     1.144 C  
HETATM   41  O   UNL     1      -7.954  15.535  66.122  1.00  0.00     0.184 OA 
BRANCH  40  42
HETATM   42  O   UNL     1      -6.665  14.080  67.324  1.00  0.00    -0.244 OA 
HETATM   43  C   UNL     1      -5.806  15.109  67.834  1.00  0.00    -0.143 C  
ENDBRANCH  40  42
ENDBRANCH   8  40
TORSDOF 9
ENDMDL
MODEL      156
REMARK 921   NORMALIZED FREE ENERGY PREDICTED BY IDOCK:    4.81 KCAL/MOL
REMARK 922        TOTAL FREE ENERGY PREDICTED BY IDOCK:    4.70 KCAL/MOL
REMARK 923 INTER-LIGAND FREE ENERGY PREDICTED BY IDOCK:    4.59 KCAL/MOL
REMARK 924 INTRA-LIGAND FREE ENERGY PREDICTED BY IDOCK:    0.12 KCAL/MOL
REMARK 927      BINDING AFFINITY PREDICTED BY RF-SCORE:    0.00 PKD
ROOT
HETATM    1  C   UNL     1     -11.800  14.080  67.973  1.00  0.00    -0.403 C  
HETATM    2  C   UNL     1     -11.490  12.598  67.737  1.00  0.00    -0.375 C  
HETATM    3  C   UNL     1     -10.864  11.815  68.948  1.00  0.00    -0.223 C  
HETATM    4  C   UNL     1      -7.216  18.087  67.359  1.00  0.00    -0.205 A  
HETATM    5  C   UNL     1     -12.073  11.661  69.865  1.00  0.00    -0.301 C  
HETATM    6  C   UNL     1      -6.471  18.894  66.472  1.00  0.00    -0.211 A  
HETATM    7  C   UNL     1      -5.693  19.949  66.977  1.00  0.00    -0.178 A  
HETATM    8  C   UNL     1     -12.378  13.133  70.361  1.00  0.00    -0.351 C  
HETATM    9  C   UNL     1      -5.660  20.194  68.339  1.00  0.00    -0.263 A  
HETATM   10  C   UNL     1      -6.405  19.412  69.241  1.00  0.00    -0.337 A  
HETATM   11  H   UNL     1      -8.192  17.412  70.361  1.00  0.00     0.000 HD 
HETATM   12  C   UNL     1     -11.744  14.404  69.480  1.00  0.00    -0.362 C  
HETATM   13  C   UNL     1      -7.182  18.357  68.720  1.00  0.00    -0.284 A  
HETATM   14  N   UNL     1      -7.993  17.425  69.360  1.00  0.00     0.150 NA 
HETATM   15  C   UNL     1      -8.487  16.523  68.446  1.00  0.00    -0.208 A  
HETATM   16  C   UNL     1      -8.016  16.928  67.202  1.00  0.00    -0.210 A  
HETATM   17  C   UNL     1     -10.418  15.257  69.767  1.00  0.00    -0.287 C  
HETATM   18  C   UNL     1      -8.252  16.124  65.978  1.00  0.00     0.066 C  
HETATM   19  C   UNL     1      -9.203  15.202  68.741  1.00  0.00    -0.200 C  
HETATM   20  C   UNL     1      -8.517  14.674  66.405  1.00  0.00     0.274 C  
HETATM   21  C   UNL     1     -10.871  14.866  67.046  1.00  0.00    -0.315 C  
HETATM   22  N   UNL     1      -9.527  14.536  67.470  1.00  0.00    -0.200 NA 
ENDROOT
BRANCH   3  23
HETATM   23  O   UNL     1      -9.778  12.425  69.749  1.00  0.00     1.378 OA 
BRANCH  23  24
HETATM   24  C   UNL     1      -8.573  11.769  69.660  1.00  0.00     1.428 C  
HETATM   25  O   UNL     1      -7.522  12.341  69.386  1.00  0.00     0.154 OA 
BRANCH  24  26
HETATM   26  C   UNL     1      -8.522  10.279  69.838  1.00  0.00    -0.013 A  
HETATM   27  C   UNL     1      -9.055   7.492  69.971  1.00  0.00    -0.148 A  
HETATM   28  C   UNL     1      -7.840   9.389  69.020  1.00  0.00    -0.079 A  
HETATM   29  C   UNL     1      -9.359   9.743  70.829  1.00  0.00     0.082 A  
HETATM   30  C   UNL     1      -9.660   8.376  70.882  1.00  0.00    -0.175 A  
HETATM   31  C   UNL     1      -8.117   8.006  69.053  1.00  0.00    -0.123 A  
BRANCH  30  32
HETATM   32  O   UNL     1     -10.576   7.854  71.768  1.00  0.00    -0.215 OA 
HETATM   33  C   UNL     1     -10.762   8.599  72.972  1.00  0.00     0.664 C  
ENDBRANCH  30  32
BRANCH  27  34
HETATM   34  O   UNL     1      -9.422   6.170  70.075  1.00  0.00    -0.152 OA 
HETATM   35  C   UNL     1      -9.340   5.388  68.886  1.00  0.00    -0.127 C  
ENDBRANCH  27  34
BRANCH  31  36
HETATM   36  O   UNL     1      -7.481   7.126  68.213  1.00  0.00    -0.097 OA 
HETATM   37  C   UNL     1      -7.269   7.584  66.880  1.00  0.00    -0.085 C  
ENDBRANCH  31  36
ENDBRANCH  24  26
ENDBRANCH  23  24
ENDBRANCH   3  23
BRANCH   5  38
HETATM   38  O   UNL     1     -13.126  11.063  69.082  1.00  0.00     0.264 OA 
HETATM   39  C   UNL     1     -13.352   9.672  69.198  1.00  0.00     4.522 C  
ENDBRANCH   5  38
BRANCH   8  40
HETATM   40  C   UNL     1     -12.157  13.127  71.860  1.00  0.00     0.965 C  
HETATM   41  O   UNL     1     -12.518  12.236  72.612  1.00  0.00     0.801 OA 
BRANCH  40  42
HETATM   42  O   UNL     1     -11.579  14.291  72.264  1.00  0.00     0.350 OA 
HETATM   43  C   UNL     1     -12.391  15.453  72.489  1.00  0.00    -0.384 C  
ENDBRANCH  40  42
ENDBRANCH   8  40
TORSDOF 9
ENDMDL
MODEL      157
REMARK 921   NORMALIZED FREE ENERGY PREDICTED BY IDOCK:    5.14 KCAL/MOL
REMARK 922        TOTAL FREE ENERGY PREDICTED BY IDOCK:    5.21 KCAL/MOL
REMARK 923 INTER-LIGAND FREE ENERGY PREDICTED BY IDOCK:   -1.51 KCAL/MOL
REMARK 924 INTRA-LIGAND FREE ENERGY PREDICTED BY IDOCK:    6.72 KCAL/MOL
REMARK 927      BINDING AFFINITY PREDICTED BY RF-SCORE:    0.00 PKD
ROOT
HETATM    1  C   UNL     1      -9.601  14.590  65.478  1.00  0.00    -0.117 C  
HETATM    2  C   UNL     1     -11.093  14.931  65.417  1.00  0.00    -0.366 C  
HETATM    3  C   UNL     1     -11.801  15.212  66.792  1.00  0.00     0.026 C  
HETATM    4  C   UNL     1      -8.043   8.805  66.724  1.00  0.00    -0.104 A  
HETATM    5  C   UNL     1     -11.256  16.594  67.135  1.00  0.00     0.239 C  
HETATM    6  C   UNL     1      -7.811   7.512  66.205  1.00  0.00    -0.102 A  
HETATM    7  C   UNL     1      -7.090   6.577  66.966  1.00  0.00    -0.073 A  
HETATM    8  C   UNL     1      -9.722  16.346  67.435  1.00  0.00    -0.238 C  
HETATM    9  C   UNL     1      -6.610   6.924  68.217  1.00  0.00    -0.058 A  
HETATM   10  C   UNL     1      -6.817   8.211  68.749  1.00  0.00    -0.066 A  
HETATM   11  H   UNL     1      -7.635  10.980  69.073  1.00  0.00     0.000 HD 
HETATM   12  C   UNL     1      -9.030  14.935  66.869  1.00  0.00    -0.277 C  
HETATM   13  C   UNL     1      -7.542   9.140  67.974  1.00  0.00    -0.085 A  
HETATM   14  N   UNL     1      -7.908  10.455  68.242  1.00  0.00    -0.103 NA 
HETATM   15  C   UNL     1      -8.692  10.943  67.223  1.00  0.00    -0.131 A  
HETATM   16  C   UNL     1      -8.777   9.930  66.275  1.00  0.00    -0.152 A  
HETATM   17  C   UNL     1      -8.758  13.567  67.659  1.00  0.00    -0.194 C  
HETATM   18  C   UNL     1      -9.642  10.053  65.075  1.00  0.00    -0.362 C  
HETATM   19  C   UNL     1      -9.513  12.235  67.223  1.00  0.00    -0.186 C  
HETATM   20  C   UNL     1     -10.737  11.084  65.383  1.00  0.00    -0.152 C  
HETATM   21  C   UNL     1      -9.470  13.143  64.999  1.00  0.00     0.427 C  
HETATM   22  N   UNL     1     -10.229  12.350  65.942  1.00  0.00    -0.247 NA 
ENDROOT
BRANCH   3  23
HETATM   23  O   UNL     1     -11.542  14.334  67.956  1.00  0.00    -0.295 OA 
BRANCH  23  24
HETATM   24  C   UNL     1     -12.073  13.071  67.841  1.00  0.00    -0.186 C  
HETATM   25  O   UNL     1     -12.601  12.661  66.812  1.00  0.00    -0.154 OA 
BRANCH  24  26
HETATM   26  C   UNL     1     -12.075  12.153  69.030  1.00  0.00    -0.208 A  
HETATM   27  C   UNL     1     -11.427  10.528  71.268  1.00  0.00     0.110 A  
HETATM   28  C   UNL     1     -12.552  12.468  70.295  1.00  0.00    -0.026 A  
HETATM   29  C   UNL     1     -11.401  10.932  68.874  1.00  0.00    -0.354 A  
HETATM   30  C   UNL     1     -11.041  10.141  69.972  1.00  0.00    -0.308 A  
HETATM   31  C   UNL     1     -12.212  11.688  71.420  1.00  0.00     0.076 A  
BRANCH  30  32
HETATM   32  O   UNL     1     -10.271   9.006  69.845  1.00  0.00    -0.188 OA 
HETATM   33  C   UNL     1     -10.533   8.210  68.690  1.00  0.00    -0.165 C  
ENDBRANCH  30  32
BRANCH  27  34
HETATM   34  O   UNL     1     -11.014   9.709  72.293  1.00  0.00     0.457 OA 
HETATM   35  C   UNL     1     -10.211   8.587  71.931  1.00  0.00    -0.299 C  
ENDBRANCH  27  34
BRANCH  31  36
HETATM   36  O   UNL     1     -12.641  12.022  72.681  1.00  0.00     0.671 OA 
HETATM   37  C   UNL     1     -13.885  12.713  72.751  1.00  0.00     0.571 C  
ENDBRANCH  31  36
ENDBRANCH  24  26
ENDBRANCH  23  24
ENDBRANCH   3  23
BRANCH   5  38
HETATM   38  O   UNL     1     -11.514  17.446  66.001  1.00  0.00     0.857 OA 
HETATM   39  C   UNL     1     -10.515  17.578  65.009  1.00  0.00     0.656 C  
ENDBRANCH   5  38
BRANCH   8  40
HETATM   40  C   UNL     1      -9.515  16.705  68.893  1.00  0.00    -0.251 C  
HETATM   41  O   UNL     1      -8.485  17.169  69.356  1.00  0.00     0.056 OA 
BRANCH  40  42
HETATM   42  O   UNL     1     -10.604  16.355  69.632  1.00  0.00    -0.296 OA 
HETATM   43  C   UNL     1     -10.452  15.489  70.766  1.00  0.00     0.092 C  
ENDBRANCH  40  42
ENDBRANCH   8  40
TORSDOF 9
ENDMDL
MODEL      158
REMARK 921   NORMALIZED FREE ENERGY PREDICTED BY IDOCK:    6.07 KCAL/MOL
REMARK 922        TOTAL FREE ENERGY PREDICTED BY IDOCK:    6.63 KCAL/MOL
REMARK 923 INTER-LIGAND FREE ENERGY PREDICTED BY IDOCK:    0.34 KCAL/MOL
REMARK 924 INTRA-LIGAND FREE ENERGY PREDICTED BY IDOCK:    6.29 KCAL/MOL
REMARK 927      BINDING AFFINITY PREDICTED BY RF-SCORE:    0.00 PKD
ROOT
HETATM    1  C   UNL     1      -8.804  13.282  66.263  1.00  0.00     0.214 C  
HETATM    2  C   UNL     1     -10.228  13.427  65.719  1.00  0.00    -0.300 C  
HETATM    3  C   UNL     1     -11.396  13.186  66.744  1.00  0.00    -0.316 C  
HETATM    4  C   UNL     1      -6.448   7.646  66.626  1.00  0.00    -0.053 A  
HETATM    5  C   UNL     1     -11.330  14.459  67.581  1.00  0.00    -0.329 C  
HETATM    6  C   UNL     1      -5.766   6.612  65.950  1.00  0.00    -0.025 A  
HETATM    7  C   UNL     1      -5.140   5.593  66.687  1.00  0.00    -0.005 A  
HETATM    8  C   UNL     1      -9.968  14.335  68.377  1.00  0.00    -0.240 C  
HETATM    9  C   UNL     1      -5.194   5.607  68.071  1.00  0.00    -0.004 A  
HETATM   10  C   UNL     1      -5.857   6.635  68.767  1.00  0.00    -0.021 A  
HETATM   11  H   UNL     1      -7.355   9.045  69.389  1.00  0.00     0.000 HD 
HETATM   12  C   UNL     1      -8.821  13.263  67.806  1.00  0.00    -0.197 C  
HETATM   13  C   UNL     1      -6.480   7.651  68.014  1.00  0.00    -0.054 A  
HETATM   14  N   UNL     1      -7.208   8.764  68.420  1.00  0.00    -0.080 NA 
HETATM   15  C   UNL     1      -7.703   9.430  67.322  1.00  0.00    -0.091 A  
HETATM   16  C   UNL     1      -7.233   8.749  66.206  1.00  0.00    -0.086 A  
HETATM   17  C   UNL     1      -8.515  11.768  68.298  1.00  0.00    -0.161 C  
HETATM   18  C   UNL     1      -7.657   9.113  64.831  1.00  0.00    -0.107 C  
HETATM   19  C   UNL     1      -8.754  10.544  67.310  1.00  0.00    -0.126 C  
HETATM   20  C   UNL     1      -8.999   9.851  64.929  1.00  0.00    -0.207 C  
HETATM   21  C   UNL     1      -8.191  12.077  65.548  1.00  0.00     1.062 C  
HETATM   22  N   UNL     1      -9.013  10.945  65.918  1.00  0.00    -0.187 NA 
ENDROOT
BRANCH   3  23
HETATM   23  O   UNL     1     -11.339  12.039  67.680  1.00  0.00    -0.264 OA 
BRANCH  23  24
HETATM   24  C   UNL     1     -11.330  10.809  67.067  1.00  0.00     0.037 C  
HETATM   25  O   UNL     1     -11.550  10.659  65.868  1.00  0.00     0.445 OA 
BRANCH  24  26
HETATM   26  C   UNL     1     -11.104   9.571  67.886  1.00  0.00    -0.053 A  
HETATM   27  C   UNL     1     -10.192   7.120  68.997  1.00  0.00    -0.190 A  
HETATM   28  C   UNL     1     -10.558   9.532  69.162  1.00  0.00    -0.237 A  
HETATM   29  C   UNL     1     -11.329   8.347  67.237  1.00  0.00     1.182 A  
HETATM   30  C   UNL     1     -10.851   7.137  67.754  1.00  0.00    -0.178 A  
HETATM   31  C   UNL     1     -10.073   8.328  69.713  1.00  0.00    -0.197 A  
BRANCH  30  32
HETATM   32  O   UNL     1     -10.954   5.946  67.069  1.00  0.00    -0.297 OA 
HETATM   33  C   UNL     1     -10.379   5.936  65.763  1.00  0.00     0.534 C  
ENDBRANCH  30  32
BRANCH  27  34
HETATM   34  O   UNL     1      -9.733   5.896  69.423  1.00  0.00    -0.143 OA 
HETATM   35  C   UNL     1      -9.623   5.708  70.832  1.00  0.00    -0.169 C  
ENDBRANCH  27  34
BRANCH  31  36
HETATM   36  O   UNL     1      -9.487   8.292  70.955  1.00  0.00    -0.151 OA 
HETATM   37  C   UNL     1      -8.361   9.146  71.136  1.00  0.00    -0.099 C  
ENDBRANCH  31  36
ENDBRANCH  24  26
ENDBRANCH  23  24
ENDBRANCH   3  23
BRANCH   5  38
HETATM   38  O   UNL     1     -11.390  15.572  66.666  1.00  0.00    -0.197 OA 
HETATM   39  C   UNL     1     -11.148  16.873  67.163  1.00  0.00     0.145 C  
ENDBRANCH   5  38
BRANCH   8  40
HETATM   40  C   UNL     1     -10.343  14.261  69.844  1.00  0.00     0.432 C  
HETATM   41  O   UNL     1     -11.073  13.413  70.333  1.00  0.00     0.380 OA 
BRANCH  40  42
HETATM   42  O   UNL     1      -9.827  15.320  70.525  1.00  0.00     0.087 OA 
HETATM   43  C   UNL     1     -10.270  16.650  70.222  1.00  0.00     0.582 C  
ENDBRANCH  40  42
ENDBRANCH   8  40
TORSDOF 9
ENDMDL
MODEL      159
REMARK 921   NORMALIZED FREE ENERGY PREDICTED BY IDOCK:    6.27 KCAL/MOL
REMARK 922        TOTAL FREE ENERGY PREDICTED BY IDOCK:    6.93 KCAL/MOL
REMARK 923 INTER-LIGAND FREE ENERGY PREDICTED BY IDOCK:    1.28 KCAL/MOL
REMARK 924 INTRA-LIGAND FREE ENERGY PREDICTED BY IDOCK:    5.65 KCAL/MOL
REMARK 927      BINDING AFFINITY PREDICTED BY RF-SCORE:    0.00 PKD
ROOT
HETATM    1  C   UNL     1      -6.116  10.103  68.256  1.00  0.00    -0.045 C  
HETATM    2  C   UNL     1      -6.301   9.666  69.712  1.00  0.00    -0.047 C  
HETATM    3  C   UNL     1      -7.316   8.492  69.965  1.00  0.00    -0.055 C  
HETATM    4  C   UNL     1     -10.206  14.001  65.904  1.00  0.00    -0.332 A  
HETATM    5  C   UNL     1      -6.524   7.293  69.456  1.00  0.00    -0.036 C  
HETATM    6  C   UNL     1     -10.585  15.351  65.743  1.00  0.00    -0.361 A  
HETATM    7  C   UNL     1     -11.506  15.700  64.742  1.00  0.00    -0.284 A  
HETATM    8  C   UNL     1      -6.438   7.516  67.892  1.00  0.00    -0.054 C  
HETATM    9  C   UNL     1     -12.036  14.722  63.917  1.00  0.00    -0.028 A  
HETATM   10  C   UNL     1     -11.663  13.371  64.051  1.00  0.00    -0.465 A  
HETATM   11  H   UNL     1     -10.385  10.922  64.950  1.00  0.00     0.000 HD 
HETATM   12  C   UNL     1      -6.721   9.053  67.302  1.00  0.00    -0.069 C  
HETATM   13  C   UNL     1     -10.737  13.035  65.060  1.00  0.00    -0.315 A  
HETATM   14  N   UNL     1     -10.205  11.805  65.429  1.00  0.00    -0.251 NA 
HETATM   15  C   UNL     1      -9.401  11.952  66.536  1.00  0.00    -0.216 A  
HETATM   16  C   UNL     1      -9.391  13.310  66.835  1.00  0.00    -0.244 A  
HETATM   17  C   UNL     1      -8.070   9.653  66.678  1.00  0.00    -0.119 C  
HETATM   18  C   UNL     1      -8.714  13.838  68.045  1.00  0.00    -0.181 C  
HETATM   19  C   UNL     1      -8.827  10.841  67.419  1.00  0.00    -0.129 C  
HETATM   20  C   UNL     1      -8.606  12.697  69.066  1.00  0.00     0.495 C  
HETATM   21  C   UNL     1      -6.651  11.533  68.165  1.00  0.00    -0.057 C  
HETATM   22  N   UNL     1      -8.053  11.447  68.514  1.00  0.00    -0.144 NA 
ENDROOT
BRANCH   3  23
HETATM   23  O   UNL     1      -8.627   8.480  69.275  1.00  0.00    -0.126 OA 
BRANCH  23  24
HETATM   24  C   UNL     1      -9.195   7.233  69.164  1.00  0.00    -0.139 C  
HETATM   25  O   UNL     1      -9.185   6.587  68.120  1.00  0.00    -0.115 OA 
BRANCH  24  26
HETATM   26  C   UNL     1      -9.921   6.638  70.337  1.00  0.00    -0.193 A  
HETATM   27  C   UNL     1     -10.693   5.276  72.707  1.00  0.00    -0.243 A  
HETATM   28  C   UNL     1     -10.403   7.342  71.431  1.00  0.00    -0.212 A  
HETATM   29  C   UNL     1      -9.976   5.237  70.387  1.00  0.00    -0.303 A  
HETATM   30  C   UNL     1     -10.317   4.553  71.561  1.00  0.00    -0.068 A  
HETATM   31  C   UNL     1     -10.761   6.681  72.625  1.00  0.00    -0.235 A  
BRANCH  30  32
HETATM   32  O   UNL     1     -10.254   3.180  71.662  1.00  0.00    -0.088 OA 
HETATM   33  C   UNL     1     -10.157   2.476  70.424  1.00  0.00     0.652 C  
ENDBRANCH  30  32
BRANCH  27  34
HETATM   34  O   UNL     1     -10.991   4.530  73.823  1.00  0.00    -0.274 OA 
HETATM   35  C   UNL     1     -12.370   4.249  74.056  1.00  0.00     2.699 C  
ENDBRANCH  27  34
BRANCH  31  36
HETATM   36  O   UNL     1     -11.193   7.376  73.728  1.00  0.00    -0.074 OA 
HETATM   37  C   UNL     1     -10.240   8.251  74.324  1.00  0.00     3.272 C  
ENDBRANCH  31  36
ENDBRANCH  24  26
ENDBRANCH  23  24
ENDBRANCH   3  23
BRANCH   5  38
HETATM   38  O   UNL     1      -5.250   7.307  70.133  1.00  0.00    -0.022 OA 
HETATM   39  C   UNL     1      -5.179   6.813  71.456  1.00  0.00    -0.027 C  
ENDBRANCH   5  38
BRANCH   8  40
HETATM   40  C   UNL     1      -7.191   6.362  67.260  1.00  0.00    -0.078 C  
HETATM   41  O   UNL     1      -7.094   5.195  67.607  1.00  0.00    -0.064 OA 
BRANCH  40  42
HETATM   42  O   UNL     1      -7.923   6.792  66.196  1.00  0.00    -0.102 OA 
HETATM   43  C   UNL     1      -9.199   6.198  65.918  1.00  0.00    -0.045 C  
ENDBRANCH  40  42
ENDBRANCH   8  40
TORSDOF 9
ENDMDL
MODEL      160
REMARK 921   NORMALIZED FREE ENERGY PREDICTED BY IDOCK:    6.96 KCAL/MOL
REMARK 922        TOTAL FREE ENERGY PREDICTED BY IDOCK:    7.98 KCAL/MOL
REMARK 923 INTER-LIGAND FREE ENERGY PREDICTED BY IDOCK:    8.24 KCAL/MOL
REMARK 924 INTRA-LIGAND FREE ENERGY PREDICTED BY IDOCK:   -0.25 KCAL/MOL
REMARK 927      BINDING AFFINITY PREDICTED BY RF-SCORE:    0.00 PKD
ROOT
HETATM    1  C   UNL     1     -11.562  11.847  71.207  1.00  0.00     1.491 C  
HETATM    2  C   UNL     1     -12.542  10.784  70.702  1.00  0.00    -0.446 C  
HETATM    3  C   UNL     1     -11.952   9.696  69.732  1.00  0.00     0.295 C  
HETATM    4  C   UNL     1     -10.429  16.639  67.574  1.00  0.00    -0.317 A  
HETATM    5  C   UNL     1     -11.145   8.836  70.698  1.00  0.00    -0.246 C  
HETATM    6  C   UNL     1     -10.842  17.925  67.161  1.00  0.00    -0.149 A  
HETATM    7  C   UNL     1      -9.937  18.764  66.491  1.00  0.00    -0.415 A  
HETATM    8  C   UNL     1      -9.947   9.769  71.146  1.00  0.00     0.144 C  
HETATM    9  C   UNL     1      -8.646  18.330  66.239  1.00  0.00    -0.208 A  
HETATM   10  C   UNL     1      -8.209  17.058  66.653  1.00  0.00    -0.295 A  
HETATM   11  H   UNL     1      -8.118  14.401  67.825  1.00  0.00     0.000 HD 
HETATM   12  C   UNL     1     -10.110  11.416  70.919  1.00  0.00     4.463 C  
HETATM   13  C   UNL     1      -9.128  16.226  67.325  1.00  0.00    -0.203 A  
HETATM   14  N   UNL     1      -8.986  14.938  67.828  1.00  0.00    -0.174 NA 
HETATM   15  C   UNL     1     -10.187  14.491  68.328  1.00  0.00    -0.234 A  
HETATM   16  C   UNL     1     -11.086  15.541  68.181  1.00  0.00    -0.325 A  
HETATM   17  C   UNL     1      -9.538  12.323  69.726  1.00  0.00     2.041 C  
HETATM   18  C   UNL     1     -12.526  15.388  68.509  1.00  0.00     0.455 C  
HETATM   19  C   UNL     1     -10.545  13.061  68.739  1.00  0.00    -0.193 C  
HETATM   20  C   UNL     1     -12.874  13.895  68.437  1.00  0.00     1.404 C  
HETATM   21  C   UNL     1     -12.034  13.179  70.621  1.00  0.00    -0.162 C  
HETATM   22  N   UNL     1     -11.948  13.025  69.184  1.00  0.00    -0.296 NA 
ENDROOT
BRANCH   3  23
HETATM   23  O   UNL     1     -11.044  10.094  68.631  1.00  0.00    -0.235 OA 
BRANCH  23  24
HETATM   24  C   UNL     1     -11.008   9.209  67.580  1.00  0.00     0.046 C  
HETATM   25  O   UNL     1     -11.755   8.238  67.500  1.00  0.00     1.625 OA 
BRANCH  24  26
HETATM   26  C   UNL     1      -9.977   9.377  66.500  1.00  0.00    -0.339 A  
HETATM   27  C   UNL     1      -7.814  10.187  64.847  1.00  0.00    -0.147 A  
HETATM   28  C   UNL     1      -8.915   8.518  66.255  1.00  0.00    -0.207 A  
HETATM   29  C   UNL     1     -10.018  10.584  65.786  1.00  0.00    -0.318 A  
HETATM   30  C   UNL     1      -8.942  11.013  64.998  1.00  0.00    -0.123 A  
HETATM   31  C   UNL     1      -7.819   8.919  65.461  1.00  0.00    -0.100 A  
BRANCH  30  32
HETATM   32  O   UNL     1      -8.915  12.250  64.392  1.00  0.00     0.668 OA 
HETATM   33  C   UNL     1     -10.191  12.829  64.119  1.00  0.00    -0.318 C  
ENDBRANCH  30  32
BRANCH  27  34
HETATM   34  O   UNL     1      -6.792  10.692  64.077  1.00  0.00     0.054 OA 
HETATM   35  C   UNL     1      -5.735  11.353  64.769  1.00  0.00     1.357 C  
ENDBRANCH  27  34
BRANCH  31  36
HETATM   36  O   UNL     1      -6.743   8.092  65.254  1.00  0.00    -0.054 OA 
HETATM   37  C   UNL     1      -6.131   8.178  63.970  1.00  0.00    -0.066 C  
ENDBRANCH  31  36
ENDBRANCH  24  26
ENDBRANCH  23  24
ENDBRANCH   3  23
BRANCH   5  38
HETATM   38  O   UNL     1     -12.033   8.448  71.765  1.00  0.00    -0.288 OA 
HETATM   39  C   UNL     1     -11.524   8.381  73.082  1.00  0.00     0.570 C  
ENDBRANCH   5  38
BRANCH   8  40
HETATM   40  C   UNL     1      -8.682   9.102  70.643  1.00  0.00    -0.229 C  
HETATM   41  O   UNL     1      -8.046   8.263  71.260  1.00  0.00    -0.100 OA 
BRANCH  40  42
HETATM   42  O   UNL     1      -8.305   9.632  69.447  1.00  0.00    -0.121 OA 
HETATM   43  C   UNL     1      -7.046   9.264  68.867  1.00  0.00    -0.068 C  
ENDBRANCH  40  42
ENDBRANCH   8  40
TORSDOF 9
ENDMDL
MODEL      161
REMARK 921   NORMALIZED FREE ENERGY PREDICTED BY IDOCK:    8.29 KCAL/MOL
REMARK 922        TOTAL FREE ENERGY PREDICTED BY IDOCK:   10.01 KCAL/MOL
REMARK 923 INTER-LIGAND FREE ENERGY PREDICTED BY IDOCK:   11.73 KCAL/MOL
REMARK 924 INTRA-LIGAND FREE ENERGY PREDICTED BY IDOCK:   -1.72 KCAL/MOL
REMARK 927      BINDING AFFINITY PREDICTED BY RF-SCORE:    0.00 PKD
ROOT
HETATM    1  C   UNL     1      -6.835   5.914  70.741  1.00  0.00    -0.058 C  
HETATM    2  C   UNL     1      -8.231   5.432  71.145  1.00  0.00    -0.119 C  
HETATM    3  C   UNL     1      -9.277   5.269  69.982  1.00  0.00    -0.138 C  
HETATM    4  C   UNL     1      -5.991  11.932  70.015  1.00  0.00    -0.159 A  
HETATM    5  C   UNL     1      -8.776   4.001  69.301  1.00  0.00    -0.082 C  
HETATM    6  C   UNL     1      -5.694  13.161  70.643  1.00  0.00    -0.171 A  
HETATM    7  C   UNL     1      -5.262  14.251  69.869  1.00  0.00    -0.093 A  
HETATM    8  C   UNL     1      -7.400   4.426  68.644  1.00  0.00    -0.060 C  
HETATM    9  C   UNL     1      -5.129  14.116  68.497  1.00  0.00    -0.095 A  
HETATM   10  C   UNL     1      -5.407  12.896  67.851  1.00  0.00    -0.110 A  
HETATM   11  H   UNL     1      -6.136  10.131  67.341  1.00  0.00     0.000 HD 
HETATM   12  C   UNL     1      -6.654   5.809  69.212  1.00  0.00    -0.054 C  
HETATM   13  C   UNL     1      -5.839  11.811  68.641  1.00  0.00    -0.049 A  
HETATM   14  N   UNL     1      -6.195  10.515  68.284  1.00  0.00    -0.054 NA 
HETATM   15  C   UNL     1      -6.639   9.827  69.390  1.00  0.00    -0.049 A  
HETATM   16  C   UNL     1      -6.511  10.694  70.468  1.00  0.00    -0.045 A  
HETATM   17  C   UNL     1      -6.684   7.288  68.595  1.00  0.00    -0.060 C  
HETATM   18  C   UNL     1      -7.003  10.335  71.822  1.00  0.00     1.973 C  
HETATM   19  C   UNL     1      -7.358   8.475  69.413  1.00  0.00    -0.069 C  
HETATM   20  C   UNL     1      -8.084   9.257  71.665  1.00  0.00     0.415 C  
HETATM   21  C   UNL     1      -6.653   7.291  71.381  1.00  0.00    -0.050 C  
HETATM   22  N   UNL     1      -7.685   8.128  70.805  1.00  0.00    -0.076 NA 
ENDROOT
BRANCH   3  23
HETATM   23  O   UNL     1      -9.397   6.313  68.937  1.00  0.00    -0.129 OA 
BRANCH  23  24
HETATM   24  C   UNL     1     -10.663   6.832  68.801  1.00  0.00    -0.239 C  
HETATM   25  O   UNL     1     -11.677   6.203  69.089  1.00  0.00    -0.130 OA 
BRANCH  24  26
HETATM   26  C   UNL     1     -10.845   8.204  68.217  1.00  0.00     0.029 A  
HETATM   27  C   UNL     1     -11.679  10.504  66.773  1.00  0.00     1.344 A  
HETATM   28  C   UNL     1     -11.376   9.302  68.880  1.00  0.00     0.283 A  
HETATM   29  C   UNL     1     -10.595   8.332  66.842  1.00  0.00    -0.302 A  
HETATM   30  C   UNL     1     -11.035   9.443  66.111  1.00  0.00     0.976 A  
HETATM   31  C   UNL     1     -11.822  10.438  68.173  1.00  0.00     0.457 A  
BRANCH  30  32
HETATM   32  O   UNL     1     -10.907   9.526  64.742  1.00  0.00     2.067 OA 
HETATM   33  C   UNL     1      -9.638   9.138  64.218  1.00  0.00     0.818 C  
ENDBRANCH  30  32
BRANCH  27  34
HETATM   34  O   UNL     1     -12.100  11.546  65.980  1.00  0.00    -0.128 OA 
HETATM   35  C   UNL     1     -13.508  11.692  65.809  1.00  0.00     6.905 C  
ENDBRANCH  27  34
BRANCH  31  36
HETATM   36  O   UNL     1     -12.392  11.507  68.820  1.00  0.00    -0.425 OA 
HETATM   37  C   UNL     1     -11.491  12.365  69.514  1.00  0.00    -0.240 C  
ENDBRANCH  31  36
ENDBRANCH  24  26
ENDBRANCH  23  24
ENDBRANCH   3  23
BRANCH   5  38
HETATM   38  O   UNL     1      -8.664   2.987  70.320  1.00  0.00    -0.063 OA 
HETATM   39  C   UNL     1      -7.404   2.387  70.546  1.00  0.00    -0.033 C  
ENDBRANCH   5  38
BRANCH   8  40
HETATM   40  C   UNL     1      -7.587   4.283  67.146  1.00  0.00    -0.077 C  
HETATM   41  O   UNL     1      -8.619   4.536  66.547  1.00  0.00    -0.112 OA 
BRANCH  40  42
HETATM   42  O   UNL     1      -6.473   3.749  66.573  1.00  0.00    -0.035 OA 
HETATM   43  C   UNL     1      -6.529   3.248  65.230  1.00  0.00    -0.035 C  
ENDBRANCH  40  42
ENDBRANCH   8  40
TORSDOF 9
ENDMDL
MODEL      162
REMARK 921   NORMALIZED FREE ENERGY PREDICTED BY IDOCK:    9.27 KCAL/MOL
REMARK 922        TOTAL FREE ENERGY PREDICTED BY IDOCK:   11.51 KCAL/MOL
REMARK 923 INTER-LIGAND FREE ENERGY PREDICTED BY IDOCK:   12.04 KCAL/MOL
REMARK 924 INTRA-LIGAND FREE ENERGY PREDICTED BY IDOCK:   -0.53 KCAL/MOL
REMARK 927      BINDING AFFINITY PREDICTED BY RF-SCORE:    0.00 PKD
ROOT
HETATM    1  C   UNL     1      -9.230  13.247  69.150  1.00  0.00     0.608 C  
HETATM    2  C   UNL     1     -10.112  13.337  67.901  1.00  0.00    -0.235 C  
HETATM    3  C   UNL     1     -11.592  12.828  68.055  1.00  0.00    -0.341 C  
HETATM    4  C   UNL     1      -6.569   7.876  70.385  1.00  0.00    -0.037 A  
HETATM    5  C   UNL     1     -12.216  13.957  68.868  1.00  0.00    -0.222 C  
HETATM    6  C   UNL     1      -5.464   7.030  70.148  1.00  0.00    -0.023 A  
HETATM    7  C   UNL     1      -5.193   5.975  71.034  1.00  0.00    -0.013 A  
HETATM    8  C   UNL     1     -11.528  13.843  70.289  1.00  0.00    -0.122 C  
HETATM    9  C   UNL     1      -6.008   5.770  72.136  1.00  0.00    -0.035 A  
HETATM   10  C   UNL     1      -7.107   6.609  72.400  1.00  0.00    -0.073 A  
HETATM   11  H   UNL     1      -9.076   8.738  72.227  1.00  0.00     0.000 HD 
HETATM   12  C   UNL     1     -10.097  12.988  70.400  1.00  0.00     3.716 C  
HETATM   13  C   UNL     1      -7.366   7.664  71.502  1.00  0.00    -0.071 A  
HETATM   14  N   UNL     1      -8.371   8.625  71.498  1.00  0.00    -0.161 NA 
HETATM   15  C   UNL     1      -8.276   9.402  70.366  1.00  0.00    -0.188 A  
HETATM   16  C   UNL     1      -7.159   8.950  69.673  1.00  0.00    -0.054 A  
HETATM   17  C   UNL     1      -9.871  11.472  70.869  1.00  0.00     5.663 C  
HETATM   18  C   UNL     1      -6.804   9.480  68.334  1.00  0.00    -0.062 C  
HETATM   19  C   UNL     1      -9.312  10.398  69.836  1.00  0.00     0.127 C  
HETATM   20  C   UNL     1      -8.074  10.061  67.699  1.00  0.00    -0.110 C  
HETATM   21  C   UNL     1      -8.132  12.232  68.829  1.00  0.00     0.054 C  
HETATM   22  N   UNL     1      -8.818  10.982  68.579  1.00  0.00    -0.154 NA 
ENDROOT
BRANCH   3  23
HETATM   23  O   UNL     1     -11.874  11.562  68.769  1.00  0.00    -0.314 OA 
BRANCH  23  24
HETATM   24  C   UNL     1     -12.105  10.487  67.944  1.00  0.00     1.310 C  
HETATM   25  O   UNL     1     -12.640  10.593  66.844  1.00  0.00     3.224 OA 
BRANCH  24  26
HETATM   26  C   UNL     1     -11.753   9.102  68.408  1.00  0.00     1.381 A  
HETATM   27  C   UNL     1     -10.482   6.746  69.358  1.00  0.00    -0.217 A  
HETATM   28  C   UNL     1     -12.128   8.535  69.618  1.00  0.00     1.297 A  
HETATM   29  C   UNL     1     -10.845   8.391  67.609  1.00  0.00    -0.078 A  
HETATM   30  C   UNL     1     -10.182   7.250  68.080  1.00  0.00    -0.185 A  
HETATM   31  C   UNL     1     -11.484   7.383  70.116  1.00  0.00    -0.129 A  
BRANCH  30  32
HETATM   32  O   UNL     1      -9.198   6.615  67.355  1.00  0.00    -0.121 OA 
HETATM   33  C   UNL     1      -9.622   6.023  66.127  1.00  0.00    -0.055 C  
ENDBRANCH  30  32
BRANCH  27  34
HETATM   34  O   UNL     1      -9.771   5.637  69.753  1.00  0.00    -0.151 OA 
HETATM   35  C   UNL     1      -9.777   4.522  68.863  1.00  0.00    -0.154 C  
ENDBRANCH  27  34
BRANCH  31  36
HETATM   36  O   UNL     1     -11.818   6.845  71.335  1.00  0.00    -0.291 OA 
HETATM   37  C   UNL     1     -11.845   7.757  72.430  1.00  0.00    -0.321 C  
ENDBRANCH  31  36
ENDBRANCH  24  26
ENDBRANCH  23  24
ENDBRANCH   3  23
BRANCH   5  38
HETATM   38  O   UNL     1     -11.943  15.187  68.167  1.00  0.00    -0.290 OA 
HETATM   39  C   UNL     1     -11.352  16.257  68.878  1.00  0.00    -0.317 C  
ENDBRANCH   5  38
BRANCH   8  40
HETATM   40  C   UNL     1     -12.635  13.507  71.267  1.00  0.00    -0.341 C  
HETATM   41  O   UNL     1     -13.292  12.479  71.248  1.00  0.00    -0.121 OA 
BRANCH  40  42
HETATM   42  O   UNL     1     -12.857  14.548  72.116  1.00  0.00    -0.314 OA 
HETATM   43  C   UNL     1     -12.673  14.372  73.528  1.00  0.00    -0.038 C  
ENDBRANCH  40  42
ENDBRANCH   8  40
TORSDOF 9
ENDMDL
MODEL      163
REMARK 921   NORMALIZED FREE ENERGY PREDICTED BY IDOCK:    9.46 KCAL/MOL
REMARK 922        TOTAL FREE ENERGY PREDICTED BY IDOCK:   11.80 KCAL/MOL
REMARK 923 INTER-LIGAND FREE ENERGY PREDICTED BY IDOCK:   -0.33 KCAL/MOL
REMARK 924 INTRA-LIGAND FREE ENERGY PREDICTED BY IDOCK:   12.14 KCAL/MOL
REMARK 927      BINDING AFFINITY PREDICTED BY RF-SCORE:    0.00 PKD
ROOT
HETATM    1  C   UNL     1      -9.073   6.441  67.688  1.00  0.00    -0.114 C  
HETATM    2  C   UNL     1      -7.656   6.461  68.268  1.00  0.00    -0.103 C  
HETATM    3  C   UNL     1      -7.440   7.342  69.553  1.00  0.00    -0.090 C  
HETATM    4  C   UNL     1     -10.717  11.049  64.012  1.00  0.00    -0.331 A  
HETATM    5  C   UNL     1      -8.121   6.492  70.619  1.00  0.00    -0.113 C  
HETATM    6  C   UNL     1     -10.718  11.559  62.696  1.00  0.00     0.541 A  
HETATM    7  C   UNL     1     -11.607  12.590  62.349  1.00  0.00     2.655 A  
HETATM    8  C   UNL     1      -9.659   6.561  70.252  1.00  0.00    -0.172 C  
HETATM    9  C   UNL     1     -12.479  13.099  63.297  1.00  0.00    -0.252 A  
HETATM   10  C   UNL     1     -12.506  12.597  64.612  1.00  0.00    -0.538 A  
HETATM   11  H   UNL     1     -11.947  11.033  66.996  1.00  0.00     0.000 HD 
HETATM   12  C   UNL     1     -10.075   7.030  68.703  1.00  0.00    -0.168 C  
HETATM   13  C   UNL     1     -11.608  11.562  64.945  1.00  0.00     0.016 A  
HETATM   14  N   UNL     1     -11.400  10.893  66.146  1.00  0.00     0.023 NA 
HETATM   15  C   UNL     1     -10.350  10.013  66.020  1.00  0.00    -0.152 A  
HETATM   16  C   UNL     1      -9.923  10.099  64.700  1.00  0.00    -0.304 A  
HETATM   17  C   UNL     1     -10.533   8.475  68.184  1.00  0.00    -0.236 C  
HETATM   18  C   UNL     1      -8.723   9.371  64.218  1.00  0.00    -0.224 C  
HETATM   19  C   UNL     1      -9.625   9.269  67.145  1.00  0.00    -0.159 C  
HETATM   20  C   UNL     1      -7.828   9.075  65.429  1.00  0.00    -0.101 C  
HETATM   21  C   UNL     1      -8.984   7.108  66.314  1.00  0.00    -0.155 C  
HETATM   22  N   UNL     1      -8.539   8.462  66.566  1.00  0.00    -0.115 NA 
ENDROOT
BRANCH   3  23
HETATM   23  O   UNL     1      -8.025   8.701  69.631  1.00  0.00    -0.092 OA 
BRANCH  23  24
HETATM   24  C   UNL     1      -7.662   9.533  68.598  1.00  0.00    -0.081 C  
HETATM   25  O   UNL     1      -7.273   9.116  67.511  1.00  0.00    -0.079 OA 
BRANCH  24  26
HETATM   26  C   UNL     1      -7.673  11.021  68.803  1.00  0.00    -0.135 A  
HETATM   27  C   UNL     1      -8.160  13.692  69.637  1.00  0.00     1.077 A  
HETATM   28  C   UNL     1      -6.678  11.759  69.428  1.00  0.00    -0.098 A  
HETATM   29  C   UNL     1      -8.861  11.686  68.462  1.00  0.00    -0.131 A  
HETATM   30  C   UNL     1      -9.130  12.989  68.900  1.00  0.00     0.322 A  
HETATM   31  C   UNL     1      -6.916  13.075  69.876  1.00  0.00     0.510 A  
BRANCH  30  32
HETATM   32  O   UNL     1     -10.340  13.608  68.680  1.00  0.00    -0.238 OA 
HETATM   33  C   UNL     1     -10.946  14.201  69.828  1.00  0.00    -0.021 C  
ENDBRANCH  30  32
BRANCH  27  34
HETATM   34  O   UNL     1      -8.511  14.957  70.048  1.00  0.00     0.166 OA 
HETATM   35  C   UNL     1      -8.955  15.859  69.037  1.00  0.00    -0.245 C  
ENDBRANCH  27  34
BRANCH  31  36
HETATM   36  O   UNL     1      -5.951  13.793  70.538  1.00  0.00    -0.166 OA 
HETATM   37  C   UNL     1      -5.163  14.666  69.733  1.00  0.00    -0.092 C  
ENDBRANCH  31  36
ENDBRANCH  24  26
ENDBRANCH  23  24
ENDBRANCH   3  23
BRANCH   5  38
HETATM   38  O   UNL     1      -7.546   5.172  70.542  1.00  0.00    -0.067 OA 
HETATM   39  C   UNL     1      -6.803   4.690  71.644  1.00  0.00    -0.039 C  
ENDBRANCH   5  38
BRANCH   8  40
HETATM   40  C   UNL     1     -10.339   7.259  71.413  1.00  0.00    -0.199 C  
HETATM   41  O   UNL     1     -11.126   8.186  71.303  1.00  0.00    -0.239 OA 
BRANCH  40  42
HETATM   42  O   UNL     1      -9.884   6.770  72.599  1.00  0.00    -0.166 OA 
HETATM   43  C   UNL     1     -10.535   5.645  73.206  1.00  0.00    -0.231 C  
ENDBRANCH  40  42
ENDBRANCH   8  40
TORSDOF 9
ENDMDL
MODEL      164
REMARK 921   NORMALIZED FREE ENERGY PREDICTED BY IDOCK:   10.47 KCAL/MOL
REMARK 922        TOTAL FREE ENERGY PREDICTED BY IDOCK:   13.34 KCAL/MOL
REMARK 923 INTER-LIGAND FREE ENERGY PREDICTED BY IDOCK:   12.34 KCAL/MOL
REMARK 924 INTRA-LIGAND FREE ENERGY PREDICTED BY IDOCK:    1.00 KCAL/MOL
REMARK 927      BINDING AFFINITY PREDICTED BY RF-SCORE:    0.00 PKD
ROOT
HETATM    1  C   UNL     1     -13.256  13.997  69.282  1.00  0.00     1.929 C  
HETATM    2  C   UNL     1     -12.717  12.568  69.163  1.00  0.00     0.929 C  
HETATM    3  C   UNL     1     -11.675  12.123  70.253  1.00  0.00    -0.153 C  
HETATM    4  C   UNL     1      -9.863  18.529  66.957  1.00  0.00    -0.341 A  
HETATM    5  C   UNL     1     -12.573  11.938  71.471  1.00  0.00    -0.193 C  
HETATM    6  C   UNL     1      -9.531  19.277  65.807  1.00  0.00     0.158 A  
HETATM    7  C   UNL     1      -8.887  20.517  65.946  1.00  0.00     0.227 A  
HETATM    8  C   UNL     1     -13.044  13.404  71.838  1.00  0.00    -0.476 C  
HETATM    9  C   UNL     1      -8.581  21.001  67.207  1.00  0.00    -0.013 A  
HETATM   10  C   UNL     1      -8.914  20.278  68.368  1.00  0.00     0.046 A  
HETATM   11  H   UNL     1      -9.938  18.242  70.171  1.00  0.00     0.000 HD 
HETATM   12  C   UNL     1     -12.910  14.586  70.664  1.00  0.00    -0.399 C  
HETATM   13  C   UNL     1      -9.562  19.036  68.213  1.00  0.00    -0.355 A  
HETATM   14  N   UNL     1      -9.990  18.112  69.160  1.00  0.00    -0.265 NA 
HETATM   15  C   UNL     1     -10.494  16.994  68.535  1.00  0.00    -0.373 A  
HETATM   16  C   UNL     1     -10.425  17.245  67.170  1.00  0.00    -0.297 A  
HETATM   17  C   UNL     1     -11.756  15.682  70.475  1.00  0.00    -0.392 C  
HETATM   18  C   UNL     1     -10.778  16.211  66.166  1.00  0.00    -0.222 C  
HETATM   19  C   UNL     1     -10.834  15.647  69.178  1.00  0.00    -0.246 C  
HETATM   20  C   UNL     1     -10.633  14.835  66.830  1.00  0.00    -0.294 C  
HETATM   21  C   UNL     1     -12.755  14.749  68.047  1.00  0.00     1.069 C  
HETATM   22  N   UNL     1     -11.310  14.724  68.135  1.00  0.00    -0.293 NA 
ENDROOT
BRANCH   3  23
HETATM   23  O   UNL     1     -10.577  13.034  70.650  1.00  0.00     2.300 OA 
BRANCH  23  24
HETATM   24  C   UNL     1      -9.409  12.851  69.947  1.00  0.00     2.871 C  
HETATM   25  O   UNL     1      -8.694  13.782  69.588  1.00  0.00     0.856 OA 
BRANCH  24  26
HETATM   26  C   UNL     1      -8.998  11.467  69.533  1.00  0.00     0.881 A  
HETATM   27  C   UNL     1      -8.876   8.751  68.709  1.00  0.00    -0.134 A  
HETATM   28  C   UNL     1      -8.427  11.122  68.317  1.00  0.00    -0.145 A  
HETATM   29  C   UNL     1      -9.367  10.425  70.398  1.00  0.00     0.749 A  
HETATM   30  C   UNL     1      -9.349   9.085  69.991  1.00  0.00    -0.183 A  
HETATM   31  C   UNL     1      -8.387   9.781  67.881  1.00  0.00    -0.114 A  
BRANCH  30  32
HETATM   32  O   UNL     1      -9.825   8.064  70.784  1.00  0.00    -0.182 OA 
HETATM   33  C   UNL     1      -9.749   8.291  72.191  1.00  0.00    -0.274 C  
ENDBRANCH  30  32
BRANCH  27  34
HETATM   34  O   UNL     1      -8.912   7.417  68.379  1.00  0.00    -0.135 OA 
HETATM   35  C   UNL     1      -8.852   7.099  66.990  1.00  0.00    -0.124 C  
ENDBRANCH  27  34
BRANCH  31  36
HETATM   36  O   UNL     1      -7.867   9.439  66.657  1.00  0.00    -0.103 OA 
HETATM   37  C   UNL     1      -8.279  10.247  65.559  1.00  0.00    -0.158 C  
ENDBRANCH  31  36
ENDBRANCH  24  26
ENDBRANCH  23  24
ENDBRANCH   3  23
BRANCH   5  38
HETATM   38  O   UNL     1     -13.638  11.047  71.082  1.00  0.00     0.128 OA 
HETATM   39  C   UNL     1     -13.365   9.664  70.981  1.00  0.00    -0.204 C  
ENDBRANCH   5  38
BRANCH   8  40
HETATM   40  C   UNL     1     -12.475  13.698  73.212  1.00  0.00     1.147 C  
HETATM   41  O   UNL     1     -12.227  12.853  74.057  1.00  0.00     5.406 OA 
BRANCH  40  42
HETATM   42  O   UNL     1     -12.361  15.040  73.406  1.00  0.00    -0.413 OA 
HETATM   43  C   UNL     1     -13.521  15.816  73.740  1.00  0.00     0.124 C  
ENDBRANCH  40  42
ENDBRANCH   8  40
TORSDOF 9
ENDMDL
MODEL      165
REMARK 921   NORMALIZED FREE ENERGY PREDICTED BY IDOCK:   10.97 KCAL/MOL
REMARK 922        TOTAL FREE ENERGY PREDICTED BY IDOCK:   14.11 KCAL/MOL
REMARK 923 INTER-LIGAND FREE ENERGY PREDICTED BY IDOCK:   14.57 KCAL/MOL
REMARK 924 INTRA-LIGAND FREE ENERGY PREDICTED BY IDOCK:   -0.46 KCAL/MOL
REMARK 927      BINDING AFFINITY PREDICTED BY RF-SCORE:    0.00 PKD
ROOT
HETATM    1  C   UNL     1     -12.523   7.426  68.709  1.00  0.00     3.865 C  
HETATM    2  C   UNL     1     -11.376   7.074  67.758  1.00  0.00     0.126 C  
HETATM    3  C   UNL     1      -9.988   6.760  68.425  1.00  0.00    -0.151 C  
HETATM    4  C   UNL     1     -12.907  13.198  70.707  1.00  0.00    -0.169 A  
HETATM    5  C   UNL     1     -10.242   5.376  69.012  1.00  0.00    -0.221 C  
HETATM    6  C   UNL     1     -13.381  14.502  70.448  1.00  0.00     0.110 A  
HETATM    7  C   UNL     1     -13.480  15.428  71.499  1.00  0.00    -0.601 A  
HETATM    8  C   UNL     1     -11.281   5.629  70.179  1.00  0.00    -0.056 C  
HETATM    9  C   UNL     1     -13.117  15.059  72.784  1.00  0.00    -0.549 A  
HETATM   10  C   UNL     1     -12.655  13.760  73.068  1.00  0.00     0.197 A  
HETATM   11  H   UNL     1     -11.859  10.978  72.803  1.00  0.00     0.000 HD 
HETATM   12  C   UNL     1     -12.147   7.058  70.159  1.00  0.00    -0.054 C  
HETATM   13  C   UNL     1     -12.561  12.841  72.003  1.00  0.00     0.128 A  
HETATM   14  N   UNL     1     -12.132  11.518  71.982  1.00  0.00     1.009 NA 
HETATM   15  C   UNL     1     -12.129  11.044  70.690  1.00  0.00    -0.373 A  
HETATM   16  C   UNL     1     -12.614  12.075  69.894  1.00  0.00     0.127 A  
HETATM   17  C   UNL     1     -11.864   8.412  70.969  1.00  0.00    -0.278 C  
HETATM   18  C   UNL     1     -12.648  11.970  68.414  1.00  0.00     1.245 C  
HETATM   19  C   UNL     1     -11.498   9.745  70.181  1.00  0.00    -0.216 C  
HETATM   20  C   UNL     1     -11.608  10.924  67.988  1.00  0.00    -0.215 C  
HETATM   21  C   UNL     1     -12.889   8.883  68.422  1.00  0.00     8.317 C  
HETATM   22  N   UNL     1     -11.700   9.651  68.726  1.00  0.00     0.429 NA 
ENDROOT
BRANCH   3  23
HETATM   23  O   UNL     1      -9.476   7.616  69.520  1.00  0.00    -0.153 OA 
BRANCH  23  24
HETATM   24  C   UNL     1      -8.759   8.709  69.095  1.00  0.00    -0.136 C  
HETATM   25  O   UNL     1      -8.709   9.057  67.919  1.00  0.00    -0.128 OA 
BRANCH  24  26
HETATM   26  C   UNL     1      -7.941   9.492  70.082  1.00  0.00    -0.171 A  
HETATM   27  C   UNL     1      -6.051  10.407  71.995  1.00  0.00     0.930 A  
HETATM   28  C   UNL     1      -7.055  10.514  69.768  1.00  0.00    -0.150 A  
HETATM   29  C   UNL     1      -7.972   9.042  71.411  1.00  0.00    -0.096 A  
HETATM   30  C   UNL     1      -7.022   9.455  72.353  1.00  0.00     0.779 A  
HETATM   31  C   UNL     1      -6.091  10.956  70.698  1.00  0.00    -0.052 A  
BRANCH  30  32
HETATM   32  O   UNL     1      -6.964   8.928  73.625  1.00  0.00    -0.353 OA 
HETATM   33  C   UNL     1      -8.038   9.292  74.492  1.00  0.00     1.474 C  
ENDBRANCH  30  32
BRANCH  27  34
HETATM   34  O   UNL     1      -5.142  10.742  72.972  1.00  0.00    -0.329 OA 
HETATM   35  C   UNL     1      -5.506  11.808  73.846  1.00  0.00     1.059 C  
ENDBRANCH  27  34
BRANCH  31  36
HETATM   36  O   UNL     1      -5.181  11.934  70.378  1.00  0.00    -0.089 OA 
HETATM   37  C   UNL     1      -5.597  12.868  69.385  1.00  0.00    -0.084 C  
ENDBRANCH  31  36
ENDBRANCH  24  26
ENDBRANCH  23  24
ENDBRANCH   3  23
BRANCH   5  38
HETATM   38  O   UNL     1     -10.735   4.544  67.942  1.00  0.00     0.383 OA 
HETATM   39  C   UNL     1     -10.143   4.661  66.663  1.00  0.00    -0.234 C  
ENDBRANCH   5  38
BRANCH   8  40
HETATM   40  C   UNL     1     -10.574   5.243  71.463  1.00  0.00    -0.184 C  
HETATM   41  O   UNL     1      -9.592   4.521  71.526  1.00  0.00    -0.145 OA 
BRANCH  40  42
HETATM   42  O   UNL     1     -11.237   5.740  72.543  1.00  0.00    -0.267 OA 
HETATM   43  C   UNL     1     -10.988   5.198  73.848  1.00  0.00    -0.158 C  
ENDBRANCH  40  42
ENDBRANCH   8  40
TORSDOF 9
ENDMDL
MODEL      166
REMARK 921   NORMALIZED FREE ENERGY PREDICTED BY IDOCK:   12.08 KCAL/MOL
REMARK 922        TOTAL FREE ENERGY PREDICTED BY IDOCK:   15.80 KCAL/MOL
REMARK 923 INTER-LIGAND FREE ENERGY PREDICTED BY IDOCK:   12.06 KCAL/MOL
REMARK 924 INTRA-LIGAND FREE ENERGY PREDICTED BY IDOCK:    3.73 KCAL/MOL
REMARK 927      BINDING AFFINITY PREDICTED BY RF-SCORE:    0.00 PKD
ROOT
HETATM    1  C   UNL     1     -11.936  10.697  66.681  1.00  0.00     2.093 C  
HETATM    2  C   UNL     1     -11.183   9.480  66.136  1.00  0.00     1.541 C  
HETATM    3  C   UNL     1     -10.118   8.832  67.094  1.00  0.00    -0.252 C  
HETATM    4  C   UNL     1      -9.205  16.158  66.275  1.00  0.00    -0.366 A  
HETATM    5  C   UNL     1     -11.013   8.125  68.106  1.00  0.00     0.213 C  
HETATM    6  C   UNL     1      -8.957  17.292  65.470  1.00  0.00     0.789 A  
HETATM    7  C   UNL     1      -8.512  18.484  66.065  1.00  0.00    -0.038 A  
HETATM    8  C   UNL     1     -11.711   9.301  68.902  1.00  0.00     0.878 C  
HETATM    9  C   UNL     1      -8.320  18.544  67.435  1.00  0.00    -0.264 A  
HETATM   10  C   UNL     1      -8.574  17.431  68.259  1.00  0.00    -0.260 A  
HETATM   11  H   UNL     1      -9.328  14.785  69.193  1.00  0.00     0.000 HD 
HETATM   12  C   UNL     1     -11.724  10.819  68.204  1.00  0.00    -0.173 C  
HETATM   13  C   UNL     1      -9.020  16.241  67.648  1.00  0.00    -0.192 A  
HETATM   14  N   UNL     1      -9.330  15.001  68.196  1.00  0.00    -0.184 NA 
HETATM   15  C   UNL     1      -9.640  14.108  67.196  1.00  0.00    -0.244 A  
HETATM   16  C   UNL     1      -9.571  14.817  66.003  1.00  0.00    -0.334 A  
HETATM   17  C   UNL     1     -10.744  12.057  68.482  1.00  0.00    -0.261 C  
HETATM   18  C   UNL     1      -9.734  14.150  64.687  1.00  0.00     0.652 C  
HETATM   19  C   UNL     1      -9.791  12.590  67.324  1.00  0.00    -0.204 C  
HETATM   20  C   UNL     1      -9.401  12.662  64.864  1.00  0.00     0.512 C  
HETATM   21  C   UNL     1     -11.520  11.885  65.811  1.00  0.00    -0.265 C  
HETATM   22  N   UNL     1     -10.091  12.023  65.999  1.00  0.00    -0.224 NA 
ENDROOT
BRANCH   3  23
HETATM   23  O   UNL     1      -9.182   9.690  67.856  1.00  0.00    -0.126 OA 
BRANCH  23  24
HETATM   24  C   UNL     1      -7.854   9.408  67.643  1.00  0.00    -0.095 C  
HETATM   25  O   UNL     1      -7.089  10.185  67.079  1.00  0.00    -0.087 OA 
BRANCH  24  26
HETATM   26  C   UNL     1      -7.303   8.072  68.052  1.00  0.00    -0.096 A  
HETATM   27  C   UNL     1      -6.895   5.410  68.957  1.00  0.00    -0.055 A  
HETATM   28  C   UNL     1      -6.818   7.098  67.190  1.00  0.00    -0.076 A  
HETATM   29  C   UNL     1      -7.433   7.735  69.408  1.00  0.00    -0.088 A  
HETATM   30  C   UNL     1      -7.273   6.419  69.861  1.00  0.00    -0.074 A  
HETATM   31  C   UNL     1      -6.641   5.766  67.618  1.00  0.00    -0.053 A  
BRANCH  30  32
HETATM   32  O   UNL     1      -7.520   6.050  71.165  1.00  0.00    -0.081 OA 
HETATM   33  C   UNL     1      -8.000   7.089  72.018  1.00  0.00    -0.094 C  
ENDBRANCH  30  32
BRANCH  27  34
HETATM   34  O   UNL     1      -6.781   4.142  69.478  1.00  0.00    -0.039 OA 
HETATM   35  C   UNL     1      -7.997   3.478  69.815  1.00  0.00    -0.049 C  
ENDBRANCH  27  34
BRANCH  31  36
HETATM   36  O   UNL     1      -6.207   4.787  66.756  1.00  0.00    -0.030 OA 
HETATM   37  C   UNL     1      -5.379   3.779  67.328  1.00  0.00    -0.012 C  
ENDBRANCH  31  36
ENDBRANCH  24  26
ENDBRANCH  23  24
ENDBRANCH   3  23
BRANCH   5  38
HETATM   38  O   UNL     1     -11.919   7.287  67.359  1.00  0.00     1.504 OA 
HETATM   39  C   UNL     1     -12.277   7.674  66.048  1.00  0.00     9.260 C  
ENDBRANCH   5  38
BRANCH   8  40
HETATM   40  C   UNL     1     -11.233   9.181  70.335  1.00  0.00    -0.240 C  
HETATM   41  O   UNL     1     -11.082   8.127  70.932  1.00  0.00    -0.249 OA 
BRANCH  40  42
HETATM   42  O   UNL     1     -11.080  10.413  70.894  1.00  0.00    -0.264 OA 
HETATM   43  C   UNL     1     -12.200  11.305  70.978  1.00  0.00    -0.311 C  
ENDBRANCH  40  42
ENDBRANCH   8  40
TORSDOF 9
ENDMDL
MODEL      167
REMARK 921   NORMALIZED FREE ENERGY PREDICTED BY IDOCK:   12.76 KCAL/MOL
REMARK 922        TOTAL FREE ENERGY PREDICTED BY IDOCK:   16.84 KCAL/MOL
REMARK 923 INTER-LIGAND FREE ENERGY PREDICTED BY IDOCK:   11.78 KCAL/MOL
REMARK 924 INTRA-LIGAND FREE ENERGY PREDICTED BY IDOCK:    5.05 KCAL/MOL
REMARK 927      BINDING AFFINITY PREDICTED BY RF-SCORE:    0.00 PKD
ROOT
HETATM    1  C   UNL     1      -5.785  16.267  68.796  1.00  0.00    -0.110 C  
HETATM    2  C   UNL     1      -6.420  17.646  68.997  1.00  0.00    -0.228 C  
HETATM    3  C   UNL     1      -7.304  17.826  70.285  1.00  0.00     1.985 C  
HETATM    4  C   UNL     1      -9.223  11.885  66.260  1.00  0.00    -0.218 A  
HETATM    5  C   UNL     1      -6.240  17.894  71.374  1.00  0.00     1.923 C  
HETATM    6  C   UNL     1      -9.686  11.300  65.061  1.00  0.00    -0.293 A  
HETATM    7  C   UNL     1     -10.226  10.004  65.083  1.00  0.00    -0.146 A  
HETATM    8  C   UNL     1      -5.631  16.433  71.418  1.00  0.00     0.446 C  
HETATM    9  C   UNL     1     -10.302   9.305  66.276  1.00  0.00    -0.192 A  
HETATM   10  C   UNL     1      -9.835   9.863  67.481  1.00  0.00    -0.209 A  
HETATM   11  H   UNL     1      -8.666  11.671  69.432  1.00  0.00     0.000 HD 
HETATM   12  C   UNL     1      -5.876  15.442  70.096  1.00  0.00    -0.143 C  
HETATM   13  C   UNL     1      -9.295  11.165  67.444  1.00  0.00    -0.164 A  
HETATM   14  N   UNL     1      -8.780  11.962  68.461  1.00  0.00    -0.145 NA 
HETATM   15  C   UNL     1      -8.447  13.202  67.965  1.00  0.00    -0.181 A  
HETATM   16  C   UNL     1      -8.713  13.162  66.601  1.00  0.00    -0.018 A  
HETATM   17  C   UNL     1      -6.978  14.296  69.894  1.00  0.00     0.041 C  
HETATM   18  C   UNL     1      -8.583  14.367  65.744  1.00  0.00     1.429 C  
HETATM   19  C   UNL     1      -8.091  14.456  68.768  1.00  0.00    -0.127 C  
HETATM   20  C   UNL     1      -8.704  15.605  66.643  1.00  0.00    -0.298 C  
HETATM   21  C   UNL     1      -6.427  15.678  67.538  1.00  0.00    -0.170 C  
HETATM   22  N   UNL     1      -7.839  15.568  67.837  1.00  0.00    -0.126 NA 
ENDROOT
BRANCH   3  23
HETATM   23  O   UNL     1      -8.271  16.776  70.677  1.00  0.00     3.093 OA 
BRANCH  23  24
HETATM   24  C   UNL     1      -9.271  16.556  69.760  1.00  0.00     0.551 C  
HETATM   25  O   UNL     1      -9.354  17.176  68.703  1.00  0.00    -0.259 OA 
BRANCH  24  26
HETATM   26  C   UNL     1     -10.358  15.566  70.066  1.00  0.00    -0.315 A  
HETATM   27  C   UNL     1     -12.760  14.238  70.798  1.00  0.00    -0.350 A  
HETATM   28  C   UNL     1     -11.080  14.841  69.128  1.00  0.00    -0.278 A  
HETATM   29  C   UNL     1     -10.770  15.489  71.405  1.00  0.00     0.169 A  
HETATM   30  C   UNL     1     -11.971  14.872  71.775  1.00  0.00    -0.367 A  
HETATM   31  C   UNL     1     -12.291  14.203  69.470  1.00  0.00    -0.231 A  
BRANCH  30  32
HETATM   32  O   UNL     1     -12.449  14.897  73.067  1.00  0.00    -0.372 OA 
HETATM   33  C   UNL     1     -11.479  15.175  74.077  1.00  0.00     0.709 C  
ENDBRANCH  30  32
BRANCH  27  34
HETATM   34  O   UNL     1     -13.935  13.675  71.241  1.00  0.00    -0.050 OA 
HETATM   35  C   UNL     1     -13.824  12.672  72.247  1.00  0.00    -0.218 C  
ENDBRANCH  27  34
BRANCH  31  36
HETATM   36  O   UNL     1     -13.034  13.525  68.536  1.00  0.00     1.093 OA 
HETATM   37  C   UNL     1     -12.541  12.242  68.162  1.00  0.00     1.400 C  
ENDBRANCH  31  36
ENDBRANCH  24  26
ENDBRANCH  23  24
ENDBRANCH   3  23
BRANCH   5  38
HETATM   38  O   UNL     1      -5.303  18.921  70.990  1.00  0.00    -0.250 OA 
HETATM   39  C   UNL     1      -5.340  20.162  71.666  1.00  0.00    -0.402 C  
ENDBRANCH   5  38
BRANCH   8  40
HETATM   40  C   UNL     1      -5.961  15.882  72.791  1.00  0.00     2.068 C  
HETATM   41  O   UNL     1      -5.917  16.525  73.828  1.00  0.00     2.607 OA 
BRANCH  40  42
HETATM   42  O   UNL     1      -6.225  14.549  72.721  1.00  0.00     0.225 OA 
HETATM   43  C   UNL     1      -5.175  13.598  72.945  1.00  0.00    -0.098 C  
ENDBRANCH  40  42
ENDBRANCH   8  40
TORSDOF 9
ENDMDL
MODEL      168
REMARK 921   NORMALIZED FREE ENERGY PREDICTED BY IDOCK:   12.85 KCAL/MOL
REMARK 922        TOTAL FREE ENERGY PREDICTED BY IDOCK:   16.97 KCAL/MOL
REMARK 923 INTER-LIGAND FREE ENERGY PREDICTED BY IDOCK:    3.12 KCAL/MOL
REMARK 924 INTRA-LIGAND FREE ENERGY PREDICTED BY IDOCK:   13.86 KCAL/MOL
REMARK 927      BINDING AFFINITY PREDICTED BY RF-SCORE:    0.00 PKD
ROOT
HETATM    1  C   UNL     1      -5.985  11.138  66.555  1.00  0.00    -0.143 C  
HETATM    2  C   UNL     1      -5.806  10.364  67.864  1.00  0.00    -0.044 C  
HETATM    3  C   UNL     1      -7.121   9.841  68.550  1.00  0.00    -0.068 C  
HETATM    4  C   UNL     1      -7.383  17.084  66.922  1.00  0.00    -0.244 A  
HETATM    5  C   UNL     1      -7.497   8.680  67.637  1.00  0.00    -0.090 C  
HETATM    6  C   UNL     1      -6.893  18.401  67.057  1.00  0.00    -0.207 A  
HETATM    7  C   UNL     1      -7.712  19.488  66.711  1.00  0.00    -0.277 A  
HETATM    8  C   UNL     1      -7.916   9.371  66.276  1.00  0.00    -0.111 C  
HETATM    9  C   UNL     1      -8.995  19.265  66.239  1.00  0.00    -0.347 A  
HETATM   10  C   UNL     1      -9.501  17.961  66.083  1.00  0.00    -0.169 A  
HETATM   11  H   UNL     1      -9.744  15.066  66.042  1.00  0.00     0.000 HD 
HETATM   12  C   UNL     1      -7.413  10.942  66.007  1.00  0.00    -0.086 C  
HETATM   13  C   UNL     1      -8.667  16.880  66.433  1.00  0.00    -0.286 A  
HETATM   14  N   UNL     1      -8.897  15.509  66.401  1.00  0.00    -0.311 NA 
HETATM   15  C   UNL     1      -7.817  14.836  66.924  1.00  0.00     0.080 A  
HETATM   16  C   UNL     1      -6.872  15.803  67.245  1.00  0.00    -0.220 A  
HETATM   17  C   UNL     1      -8.230  12.304  66.221  1.00  0.00     0.341 C  
HETATM   18  C   UNL     1      -5.608  15.459  67.944  1.00  0.00    -0.148 C  
HETATM   19  C   UNL     1      -7.746  13.357  67.312  1.00  0.00    -0.079 C  
HETATM   20  C   UNL     1      -5.824  14.137  68.692  1.00  0.00    -0.086 C  
HETATM   21  C   UNL     1      -5.526  12.570  66.836  1.00  0.00     0.291 C  
HETATM   22  N   UNL     1      -6.413  13.068  67.866  1.00  0.00    -0.112 NA 
ENDROOT
BRANCH   3  23
HETATM   23  O   UNL     1      -8.307  10.722  68.654  1.00  0.00    -0.126 OA 
BRANCH  23  24
HETATM   24  C   UNL     1      -8.041  11.972  69.160  1.00  0.00     0.348 C  
HETATM   25  O   UNL     1      -6.932  12.302  69.572  1.00  0.00    -0.008 OA 
BRANCH  24  26
HETATM   26  C   UNL     1      -9.150  12.977  69.285  1.00  0.00     0.932 A  
HETATM   27  C   UNL     1     -11.203  14.732  70.165  1.00  0.00    -0.214 A  
HETATM   28  C   UNL     1      -9.018  14.351  69.137  1.00  0.00     0.094 A  
HETATM   29  C   UNL     1     -10.385  12.486  69.736  1.00  0.00     1.149 A  
HETATM   30  C   UNL     1     -11.391  13.339  70.209  1.00  0.00     0.297 A  
HETATM   31  C   UNL     1     -10.015  15.235  69.598  1.00  0.00    -0.228 A  
BRANCH  30  32
HETATM   32  O   UNL     1     -12.557  12.867  70.770  1.00  0.00    -0.312 OA 
HETATM   33  C   UNL     1     -12.802  11.471  70.598  1.00  0.00    -0.067 C  
ENDBRANCH  30  32
BRANCH  27  34
HETATM   34  O   UNL     1     -12.228  15.497  70.670  1.00  0.00    -0.344 OA 
HETATM   35  C   UNL     1     -13.361  15.688  69.825  1.00  0.00     1.103 C  
ENDBRANCH  27  34
BRANCH  31  36
HETATM   36  O   UNL     1      -9.869  16.597  69.498  1.00  0.00    -0.171 OA 
HETATM   37  C   UNL     1      -8.799  17.163  70.251  1.00  0.00     2.830 C  
ENDBRANCH  31  36
ENDBRANCH  24  26
ENDBRANCH  23  24
ENDBRANCH   3  23
BRANCH   5  38
HETATM   38  O   UNL     1      -6.340   7.823  67.541  1.00  0.00    -0.051 OA 
HETATM   39  C   UNL     1      -5.923   7.385  66.264  1.00  0.00    -0.037 C  
ENDBRANCH   5  38
BRANCH   8  40
HETATM   40  C   UNL     1      -9.384   9.049  66.075  1.00  0.00    -0.242 C  
HETATM   41  O   UNL     1      -9.861   8.592  65.049  1.00  0.00     0.648 OA 
BRANCH  40  42
HETATM   42  O   UNL     1     -10.109   9.422  67.165  1.00  0.00    -0.198 OA 
HETATM   43  C   UNL     1     -10.893   8.450  67.870  1.00  0.00     0.032 C  
ENDBRANCH  40  42
ENDBRANCH   8  40
TORSDOF 9
ENDMDL
MODEL      169
REMARK 921   NORMALIZED FREE ENERGY PREDICTED BY IDOCK:   13.30 KCAL/MOL
REMARK 922        TOTAL FREE ENERGY PREDICTED BY IDOCK:   17.66 KCAL/MOL
REMARK 923 INTER-LIGAND FREE ENERGY PREDICTED BY IDOCK:   -2.91 KCAL/MOL
REMARK 924 INTRA-LIGAND FREE ENERGY PREDICTED BY IDOCK:   20.56 KCAL/MOL
REMARK 927      BINDING AFFINITY PREDICTED BY RF-SCORE:    0.00 PKD
ROOT
HETATM    1  C   UNL     1      -9.932   5.120  69.752  1.00  0.00    -0.313 C  
HETATM    2  C   UNL     1      -9.084   4.729  70.966  1.00  0.00    -0.177 C  
HETATM    3  C   UNL     1      -8.547   5.912  71.852  1.00  0.00    -0.137 C  
HETATM    4  C   UNL     1      -7.002   6.757  64.635  1.00  0.00    -0.055 A  
HETATM    5  C   UNL     1      -9.815   6.347  72.577  1.00  0.00    -0.166 C  
HETATM    6  C   UNL     1      -6.386   6.320  63.442  1.00  0.00    -0.026 A  
HETATM    7  C   UNL     1      -6.167   7.232  62.397  1.00  0.00    -0.053 A  
HETATM    8  C   UNL     1     -10.719   6.979  71.442  1.00  0.00    -0.241 C  
HETATM    9  C   UNL     1      -6.557   8.553  62.538  1.00  0.00    -0.091 A  
HETATM   10  C   UNL     1      -7.186   9.009  63.713  1.00  0.00    -0.096 A  
HETATM   11  H   UNL     1      -8.394   9.108  66.353  1.00  0.00     0.000 HD 
HETATM   12  C   UNL     1     -10.364   6.597  69.854  1.00  0.00    -0.232 C  
HETATM   13  C   UNL     1      -7.400   8.082  64.753  1.00  0.00    -0.082 A  
HETATM   14  N   UNL     1      -7.972   8.245  66.010  1.00  0.00    -0.095 NA 
HETATM   15  C   UNL     1      -7.885   7.072  66.724  1.00  0.00    -0.107 A  
HETATM   16  C   UNL     1      -7.291   6.142  65.878  1.00  0.00    -0.080 A  
HETATM   17  C   UNL     1      -9.526   7.446  68.784  1.00  0.00    -0.143 C  
HETATM   18  C   UNL     1      -6.928   4.781  66.345  1.00  0.00    -0.067 C  
HETATM   19  C   UNL     1      -8.153   6.874  68.218  1.00  0.00    -0.119 C  
HETATM   20  C   UNL     1      -6.775   4.827  67.872  1.00  0.00    -0.054 C  
HETATM   21  C   UNL     1      -9.132   4.701  68.517  1.00  0.00    -0.120 C  
HETATM   22  N   UNL     1      -7.905   5.467  68.569  1.00  0.00    -0.087 NA 
ENDROOT
BRANCH   3  23
HETATM   23  O   UNL     1      -7.969   7.117  71.213  1.00  0.00    -0.100 OA 
BRANCH  23  24
HETATM   24  C   UNL     1      -8.635   8.284  71.500  1.00  0.00    -0.155 C  
HETATM   25  O   UNL     1      -9.444   8.382  72.419  1.00  0.00    -0.252 OA 
BRANCH  24  26
HETATM   26  C   UNL     1      -8.432   9.492  70.631  1.00  0.00    -0.166 A  
HETATM   27  C   UNL     1      -8.142  11.341  68.494  1.00  0.00    -0.148 A  
HETATM   28  C   UNL     1      -9.332  10.537  70.473  1.00  0.00     1.308 A  
HETATM   29  C   UNL     1      -7.300   9.476  69.800  1.00  0.00    -0.092 A  
HETATM   30  C   UNL     1      -7.164  10.356  68.720  1.00  0.00    -0.085 A  
HETATM   31  C   UNL     1      -9.218  11.443  69.398  1.00  0.00     0.527 A  
BRANCH  30  32
HETATM   32  O   UNL     1      -6.122  10.271  67.823  1.00  0.00    -0.055 OA 
HETATM   33  C   UNL     1      -5.288   9.120  67.955  1.00  0.00    -0.034 C  
ENDBRANCH  30  32
BRANCH  27  34
HETATM   34  O   UNL     1      -7.945  12.151  67.399  1.00  0.00    -0.150 OA 
HETATM   35  C   UNL     1      -7.678  11.497  66.161  1.00  0.00     0.154 C  
ENDBRANCH  27  34
BRANCH  31  36
HETATM   36  O   UNL     1     -10.133  12.450  69.209  1.00  0.00     0.198 OA 
HETATM   37  C   UNL     1     -11.503  12.071  69.308  1.00  0.00    -0.301 C  
ENDBRANCH  31  36
ENDBRANCH  24  26
ENDBRANCH  23  24
ENDBRANCH   3  23
BRANCH   5  38
HETATM   38  O   UNL     1     -10.372   5.172  73.201  1.00  0.00    -0.173 OA 
HETATM   39  C   UNL     1      -9.661   4.564  74.260  1.00  0.00    -0.123 C  
ENDBRANCH   5  38
BRANCH   8  40
HETATM   40  C   UNL     1     -10.885   8.442  71.802  1.00  0.00    -0.284 C  
HETATM   41  O   UNL     1     -10.311   9.001  72.722  1.00  0.00     0.267 OA 
BRANCH  40  42
HETATM   42  O   UNL     1     -11.830   9.025  71.013  1.00  0.00    -0.283 OA 
HETATM   43  C   UNL     1     -12.920   9.739  71.612  1.00  0.00    -0.419 C  
ENDBRANCH  40  42
ENDBRANCH   8  40
TORSDOF 9
ENDMDL
MODEL      170
REMARK 921   NORMALIZED FREE ENERGY PREDICTED BY IDOCK:   13.41 KCAL/MOL
REMARK 922        TOTAL FREE ENERGY PREDICTED BY IDOCK:   17.83 KCAL/MOL
REMARK 923 INTER-LIGAND FREE ENERGY PREDICTED BY IDOCK:   11.97 KCAL/MOL
REMARK 924 INTRA-LIGAND FREE ENERGY PREDICTED BY IDOCK:    5.86 KCAL/MOL
REMARK 927      BINDING AFFINITY PREDICTED BY RF-SCORE:    0.00 PKD
ROOT
HETATM    1  C   UNL     1     -10.255  15.887  67.739  1.00  0.00    -0.260 C  
HETATM    2  C   UNL     1     -11.620  15.881  68.434  1.00  0.00    -0.317 C  
HETATM    3  C   UNL     1     -11.726  15.039  69.757  1.00  0.00    -0.307 C  
HETATM    4  C   UNL     1      -8.896  11.173  64.080  1.00  0.00     0.111 A  
HETATM    5  C   UNL     1     -10.964  15.922  70.738  1.00  0.00    -0.241 C  
HETATM    6  C   UNL     1      -9.001  10.623  62.784  1.00  0.00    -0.290 A  
HETATM    7  C   UNL     1      -8.138   9.584  62.398  1.00  0.00    -0.139 A  
HETATM    8  C   UNL     1      -9.461  15.846  70.248  1.00  0.00     0.730 C  
HETATM    9  C   UNL     1      -7.190   9.105  63.286  1.00  0.00    -0.091 A  
HETATM   10  C   UNL     1      -7.058   9.647  64.579  1.00  0.00    -0.121 A  
HETATM   11  H   UNL     1      -7.427  11.281  66.952  1.00  0.00     0.000 HD 
HETATM   12  C   UNL     1      -9.171  15.331  68.685  1.00  0.00    -0.201 C  
HETATM   13  C   UNL     1      -7.930  10.690  64.953  1.00  0.00     0.012 A  
HETATM   14  N   UNL     1      -8.042  11.395  66.146  1.00  0.00    -0.075 NA 
HETATM   15  C   UNL     1      -9.103  12.268  66.080  1.00  0.00    -0.074 A  
HETATM   16  C   UNL     1      -9.636  12.142  64.803  1.00  0.00     0.026 A  
HETATM   17  C   UNL     1      -8.751  13.871  68.174  1.00  0.00    -0.182 C  
HETATM   18  C   UNL     1     -10.874  12.852  64.399  1.00  0.00    -0.404 C  
HETATM   19  C   UNL     1      -9.737  13.044  67.238  1.00  0.00    -0.225 C  
HETATM   20  C   UNL     1     -11.669  13.183  65.669  1.00  0.00    -0.364 C  
HETATM   21  C   UNL     1     -10.453  15.179  66.397  1.00  0.00    -0.297 C  
HETATM   22  N   UNL     1     -10.870  13.832  66.725  1.00  0.00    -0.283 NA 
ENDROOT
BRANCH   3  23
HETATM   23  O   UNL     1     -11.131  13.685  69.828  1.00  0.00    -0.098 OA 
BRANCH  23  24
HETATM   24  C   UNL     1     -11.956  12.680  69.382  1.00  0.00    -0.260 C  
HETATM   25  O   UNL     1     -13.012  12.897  68.794  1.00  0.00     1.166 OA 
BRANCH  24  26
HETATM   26  C   UNL     1     -11.607  11.248  69.668  1.00  0.00    -0.401 A  
HETATM   27  C   UNL     1     -11.377   8.417  69.719  1.00  0.00     0.143 A  
HETATM   28  C   UNL     1     -10.404  10.630  69.357  1.00  0.00    -0.234 A  
HETATM   29  C   UNL     1     -12.647  10.440  70.154  1.00  0.00    -0.197 A  
HETATM   30  C   UNL     1     -12.562   9.042  70.148  1.00  0.00     0.923 A  
HETATM   31  C   UNL     1     -10.284   9.225  69.348  1.00  0.00    -0.210 A  
BRANCH  30  32
HETATM   32  O   UNL     1     -13.620   8.235  70.503  1.00  0.00     0.645 OA 
HETATM   33  C   UNL     1     -13.430   7.457  71.685  1.00  0.00    -0.366 C  
ENDBRANCH  30  32
BRANCH  27  34
HETATM   34  O   UNL     1     -11.383   7.041  69.722  1.00  0.00    -0.249 OA 
HETATM   35  C   UNL     1     -10.132   6.395  69.499  1.00  0.00    -0.170 C  
ENDBRANCH  27  34
BRANCH  31  36
HETATM   36  O   UNL     1      -9.110   8.607  68.994  1.00  0.00    -0.144 OA 
HETATM   37  C   UNL     1      -8.255   9.348  68.127  1.00  0.00    -0.118 C  
ENDBRANCH  31  36
ENDBRANCH  24  26
ENDBRANCH  23  24
ENDBRANCH   3  23
BRANCH   5  38
HETATM   38  O   UNL     1     -11.549  17.238  70.669  1.00  0.00     1.083 OA 
HETATM   39  C   UNL     1     -10.692  18.362  70.625  1.00  0.00     2.437 C  
ENDBRANCH   5  38
BRANCH   8  40
HETATM   40  C   UNL     1      -8.685  15.184  71.370  1.00  0.00     3.943 C  
HETATM   41  O   UNL     1      -7.528  14.805  71.286  1.00  0.00     1.451 OA 
BRANCH  40  42
HETATM   42  O   UNL     1      -9.484  14.991  72.456  1.00  0.00     4.198 OA 
HETATM   43  C   UNL     1     -10.889  14.765  72.279  1.00  0.00     1.419 C  
ENDBRANCH  40  42
ENDBRANCH   8  40
TORSDOF 9
ENDMDL
MODEL      171
REMARK 921   NORMALIZED FREE ENERGY PREDICTED BY IDOCK:   17.24 KCAL/MOL
REMARK 922        TOTAL FREE ENERGY PREDICTED BY IDOCK:   23.67 KCAL/MOL
REMARK 923 INTER-LIGAND FREE ENERGY PREDICTED BY IDOCK:    4.62 KCAL/MOL
REMARK 924 INTRA-LIGAND FREE ENERGY PREDICTED BY IDOCK:   19.05 KCAL/MOL
REMARK 927      BINDING AFFINITY PREDICTED BY RF-SCORE:    0.00 PKD
ROOT
HETATM    1  C   UNL     1     -10.548  12.095  69.495  1.00  0.00     0.285 C  
HETATM    2  C   UNL     1      -9.298  12.881  69.902  1.00  0.00     2.833 C  
HETATM    3  C   UNL     1      -8.462  13.517  68.732  1.00  0.00     0.079 C  
HETATM    4  C   UNL     1      -9.814   6.282  67.727  1.00  0.00    -0.130 A  
HETATM    5  C   UNL     1      -9.354  14.684  68.324  1.00  0.00    -0.199 C  
HETATM    6  C   UNL     1      -9.703   4.935  68.135  1.00  0.00    -0.202 A  
HETATM    7  C   UNL     1      -9.905   3.906  67.199  1.00  0.00    -0.094 A  
HETATM    8  C   UNL     1     -10.625  13.998  67.678  1.00  0.00    -0.249 C  
HETATM    9  C   UNL     1     -10.212   4.216  65.885  1.00  0.00    -0.124 A  
HETATM   10  C   UNL     1     -10.341   5.552  65.459  1.00  0.00     0.442 A  
HETATM   11  H   UNL     1     -10.440   8.455  65.424  1.00  0.00     0.000 HD 
HETATM   12  C   UNL     1     -10.908  12.388  68.024  1.00  0.00    -0.251 C  
HETATM   13  C   UNL     1     -10.136   6.574  66.409  1.00  0.00     0.005 A  
HETATM   14  N   UNL     1     -10.181   7.957  66.277  1.00  0.00     0.004 NA 
HETATM   15  C   UNL     1      -9.825   8.556  67.463  1.00  0.00    -0.177 A  
HETATM   16  C   UNL     1      -9.601   7.527  68.370  1.00  0.00    -0.152 A  
HETATM   17  C   UNL     1     -10.548  11.097  67.146  1.00  0.00    -0.286 C  
HETATM   18  C   UNL     1      -9.085   7.788  69.736  1.00  0.00    -0.147 C  
HETATM   19  C   UNL     1      -9.497  10.034  67.693  1.00  0.00    -0.144 C  
HETATM   20  C   UNL     1      -8.357   9.138  69.720  1.00  0.00    -0.136 C  
HETATM   21  C   UNL     1     -10.284  10.638  69.881  1.00  0.00     0.039 C  
HETATM   22  N   UNL     1      -9.132  10.231  69.105  1.00  0.00    -0.182 NA 
ENDROOT
BRANCH   3  23
HETATM   23  O   UNL     1      -8.175  12.732  67.509  1.00  0.00    -0.157 OA 
BRANCH  23  24
HETATM   24  C   UNL     1      -7.585  11.513  67.745  1.00  0.00    -0.111 C  
HETATM   25  O   UNL     1      -7.694  10.560  66.979  1.00  0.00    -0.105 OA 
BRANCH  24  26
HETATM   26  C   UNL     1      -6.819  11.290  69.018  1.00  0.00    -0.099 A  
HETATM   27  C   UNL     1      -5.934  11.077  71.709  1.00  0.00     1.014 A  
HETATM   28  C   UNL     1      -6.488  10.055  69.558  1.00  0.00    -0.051 A  
HETATM   29  C   UNL     1      -6.555  12.431  69.791  1.00  0.00     0.044 A  
HETATM   30  C   UNL     1      -6.155  12.340  71.130  1.00  0.00     0.883 A  
HETATM   31  C   UNL     1      -6.077   9.931  70.901  1.00  0.00    -0.082 A  
BRANCH  30  32
HETATM   32  O   UNL     1      -6.013  13.447  71.937  1.00  0.00    -0.269 OA 
HETATM   33  C   UNL     1      -5.604  13.183  73.279  1.00  0.00     0.690 C  
ENDBRANCH  30  32
BRANCH  27  34
HETATM   34  O   UNL     1      -5.566  11.074  73.034  1.00  0.00     0.226 OA 
HETATM   35  C   UNL     1      -6.585  10.759  73.980  1.00  0.00     3.426 C  
ENDBRANCH  27  34
BRANCH  31  36
HETATM   36  O   UNL     1      -5.795   8.707  71.455  1.00  0.00    -0.036 OA 
HETATM   37  C   UNL     1      -6.832   8.126  72.240  1.00  0.00    -0.083 C  
ENDBRANCH  31  36
ENDBRANCH  24  26
ENDBRANCH  23  24
ENDBRANCH   3  23
BRANCH   5  38
HETATM   38  O   UNL     1      -9.627  15.447  69.516  1.00  0.00    -0.255 OA 
HETATM   39  C   UNL     1     -10.958  15.844  69.779  1.00  0.00    -0.328 C  
ENDBRANCH   5  38
BRANCH   8  40
HETATM   40  C   UNL     1     -10.642  14.427  66.224  1.00  0.00    -0.292 C  
HETATM   41  O   UNL     1     -10.505  15.576  65.836  1.00  0.00    -0.304 OA 
BRANCH  40  42
HETATM   42  O   UNL     1     -10.919  13.367  65.415  1.00  0.00    -0.280 OA 
HETATM   43  C   UNL     1     -11.827  13.525  64.316  1.00  0.00    -0.428 C  
ENDBRANCH  40  42
ENDBRANCH   8  40
TORSDOF 9
ENDMDL
MODEL      172
REMARK 921   NORMALIZED FREE ENERGY PREDICTED BY IDOCK:   17.78 KCAL/MOL
REMARK 922        TOTAL FREE ENERGY PREDICTED BY IDOCK:   24.51 KCAL/MOL
REMARK 923 INTER-LIGAND FREE ENERGY PREDICTED BY IDOCK:   25.08 KCAL/MOL
REMARK 924 INTRA-LIGAND FREE ENERGY PREDICTED BY IDOCK:   -0.57 KCAL/MOL
REMARK 927      BINDING AFFINITY PREDICTED BY RF-SCORE:    0.00 PKD
ROOT
HETATM    1  C   UNL     1      -8.300  10.996  69.269  1.00  0.00     0.033 C  
HETATM    2  C   UNL     1      -8.901  10.903  70.675  1.00  0.00     3.164 C  
HETATM    3  C   UNL     1     -10.407  11.329  70.820  1.00  0.00     2.884 C  
HETATM    4  C   UNL     1      -6.262  16.454  67.395  1.00  0.00    -0.200 A  
HETATM    5  C   UNL     1     -11.119  10.143  70.178  1.00  0.00    -0.315 C  
HETATM    6  C   UNL     1      -5.183  17.364  67.380  1.00  0.00    -0.139 A  
HETATM    7  C   UNL     1      -5.161  18.402  66.434  1.00  0.00    -0.169 A  
HETATM    8  C   UNL     1     -10.745  10.245  68.643  1.00  0.00    -0.255 C  
HETATM    9  C   UNL     1      -6.194  18.529  65.521  1.00  0.00    -0.306 A  
HETATM   10  C   UNL     1      -7.274  17.626  65.508  1.00  0.00     0.373 A  
HETATM   11  H   UNL     1      -9.040  15.404  66.130  1.00  0.00     0.000 HD 
HETATM   12  C   UNL     1      -9.418  11.169  68.220  1.00  0.00    -0.182 C  
HETATM   13  C   UNL     1      -7.283  16.588  66.463  1.00  0.00    -0.152 A  
HETATM   14  N   UNL     1      -8.208  15.577  66.695  1.00  0.00    -0.250 NA 
HETATM   15  C   UNL     1      -7.839  14.843  67.799  1.00  0.00    -0.152 A  
HETATM   16  C   UNL     1      -6.631  15.376  68.236  1.00  0.00    -0.125 A  
HETATM   17  C   UNL     1      -9.381  12.678  67.682  1.00  0.00    -0.190 C  
HETATM   18  C   UNL     1      -5.978  14.909  69.485  1.00  0.00    -0.107 C  
HETATM   19  C   UNL     1      -8.685  13.814  68.553  1.00  0.00    -0.118 C  
HETATM   20  C   UNL     1      -7.056  14.284  70.380  1.00  0.00     0.472 C  
HETATM   21  C   UNL     1      -7.220  12.077  69.334  1.00  0.00     0.154 C  
HETATM   22  N   UNL     1      -7.910  13.298  69.693  1.00  0.00     0.879 NA 
ENDROOT
BRANCH   3  23
HETATM   23  O   UNL     1     -10.902  12.555  70.152  1.00  0.00     0.626 OA 
BRANCH  23  24
HETATM   24  C   UNL     1     -10.818  13.690  70.922  1.00  0.00     2.305 C  
HETATM   25  O   UNL     1     -10.675  13.661  72.141  1.00  0.00     4.613 OA 
BRANCH  24  26
HETATM   26  C   UNL     1     -10.967  15.039  70.278  1.00  0.00    -0.238 A  
HETATM   27  C   UNL     1     -10.637  17.465  68.837  1.00  0.00    -0.243 A  
HETATM   28  C   UNL     1     -11.777  15.331  69.189  1.00  0.00    -0.355 A  
HETATM   29  C   UNL     1     -10.096  16.043  70.730  1.00  0.00     0.976 A  
HETATM   30  C   UNL     1      -9.895  17.226  70.008  1.00  0.00     0.965 A  
HETATM   31  C   UNL     1     -11.603  16.517  68.446  1.00  0.00     0.023 A  
BRANCH  30  32
HETATM   32  O   UNL     1      -8.953  18.164  70.372  1.00  0.00     2.557 OA 
HETATM   33  C   UNL     1      -7.617  17.889  69.951  1.00  0.00     1.176 C  
ENDBRANCH  30  32
BRANCH  27  34
HETATM   34  O   UNL     1     -10.363  18.640  68.176  1.00  0.00    -0.368 OA 
HETATM   35  C   UNL     1     -11.394  19.624  68.166  1.00  0.00     1.076 C  
ENDBRANCH  27  34
BRANCH  31  36
HETATM   36  O   UNL     1     -12.369  16.789  67.339  1.00  0.00     1.734 OA 
HETATM   37  C   UNL     1     -11.774  16.481  66.081  1.00  0.00     1.355 C  
ENDBRANCH  31  36
ENDBRANCH  24  26
ENDBRANCH  23  24
ENDBRANCH   3  23
BRANCH   5  38
HETATM   38  O   UNL     1     -10.638   8.952  70.833  1.00  0.00    -0.204 OA 
HETATM   39  C   UNL     1     -11.317   7.733  70.612  1.00  0.00    -0.264 C  
ENDBRANCH   5  38
BRANCH   8  40
HETATM   40  C   UNL     1     -12.047  10.491  67.907  1.00  0.00     1.310 C  
HETATM   41  O   UNL     1     -13.157  10.368  68.399  1.00  0.00     2.697 OA 
BRANCH  40  42
HETATM   42  O   UNL     1     -11.810  10.782  66.599  1.00  0.00     0.187 OA 
HETATM   43  C   UNL     1     -12.016  12.116  66.114  1.00  0.00    -0.147 C  
ENDBRANCH  40  42
ENDBRANCH   8  40
TORSDOF 9
ENDMDL
MODEL      173
REMARK 921   NORMALIZED FREE ENERGY PREDICTED BY IDOCK:   17.82 KCAL/MOL
REMARK 922        TOTAL FREE ENERGY PREDICTED BY IDOCK:   24.57 KCAL/MOL
REMARK 923 INTER-LIGAND FREE ENERGY PREDICTED BY IDOCK:   21.07 KCAL/MOL
REMARK 924 INTRA-LIGAND FREE ENERGY PREDICTED BY IDOCK:    3.50 KCAL/MOL
REMARK 927      BINDING AFFINITY PREDICTED BY RF-SCORE:    0.00 PKD
ROOT
HETATM    1  C   UNL     1     -13.880  13.736  69.639  1.00  0.00     3.854 C  
HETATM    2  C   UNL     1     -13.492  12.261  69.494  1.00  0.00     3.272 C  
HETATM    3  C   UNL     1     -12.296  11.764  70.386  1.00  0.00    -0.277 C  
HETATM    4  C   UNL     1     -10.654  17.862  66.474  1.00  0.00    -0.238 A  
HETATM    5  C   UNL     1     -12.951  11.703  71.761  1.00  0.00    -0.377 C  
HETATM    6  C   UNL     1     -10.494  18.536  65.244  1.00  0.00     0.577 A  
HETATM    7  C   UNL     1      -9.736  19.718  65.193  1.00  0.00     1.178 A  
HETATM    8  C   UNL     1     -13.221  13.217  72.135  1.00  0.00    -0.562 C  
HETATM    9  C   UNL     1      -9.152  20.217  66.345  1.00  0.00    -0.382 A  
HETATM   10  C   UNL     1      -9.309  19.568  67.585  1.00  0.00    -0.399 A  
HETATM   11  H   UNL     1     -10.121  17.697  69.653  1.00  0.00     0.000 HD 
HETATM   12  C   UNL     1     -13.224  14.340  70.897  1.00  0.00    -0.320 C  
HETATM   13  C   UNL     1     -10.072  18.384  67.622  1.00  0.00    -0.360 A  
HETATM   14  N   UNL     1     -10.380  17.536  68.680  1.00  0.00    -0.368 NA 
HETATM   15  C   UNL     1     -11.085  16.446  68.222  1.00  0.00    -0.337 A  
HETATM   16  C   UNL     1     -11.264  16.642  66.857  1.00  0.00     0.337 A  
HETATM   17  C   UNL     1     -12.045  15.321  70.433  1.00  0.00    -0.388 C  
HETATM   18  C   UNL     1     -11.889  15.608  65.995  1.00  0.00     0.601 C  
HETATM   19  C   UNL     1     -11.401  15.158  68.987  1.00  0.00    -0.294 C  
HETATM   20  C   UNL     1     -11.729  14.249  66.690  1.00  0.00    -0.400 C  
HETATM   21  C   UNL     1     -13.571  14.396  68.294  1.00  0.00     5.802 C  
HETATM   22  N   UNL     1     -12.144  14.245  68.105  1.00  0.00    -0.295 NA 
ENDROOT
BRANCH   3  23
HETATM   23  O   UNL     1     -11.072  12.587  70.516  1.00  0.00     0.827 OA 
BRANCH  23  24
HETATM   24  C   UNL     1     -10.134  12.365  69.536  1.00  0.00     0.918 C  
HETATM   25  O   UNL     1     -10.029  13.076  68.540  1.00  0.00    -0.227 OA 
BRANCH  24  26
HETATM   26  C   UNL     1      -9.228  11.171  69.629  1.00  0.00     0.665 A  
HETATM   27  C   UNL     1      -7.287   9.224  70.344  1.00  0.00    -0.111 A  
HETATM   28  C   UNL     1      -9.613   9.889  69.995  1.00  0.00    -0.260 A  
HETATM   29  C   UNL     1      -7.855  11.419  69.476  1.00  0.00     0.337 A  
HETATM   30  C   UNL     1      -6.887  10.483  69.861  1.00  0.00    -0.149 A  
HETATM   31  C   UNL     1      -8.662   8.922  70.383  1.00  0.00    -0.180 A  
BRANCH  30  32
HETATM   32  O   UNL     1      -5.538  10.760  69.834  1.00  0.00    -0.047 OA 
HETATM   33  C   UNL     1      -5.137  11.781  68.920  1.00  0.00    -0.050 C  
ENDBRANCH  30  32
BRANCH  27  34
HETATM   34  O   UNL     1      -6.275   8.372  70.722  1.00  0.00    -0.032 OA 
HETATM   35  C   UNL     1      -6.645   7.263  71.538  1.00  0.00    -0.047 C  
ENDBRANCH  27  34
BRANCH  31  36
HETATM   36  O   UNL     1      -9.041   7.667  70.792  1.00  0.00    -0.151 OA 
HETATM   37  C   UNL     1     -10.108   7.617  71.735  1.00  0.00    -0.173 C  
ENDBRANCH  31  36
ENDBRANCH  24  26
ENDBRANCH  23  24
ENDBRANCH   3  23
BRANCH   5  38
HETATM   38  O   UNL     1     -14.140  10.898  71.631  1.00  0.00     0.555 OA 
HETATM   39  C   UNL     1     -14.011   9.490  71.641  1.00  0.00    -0.124 C  
ENDBRANCH   5  38
BRANCH   8  40
HETATM   40  C   UNL     1     -12.373  13.508  73.357  1.00  0.00     2.089 C  
HETATM   41  O   UNL     1     -12.176  12.722  74.270  1.00  0.00     7.444 OA 
BRANCH  40  42
HETATM   42  O   UNL     1     -11.932  14.795  73.339  1.00  0.00    -0.241 OA 
HETATM   43  C   UNL     1     -12.849  15.869  73.593  1.00  0.00    -0.599 C  
ENDBRANCH  40  42
ENDBRANCH   8  40
TORSDOF 9
ENDMDL
MODEL      174
REMARK 921   NORMALIZED FREE ENERGY PREDICTED BY IDOCK:   18.88 KCAL/MOL
REMARK 922        TOTAL FREE ENERGY PREDICTED BY IDOCK:   26.18 KCAL/MOL
REMARK 923 INTER-LIGAND FREE ENERGY PREDICTED BY IDOCK:   20.83 KCAL/MOL
REMARK 924 INTRA-LIGAND FREE ENERGY PREDICTED BY IDOCK:    5.35 KCAL/MOL
REMARK 927      BINDING AFFINITY PREDICTED BY RF-SCORE:    0.00 PKD
ROOT
HETATM    1  C   UNL     1      -6.628  16.106  68.625  1.00  0.00    -0.126 C  
HETATM    2  C   UNL     1      -6.828  17.297  67.683  1.00  0.00    -0.162 C  
HETATM    3  C   UNL     1      -7.438  18.597  68.322  1.00  0.00    -0.281 C  
HETATM    4  C   UNL     1     -11.452  12.511  69.745  1.00  0.00    -0.211 A  
HETATM    5  C   UNL     1      -6.253  19.125  69.123  1.00  0.00    -0.270 C  
HETATM    6  C   UNL     1     -12.221  11.408  69.314  1.00  0.00    -0.271 A  
HETATM    7  C   UNL     1     -13.085  10.768  70.217  1.00  0.00    -0.004 A  
HETATM    8  C   UNL     1      -6.065  18.069  70.287  1.00  0.00     0.053 C  
HETATM    9  C   UNL     1     -13.179  11.218  71.524  1.00  0.00    -0.354 A  
HETATM   10  C   UNL     1     -12.413  12.308  71.979  1.00  0.00     0.318 A  
HETATM   11  H   UNL     1     -10.532  14.519  72.098  1.00  0.00     0.000 HD 
HETATM   12  C   UNL     1      -6.755  16.559  70.094  1.00  0.00     0.472 C  
HETATM   13  C   UNL     1     -11.549  12.940  71.061  1.00  0.00     1.184 A  
HETATM   14  N   UNL     1     -10.698  14.029  71.219  1.00  0.00     2.182 NA 
HETATM   15  C   UNL     1     -10.114  14.349  70.015  1.00  0.00     0.638 A  
HETATM   16  C   UNL     1     -10.570  13.411  69.097  1.00  0.00    -0.035 A  
HETATM   17  C   UNL     1      -8.145  16.012  70.675  1.00  0.00     2.587 C  
HETATM   18  C   UNL     1     -10.239  13.506  67.653  1.00  0.00    -0.239 C  
HETATM   19  C   UNL     1      -9.320  15.614  69.678  1.00  0.00    -0.217 C  
HETATM   20  C   UNL     1      -9.890  14.967  67.340  1.00  0.00    -0.224 C  
HETATM   21  C   UNL     1      -7.577  15.009  68.139  1.00  0.00    -0.111 C  
HETATM   22  N   UNL     1      -8.909  15.562  68.266  1.00  0.00    -0.176 NA 
ENDROOT
BRANCH   3  23
HETATM   23  O   UNL     1      -8.589  18.502  69.249  1.00  0.00     0.013 OA 
BRANCH  23  24
HETATM   24  C   UNL     1      -9.689  19.230  68.861  1.00  0.00    -0.430 C  
HETATM   25  O   UNL     1      -9.998  20.299  69.381  1.00  0.00    -0.087 OA 
BRANCH  24  26
HETATM   26  C   UNL     1     -10.605  18.689  67.801  1.00  0.00    -0.433 A  
HETATM   27  C   UNL     1     -11.769  17.539  65.479  1.00  0.00     2.423 A  
HETATM   28  C   UNL     1     -11.328  17.507  67.883  1.00  0.00     0.404 A  
HETATM   29  C   UNL     1     -10.603  19.367  66.573  1.00  0.00    -0.554 A  
HETATM   30  C   UNL     1     -11.138  18.795  65.412  1.00  0.00     0.702 A  
HETATM   31  C   UNL     1     -11.885  16.909  66.734  1.00  0.00     1.879 A  
BRANCH  30  32
HETATM   32  O   UNL     1     -11.032  19.393  64.175  1.00  0.00     2.050 OA 
HETATM   33  C   UNL     1     -11.465  20.751  64.110  1.00  0.00     3.592 C  
ENDBRANCH  30  32
BRANCH  27  34
HETATM   34  O   UNL     1     -12.247  17.038  64.291  1.00  0.00     0.728 OA 
HETATM   35  C   UNL     1     -12.164  15.626  64.112  1.00  0.00     0.061 C  
ENDBRANCH  27  34
BRANCH  31  36
HETATM   36  O   UNL     1     -12.560  15.715  66.801  1.00  0.00     1.345 OA 
HETATM   37  C   UNL     1     -12.727  15.169  68.107  1.00  0.00     1.235 C  
ENDBRANCH  31  36
ENDBRANCH  24  26
ENDBRANCH  23  24
ENDBRANCH   3  23
BRANCH   5  38
HETATM   38  O   UNL     1      -5.136  19.220  68.215  1.00  0.00    -0.176 OA 
HETATM   39  C   UNL     1      -5.325  19.859  66.969  1.00  0.00    -0.165 C  
ENDBRANCH   5  38
BRANCH   8  40
HETATM   40  C   UNL     1      -6.335  18.814  71.579  1.00  0.00     1.484 C  
HETATM   41  O   UNL     1      -6.504  18.284  72.665  1.00  0.00     2.550 OA 
BRANCH  40  42
HETATM   42  O   UNL     1      -6.450  20.151  71.346  1.00  0.00    -0.353 OA 
HETATM   43  C   UNL     1      -5.533  20.804  70.457  1.00  0.00    -0.197 C  
ENDBRANCH  40  42
ENDBRANCH   8  40
TORSDOF 9
ENDMDL
MODEL      175
REMARK 921   NORMALIZED FREE ENERGY PREDICTED BY IDOCK:   19.65 KCAL/MOL
REMARK 922        TOTAL FREE ENERGY PREDICTED BY IDOCK:   27.36 KCAL/MOL
REMARK 923 INTER-LIGAND FREE ENERGY PREDICTED BY IDOCK:   -0.40 KCAL/MOL
REMARK 924 INTRA-LIGAND FREE ENERGY PREDICTED BY IDOCK:   27.76 KCAL/MOL
REMARK 927      BINDING AFFINITY PREDICTED BY RF-SCORE:    0.00 PKD
ROOT
HETATM    1  C   UNL     1     -10.042   6.538  66.063  1.00  0.00     0.327 C  
HETATM    2  C   UNL     1      -8.842   7.370  65.600  1.00  0.00    -0.056 C  
HETATM    3  C   UNL     1      -7.466   6.616  65.503  1.00  0.00    -0.079 C  
HETATM    4  C   UNL     1     -10.801   5.725  72.081  1.00  0.00    -0.296 A  
HETATM    5  C   UNL     1      -7.671   5.776  64.248  1.00  0.00    -0.097 C  
HETATM    6  C   UNL     1     -11.331   6.249  73.280  1.00  0.00     0.078 A  
HETATM    7  C   UNL     1     -11.518   5.403  74.386  1.00  0.00     2.242 A  
HETATM    8  C   UNL     1      -8.765   4.710  64.663  1.00  0.00    -0.151 C  
HETATM    9  C   UNL     1     -11.185   4.062  74.296  1.00  0.00     0.262 A  
HETATM   10  C   UNL     1     -10.668   3.515  73.106  1.00  0.00    -0.267 A  
HETATM   11  H   UNL     1      -9.719   3.206  70.378  1.00  0.00     0.000 HD 
HETATM   12  C   UNL     1      -9.703   5.034  66.007  1.00  0.00    -0.194 C  
HETATM   13  C   UNL     1     -10.486   4.375  72.004  1.00  0.00    -0.058 A  
HETATM   14  N   UNL     1      -9.989   4.124  70.730  1.00  0.00    -0.173 NA 
HETATM   15  C   UNL     1      -9.912   5.297  70.015  1.00  0.00    -0.245 A  
HETATM   16  C   UNL     1     -10.418   6.294  70.841  1.00  0.00    -0.274 A  
HETATM   17  C   UNL     1      -9.521   4.499  67.507  1.00  0.00    -0.193 C  
HETATM   18  C   UNL     1     -10.390   7.724  70.447  1.00  0.00    -0.212 C  
HETATM   19  C   UNL     1      -9.196   5.523  68.681  1.00  0.00    -0.122 C  
HETATM   20  C   UNL     1      -9.283   7.907  69.400  1.00  0.00    -0.145 C  
HETATM   21  C   UNL     1     -10.472   7.116  67.412  1.00  0.00    -0.284 C  
HETATM   22  N   UNL     1      -9.336   6.936  68.293  1.00  0.00    -0.126 NA 
ENDROOT
BRANCH   3  23
HETATM   23  O   UNL     1      -7.042   5.697  66.585  1.00  0.00    -0.067 OA 
BRANCH  23  24
HETATM   24  C   UNL     1      -7.416   6.098  67.845  1.00  0.00    -0.085 C  
HETATM   25  O   UNL     1      -7.854   5.321  68.689  1.00  0.00    -0.085 OA 
BRANCH  24  26
HETATM   26  C   UNL     1      -7.356   7.553  68.213  1.00  0.00    -0.096 A  
HETATM   27  C   UNL     1      -6.598  10.234  68.767  1.00  0.00    -0.052 A  
HETATM   28  C   UNL     1      -7.856   8.601  67.453  1.00  0.00    -0.098 A  
HETATM   29  C   UNL     1      -6.595   7.876  69.347  1.00  0.00    -0.035 A  
HETATM   30  C   UNL     1      -6.182   9.188  69.611  1.00  0.00    -0.039 A  
HETATM   31  C   UNL     1      -7.464   9.934  67.697  1.00  0.00    -0.090 A  
BRANCH  30  32
HETATM   32  O   UNL     1      -5.333   9.502  70.649  1.00  0.00    -0.036 OA 
HETATM   33  C   UNL     1      -5.931   9.532  71.945  1.00  0.00     0.075 C  
ENDBRANCH  30  32
BRANCH  27  34
HETATM   34  O   UNL     1      -6.130  11.488  69.082  1.00  0.00    -0.055 OA 
HETATM   35  C   UNL     1      -5.539  12.236  68.022  1.00  0.00    -0.064 C  
ENDBRANCH  27  34
BRANCH  31  36
HETATM   36  O   UNL     1      -7.918  10.970  66.918  1.00  0.00    -0.130 OA 
HETATM   37  C   UNL     1      -8.340  10.619  65.603  1.00  0.00    -0.162 C  
ENDBRANCH  31  36
ENDBRANCH  24  26
ENDBRANCH  23  24
ENDBRANCH   3  23
BRANCH   5  38
HETATM   38  O   UNL     1      -8.079   6.674  63.196  1.00  0.00    -0.107 OA 
HETATM   39  C   UNL     1      -9.245   6.370  62.457  1.00  0.00     0.989 C  
ENDBRANCH   5  38
BRANCH   8  40
HETATM   40  C   UNL     1      -8.089   3.356  64.576  1.00  0.00    -0.086 C  
HETATM   41  O   UNL     1      -6.974   3.107  65.007  1.00  0.00    -0.053 OA 
BRANCH  40  42
HETATM   42  O   UNL     1      -8.859   2.480  63.875  1.00  0.00    -0.089 OA 
HETATM   43  C   UNL     1     -10.271   2.414  64.118  1.00  0.00     0.031 C  
ENDBRANCH  40  42
ENDBRANCH   8  40
TORSDOF 9
ENDMDL
MODEL      176
REMARK 921   NORMALIZED FREE ENERGY PREDICTED BY IDOCK:   22.78 KCAL/MOL
REMARK 922        TOTAL FREE ENERGY PREDICTED BY IDOCK:   32.13 KCAL/MOL
REMARK 923 INTER-LIGAND FREE ENERGY PREDICTED BY IDOCK:   26.75 KCAL/MOL
REMARK 924 INTRA-LIGAND FREE ENERGY PREDICTED BY IDOCK:    5.39 KCAL/MOL
REMARK 927      BINDING AFFINITY PREDICTED BY RF-SCORE:    0.00 PKD
ROOT
HETATM    1  C   UNL     1      -9.435  14.667  69.392  1.00  0.00     0.078 C  
HETATM    2  C   UNL     1      -8.193  13.966  69.950  1.00  0.00     1.407 C  
HETATM    3  C   UNL     1      -6.866  14.135  69.125  1.00  0.00    -0.113 C  
HETATM    4  C   UNL     1     -12.581  11.818  64.983  1.00  0.00     0.796 A  
HETATM    5  C   UNL     1      -6.491  15.576  69.449  1.00  0.00    -0.151 C  
HETATM    6  C   UNL     1     -13.585  10.873  64.679  1.00  0.00     6.516 A  
HETATM    7  C   UNL     1     -14.173  10.870  63.403  1.00  0.00     5.370 A  
HETATM    8  C   UNL     1      -7.606  16.442  68.734  1.00  0.00    -0.211 C  
HETATM    9  C   UNL     1     -13.769  11.792  62.452  1.00  0.00     3.559 A  
HETATM   10  C   UNL     1     -12.779  12.751  62.737  1.00  0.00     0.883 A  
HETATM   11  H   UNL     1     -10.771  14.342  64.107  1.00  0.00     0.000 HD 
HETATM   12  C   UNL     1      -9.032  15.684  68.304  1.00  0.00    -0.181 C  
HETATM   13  C   UNL     1     -12.198  12.743  64.022  1.00  0.00    -0.441 A  
HETATM   14  N   UNL     1     -11.206  13.546  64.573  1.00  0.00    -0.360 NA 
HETATM   15  C   UNL     1     -10.896  13.109  65.841  1.00  0.00    -0.273 A  
HETATM   16  C   UNL     1     -11.747  12.043  66.106  1.00  0.00    -0.313 A  
HETATM   17  C   UNL     1      -9.462  15.097  66.876  1.00  0.00    -0.253 C  
HETATM   18  C   UNL     1     -11.627  11.237  67.347  1.00  0.00    -0.214 C  
HETATM   19  C   UNL     1      -9.702  13.533  66.701  1.00  0.00    -0.280 C  
HETATM   20  C   UNL     1     -10.195  11.393  67.878  1.00  0.00    -0.182 C  
HETATM   21  C   UNL     1     -10.413  13.559  68.996  1.00  0.00    -0.051 C  
HETATM   22  N   UNL     1      -9.738  12.791  67.972  1.00  0.00    -0.214 NA 
ENDROOT
BRANCH   3  23
HETATM   23  O   UNL     1      -6.885  14.005  67.649  1.00  0.00    -0.166 OA 
BRANCH  23  24
HETATM   24  C   UNL     1      -6.394  12.810  67.181  1.00  0.00     0.084 C  
HETATM   25  O   UNL     1      -5.529  12.738  66.312  1.00  0.00     0.936 OA 
BRANCH  24  26
HETATM   26  C   UNL     1      -6.967  11.518  67.691  1.00  0.00    -0.091 A  
HETATM   27  C   UNL     1      -8.408   9.477  69.043  1.00  0.00    -0.126 A  
HETATM   28  C   UNL     1      -7.838  10.690  66.998  1.00  0.00    -0.117 A  
HETATM   29  C   UNL     1      -6.709  11.213  69.036  1.00  0.00    -0.085 A  
HETATM   30  C   UNL     1      -7.439  10.236  69.725  1.00  0.00    -0.165 A  
HETATM   31  C   UNL     1      -8.584   9.693  67.662  1.00  0.00    -0.126 A  
BRANCH  30  32
HETATM   32  O   UNL     1      -7.284  10.012  71.075  1.00  0.00    -0.300 OA 
HETATM   33  C   UNL     1      -8.320  10.533  71.908  1.00  0.00     6.682 C  
ENDBRANCH  30  32
BRANCH  27  34
HETATM   34  O   UNL     1      -9.095   8.555  69.797  1.00  0.00    -0.149 OA 
HETATM   35  C   UNL     1      -8.400   7.357  70.133  1.00  0.00    -0.136 C  
ENDBRANCH  27  34
BRANCH  31  36
HETATM   36  O   UNL     1      -9.483   8.902  66.990  1.00  0.00    -0.150 OA 
HETATM   37  C   UNL     1      -9.140   7.524  66.883  1.00  0.00    -0.141 C  
ENDBRANCH  31  36
ENDBRANCH  24  26
ENDBRANCH  23  24
ENDBRANCH   3  23
BRANCH   5  38
HETATM   38  O   UNL     1      -6.469  15.697  70.886  1.00  0.00     0.410 OA 
HETATM   39  C   UNL     1      -7.273  16.687  71.496  1.00  0.00     5.902 C  
ENDBRANCH   5  38
BRANCH   8  40
HETATM   40  C   UNL     1      -6.890  17.262  67.678  1.00  0.00    -0.146 C  
HETATM   41  O   UNL     1      -6.003  16.840  66.954  1.00  0.00    -0.165 OA 
BRANCH  40  42
HETATM   42  O   UNL     1      -7.311  18.556  67.710  1.00  0.00    -0.224 OA 
HETATM   43  C   UNL     1      -7.131  19.339  68.898  1.00  0.00    -0.350 C  
ENDBRANCH  40  42
ENDBRANCH   8  40
TORSDOF 9
ENDMDL
MODEL      177
REMARK 921   NORMALIZED FREE ENERGY PREDICTED BY IDOCK:   23.41 KCAL/MOL
REMARK 922        TOTAL FREE ENERGY PREDICTED BY IDOCK:   33.10 KCAL/MOL
REMARK 923 INTER-LIGAND FREE ENERGY PREDICTED BY IDOCK:   18.75 KCAL/MOL
REMARK 924 INTRA-LIGAND FREE ENERGY PREDICTED BY IDOCK:   14.35 KCAL/MOL
REMARK 927      BINDING AFFINITY PREDICTED BY RF-SCORE:    0.00 PKD
ROOT
HETATM    1  C   UNL     1      -9.208  17.024  64.814  1.00  0.00     3.825 C  
HETATM    2  C   UNL     1     -10.456  17.874  64.557  1.00  0.00     3.295 C  
HETATM    3  C   UNL     1     -11.211  18.407  65.830  1.00  0.00     0.855 C  
HETATM    4  C   UNL     1     -10.004  11.080  66.034  1.00  0.00    -0.285 A  
HETATM    5  C   UNL     1     -10.267  19.508  66.301  1.00  0.00    -0.488 C  
HETATM    6  C   UNL     1     -10.173   9.784  65.502  1.00  0.00    -0.114 A  
HETATM    7  C   UNL     1      -9.950   8.662  66.318  1.00  0.00    -0.287 A  
HETATM    8  C   UNL     1      -8.982  18.733  66.803  1.00  0.00    -0.311 C  
HETATM    9  C   UNL     1      -9.564   8.832  67.638  1.00  0.00    -0.179 A  
HETATM   10  C   UNL     1      -9.377  10.115  68.186  1.00  0.00    -0.140 A  
HETATM   11  H   UNL     1      -9.197  12.997  68.503  1.00  0.00     0.000 HD 
HETATM   12  C   UNL     1      -8.761  17.160  66.284  1.00  0.00    -0.268 C  
HETATM   13  C   UNL     1      -9.604  11.231  67.355  1.00  0.00    -0.169 A  
HETATM   14  N   UNL     1      -9.514  12.593  67.621  1.00  0.00    -0.183 NA 
HETATM   15  C   UNL     1      -9.917  13.316  66.522  1.00  0.00    -0.280 A  
HETATM   16  C   UNL     1     -10.217  12.388  65.531  1.00  0.00    -0.297 A  
HETATM   17  C   UNL     1      -9.110  15.796  67.049  1.00  0.00    -0.240 C  
HETATM   18  C   UNL     1     -10.798  12.796  64.228  1.00  0.00    -0.419 C  
HETATM   19  C   UNL     1     -10.216  14.816  66.458  1.00  0.00    -0.276 C  
HETATM   20  C   UNL     1     -11.487  14.154  64.420  1.00  0.00    -0.332 C  
HETATM   21  C   UNL     1      -9.531  15.620  64.300  1.00  0.00     4.654 C  
HETATM   22  N   UNL     1     -10.651  15.162  65.096  1.00  0.00    -0.401 NA 
ENDROOT
BRANCH   3  23
HETATM   23  O   UNL     1     -11.453  17.510  66.983  1.00  0.00     0.537 OA 
BRANCH  23  24
HETATM   24  C   UNL     1     -11.065  18.029  68.195  1.00  0.00     0.239 C  
HETATM   25  O   UNL     1     -10.755  19.207  68.347  1.00  0.00    -0.181 OA 
BRANCH  24  26
HETATM   26  C   UNL     1     -10.947  17.126  69.389  1.00  0.00     0.163 A  
HETATM   27  C   UNL     1     -11.234  15.103  71.363  1.00  0.00    -0.264 A  
HETATM   28  C   UNL     1      -9.934  16.203  69.608  1.00  0.00    -0.179 A  
HETATM   29  C   UNL     1     -12.037  17.119  70.273  1.00  0.00     3.327 A  
HETATM   30  C   UNL     1     -12.210  16.106  71.225  1.00  0.00    -0.212 A  
HETATM   31  C   UNL     1     -10.076  15.174  70.563  1.00  0.00     0.315 A  
BRANCH  30  32
HETATM   32  O   UNL     1     -13.336  16.017  72.014  1.00  0.00    -0.366 OA 
HETATM   33  C   UNL     1     -14.378  15.184  71.507  1.00  0.00    -0.559 C  
ENDBRANCH  30  32
BRANCH  27  34
HETATM   34  O   UNL     1     -11.491  14.134  72.304  1.00  0.00     0.805 OA 
HETATM   35  C   UNL     1     -11.546  12.788  71.837  1.00  0.00     3.254 C  
ENDBRANCH  27  34
BRANCH  31  36
HETATM   36  O   UNL     1      -9.098  14.229  70.751  1.00  0.00     2.562 OA 
HETATM   37  C   UNL     1      -8.141  14.109  69.702  1.00  0.00     0.612 C  
ENDBRANCH  31  36
ENDBRANCH  24  26
ENDBRANCH  23  24
ENDBRANCH   3  23
BRANCH   5  38
HETATM   38  O   UNL     1     -10.038  20.381  65.176  1.00  0.00     0.070 OA 
HETATM   39  C   UNL     1      -8.752  20.944  65.005  1.00  0.00     1.880 C  
ENDBRANCH   5  38
BRANCH   8  40
HETATM   40  C   UNL     1      -8.876  19.013  68.289  1.00  0.00    -0.333 C  
HETATM   41  O   UNL     1      -9.543  19.839  68.891  1.00  0.00    -0.349 OA 
BRANCH  40  42
HETATM   42  O   UNL     1      -7.873  18.279  68.845  1.00  0.00    -0.281 OA 
HETATM   43  C   UNL     1      -6.522  18.760  68.797  1.00  0.00    -0.252 C  
ENDBRANCH  40  42
ENDBRANCH   8  40
TORSDOF 9
ENDMDL
MODEL      178
REMARK 921   NORMALIZED FREE ENERGY PREDICTED BY IDOCK:   23.52 KCAL/MOL
REMARK 922        TOTAL FREE ENERGY PREDICTED BY IDOCK:   33.26 KCAL/MOL
REMARK 923 INTER-LIGAND FREE ENERGY PREDICTED BY IDOCK:   -4.22 KCAL/MOL
REMARK 924 INTRA-LIGAND FREE ENERGY PREDICTED BY IDOCK:   37.48 KCAL/MOL
REMARK 927      BINDING AFFINITY PREDICTED BY RF-SCORE:    0.00 PKD
ROOT
HETATM    1  C   UNL     1     -10.779   5.417  68.268  1.00  0.00    -0.069 C  
HETATM    2  C   UNL     1      -9.585   4.639  68.830  1.00  0.00    -0.229 C  
HETATM    3  C   UNL     1      -8.841   5.290  70.052  1.00  0.00    -0.120 C  
HETATM    4  C   UNL     1      -9.628   9.950  64.320  1.00  0.00    -0.220 A  
HETATM    5  C   UNL     1      -9.838   5.043  71.179  1.00  0.00    -0.187 C  
HETATM    6  C   UNL     1      -9.395  10.305  62.974  1.00  0.00    -0.338 A  
HETATM    7  C   UNL     1      -9.541  11.643  62.572  1.00  0.00     0.281 A  
HETATM    8  C   UNL     1     -11.069   5.973  70.825  1.00  0.00    -0.355 C  
HETATM    9  C   UNL     1      -9.913  12.606  63.495  1.00  0.00     0.218 A  
HETATM   10  C   UNL     1     -10.163  12.273  64.840  1.00  0.00    -0.307 A  
HETATM   11  H   UNL     1     -10.501  10.787  67.313  1.00  0.00     0.000 HD 
HETATM   12  C   UNL     1     -11.208   6.523  69.253  1.00  0.00    -0.390 C  
HETATM   13  C   UNL     1     -10.014  10.926  65.229  1.00  0.00    -0.273 A  
HETATM   14  N   UNL     1     -10.176  10.317  66.468  1.00  0.00    -0.228 NA 
HETATM   15  C   UNL     1      -9.833   8.987  66.388  1.00  0.00    -0.286 A  
HETATM   16  C   UNL     1      -9.498   8.748  65.060  1.00  0.00     0.329 A  
HETATM   17  C   UNL     1     -10.770   7.941  68.648  1.00  0.00    -0.073 C  
HETATM   18  C   UNL     1      -8.963   7.439  64.612  1.00  0.00     0.756 C  
HETATM   19  C   UNL     1      -9.620   8.013  67.550  1.00  0.00    -0.153 C  
HETATM   20  C   UNL     1      -8.348   6.735  65.830  1.00  0.00    -0.143 C  
HETATM   21  C   UNL     1     -10.386   5.845  66.853  1.00  0.00    -0.247 C  
HETATM   22  N   UNL     1      -9.229   6.700  67.012  1.00  0.00    -0.131 NA 
ENDROOT
BRANCH   3  23
HETATM   23  O   UNL     1      -8.529   6.738  70.049  1.00  0.00    -0.136 OA 
BRANCH  23  24
HETATM   24  C   UNL     1      -9.572   7.542  70.444  1.00  0.00    -0.168 C  
HETATM   25  O   UNL     1     -10.593   7.102  70.966  1.00  0.00    -0.219 OA 
BRANCH  24  26
HETATM   26  C   UNL     1      -9.514   9.020  70.183  1.00  0.00    -0.217 A  
HETATM   27  C   UNL     1      -9.366  11.623  69.054  1.00  0.00     0.159 A  
HETATM   28  C   UNL     1     -10.575   9.906  70.307  1.00  0.00    -0.359 A  
HETATM   29  C   UNL     1      -8.322   9.505  69.622  1.00  0.00    -0.155 A  
HETATM   30  C   UNL     1      -8.247  10.771  69.028  1.00  0.00    -0.138 A  
HETATM   31  C   UNL     1     -10.527  11.190  69.725  1.00  0.00     0.167 A  
BRANCH  30  32
HETATM   32  O   UNL     1      -7.123  11.211  68.365  1.00  0.00    -0.068 OA 
HETATM   33  C   UNL     1      -6.140  10.213  68.090  1.00  0.00    -0.048 C  
ENDBRANCH  30  32
BRANCH  27  34
HETATM   34  O   UNL     1      -9.216  12.838  68.429  1.00  0.00    -0.198 OA 
HETATM   35  C   UNL     1      -9.844  13.959  69.049  1.00  0.00     0.059 C  
ENDBRANCH  27  34
BRANCH  31  36
HETATM   36  O   UNL     1     -11.592  12.054  69.803  1.00  0.00    -0.299 OA 
HETATM   37  C   UNL     1     -12.248  12.345  68.572  1.00  0.00     0.128 C  
ENDBRANCH  31  36
ENDBRANCH  24  26
ENDBRANCH  23  24
ENDBRANCH   3  23
BRANCH   5  38
HETATM   38  O   UNL     1     -10.135   3.632  71.181  1.00  0.00    -0.112 OA 
HETATM   39  C   UNL     1      -9.745   2.857  72.297  1.00  0.00    -0.154 C  
ENDBRANCH   5  38
BRANCH   8  40
HETATM   40  C   UNL     1     -11.165   6.988  71.946  1.00  0.00    -0.249 C  
HETATM   41  O   UNL     1     -10.284   7.777  72.247  1.00  0.00    -0.200 OA 
BRANCH  40  42
HETATM   42  O   UNL     1     -12.334   6.840  72.628  1.00  0.00     0.071 OA 
HETATM   43  C   UNL     1     -13.569   6.701  71.910  1.00  0.00     0.085 C  
ENDBRANCH  40  42
ENDBRANCH   8  40
TORSDOF 9
ENDMDL
MODEL      179
REMARK 921   NORMALIZED FREE ENERGY PREDICTED BY IDOCK:   24.12 KCAL/MOL
REMARK 922        TOTAL FREE ENERGY PREDICTED BY IDOCK:   34.18 KCAL/MOL
REMARK 923 INTER-LIGAND FREE ENERGY PREDICTED BY IDOCK:   -0.75 KCAL/MOL
REMARK 924 INTRA-LIGAND FREE ENERGY PREDICTED BY IDOCK:   34.93 KCAL/MOL
REMARK 927      BINDING AFFINITY PREDICTED BY RF-SCORE:    0.00 PKD
ROOT
HETATM    1  C   UNL     1      -6.835   5.914  70.741  1.00  0.00    -0.058 C  
HETATM    2  C   UNL     1      -8.231   5.432  71.145  1.00  0.00    -0.119 C  
HETATM    3  C   UNL     1      -9.277   5.269  69.982  1.00  0.00    -0.138 C  
HETATM    4  C   UNL     1      -5.991  11.932  70.015  1.00  0.00    -0.159 A  
HETATM    5  C   UNL     1      -8.776   4.001  69.301  1.00  0.00    -0.082 C  
HETATM    6  C   UNL     1      -5.694  13.161  70.643  1.00  0.00    -0.171 A  
HETATM    7  C   UNL     1      -5.262  14.251  69.869  1.00  0.00    -0.093 A  
HETATM    8  C   UNL     1      -7.400   4.426  68.644  1.00  0.00    -0.060 C  
HETATM    9  C   UNL     1      -5.129  14.116  68.497  1.00  0.00    -0.095 A  
HETATM   10  C   UNL     1      -5.407  12.896  67.851  1.00  0.00    -0.110 A  
HETATM   11  H   UNL     1      -6.136  10.131  67.341  1.00  0.00     0.000 HD 
HETATM   12  C   UNL     1      -6.654   5.809  69.212  1.00  0.00    -0.054 C  
HETATM   13  C   UNL     1      -5.839  11.811  68.641  1.00  0.00    -0.049 A  
HETATM   14  N   UNL     1      -6.195  10.515  68.284  1.00  0.00    -0.054 NA 
HETATM   15  C   UNL     1      -6.639   9.827  69.390  1.00  0.00    -0.049 A  
HETATM   16  C   UNL     1      -6.511  10.694  70.468  1.00  0.00    -0.045 A  
HETATM   17  C   UNL     1      -6.684   7.288  68.595  1.00  0.00    -0.060 C  
HETATM   18  C   UNL     1      -7.003  10.335  71.822  1.00  0.00     1.973 C  
HETATM   19  C   UNL     1      -7.358   8.475  69.413  1.00  0.00    -0.069 C  
HETATM   20  C   UNL     1      -8.084   9.257  71.665  1.00  0.00     0.415 C  
HETATM   21  C   UNL     1      -6.653   7.291  71.381  1.00  0.00    -0.050 C  
HETATM   22  N   UNL     1      -7.685   8.128  70.805  1.00  0.00    -0.076 NA 
ENDROOT
BRANCH   3  23
HETATM   23  O   UNL     1      -9.397   6.313  68.937  1.00  0.00    -0.129 OA 
BRANCH  23  24
HETATM   24  C   UNL     1      -8.338   6.362  68.063  1.00  0.00    -0.115 C  
HETATM   25  O   UNL     1      -7.206   5.994  68.364  1.00  0.00    -0.079 OA 
BRANCH  24  26
HETATM   26  C   UNL     1      -8.531   6.945  66.692  1.00  0.00    -0.121 A  
HETATM   27  C   UNL     1      -8.320   8.348  64.231  1.00  0.00    -0.083 A  
HETATM   28  C   UNL     1      -8.403   6.257  65.494  1.00  0.00    -0.147 A  
HETATM   29  C   UNL     1      -8.708   8.336  66.628  1.00  0.00    -0.150 A  
HETATM   30  C   UNL     1      -8.568   9.044  65.428  1.00  0.00    -0.177 A  
HETATM   31  C   UNL     1      -8.265   6.941  64.268  1.00  0.00     0.040 A  
BRANCH  30  32
HETATM   32  O   UNL     1      -8.614  10.420  65.371  1.00  0.00    -0.162 OA 
HETATM   33  C   UNL     1      -9.670  11.032  66.111  1.00  0.00    -0.217 C  
ENDBRANCH  30  32
BRANCH  27  34
HETATM   34  O   UNL     1      -8.173   9.119  63.101  1.00  0.00    -0.156 OA 
HETATM   35  C   UNL     1      -6.989   8.911  62.334  1.00  0.00    -0.092 C  
ENDBRANCH  27  34
BRANCH  31  36
HETATM   36  O   UNL     1      -8.089   6.266  63.085  1.00  0.00    -0.113 OA 
HETATM   37  C   UNL     1      -9.279   5.952  62.366  1.00  0.00     0.512 C  
ENDBRANCH  31  36
ENDBRANCH  24  26
ENDBRANCH  23  24
ENDBRANCH   3  23
BRANCH   5  38
HETATM   38  O   UNL     1      -8.664   2.987  70.320  1.00  0.00    -0.063 OA 
HETATM   39  C   UNL     1      -7.459   2.254  70.420  1.00  0.00    -0.039 C  
ENDBRANCH   5  38
BRANCH   8  40
HETATM   40  C   UNL     1      -7.587   4.283  67.146  1.00  0.00    -0.077 C  
HETATM   41  O   UNL     1      -8.636   4.480  66.554  1.00  0.00    -0.112 OA 
BRANCH  40  42
HETATM   42  O   UNL     1      -6.447   3.819  66.563  1.00  0.00    -0.035 OA 
HETATM   43  C   UNL     1      -6.481   3.325  65.217  1.00  0.00    -0.035 C  
ENDBRANCH  40  42
ENDBRANCH   8  40
TORSDOF 9
ENDMDL
MODEL      180
REMARK 921   NORMALIZED FREE ENERGY PREDICTED BY IDOCK:   24.20 KCAL/MOL
REMARK 922        TOTAL FREE ENERGY PREDICTED BY IDOCK:   34.30 KCAL/MOL
REMARK 923 INTER-LIGAND FREE ENERGY PREDICTED BY IDOCK:   10.75 KCAL/MOL
REMARK 924 INTRA-LIGAND FREE ENERGY PREDICTED BY IDOCK:   23.55 KCAL/MOL
REMARK 927      BINDING AFFINITY PREDICTED BY RF-SCORE:    0.00 PKD
ROOT
HETATM    1  C   UNL     1      -9.933  15.970  64.935  1.00  0.00     0.553 C  
HETATM    2  C   UNL     1      -9.321  14.690  64.360  1.00  0.00     3.379 C  
HETATM    3  C   UNL     1      -9.445  13.398  65.247  1.00  0.00     0.339 C  
HETATM    4  C   UNL     1      -6.596  19.184  68.934  1.00  0.00    -0.315 A  
HETATM    5  C   UNL     1     -10.920  13.054  65.075  1.00  0.00    -0.298 C  
HETATM    6  C   UNL     1      -5.601  20.170  69.110  1.00  0.00    -0.285 A  
HETATM    7  C   UNL     1      -5.461  20.802  70.356  1.00  0.00    -0.269 A  
HETATM    8  C   UNL     1     -11.684  14.218  65.827  1.00  0.00    -0.359 C  
HETATM    9  C   UNL     1      -6.298  20.458  71.405  1.00  0.00     0.022 A  
HETATM   10  C   UNL     1      -7.305  19.488  71.249  1.00  0.00     1.937 A  
HETATM   11  H   UNL     1      -9.071  17.480  70.112  1.00  0.00     0.000 HD 
HETATM   12  C   UNL     1     -10.851  15.635  66.128  1.00  0.00    -0.264 C  
HETATM   13  C   UNL     1      -7.435  18.862  69.992  1.00  0.00     0.796 A  
HETATM   14  N   UNL     1      -8.312  17.875  69.556  1.00  0.00     0.506 NA 
HETATM   15  C   UNL     1      -8.006  17.508  68.266  1.00  0.00    -0.259 A  
HETATM   16  C   UNL     1      -6.948  18.318  67.869  1.00  0.00    -0.211 A  
HETATM   17  C   UNL     1     -10.120  16.098  67.477  1.00  0.00    -0.256 C  
HETATM   18  C   UNL     1      -6.269  18.131  66.563  1.00  0.00    -0.215 C  
HETATM   19  C   UNL     1      -8.541  16.298  67.495  1.00  0.00    -0.177 C  
HETATM   20  C   UNL     1      -6.511  16.687  66.103  1.00  0.00     0.686 C  
HETATM   21  C   UNL     1      -8.768  16.929  65.187  1.00  0.00     2.464 C  
HETATM   22  N   UNL     1      -7.923  16.268  66.160  1.00  0.00    -0.165 NA 
ENDROOT
BRANCH   3  23
HETATM   23  O   UNL     1      -9.174  13.465  66.702  1.00  0.00    -0.251 OA 
BRANCH  23  24
HETATM   24  C   UNL     1     -10.061  12.755  67.475  1.00  0.00    -0.213 C  
HETATM   25  O   UNL     1     -11.266  12.989  67.493  1.00  0.00    -0.261 OA 
BRANCH  24  26
HETATM   26  C   UNL     1      -9.554  11.682  68.396  1.00  0.00    -0.195 A  
HETATM   27  C   UNL     1      -9.178   9.368  70.000  1.00  0.00    -0.220 A  
HETATM   28  C   UNL     1      -8.545  10.774  68.103  1.00  0.00    -0.129 A  
HETATM   29  C   UNL     1     -10.270  11.497  69.589  1.00  0.00     0.474 A  
HETATM   30  C   UNL     1     -10.123  10.343  70.368  1.00  0.00     0.337 A  
HETATM   31  C   UNL     1      -8.367   9.606  68.872  1.00  0.00    -0.116 A  
BRANCH  30  32
HETATM   32  O   UNL     1     -10.907  10.090  71.472  1.00  0.00    -0.035 OA 
HETATM   33  C   UNL     1     -11.542  11.230  72.050  1.00  0.00     3.132 C  
ENDBRANCH  30  32
BRANCH  27  34
HETATM   34  O   UNL     1      -9.111   8.255  70.805  1.00  0.00    -0.141 OA 
HETATM   35  C   UNL     1      -8.905   7.004  70.152  1.00  0.00    -0.145 C  
ENDBRANCH  27  34
BRANCH  31  36
HETATM   36  O   UNL     1      -7.402   8.680  68.559  1.00  0.00    -0.082 OA 
HETATM   37  C   UNL     1      -7.404   7.491  69.343  1.00  0.00    -0.085 C  
ENDBRANCH  31  36
ENDBRANCH  24  26
ENDBRANCH  23  24
ENDBRANCH   3  23
BRANCH   5  38
HETATM   38  O   UNL     1     -11.178  12.986  63.658  1.00  0.00    -0.399 OA 
HETATM   39  C   UNL     1     -11.263  11.715  63.043  1.00  0.00     0.100 C  
ENDBRANCH   5  38
BRANCH   8  40
HETATM   40  C   UNL     1     -12.417  13.564  66.981  1.00  0.00    -0.055 C  
HETATM   41  O   UNL     1     -12.654  14.104  68.050  1.00  0.00     0.077 OA 
BRANCH  40  42
HETATM   42  O   UNL     1     -12.698  12.263  66.695  1.00  0.00     0.387 OA 
HETATM   43  C   UNL     1     -12.222  11.221  67.559  1.00  0.00     0.958 C  
ENDBRANCH  40  42
ENDBRANCH   8  40
TORSDOF 9
ENDMDL
MODEL      181
REMARK 921   NORMALIZED FREE ENERGY PREDICTED BY IDOCK:   24.23 KCAL/MOL
REMARK 922        TOTAL FREE ENERGY PREDICTED BY IDOCK:   34.34 KCAL/MOL
REMARK 923 INTER-LIGAND FREE ENERGY PREDICTED BY IDOCK:    3.68 KCAL/MOL
REMARK 924 INTRA-LIGAND FREE ENERGY PREDICTED BY IDOCK:   30.66 KCAL/MOL
REMARK 927      BINDING AFFINITY PREDICTED BY RF-SCORE:    0.00 PKD
ROOT
HETATM    1  C   UNL     1     -12.374  11.104  71.895  1.00  0.00     0.207 C  
HETATM    2  C   UNL     1     -13.571  10.420  71.228  1.00  0.00    -0.052 C  
HETATM    3  C   UNL     1     -13.268   9.606  69.917  1.00  0.00     1.345 C  
HETATM    4  C   UNL     1     -10.609  16.539  69.705  1.00  0.00    -0.265 A  
HETATM    5  C   UNL     1     -12.574   8.372  70.481  1.00  0.00     0.512 C  
HETATM    6  C   UNL     1     -10.797  17.937  69.740  1.00  0.00     1.188 A  
HETATM    7  C   UNL     1      -9.799  18.787  69.236  1.00  0.00    -0.148 A  
HETATM    8  C   UNL     1     -11.192   8.916  71.030  1.00  0.00    -0.342 C  
HETATM    9  C   UNL     1      -8.635  18.251  68.709  1.00  0.00    -0.240 A  
HETATM   10  C   UNL     1      -8.420  16.861  68.676  1.00  0.00    -0.260 A  
HETATM   11  H   UNL     1      -8.753  13.993  69.002  1.00  0.00     0.000 HD 
HETATM   12  C   UNL     1     -11.054  10.557  71.314  1.00  0.00     0.617 C  
HETATM   13  C   UNL     1      -9.430  16.020  69.186  1.00  0.00    -0.253 A  
HETATM   14  N   UNL     1      -9.501  14.634  69.269  1.00  0.00    -0.065 NA 
HETATM   15  C   UNL     1     -10.727  14.253  69.764  1.00  0.00     0.072 A  
HETATM   16  C   UNL     1     -11.418  15.426  70.042  1.00  0.00    -0.335 A  
HETATM   17  C   UNL     1     -10.406  11.684  70.377  1.00  0.00     2.292 C  
HETATM   18  C   UNL     1     -12.834  15.412  70.488  1.00  0.00    -0.425 C  
HETATM   19  C   UNL     1     -11.321  12.842  69.781  1.00  0.00    -0.033 C  
HETATM   20  C   UNL     1     -13.464  14.090  70.028  1.00  0.00     1.205 C  
HETATM   21  C   UNL     1     -12.624  12.609  71.787  1.00  0.00    -0.016 C  
HETATM   22  N   UNL     1     -12.670  12.895  70.368  1.00  0.00    -0.034 NA 
ENDROOT
BRANCH   3  23
HETATM   23  O   UNL     1     -12.381  10.174  68.876  1.00  0.00     0.184 OA 
BRANCH  23  24
HETATM   24  C   UNL     1     -11.245   9.438  68.637  1.00  0.00     0.172 C  
HETATM   25  O   UNL     1     -10.963   8.424  69.269  1.00  0.00    -0.112 OA 
BRANCH  24  26
HETATM   26  C   UNL     1     -10.258   9.905  67.607  1.00  0.00    -0.255 A  
HETATM   27  C   UNL     1      -8.068  10.235  65.827  1.00  0.00    -0.149 A  
HETATM   28  C   UNL     1     -10.455   9.895  66.233  1.00  0.00    -0.171 A  
HETATM   29  C   UNL     1      -8.978  10.237  68.079  1.00  0.00    -0.132 A  
HETATM   30  C   UNL     1      -7.882  10.364  67.216  1.00  0.00    -0.106 A  
HETATM   31  C   UNL     1      -9.372  10.026  65.338  1.00  0.00    -0.229 A  
BRANCH  30  32
HETATM   32  O   UNL     1      -6.599  10.564  67.674  1.00  0.00    -0.064 OA 
HETATM   33  C   UNL     1      -5.586   9.793  67.027  1.00  0.00    -0.046 C  
ENDBRANCH  30  32
BRANCH  27  34
HETATM   34  O   UNL     1      -6.938  10.351  65.052  1.00  0.00    -0.128 OA 
HETATM   35  C   UNL     1      -6.183  11.552  65.196  1.00  0.00     1.618 C  
ENDBRANCH  27  34
BRANCH  31  36
HETATM   36  O   UNL     1      -9.555   9.968  63.978  1.00  0.00    -0.285 OA 
HETATM   37  C   UNL     1      -8.745   9.025  63.282  1.00  0.00    -0.092 C  
ENDBRANCH  31  36
ENDBRANCH  24  26
ENDBRANCH  23  24
ENDBRANCH   3  23
BRANCH   5  38
HETATM   38  O   UNL     1     -13.442   7.820  71.491  1.00  0.00    -0.351 OA 
HETATM   39  C   UNL     1     -14.062   8.699  72.409  1.00  0.00    -0.377 C  
ENDBRANCH   5  38
BRANCH   8  40
HETATM   40  C   UNL     1     -10.116   8.245  70.200  1.00  0.00    -0.191 C  
HETATM   41  O   UNL     1     -10.194   8.032  69.000  1.00  0.00    -0.201 OA 
BRANCH  40  42
HETATM   42  O   UNL     1      -9.089   7.831  70.992  1.00  0.00    -0.145 OA 
HETATM   43  C   UNL     1      -8.959   8.348  72.324  1.00  0.00    -0.233 C  
ENDBRANCH  40  42
ENDBRANCH   8  40
TORSDOF 9
ENDMDL
MODEL      182
REMARK 921   NORMALIZED FREE ENERGY PREDICTED BY IDOCK:   24.35 KCAL/MOL
REMARK 922        TOTAL FREE ENERGY PREDICTED BY IDOCK:   34.53 KCAL/MOL
REMARK 923 INTER-LIGAND FREE ENERGY PREDICTED BY IDOCK:   32.47 KCAL/MOL
REMARK 924 INTRA-LIGAND FREE ENERGY PREDICTED BY IDOCK:    2.06 KCAL/MOL
REMARK 927      BINDING AFFINITY PREDICTED BY RF-SCORE:    0.00 PKD
ROOT
HETATM    1  C   UNL     1      -7.081   8.974  70.805  1.00  0.00    -0.092 C  
HETATM    2  C   UNL     1      -6.870  10.150  71.763  1.00  0.00     1.433 C  
HETATM    3  C   UNL     1      -8.154  10.968  72.157  1.00  0.00    10.940 C  
HETATM    4  C   UNL     1      -7.352  10.190  64.813  1.00  0.00    -0.134 A  
HETATM    5  C   UNL     1      -8.845  10.002  73.114  1.00  0.00     7.322 C  
HETATM    6  C   UNL     1      -6.624  10.390  63.621  1.00  0.00    -0.029 A  
HETATM    7  C   UNL     1      -7.278  10.293  62.381  1.00  0.00    -0.153 A  
HETATM    8  C   UNL     1      -9.312   8.804  72.191  1.00  0.00    -0.277 C  
HETATM    9  C   UNL     1      -8.631  10.000  62.334  1.00  0.00    -0.210 A  
HETATM   10  C   UNL     1      -9.374   9.783  63.509  1.00  0.00    -0.139 A  
HETATM   11  H   UNL     1     -10.125   9.467  66.298  1.00  0.00     0.000 HD 
HETATM   12  C   UNL     1      -8.581   8.633  70.699  1.00  0.00    -0.183 C  
HETATM   13  C   UNL     1      -8.704   9.883  64.746  1.00  0.00    -0.189 A  
HETATM   14  N   UNL     1      -9.175   9.739  66.046  1.00  0.00    -0.167 NA 
HETATM   15  C   UNL     1      -8.170  10.016  66.945  1.00  0.00    -0.121 A  
HETATM   16  C   UNL     1      -7.035  10.291  66.191  1.00  0.00    -0.116 A  
HETATM   17  C   UNL     1      -9.111   9.114  69.264  1.00  0.00    -0.146 C  
HETATM   18  C   UNL     1      -5.771  10.748  66.819  1.00  0.00    -0.069 C  
HETATM   19  C   UNL     1      -8.309  10.226  68.455  1.00  0.00    -0.116 C  
HETATM   20  C   UNL     1      -6.115  11.374  68.178  1.00  0.00    -0.045 C  
HETATM   21  C   UNL     1      -6.345   9.335  69.514  1.00  0.00    -0.043 C  
HETATM   22  N   UNL     1      -6.987  10.536  69.021  1.00  0.00    -0.068 NA 
ENDROOT
BRANCH   3  23
HETATM   23  O   UNL     1      -9.143  11.346  71.121  1.00  0.00     5.871 OA 
BRANCH  23  24
HETATM   24  C   UNL     1      -8.755  12.398  70.327  1.00  0.00     4.907 C  
HETATM   25  O   UNL     1      -7.616  12.858  70.337  1.00  0.00     1.963 OA 
BRANCH  24  26
HETATM   26  C   UNL     1      -9.763  13.076  69.444  1.00  0.00     0.946 A  
HETATM   27  C   UNL     1     -11.423  14.909  68.046  1.00  0.00    -0.337 A  
HETATM   28  C   UNL     1      -9.679  13.196  68.064  1.00  0.00    -0.224 A  
HETATM   29  C   UNL     1     -10.793  13.771  70.097  1.00  0.00     0.563 A  
HETATM   30  C   UNL     1     -11.593  14.706  69.428  1.00  0.00    -0.305 A  
HETATM   31  C   UNL     1     -10.475  14.124  67.361  1.00  0.00    -0.271 A  
BRANCH  30  32
HETATM   32  O   UNL     1     -12.523  15.486  70.080  1.00  0.00    -0.387 OA 
HETATM   33  C   UNL     1     -12.894  15.039  71.384  1.00  0.00    -0.359 C  
ENDBRANCH  30  32
BRANCH  27  34
HETATM   34  O   UNL     1     -12.232  15.861  67.471  1.00  0.00     0.587 OA 
HETATM   35  C   UNL     1     -12.868  15.504  66.245  1.00  0.00     2.197 C  
ENDBRANCH  27  34
BRANCH  31  36
HETATM   36  O   UNL     1     -10.363  14.282  66.001  1.00  0.00    -0.289 OA 
HETATM   37  C   UNL     1      -9.427  13.425  65.352  1.00  0.00     0.265 C  
ENDBRANCH  31  36
ENDBRANCH  24  26
ENDBRANCH  23  24
ENDBRANCH   3  23
BRANCH   5  38
HETATM   38  O   UNL     1      -7.880   9.640  74.122  1.00  0.00     1.162 OA 
HETATM   39  C   UNL     1      -7.235   8.386  74.026  1.00  0.00    -0.123 C  
ENDBRANCH   5  38
BRANCH   8  40
HETATM   40  C   UNL     1     -10.827   8.795  72.247  1.00  0.00    -0.258 C  
HETATM   41  O   UNL     1     -11.502   7.870  72.668  1.00  0.00    -0.367 OA 
BRANCH  40  42
HETATM   42  O   UNL     1     -11.333   9.925  71.681  1.00  0.00    -0.300 OA 
HETATM   43  C   UNL     1     -12.347   9.827  70.671  1.00  0.00    -0.168 C  
ENDBRANCH  40  42
ENDBRANCH   8  40
TORSDOF 9
ENDMDL
MODEL      183
REMARK 921   NORMALIZED FREE ENERGY PREDICTED BY IDOCK:   24.74 KCAL/MOL
REMARK 922        TOTAL FREE ENERGY PREDICTED BY IDOCK:   35.12 KCAL/MOL
REMARK 923 INTER-LIGAND FREE ENERGY PREDICTED BY IDOCK:   26.86 KCAL/MOL
REMARK 924 INTRA-LIGAND FREE ENERGY PREDICTED BY IDOCK:    8.27 KCAL/MOL
REMARK 927      BINDING AFFINITY PREDICTED BY RF-SCORE:    0.00 PKD
ROOT
HETATM    1  C   UNL     1      -8.452   7.896  66.825  1.00  0.00    -0.129 C  
HETATM    2  C   UNL     1      -8.643   6.798  67.875  1.00  0.00    -0.122 C  
HETATM    3  C   UNL     1      -9.898   5.869  67.692  1.00  0.00    -0.121 C  
HETATM    4  C   UNL     1     -11.595  13.099  67.532  1.00  0.00    -0.398 A  
HETATM    5  C   UNL     1      -9.462   5.000  66.517  1.00  0.00    -0.149 C  
HETATM    6  C   UNL     1     -11.638  14.373  68.139  1.00  0.00    -0.360 A  
HETATM    7  C   UNL     1     -12.508  15.354  67.635  1.00  0.00     1.067 A  
HETATM    8  C   UNL     1      -9.427   5.995  65.287  1.00  0.00     0.459 C  
HETATM    9  C   UNL     1     -13.317  15.070  66.547  1.00  0.00     3.068 A  
HETATM   10  C   UNL     1     -13.282  13.811  65.918  1.00  0.00     0.302 A  
HETATM   11  H   UNL     1     -12.593  11.075  65.224  1.00  0.00     0.000 HD 
HETATM   12  C   UNL     1      -9.359   7.634  65.606  1.00  0.00     0.209 C  
HETATM   13  C   UNL     1     -12.403  12.836  66.434  1.00  0.00     0.012 A  
HETATM   14  N   UNL     1     -12.169  11.525  66.036  1.00  0.00     0.402 NA 
HETATM   15  C   UNL     1     -11.283  10.921  66.898  1.00  0.00    -0.086 A  
HETATM   16  C   UNL     1     -10.917  11.890  67.825  1.00  0.00    -0.278 A  
HETATM   17  C   UNL     1     -10.556   8.700  65.626  1.00  0.00     2.083 C  
HETATM   18  C   UNL     1     -10.053  11.571  68.988  1.00  0.00    -0.075 C  
HETATM   19  C   UNL     1     -10.945   9.430  66.986  1.00  0.00     0.126 C  
HETATM   20  C   UNL     1     -10.164  10.065  69.265  1.00  0.00    -0.214 C  
HETATM   21  C   UNL     1      -8.621   9.227  67.560  1.00  0.00    -0.116 C  
HETATM   22  N   UNL     1      -9.975   9.220  68.072  1.00  0.00    -0.173 NA 
ENDROOT
BRANCH   3  23
HETATM   23  O   UNL     1     -11.213   6.454  67.345  1.00  0.00    -0.352 OA 
BRANCH  23  24
HETATM   24  C   UNL     1     -12.119   6.464  68.379  1.00  0.00     2.591 C  
HETATM   25  O   UNL     1     -13.333   6.425  68.203  1.00  0.00     9.788 OA 
BRANCH  24  26
HETATM   26  C   UNL     1     -11.631   6.591  69.794  1.00  0.00    -0.392 A  
HETATM   27  C   UNL     1     -11.188   7.288  72.512  1.00  0.00    -0.301 A  
HETATM   28  C   UNL     1     -11.826   5.659  70.804  1.00  0.00     0.875 A  
HETATM   29  C   UNL     1     -11.064   7.825  70.147  1.00  0.00    -0.216 A  
HETATM   30  C   UNL     1     -10.877   8.196  71.485  1.00  0.00    -0.238 A  
HETATM   31  C   UNL     1     -11.640   6.000  72.160  1.00  0.00    -0.293 A  
BRANCH  30  32
HETATM   32  O   UNL     1     -10.439   9.450  71.850  1.00  0.00    -0.217 OA 
HETATM   33  C   UNL     1      -9.079   9.527  72.278  1.00  0.00     2.060 C  
ENDBRANCH  30  32
BRANCH  27  34
HETATM   34  O   UNL     1     -10.997   7.738  73.798  1.00  0.00    -0.131 OA 
HETATM   35  C   UNL     1      -9.748   7.420  74.408  1.00  0.00     0.205 C  
ENDBRANCH  27  34
BRANCH  31  36
HETATM   36  O   UNL     1     -11.878   5.097  73.167  1.00  0.00    -0.263 OA 
HETATM   37  C   UNL     1     -11.197   3.851  73.056  1.00  0.00     0.001 C  
ENDBRANCH  31  36
ENDBRANCH  24  26
ENDBRANCH  23  24
ENDBRANCH   3  23
BRANCH   5  38
HETATM   38  O   UNL     1      -8.183   4.430  66.862  1.00  0.00    -0.101 OA 
HETATM   39  C   UNL     1      -8.154   3.217  67.588  1.00  0.00    -0.080 C  
ENDBRANCH   5  38
BRANCH   8  40
HETATM   40  C   UNL     1     -10.482   5.502  64.317  1.00  0.00     2.560 C  
HETATM   41  O   UNL     1     -10.816   6.085  63.297  1.00  0.00     5.067 OA 
BRANCH  40  42
HETATM   42  O   UNL     1     -11.069   4.366  64.784  1.00  0.00    -0.204 OA 
HETATM   43  C   UNL     1     -10.610   3.774  66.007  1.00  0.00     0.991 C  
ENDBRANCH  40  42
ENDBRANCH   8  40
TORSDOF 9
ENDMDL
MODEL      184
REMARK 921   NORMALIZED FREE ENERGY PREDICTED BY IDOCK:   25.11 KCAL/MOL
REMARK 922        TOTAL FREE ENERGY PREDICTED BY IDOCK:   35.69 KCAL/MOL
REMARK 923 INTER-LIGAND FREE ENERGY PREDICTED BY IDOCK:   17.26 KCAL/MOL
REMARK 924 INTRA-LIGAND FREE ENERGY PREDICTED BY IDOCK:   18.44 KCAL/MOL
REMARK 927      BINDING AFFINITY PREDICTED BY RF-SCORE:    0.00 PKD
ROOT
HETATM    1  C   UNL     1      -7.457  13.805  71.400  1.00  0.00     4.507 C  
HETATM    2  C   UNL     1      -6.192  14.651  71.224  1.00  0.00     0.193 C  
HETATM    3  C   UNL     1      -5.930  15.222  69.783  1.00  0.00    -0.134 C  
HETATM    4  C   UNL     1      -7.183   7.900  69.818  1.00  0.00    -0.066 A  
HETATM    5  C   UNL     1      -6.972  16.332  69.704  1.00  0.00    -0.086 C  
HETATM    6  C   UNL     1      -6.847   6.589  70.221  1.00  0.00    -0.058 A  
HETATM    7  C   UNL     1      -7.350   5.490  69.506  1.00  0.00    -0.066 A  
HETATM    8  C   UNL     1      -8.357  15.568  69.665  1.00  0.00    -0.113 C  
HETATM    9  C   UNL     1      -8.174   5.695  68.411  1.00  0.00    -0.103 A  
HETATM   10  C   UNL     1      -8.534   6.992  67.999  1.00  0.00    -0.125 A  
HETATM   11  H   UNL     1      -8.793   9.882  67.844  1.00  0.00     0.000 HD 
HETATM   12  C   UNL     1      -8.391  13.981  70.186  1.00  0.00     1.906 C  
HETATM   13  C   UNL     1      -8.021   8.086  68.727  1.00  0.00    -0.119 A  
HETATM   14  N   UNL     1      -8.189   9.454  68.546  1.00  0.00    -0.112 NA 
HETATM   15  C   UNL     1      -7.421  10.147  69.453  1.00  0.00    -0.119 A  
HETATM   16  C   UNL     1      -6.798   9.193  70.249  1.00  0.00    -0.055 A  
HETATM   17  C   UNL     1      -8.344  12.639  69.311  1.00  0.00     0.821 C  
HETATM   18  C   UNL     1      -5.792   9.567  71.274  1.00  0.00    -0.075 C  
HETATM   19  C   UNL     1      -7.107  11.646  69.447  1.00  0.00    -0.007 C  
HETATM   20  C   UNL     1      -5.205  10.931  70.889  1.00  0.00    -0.106 C  
HETATM   21  C   UNL     1      -6.983  12.388  71.729  1.00  0.00     6.318 C  
HETATM   22  N   UNL     1      -6.218  11.956  70.579  1.00  0.00    -0.225 NA 
ENDROOT
BRANCH   3  23
HETATM   23  O   UNL     1      -6.116  14.357  68.594  1.00  0.00    -0.078 OA 
BRANCH  23  24
HETATM   24  C   UNL     1      -6.810  14.950  67.567  1.00  0.00    -0.161 C  
HETATM   25  O   UNL     1      -6.646  16.122  67.240  1.00  0.00    -0.170 OA 
BRANCH  24  26
HETATM   26  C   UNL     1      -7.866  14.172  66.835  1.00  0.00     0.244 A  
HETATM   27  C   UNL     1      -9.632  13.030  64.925  1.00  0.00     0.262 A  
HETATM   28  C   UNL     1      -7.821  12.814  66.554  1.00  0.00     0.575 A  
HETATM   29  C   UNL     1      -8.906  14.922  66.264  1.00  0.00    -0.108 A  
HETATM   30  C   UNL     1      -9.759  14.382  65.293  1.00  0.00    -0.042 A  
HETATM   31  C   UNL     1      -8.671  12.239  65.585  1.00  0.00     0.581 A  
BRANCH  30  32
HETATM   32  O   UNL     1     -10.702  15.139  64.633  1.00  0.00    -0.366 OA 
HETATM   33  C   UNL     1     -10.588  16.551  64.805  1.00  0.00     0.137 C  
ENDBRANCH  30  32
BRANCH  27  34
HETATM   34  O   UNL     1     -10.492  12.585  63.949  1.00  0.00    -0.398 OA 
HETATM   35  C   UNL     1     -10.494  13.308  62.719  1.00  0.00     4.003 C  
ENDBRANCH  27  34
BRANCH  31  36
HETATM   36  O   UNL     1      -8.598  10.905  65.268  1.00  0.00    -0.172 OA 
HETATM   37  C   UNL     1      -9.120  10.006  66.243  1.00  0.00    -0.151 C  
ENDBRANCH  31  36
ENDBRANCH  24  26
ENDBRANCH  23  24
ENDBRANCH   3  23
BRANCH   5  38
HETATM   38  O   UNL     1      -6.785  17.173  70.860  1.00  0.00     1.741 OA 
HETATM   39  C   UNL     1      -5.476  17.593  71.190  1.00  0.00     0.058 C  
ENDBRANCH   5  38
BRANCH   8  40
HETATM   40  C   UNL     1      -8.977  15.888  68.319  1.00  0.00    -0.184 C  
HETATM   41  O   UNL     1      -8.727  16.883  67.658  1.00  0.00    -0.206 OA 
BRANCH  40  42
HETATM   42  O   UNL     1      -9.917  14.960  67.991  1.00  0.00    -0.216 OA 
HETATM   43  C   UNL     1     -11.108  14.836  68.781  1.00  0.00    -0.265 C  
ENDBRANCH  40  42
ENDBRANCH   8  40
TORSDOF 9
ENDMDL
MODEL      185
REMARK 921   NORMALIZED FREE ENERGY PREDICTED BY IDOCK:   25.17 KCAL/MOL
REMARK 922        TOTAL FREE ENERGY PREDICTED BY IDOCK:   35.78 KCAL/MOL
REMARK 923 INTER-LIGAND FREE ENERGY PREDICTED BY IDOCK:   33.50 KCAL/MOL
REMARK 924 INTRA-LIGAND FREE ENERGY PREDICTED BY IDOCK:    2.28 KCAL/MOL
REMARK 927      BINDING AFFINITY PREDICTED BY RF-SCORE:    0.00 PKD
ROOT
HETATM    1  C   UNL     1      -7.081   8.974  70.805  1.00  0.00    -0.092 C  
HETATM    2  C   UNL     1      -6.853  10.130  71.784  1.00  0.00     1.433 C  
HETATM    3  C   UNL     1      -8.122  10.970  72.179  1.00  0.00    10.940 C  
HETATM    4  C   UNL     1      -7.268  10.290  64.831  1.00  0.00    -0.100 A  
HETATM    5  C   UNL     1      -8.843  10.005  73.114  1.00  0.00     7.322 C  
HETATM    6  C   UNL     1      -6.524  10.493  63.649  1.00  0.00     0.033 A  
HETATM    7  C   UNL     1      -7.168  10.429  62.402  1.00  0.00    -0.161 A  
HETATM    8  C   UNL     1      -9.328   8.832  72.168  1.00  0.00    -0.277 C  
HETATM    9  C   UNL     1      -8.527  10.168  62.337  1.00  0.00    -0.191 A  
HETATM   10  C   UNL     1      -9.286   9.949  63.502  1.00  0.00    -0.279 A  
HETATM   11  H   UNL     1     -10.071   9.606  66.279  1.00  0.00     0.000 HD 
HETATM   12  C   UNL     1      -8.587   8.669  70.679  1.00  0.00    -0.183 C  
HETATM   13  C   UNL     1      -8.626  10.015  64.747  1.00  0.00    -0.177 A  
HETATM   14  N   UNL     1      -9.112   9.860  66.040  1.00  0.00    -0.151 NA 
HETATM   15  C   UNL     1      -8.110  10.101  66.952  1.00  0.00    -0.121 A  
HETATM   16  C   UNL     1      -6.962  10.362  66.213  1.00  0.00    -0.118 A  
HETATM   17  C   UNL     1      -9.092   9.184  69.248  1.00  0.00    -0.146 C  
HETATM   18  C   UNL     1      -5.694  10.781  66.860  1.00  0.00    -0.062 C  
HETATM   19  C   UNL     1      -8.259  10.290  68.464  1.00  0.00    -0.111 C  
HETATM   20  C   UNL     1      -6.037  11.392  68.226  1.00  0.00    -0.045 C  
HETATM   21  C   UNL     1      -6.324   9.339  69.526  1.00  0.00    -0.043 C  
HETATM   22  N   UNL     1      -6.935  10.561  69.048  1.00  0.00    -0.068 NA 
ENDROOT
BRANCH   3  23
HETATM   23  O   UNL     1      -9.092  11.386  71.140  1.00  0.00     5.871 OA 
BRANCH  23  24
HETATM   24  C   UNL     1      -8.708  12.491  70.418  1.00  0.00     5.793 C  
HETATM   25  O   UNL     1      -7.580  12.973  70.486  1.00  0.00     2.217 OA 
BRANCH  24  26
HETATM   26  C   UNL     1      -9.708  13.197  69.549  1.00  0.00     1.189 A  
HETATM   27  C   UNL     1     -11.610  13.955  67.579  1.00  0.00    -0.360 A  
HETATM   28  C   UNL     1     -11.010  13.518  69.909  1.00  0.00     0.258 A  
HETATM   29  C   UNL     1      -9.330  13.410  68.214  1.00  0.00    -0.205 A  
HETATM   30  C   UNL     1     -10.265  13.745  67.226  1.00  0.00    -0.253 A  
HETATM   31  C   UNL     1     -11.972  13.865  68.938  1.00  0.00    -0.358 A  
BRANCH  30  32
HETATM   32  O   UNL     1      -9.932  13.835  65.892  1.00  0.00    -0.297 OA 
HETATM   33  C   UNL     1      -9.205  15.004  65.516  1.00  0.00     0.321 C  
ENDBRANCH  30  32
BRANCH  27  34
HETATM   34  O   UNL     1     -12.467  14.259  66.547  1.00  0.00    -0.428 OA 
HETATM   35  C   UNL     1     -12.580  13.293  65.504  1.00  0.00    -0.446 C  
ENDBRANCH  27  34
BRANCH  31  36
HETATM   36  O   UNL     1     -13.274  14.137  69.283  1.00  0.00     1.023 OA 
HETATM   37  C   UNL     1     -13.547  15.481  69.668  1.00  0.00     1.789 C  
ENDBRANCH  31  36
ENDBRANCH  24  26
ENDBRANCH  23  24
ENDBRANCH   3  23
BRANCH   5  38
HETATM   38  O   UNL     1      -7.896   9.606  74.125  1.00  0.00     1.162 OA 
HETATM   39  C   UNL     1      -7.278   8.339  74.015  1.00  0.00    -0.154 C  
ENDBRANCH   5  38
BRANCH   8  40
HETATM   40  C   UNL     1     -10.843   8.857  72.210  1.00  0.00    -0.165 C  
HETATM   41  O   UNL     1     -11.543   7.940  72.610  1.00  0.00    -0.376 OA 
BRANCH  40  42
HETATM   42  O   UNL     1     -11.319  10.007  71.657  1.00  0.00    -0.233 OA 
HETATM   43  C   UNL     1     -11.751  10.018  70.289  1.00  0.00    -0.251 C  
ENDBRANCH  40  42
ENDBRANCH   8  40
TORSDOF 9
ENDMDL
MODEL      186
REMARK 921   NORMALIZED FREE ENERGY PREDICTED BY IDOCK:   25.45 KCAL/MOL
REMARK 922        TOTAL FREE ENERGY PREDICTED BY IDOCK:   36.20 KCAL/MOL
REMARK 923 INTER-LIGAND FREE ENERGY PREDICTED BY IDOCK:   27.69 KCAL/MOL
REMARK 924 INTRA-LIGAND FREE ENERGY PREDICTED BY IDOCK:    8.51 KCAL/MOL
REMARK 927      BINDING AFFINITY PREDICTED BY RF-SCORE:    0.00 PKD
ROOT
HETATM    1  C   UNL     1     -12.065   7.936  67.789  1.00  0.00     4.116 C  
HETATM    2  C   UNL     1     -12.188   7.328  66.389  1.00  0.00     6.540 C  
HETATM    3  C   UNL     1     -10.841   6.966  65.664  1.00  0.00     3.143 C  
HETATM    4  C   UNL     1     -10.980  13.944  68.206  1.00  0.00    -0.274 A  
HETATM    5  C   UNL     1     -10.414   5.718  66.429  1.00  0.00    -0.157 C  
HETATM    6  C   UNL     1     -11.538  15.241  68.232  1.00  0.00    -0.357 A  
HETATM    7  C   UNL     1     -10.781  16.315  68.727  1.00  0.00    -0.309 A  
HETATM    8  C   UNL     1     -10.046   6.249  67.873  1.00  0.00    -0.169 C  
HETATM    9  C   UNL     1      -9.493  16.100  69.189  1.00  0.00    -0.251 A  
HETATM   10  C   UNL     1      -8.921  14.814  69.186  1.00  0.00    -0.078 A  
HETATM   11  H   UNL     1      -8.525  11.954  68.862  1.00  0.00     0.000 HD 
HETATM   12  C   UNL     1     -10.634   7.745  68.331  1.00  0.00    -0.157 C  
HETATM   13  C   UNL     1      -9.693  13.745  68.687  1.00  0.00    -0.140 A  
HETATM   14  N   UNL     1      -9.390  12.395  68.548  1.00  0.00    -0.141 NA 
HETATM   15  C   UNL     1     -10.427  11.740  67.925  1.00  0.00    -0.196 A  
HETATM   16  C   UNL     1     -11.419  12.691  67.714  1.00  0.00    -0.375 A  
HETATM   17  C   UNL     1      -9.888   9.163  68.307  1.00  0.00    -0.181 C  
HETATM   18  C   UNL     1     -12.655  12.375  66.956  1.00  0.00     1.319 C  
HETATM   19  C   UNL     1     -10.416  10.321  67.351  1.00  0.00    -0.251 C  
HETATM   20  C   UNL     1     -12.362  11.172  66.049  1.00  0.00     2.913 C  
HETATM   21  C   UNL     1     -12.596   9.367  67.685  1.00  0.00     8.038 C  
HETATM   22  N   UNL     1     -11.726  10.038  66.742  1.00  0.00     1.148 NA 
ENDROOT
BRANCH   3  23
HETATM   23  O   UNL     1      -9.702   7.912  65.693  1.00  0.00     0.241 OA 
BRANCH  23  24
HETATM   24  C   UNL     1      -8.712   7.633  64.782  1.00  0.00     0.285 C  
HETATM   25  O   UNL     1      -8.294   8.460  63.977  1.00  0.00    -0.146 OA 
BRANCH  24  26
HETATM   26  C   UNL     1      -8.142   6.246  64.703  1.00  0.00    -0.115 A  
HETATM   27  C   UNL     1      -7.465   3.570  64.028  1.00  0.00    -0.067 A  
HETATM   28  C   UNL     1      -6.853   5.922  64.301  1.00  0.00    -0.050 A  
HETATM   29  C   UNL     1      -9.044   5.191  64.910  1.00  0.00    -0.042 A  
HETATM   30  C   UNL     1      -8.738   3.874  64.546  1.00  0.00    -0.120 A  
HETATM   31  C   UNL     1      -6.512   4.603  63.933  1.00  0.00    -0.037 A  
BRANCH  30  32
HETATM   32  O   UNL     1      -9.656   2.851  64.627  1.00  0.00    -0.153 OA 
HETATM   33  C   UNL     1      -9.835   2.286  65.926  1.00  0.00     0.695 C  
ENDBRANCH  30  32
BRANCH  27  34
HETATM   34  O   UNL     1      -7.253   2.259  63.674  1.00  0.00    -0.045 OA 
HETATM   35  C   UNL     1      -7.967   1.779  62.537  1.00  0.00    -0.055 C  
ENDBRANCH  27  34
BRANCH  31  36
HETATM   36  O   UNL     1      -5.252   4.286  63.490  1.00  0.00    -0.008 OA 
HETATM   37  C   UNL     1      -5.186   3.319  62.445  1.00  0.00    -0.005 C  
ENDBRANCH  31  36
ENDBRANCH  24  26
ENDBRANCH  23  24
ENDBRANCH   3  23
BRANCH   5  38
HETATM   38  O   UNL     1     -11.524   4.798  66.394  1.00  0.00     1.096 OA 
HETATM   39  C   UNL     1     -11.777   4.083  65.201  1.00  0.00     2.395 C  
ENDBRANCH   5  38
BRANCH   8  40
HETATM   40  C   UNL     1      -8.565   5.980  68.056  1.00  0.00    -0.114 C  
HETATM   41  O   UNL     1      -7.676   6.767  67.776  1.00  0.00    -0.107 OA 
BRANCH  40  42
HETATM   42  O   UNL     1      -8.360   4.707  68.493  1.00  0.00    -0.086 OA 
HETATM   43  C   UNL     1      -7.063   4.107  68.366  1.00  0.00    -0.055 C  
ENDBRANCH  40  42
ENDBRANCH   8  40
TORSDOF 9
ENDMDL
MODEL      187
REMARK 921   NORMALIZED FREE ENERGY PREDICTED BY IDOCK:   25.63 KCAL/MOL
REMARK 922        TOTAL FREE ENERGY PREDICTED BY IDOCK:   36.48 KCAL/MOL
REMARK 923 INTER-LIGAND FREE ENERGY PREDICTED BY IDOCK:   -4.72 KCAL/MOL
REMARK 924 INTRA-LIGAND FREE ENERGY PREDICTED BY IDOCK:   41.20 KCAL/MOL
REMARK 927      BINDING AFFINITY PREDICTED BY RF-SCORE:    0.00 PKD
ROOT
HETATM    1  C   UNL     1      -7.920  10.833  65.831  1.00  0.00    -0.140 C  
HETATM    2  C   UNL     1      -6.646  10.124  66.301  1.00  0.00    -0.094 C  
HETATM    3  C   UNL     1      -6.847   8.855  67.207  1.00  0.00    -0.077 C  
HETATM    4  C   UNL     1     -10.564  14.796  69.673  1.00  0.00    -0.167 A  
HETATM    5  C   UNL     1      -7.327   7.829  66.187  1.00  0.00    -0.078 C  
HETATM    6  C   UNL     1     -10.596  16.122  70.155  1.00  0.00    -0.226 A  
HETATM    7  C   UNL     1     -11.726  16.583  70.849  1.00  0.00     0.089 A  
HETATM    8  C   UNL     1      -8.764   8.340  65.763  1.00  0.00    -0.196 C  
HETATM    9  C   UNL     1     -12.803  15.738  71.057  1.00  0.00    -0.425 A  
HETATM   10  C   UNL     1     -12.799  14.415  70.575  1.00  0.00    -0.353 A  
HETATM   11  H   UNL     1     -12.013  11.940  69.273  1.00  0.00     0.000 HD 
HETATM   12  C   UNL     1      -9.151   9.936  66.073  1.00  0.00    -0.195 C  
HETATM   13  C   UNL     1     -11.658  13.967  69.879  1.00  0.00    -0.241 A  
HETATM   14  N   UNL     1     -11.369  12.730  69.312  1.00  0.00    -0.263 NA 
HETATM   15  C   UNL     1     -10.088  12.729  68.811  1.00  0.00    -0.045 A  
HETATM   16  C   UNL     1      -9.582  14.005  69.025  1.00  0.00     0.081 A  
HETATM   17  C   UNL     1      -9.988  10.542  67.298  1.00  0.00    -0.224 C  
HETATM   18  C   UNL     1      -8.172  14.350  68.715  1.00  0.00    -0.126 C  
HETATM   19  C   UNL     1      -9.279  11.517  68.337  1.00  0.00    -0.190 C  
HETATM   20  C   UNL     1      -7.354  13.052  68.720  1.00  0.00    -0.064 C  
HETATM   21  C   UNL     1      -7.911  12.214  66.489  1.00  0.00     0.152 C  
HETATM   22  N   UNL     1      -7.943  11.966  67.915  1.00  0.00    -0.135 NA 
ENDROOT
BRANCH   3  23
HETATM   23  O   UNL     1      -7.836   8.877  68.310  1.00  0.00    -0.099 OA 
BRANCH  23  24
HETATM   24  C   UNL     1      -8.708   7.815  68.307  1.00  0.00    -0.127 C  
HETATM   25  O   UNL     1      -9.873   7.907  68.685  1.00  0.00    -0.162 OA 
BRANCH  24  26
HETATM   26  C   UNL     1      -8.226   6.455  67.888  1.00  0.00    -0.115 A  
HETATM   27  C   UNL     1      -6.753   4.211  66.958  1.00  0.00    -0.047 A  
HETATM   28  C   UNL     1      -7.921   5.406  68.744  1.00  0.00    -0.087 A  
HETATM   29  C   UNL     1      -7.920   6.297  66.528  1.00  0.00    -0.109 A  
HETATM   30  C   UNL     1      -7.162   5.216  66.062  1.00  0.00    -0.073 A  
HETATM   31  C   UNL     1      -7.163   4.300  68.303  1.00  0.00    -0.060 A  
BRANCH  30  32
HETATM   32  O   UNL     1      -6.748   5.112  64.752  1.00  0.00    -0.045 OA 
HETATM   33  C   UNL     1      -6.137   6.280  64.205  1.00  0.00    -0.029 C  
ENDBRANCH  30  32
BRANCH  27  34
HETATM   34  O   UNL     1      -5.993   3.197  66.425  1.00  0.00    -0.022 OA 
HETATM   35  C   UNL     1      -5.293   3.488  65.218  1.00  0.00    -0.009 C  
ENDBRANCH  27  34
BRANCH  31  36
HETATM   36  O   UNL     1      -6.817   3.282  69.157  1.00  0.00    -0.040 OA 
HETATM   37  C   UNL     1      -5.438   2.921  69.167  1.00  0.00    -0.013 C  
ENDBRANCH  31  36
ENDBRANCH  24  26
ENDBRANCH  23  24
ENDBRANCH   3  23
BRANCH   5  38
HETATM   38  O   UNL     1      -6.360   7.809  65.117  1.00  0.00    -0.038 OA 
HETATM   39  C   UNL     1      -5.866   9.038  64.624  1.00  0.00    -0.064 C  
ENDBRANCH   5  38
BRANCH   8  40
HETATM   40  C   UNL     1      -9.740   7.271  66.211  1.00  0.00     0.002 C  
HETATM   41  O   UNL     1     -10.815   7.491  66.747  1.00  0.00    -0.292 OA 
BRANCH  40  42
HETATM   42  O   UNL     1      -9.215   6.030  66.016  1.00  0.00    -0.161 OA 
HETATM   43  C   UNL     1     -10.086   4.905  65.835  1.00  0.00    -0.211 C  
ENDBRANCH  40  42
ENDBRANCH   8  40
TORSDOF 9
ENDMDL
MODEL      188
REMARK 921   NORMALIZED FREE ENERGY PREDICTED BY IDOCK:   26.75 KCAL/MOL
REMARK 922        TOTAL FREE ENERGY PREDICTED BY IDOCK:   38.19 KCAL/MOL
REMARK 923 INTER-LIGAND FREE ENERGY PREDICTED BY IDOCK:    1.97 KCAL/MOL
REMARK 924 INTRA-LIGAND FREE ENERGY PREDICTED BY IDOCK:   36.22 KCAL/MOL
REMARK 927      BINDING AFFINITY PREDICTED BY RF-SCORE:    0.00 PKD
ROOT
HETATM    1  C   UNL     1      -7.110   6.300  71.444  1.00  0.00    -0.078 C  
HETATM    2  C   UNL     1      -8.339   5.501  71.889  1.00  0.00    -0.119 C  
HETATM    3  C   UNL     1      -9.077   4.677  70.772  1.00  0.00    -0.130 C  
HETATM    4  C   UNL     1      -8.042  11.795  68.917  1.00  0.00     0.029 A  
HETATM    5  C   UNL     1      -8.106   3.521  70.559  1.00  0.00    -0.053 C  
HETATM    6  C   UNL     1      -8.243  13.174  69.143  1.00  0.00     0.520 A  
HETATM    7  C   UNL     1      -8.044  14.087  68.094  1.00  0.00    -0.151 A  
HETATM    8  C   UNL     1      -6.838   4.192  69.891  1.00  0.00    -0.041 C  
HETATM    9  C   UNL     1      -7.651  13.633  66.846  1.00  0.00     0.432 A  
HETATM   10  C   UNL     1      -7.432  12.265  66.601  1.00  0.00     0.243 A  
HETATM   11  H   UNL     1      -7.184   9.390  66.942  1.00  0.00     0.000 HD 
HETATM   12  C   UNL     1      -6.656   5.846  70.042  1.00  0.00    -0.047 C  
HETATM   13  C   UNL     1      -7.635  11.360  67.663  1.00  0.00    -0.108 A  
HETATM   14  N   UNL     1      -7.513   9.975  67.711  1.00  0.00    -0.089 NA 
HETATM   15  C   UNL     1      -7.901   9.510  68.946  1.00  0.00    -0.080 A  
HETATM   16  C   UNL     1      -8.225  10.630  69.702  1.00  0.00     0.046 A  
HETATM   17  C   UNL     1      -7.035   6.994  68.990  1.00  0.00    -0.078 C  
HETATM   18  C   UNL     1      -8.800  10.513  71.065  1.00  0.00     3.173 C  
HETATM   19  C   UNL     1      -8.166   8.056  69.347  1.00  0.00    -0.122 C  
HETATM   20  C   UNL     1      -9.457   9.131  71.187  1.00  0.00    -0.261 C  
HETATM   21  C   UNL     1      -7.468   7.776  71.629  1.00  0.00    -0.075 C  
HETATM   22  N   UNL     1      -8.596   8.016  70.754  1.00  0.00    -0.126 NA 
ENDROOT
BRANCH   3  23
HETATM   23  O   UNL     1      -9.337   5.285  69.447  1.00  0.00    -0.116 OA 
BRANCH  23  24
HETATM   24  C   UNL     1      -8.276   5.216  68.576  1.00  0.00    -0.089 C  
HETATM   25  O   UNL     1      -7.131   4.963  68.938  1.00  0.00    -0.051 OA 
BRANCH  24  26
HETATM   26  C   UNL     1      -8.488   5.521  67.120  1.00  0.00    -0.110 A  
HETATM   27  C   UNL     1      -8.424   5.630  64.282  1.00  0.00    -0.036 A  
HETATM   28  C   UNL     1      -9.604   5.170  66.373  1.00  0.00    -0.171 A  
HETATM   29  C   UNL     1      -7.394   6.073  66.436  1.00  0.00    -0.081 A  
HETATM   30  C   UNL     1      -7.333   6.098  65.037  1.00  0.00    -0.073 A  
HETATM   31  C   UNL     1      -9.576   5.190  64.963  1.00  0.00     0.178 A  
BRANCH  30  32
HETATM   32  O   UNL     1      -6.216   6.521  64.352  1.00  0.00    -0.035 OA 
HETATM   33  C   UNL     1      -5.288   5.497  63.995  1.00  0.00    -0.013 C  
ENDBRANCH  30  32
BRANCH  27  34
HETATM   34  O   UNL     1      -8.275   5.668  62.915  1.00  0.00    -0.106 OA 
HETATM   35  C   UNL     1      -7.852   6.907  62.351  1.00  0.00    -0.118 C  
ENDBRANCH  27  34
BRANCH  31  36
HETATM   36  O   UNL     1     -10.662   4.798  64.219  1.00  0.00     0.395 OA 
HETATM   37  C   UNL     1     -10.512   3.578  63.497  1.00  0.00    -0.251 C  
ENDBRANCH  31  36
ENDBRANCH  24  26
ENDBRANCH  23  24
ENDBRANCH   3  23
BRANCH   5  38
HETATM   38  O   UNL     1      -7.860   2.929  71.851  1.00  0.00    -0.052 OA 
HETATM   39  C   UNL     1      -7.223   1.668  71.910  1.00  0.00    -0.034 C  
ENDBRANCH   5  38
BRANCH   8  40
HETATM   40  C   UNL     1      -6.722   3.587  68.506  1.00  0.00    -0.045 C  
HETATM   41  O   UNL     1      -7.296   4.006  67.514  1.00  0.00    -0.066 OA 
BRANCH  40  42
HETATM   42  O   UNL     1      -5.959   2.460  68.538  1.00  0.00    -0.023 OA 
HETATM   43  C   UNL     1      -6.101   1.470  67.509  1.00  0.00    -0.020 C  
ENDBRANCH  40  42
ENDBRANCH   8  40
TORSDOF 9
ENDMDL
MODEL      189
REMARK 921   NORMALIZED FREE ENERGY PREDICTED BY IDOCK:   27.91 KCAL/MOL
REMARK 922        TOTAL FREE ENERGY PREDICTED BY IDOCK:   39.96 KCAL/MOL
REMARK 923 INTER-LIGAND FREE ENERGY PREDICTED BY IDOCK:    1.74 KCAL/MOL
REMARK 924 INTRA-LIGAND FREE ENERGY PREDICTED BY IDOCK:   38.22 KCAL/MOL
REMARK 927      BINDING AFFINITY PREDICTED BY RF-SCORE:    0.00 PKD
ROOT
HETATM    1  C   UNL     1      -5.980  11.142  66.583  1.00  0.00    -0.130 C  
HETATM    2  C   UNL     1      -5.654  10.231  67.770  1.00  0.00    -0.041 C  
HETATM    3  C   UNL     1      -6.880   9.699  68.598  1.00  0.00    -0.056 C  
HETATM    4  C   UNL     1      -6.955  17.075  67.722  1.00  0.00    -0.159 A  
HETATM    5  C   UNL     1      -7.456   8.654  67.649  1.00  0.00    -0.090 C  
HETATM    6  C   UNL     1      -6.373  18.348  67.904  1.00  0.00    -0.192 A  
HETATM    7  C   UNL     1      -7.169  19.500  67.793  1.00  0.00    -0.290 A  
HETATM    8  C   UNL     1      -8.032   9.499  66.440  1.00  0.00    -0.111 C  
HETATM    9  C   UNL     1      -8.519  19.383  67.505  1.00  0.00    -0.328 A  
HETATM   10  C   UNL     1      -9.119  18.125  67.307  1.00  0.00    -0.252 A  
HETATM   11  H   UNL     1      -9.536  15.263  67.030  1.00  0.00     0.000 HD 
HETATM   12  C   UNL     1      -7.483  11.065  66.247  1.00  0.00    -0.105 C  
HETATM   13  C   UNL     1      -8.307  16.978  67.420  1.00  0.00    -0.191 A  
HETATM   14  N   UNL     1      -8.620  15.629  67.294  1.00  0.00    -0.180 NA 
HETATM   15  C   UNL     1      -7.516  14.860  67.579  1.00  0.00    -0.200 A  
HETATM   16  C   UNL     1      -6.478  15.746  67.839  1.00  0.00    -0.168 A  
HETATM   17  C   UNL     1      -8.178  12.433  66.711  1.00  0.00    -0.028 C  
HETATM   18  C   UNL     1      -5.147  15.278  68.299  1.00  0.00    -0.108 C  
HETATM   19  C   UNL     1      -7.475  13.346  67.809  1.00  0.00    -0.160 C  
HETATM   20  C   UNL     1      -5.325  13.897  68.944  1.00  0.00    -0.071 C  
HETATM   21  C   UNL     1      -5.401  12.516  66.924  1.00  0.00     0.278 C  
HETATM   22  N   UNL     1      -6.094  12.945  68.121  1.00  0.00    -0.082 NA 
ENDROOT
BRANCH   3  23
HETATM   23  O   UNL     1      -7.983  10.615  68.967  1.00  0.00    -0.122 OA 
BRANCH  23  24
HETATM   24  C   UNL     1      -8.721  11.070  67.901  1.00  0.00    -0.133 C  
HETATM   25  O   UNL     1      -8.397  10.873  66.733  1.00  0.00    -0.129 OA 
BRANCH  24  26
HETATM   26  C   UNL     1      -9.948  11.902  68.144  1.00  0.00    -0.197 A  
HETATM   27  C   UNL     1     -11.901  13.956  68.339  1.00  0.00    -0.374 A  
HETATM   28  C   UNL     1     -11.138  11.817  67.434  1.00  0.00    -0.338 A  
HETATM   29  C   UNL     1      -9.815  12.949  69.070  1.00  0.00     0.284 A  
HETATM   30  C   UNL     1     -10.751  13.988  69.148  1.00  0.00    -0.173 A  
HETATM   31  C   UNL     1     -12.102  12.844  67.497  1.00  0.00    -0.192 A  
BRANCH  30  32
HETATM   32  O   UNL     1     -10.571  15.085  69.962  1.00  0.00    -0.226 OA 
HETATM   33  C   UNL     1      -9.513  14.979  70.914  1.00  0.00     1.864 C  
ENDBRANCH  30  32
BRANCH  27  34
HETATM   34  O   UNL     1     -12.757  15.026  68.460  1.00  0.00     0.370 OA 
HETATM   35  C   UNL     1     -13.631  15.021  69.587  1.00  0.00     1.761 C  
ENDBRANCH  27  34
BRANCH  31  36
HETATM   36  O   UNL     1     -13.259  12.789  66.759  1.00  0.00     1.537 OA 
HETATM   37  C   UNL     1     -13.095  12.803  65.344  1.00  0.00     0.608 C  
ENDBRANCH  31  36
ENDBRANCH  24  26
ENDBRANCH  23  24
ENDBRANCH   3  23
BRANCH   5  38
HETATM   38  O   UNL     1      -6.379   7.762  67.295  1.00  0.00    -0.051 OA 
HETATM   39  C   UNL     1      -6.649   6.378  67.196  1.00  0.00    -0.058 C  
ENDBRANCH   5  38
BRANCH   8  40
HETATM   40  C   UNL     1      -9.530   9.264  66.439  1.00  0.00    -0.218 C  
HETATM   41  O   UNL     1     -10.181   8.934  65.461  1.00  0.00     0.298 OA 
BRANCH  40  42
HETATM   42  O   UNL     1     -10.062   9.558  67.657  1.00  0.00    -0.179 OA 
HETATM   43  C   UNL     1     -10.789   8.556  68.381  1.00  0.00     0.076 C  
ENDBRANCH  40  42
ENDBRANCH   8  40
TORSDOF 9
ENDMDL
MODEL      190
REMARK 921   NORMALIZED FREE ENERGY PREDICTED BY IDOCK:   29.01 KCAL/MOL
REMARK 922        TOTAL FREE ENERGY PREDICTED BY IDOCK:   41.64 KCAL/MOL
REMARK 923 INTER-LIGAND FREE ENERGY PREDICTED BY IDOCK:    2.77 KCAL/MOL
REMARK 924 INTRA-LIGAND FREE ENERGY PREDICTED BY IDOCK:   38.88 KCAL/MOL
REMARK 927      BINDING AFFINITY PREDICTED BY RF-SCORE:    0.00 PKD
ROOT
HETATM    1  C   UNL     1      -9.898  13.766  67.408  1.00  0.00    -0.238 C  
HETATM    2  C   UNL     1     -11.098  14.525  66.832  1.00  0.00    -0.325 C  
HETATM    3  C   UNL     1     -12.417  14.498  67.688  1.00  0.00     0.292 C  
HETATM    4  C   UNL     1      -9.619   7.727  66.459  1.00  0.00    -0.270 A  
HETATM    5  C   UNL     1     -12.058  15.448  68.825  1.00  0.00    -0.155 C  
HETATM    6  C   UNL     1      -9.225   6.692  65.583  1.00  0.00     0.151 A  
HETATM    7  C   UNL     1      -9.087   5.383  66.072  1.00  0.00    -0.159 A  
HETATM    8  C   UNL     1     -10.946  14.676  69.645  1.00  0.00    -0.255 C  
HETATM    9  C   UNL     1      -9.336   5.112  67.407  1.00  0.00    -0.128 A  
HETATM   10  C   UNL     1      -9.717   6.130  68.301  1.00  0.00    -0.129 A  
HETATM   11  H   UNL     1     -10.408   8.718  69.428  1.00  0.00     0.000 HD 
HETATM   12  C   UNL     1     -10.147  13.418  68.890  1.00  0.00    -0.010 C  
HETATM   13  C   UNL     1      -9.851   7.440  67.797  1.00  0.00    -0.152 A  
HETATM   14  N   UNL     1     -10.221   8.622  68.429  1.00  0.00    -0.195 NA 
HETATM   15  C   UNL     1     -10.301   9.643  67.510  1.00  0.00    -0.241 A  
HETATM   16  C   UNL     1      -9.924   9.100  66.288  1.00  0.00    -0.352 A  
HETATM   17  C   UNL     1     -10.428  11.844  69.001  1.00  0.00    -0.103 C  
HETATM   18  C   UNL     1      -9.997   9.883  65.029  1.00  0.00    -0.236 C  
HETATM   19  C   UNL     1     -10.911  11.032  67.719  1.00  0.00    -0.249 C  
HETATM   20  C   UNL     1     -11.018  11.011  65.230  1.00  0.00    -0.027 C  
HETATM   21  C   UNL     1      -9.620  12.610  66.447  1.00  0.00    -0.248 C  
HETATM   22  N   UNL     1     -10.815  11.793  66.463  1.00  0.00    -0.269 NA 
ENDROOT
BRANCH   3  23
HETATM   23  O   UNL     1     -12.881  13.232  68.301  1.00  0.00     0.825 OA 
BRANCH  23  24
HETATM   24  C   UNL     1     -12.369  12.989  69.553  1.00  0.00    -0.012 C  
HETATM   25  O   UNL     1     -11.891  13.871  70.261  1.00  0.00    -0.302 OA 
BRANCH  24  26
HETATM   26  C   UNL     1     -12.321  11.582  70.078  1.00  0.00    -0.287 A  
HETATM   27  C   UNL     1     -12.227   9.225  71.660  1.00  0.00    -0.370 A  
HETATM   28  C   UNL     1     -13.371  10.675  70.059  1.00  0.00     0.582 A  
HETATM   29  C   UNL     1     -11.160  11.219  70.777  1.00  0.00     0.985 A  
HETATM   30  C   UNL     1     -11.113  10.081  71.592  1.00  0.00     0.398 A  
HETATM   31  C   UNL     1     -13.352   9.517  70.863  1.00  0.00    -0.077 A  
BRANCH  30  32
HETATM   32  O   UNL     1     -10.025   9.780  72.381  1.00  0.00     1.446 OA 
HETATM   33  C   UNL     1      -9.754   8.388  72.551  1.00  0.00    -0.289 C  
ENDBRANCH  30  32
BRANCH  27  34
HETATM   34  O   UNL     1     -12.108   8.142  72.500  1.00  0.00    -0.365 OA 
HETATM   35  C   UNL     1     -11.769   6.897  71.894  1.00  0.00    -0.299 C  
ENDBRANCH  27  34
BRANCH  31  36
HETATM   36  O   UNL     1     -14.409   8.640  70.885  1.00  0.00    -0.095 OA 
HETATM   37  C   UNL     1     -14.094   7.280  70.598  1.00  0.00     0.954 C  
ENDBRANCH  31  36
ENDBRANCH  24  26
ENDBRANCH  23  24
ENDBRANCH   3  23
BRANCH   5  38
HETATM   38  O   UNL     1     -11.611  16.680  68.224  1.00  0.00    -0.145 OA 
HETATM   39  C   UNL     1     -10.320  17.162  68.542  1.00  0.00    -0.364 C  
ENDBRANCH   5  38
BRANCH   8  40
HETATM   40  C   UNL     1     -11.536  14.422  71.018  1.00  0.00     0.006 C  
HETATM   41  O   UNL     1     -12.714  14.190  71.237  1.00  0.00    -0.322 OA 
BRANCH  40  42
HETATM   42  O   UNL     1     -10.588  14.575  71.983  1.00  0.00     1.570 OA 
HETATM   43  C   UNL     1     -10.766  15.559  73.012  1.00  0.00     2.225 C  
ENDBRANCH  40  42
ENDBRANCH   8  40
TORSDOF 9
ENDMDL
MODEL      191
REMARK 921   NORMALIZED FREE ENERGY PREDICTED BY IDOCK:   30.50 KCAL/MOL
REMARK 922        TOTAL FREE ENERGY PREDICTED BY IDOCK:   43.91 KCAL/MOL
REMARK 923 INTER-LIGAND FREE ENERGY PREDICTED BY IDOCK:    7.89 KCAL/MOL
REMARK 924 INTRA-LIGAND FREE ENERGY PREDICTED BY IDOCK:   36.02 KCAL/MOL
REMARK 927      BINDING AFFINITY PREDICTED BY RF-SCORE:    0.00 PKD
ROOT
HETATM    1  C   UNL     1     -11.190   9.545  66.978  1.00  0.00     0.515 C  
HETATM    2  C   UNL     1     -10.152   8.993  65.996  1.00  0.00    -0.154 C  
HETATM    3  C   UNL     1      -8.773   8.557  66.611  1.00  0.00    -0.125 C  
HETATM    4  C   UNL     1     -10.769  15.441  68.560  1.00  0.00    -0.256 A  
HETATM    5  C   UNL     1      -9.152   7.257  67.311  1.00  0.00    -0.123 C  
HETATM    6  C   UNL     1     -11.099  16.773  68.230  1.00  0.00    -0.259 A  
HETATM    7  C   UNL     1     -11.025  17.773  69.214  1.00  0.00     0.779 A  
HETATM    8  C   UNL     1     -10.081   7.713  68.509  1.00  0.00    -0.205 C  
HETATM    9  C   UNL     1     -10.630  17.449  70.501  1.00  0.00     1.171 A  
HETATM   10  C   UNL     1     -10.308  16.126  70.857  1.00  0.00     0.877 A  
HETATM   11  H   UNL     1      -9.863  13.257  70.757  1.00  0.00     0.000 HD 
HETATM   12  C   UNL     1     -10.772   9.232  68.429  1.00  0.00    -0.192 C  
HETATM   13  C   UNL     1     -10.388  15.133  69.859  1.00  0.00    -0.189 A  
HETATM   14  N   UNL     1     -10.120  13.770  69.913  1.00  0.00     0.953 NA 
HETATM   15  C   UNL     1     -10.252  13.213  68.662  1.00  0.00    -0.170 A  
HETATM   16  C   UNL     1     -10.659  14.239  67.818  1.00  0.00    -0.253 A  
HETATM   17  C   UNL     1     -10.282  10.592  69.121  1.00  0.00    -0.238 C  
HETATM   18  C   UNL     1     -10.796  14.039  66.354  1.00  0.00    -0.299 C  
HETATM   19  C   UNL     1      -9.811  11.815  68.218  1.00  0.00    -0.198 C  
HETATM   20  C   UNL     1      -9.915  12.848  65.953  1.00  0.00    -0.268 C  
HETATM   21  C   UNL     1     -11.398  11.013  66.603  1.00  0.00     0.079 C  
HETATM   22  N   UNL     1     -10.111  11.649  66.787  1.00  0.00    -0.210 NA 
ENDROOT
BRANCH   3  23
HETATM   23  O   UNL     1      -8.098   9.416  67.611  1.00  0.00    -0.106 OA 
BRANCH  23  24
HETATM   24  C   UNL     1      -7.263   8.739  68.467  1.00  0.00    -0.074 C  
HETATM   25  O   UNL     1      -6.305   8.076  68.079  1.00  0.00    -0.049 OA 
BRANCH  24  26
HETATM   26  C   UNL     1      -7.547   8.740  69.942  1.00  0.00    -0.065 A  
HETATM   27  C   UNL     1      -8.595   8.359  72.555  1.00  0.00    -0.184 A  
HETATM   28  C   UNL     1      -6.810   8.070  70.909  1.00  0.00    -0.041 A  
HETATM   29  C   UNL     1      -8.746   9.350  70.343  1.00  0.00    -0.278 A  
HETATM   30  C   UNL     1      -9.293   9.139  71.614  1.00  0.00    -0.062 A  
HETATM   31  C   UNL     1      -7.332   7.847  72.200  1.00  0.00    -0.083 A  
BRANCH  30  32
HETATM   32  O   UNL     1     -10.528   9.628  71.979  1.00  0.00     0.277 OA 
HETATM   33  C   UNL     1     -10.750   9.754  73.383  1.00  0.00     7.237 C  
ENDBRANCH  30  32
BRANCH  27  34
HETATM   34  O   UNL     1      -9.212   8.182  73.771  1.00  0.00    -0.222 OA 
HETATM   35  C   UNL     1      -9.697   6.872  74.058  1.00  0.00    -0.292 C  
ENDBRANCH  27  34
BRANCH  31  36
HETATM   36  O   UNL     1      -6.627   7.143  73.146  1.00  0.00    -0.064 OA 
HETATM   37  C   UNL     1      -7.354   6.127  73.833  1.00  0.00    -0.087 C  
ENDBRANCH  31  36
ENDBRANCH  24  26
ENDBRANCH  23  24
ENDBRANCH   3  23
BRANCH   5  38
HETATM   38  O   UNL     1      -9.804   6.422  66.333  1.00  0.00    -0.148 OA 
HETATM   39  C   UNL     1     -11.196   6.571  66.132  1.00  0.00     1.445 C  
ENDBRANCH   5  38
BRANCH   8  40
HETATM   40  C   UNL     1      -9.347   7.331  69.779  1.00  0.00    -0.150 C  
HETATM   41  O   UNL     1      -9.232   8.050  70.759  1.00  0.00    -0.153 OA 
BRANCH  40  42
HETATM   42  O   UNL     1      -8.760   6.110  69.645  1.00  0.00    -0.132 OA 
HETATM   43  C   UNL     1      -8.018   5.549  70.737  1.00  0.00    -0.111 C  
ENDBRANCH  40  42
ENDBRANCH   8  40
TORSDOF 9
ENDMDL
MODEL      192
REMARK 921   NORMALIZED FREE ENERGY PREDICTED BY IDOCK:   31.50 KCAL/MOL
REMARK 922        TOTAL FREE ENERGY PREDICTED BY IDOCK:   45.43 KCAL/MOL
REMARK 923 INTER-LIGAND FREE ENERGY PREDICTED BY IDOCK:    2.21 KCAL/MOL
REMARK 924 INTRA-LIGAND FREE ENERGY PREDICTED BY IDOCK:   43.22 KCAL/MOL
REMARK 927      BINDING AFFINITY PREDICTED BY RF-SCORE:    0.00 PKD
ROOT
HETATM    1  C   UNL     1     -10.198  10.909  64.944  1.00  0.00    -0.381 C  
HETATM    2  C   UNL     1     -11.711  10.799  64.734  1.00  0.00     1.512 C  
HETATM    3  C   UNL     1     -12.600  11.847  65.497  1.00  0.00     1.264 C  
HETATM    4  C   UNL     1      -7.814   8.314  69.947  1.00  0.00    -0.102 A  
HETATM    5  C   UNL     1     -12.339  13.111  64.686  1.00  0.00    -0.405 C  
HETATM    6  C   UNL     1      -7.311   7.132  70.532  1.00  0.00    -0.075 A  
HETATM    7  C   UNL     1      -6.526   7.210  71.694  1.00  0.00    -0.047 A  
HETATM    8  C   UNL     1     -10.827  13.465  64.988  1.00  0.00    -0.337 C  
HETATM    9  C   UNL     1      -6.248   8.443  72.260  1.00  0.00    -0.068 A  
HETATM   10  C   UNL     1      -6.729   9.636  71.688  1.00  0.00     0.366 A  
HETATM   11  H   UNL     1      -8.039  11.534  69.921  1.00  0.00     0.000 HD 
HETATM   12  C   UNL     1      -9.847  12.259  65.602  1.00  0.00    -0.247 C  
HETATM   13  C   UNL     1      -7.515   9.543  70.521  1.00  0.00    -0.148 A  
HETATM   14  N   UNL     1      -8.127  10.531  69.758  1.00  0.00    -0.059 NA 
HETATM   15  C   UNL     1      -8.870   9.957  68.752  1.00  0.00    -0.136 A  
HETATM   16  C   UNL     1      -8.678   8.585  68.857  1.00  0.00    -0.131 A  
HETATM   17  C   UNL     1      -9.430  11.988  67.126  1.00  0.00    -0.187 C  
HETATM   18  C   UNL     1      -9.418   7.625  68.001  1.00  0.00    -0.151 C  
HETATM   19  C   UNL     1      -9.895  10.648  67.848  1.00  0.00    -0.161 C  
HETATM   20  C   UNL     1     -10.700   8.314  67.513  1.00  0.00    -0.147 C  
HETATM   21  C   UNL     1      -9.771   9.635  65.673  1.00  0.00    -0.293 C  
HETATM   22  N   UNL     1     -10.479   9.652  66.936  1.00  0.00    -0.233 NA 
ENDROOT
BRANCH   3  23
HETATM   23  O   UNL     1     -12.321  12.167  66.916  1.00  0.00    -0.402 OA 
BRANCH  23  24
HETATM   24  C   UNL     1     -11.129  12.820  67.124  1.00  0.00    -0.277 C  
HETATM   25  O   UNL     1     -10.073  12.461  66.610  1.00  0.00    -0.216 OA 
BRANCH  24  26
HETATM   26  C   UNL     1     -11.075  13.989  68.066  1.00  0.00    -0.282 A  
HETATM   27  C   UNL     1     -11.030  15.728  70.312  1.00  0.00    -0.357 A  
HETATM   28  C   UNL     1      -9.948  14.748  68.351  1.00  0.00    -0.223 A  
HETATM   29  C   UNL     1     -12.230  14.226  68.828  1.00  0.00    -0.226 A  
HETATM   30  C   UNL     1     -12.211  15.051  69.960  1.00  0.00    -0.328 A  
HETATM   31  C   UNL     1      -9.901  15.592  69.480  1.00  0.00    -0.284 A  
BRANCH  30  32
HETATM   32  O   UNL     1     -13.303  15.195  70.788  1.00  0.00    -0.396 OA 
HETATM   33  C   UNL     1     -14.221  14.102  70.793  1.00  0.00     0.796 C  
ENDBRANCH  30  32
BRANCH  27  34
HETATM   34  O   UNL     1     -11.090  16.499  71.449  1.00  0.00    -0.019 OA 
HETATM   35  C   UNL     1     -10.272  17.667  71.475  1.00  0.00     4.342 C  
ENDBRANCH  27  34
BRANCH  31  36
HETATM   36  O   UNL     1      -8.772  16.309  69.793  1.00  0.00     0.135 OA 
HETATM   37  C   UNL     1      -7.534  15.709  69.424  1.00  0.00    -0.221 C  
ENDBRANCH  31  36
ENDBRANCH  24  26
ENDBRANCH  23  24
ENDBRANCH   3  23
BRANCH   5  38
HETATM   38  O   UNL     1     -12.617  12.796  63.307  1.00  0.00    -0.676 OA 
HETATM   39  C   UNL     1     -13.549  11.773  63.018  1.00  0.00     1.745 C  
ENDBRANCH   5  38
BRANCH   8  40
HETATM   40  C   UNL     1     -10.841  14.803  65.702  1.00  0.00    -0.339 C  
HETATM   41  O   UNL     1     -11.708  15.652  65.569  1.00  0.00     0.086 OA 
BRANCH  40  42
HETATM   42  O   UNL     1      -9.711  14.963  66.443  1.00  0.00    -0.254 OA 
HETATM   43  C   UNL     1      -9.355  16.263  66.934  1.00  0.00    -0.224 C  
ENDBRANCH  40  42
ENDBRANCH   8  40
TORSDOF 9
ENDMDL
MODEL      193
REMARK 921   NORMALIZED FREE ENERGY PREDICTED BY IDOCK:   32.02 KCAL/MOL
REMARK 922        TOTAL FREE ENERGY PREDICTED BY IDOCK:   46.23 KCAL/MOL
REMARK 923 INTER-LIGAND FREE ENERGY PREDICTED BY IDOCK:   14.58 KCAL/MOL
REMARK 924 INTRA-LIGAND FREE ENERGY PREDICTED BY IDOCK:   31.66 KCAL/MOL
REMARK 927      BINDING AFFINITY PREDICTED BY RF-SCORE:    0.00 PKD
ROOT
HETATM    1  C   UNL     1     -12.021  12.335  69.984  1.00  0.00    -0.379 C  
HETATM    2  C   UNL     1     -13.265  11.954  69.176  1.00  0.00     2.767 C  
HETATM    3  C   UNL     1     -13.015  11.154  67.846  1.00  0.00     4.736 C  
HETATM    4  C   UNL     1      -8.953  17.356  68.303  1.00  0.00    -0.268 A  
HETATM    5  C   UNL     1     -12.652   9.775  68.388  1.00  0.00     4.258 C  
HETATM    6  C   UNL     1      -8.846  18.760  68.411  1.00  0.00    -0.375 A  
HETATM    7  C   UNL     1      -7.648  19.397  68.049  1.00  0.00    -0.324 A  
HETATM    8  C   UNL     1     -11.247   9.985  69.084  1.00  0.00    -0.197 C  
HETATM    9  C   UNL     1      -6.578  18.648  67.590  1.00  0.00    -0.205 A  
HETATM   10  C   UNL     1      -6.656  17.246  67.486  1.00  0.00    -0.165 A  
HETATM   11  H   UNL     1      -7.614  14.505  67.599  1.00  0.00     0.000 HD 
HETATM   12  C   UNL     1     -10.795  11.544  69.484  1.00  0.00    -0.121 C  
HETATM   13  C   UNL     1      -7.865  16.620  67.854  1.00  0.00    -0.166 A  
HETATM   14  N   UNL     1      -8.232  15.279  67.842  1.00  0.00    -0.140 NA 
HETATM   15  C   UNL     1      -9.553  15.149  68.206  1.00  0.00    -0.211 A  
HETATM   16  C   UNL     1     -10.007  16.429  68.499  1.00  0.00    -0.239 A  
HETATM   17  C   UNL     1      -9.838  12.546  68.678  1.00  0.00    -0.083 C  
HETATM   18  C   UNL     1     -11.430  16.699  68.822  1.00  0.00    -0.042 C  
HETATM   19  C   UNL     1     -10.429  13.899  68.083  1.00  0.00    -0.245 C  
HETATM   20  C   UNL     1     -12.276  15.566  68.227  1.00  0.00     0.297 C  
HETATM   21  C   UNL     1     -11.938  13.862  69.952  1.00  0.00    -0.341 C  
HETATM   22  N   UNL     1     -11.786  14.214  68.556  1.00  0.00    -0.348 NA 
ENDROOT
BRANCH   3  23
HETATM   23  O   UNL     1     -11.932  11.564  66.922  1.00  0.00    -0.516 OA 
BRANCH  23  24
HETATM   24  C   UNL     1     -11.097  10.541  66.541  1.00  0.00     0.120 C  
HETATM   25  O   UNL     1     -11.509   9.473  66.098  1.00  0.00     1.511 OA 
BRANCH  24  26
HETATM   26  C   UNL     1      -9.613  10.686  66.722  1.00  0.00    -0.200 A  
HETATM   27  C   UNL     1      -6.923  10.641  67.634  1.00  0.00    -0.079 A  
HETATM   28  C   UNL     1      -8.640   9.985  66.022  1.00  0.00    -0.148 A  
HETATM   29  C   UNL     1      -9.193  11.489  67.793  1.00  0.00    -0.165 A  
HETATM   30  C   UNL     1      -7.879  11.447  68.277  1.00  0.00    -0.132 A  
HETATM   31  C   UNL     1      -7.308   9.928  66.481  1.00  0.00    -0.099 A  
BRANCH  30  32
HETATM   32  O   UNL     1      -7.484  12.134  69.404  1.00  0.00     0.128 OA 
HETATM   33  C   UNL     1      -7.658  11.441  70.640  1.00  0.00     3.148 C  
ENDBRANCH  30  32
BRANCH  27  34
HETATM   34  O   UNL     1      -5.663  10.639  68.185  1.00  0.00    -0.043 OA 
HETATM   35  C   UNL     1      -5.256   9.444  68.847  1.00  0.00    -0.037 C  
ENDBRANCH  27  34
BRANCH  31  36
HETATM   36  O   UNL     1      -6.351   9.197  65.820  1.00  0.00    -0.059 OA 
HETATM   37  C   UNL     1      -6.809   8.005  65.186  1.00  0.00    -0.058 C  
ENDBRANCH  31  36
ENDBRANCH  24  26
ENDBRANCH  23  24
ENDBRANCH   3  23
BRANCH   5  38
HETATM   38  O   UNL     1     -13.711   9.378  69.283  1.00  0.00     3.344 OA 
HETATM   39  C   UNL     1     -13.419   9.238  70.659  1.00  0.00     0.362 C  
ENDBRANCH   5  38
BRANCH   8  40
HETATM   40  C   UNL     1     -10.261   9.136  68.307  1.00  0.00    -0.206 C  
HETATM   41  O   UNL     1     -10.226   9.049  67.090  1.00  0.00    -0.222 OA 
BRANCH  40  42
HETATM   42  O   UNL     1      -9.476   8.415  69.155  1.00  0.00    -0.154 OA 
HETATM   43  C   UNL     1      -8.390   7.636  68.637  1.00  0.00    -0.129 C  
ENDBRANCH  40  42
ENDBRANCH   8  40
TORSDOF 9
ENDMDL
MODEL      194
REMARK 921   NORMALIZED FREE ENERGY PREDICTED BY IDOCK:   32.35 KCAL/MOL
REMARK 922        TOTAL FREE ENERGY PREDICTED BY IDOCK:   46.74 KCAL/MOL
REMARK 923 INTER-LIGAND FREE ENERGY PREDICTED BY IDOCK:   40.38 KCAL/MOL
REMARK 924 INTRA-LIGAND FREE ENERGY PREDICTED BY IDOCK:    6.36 KCAL/MOL
REMARK 927      BINDING AFFINITY PREDICTED BY RF-SCORE:    0.00 PKD
ROOT
HETATM    1  C   UNL     1     -13.842  14.034  70.497  1.00  0.00     0.838 C  
HETATM    2  C   UNL     1     -13.584  12.540  70.279  1.00  0.00     2.217 C  
HETATM    3  C   UNL     1     -12.183  11.998  70.743  1.00  0.00    -0.286 C  
HETATM    4  C   UNL     1     -11.674  17.943  66.318  1.00  0.00     2.514 A  
HETATM    5  C   UNL     1     -12.349  11.992  72.258  1.00  0.00     1.399 C  
HETATM    6  C   UNL     1     -11.901  18.589  65.083  1.00  0.00     4.214 A  
HETATM    7  C   UNL     1     -11.155  19.731  64.748  1.00  0.00     1.611 A  
HETATM    8  C   UNL     1     -12.417  13.523  72.651  1.00  0.00     0.286 C  
HETATM    9  C   UNL     1     -10.202  20.218  65.627  1.00  0.00    -0.185 A  
HETATM   10  C   UNL     1      -9.968  19.599  66.869  1.00  0.00    -0.515 A  
HETATM   11  H   UNL     1     -10.128  17.803  69.148  1.00  0.00     0.000 HD 
HETATM   12  C   UNL     1     -12.782  14.625  71.449  1.00  0.00    -0.403 C  
HETATM   13  C   UNL     1     -10.725  18.454  67.193  1.00  0.00    -0.330 A  
HETATM   14  N   UNL     1     -10.701  17.639  68.319  1.00  0.00    -0.331 NA 
HETATM   15  C   UNL     1     -11.562  16.579  68.153  1.00  0.00     0.098 A  
HETATM   16  C   UNL     1     -12.174  16.761  66.919  1.00  0.00     2.777 A  
HETATM   17  C   UNL     1     -11.783  15.539  70.592  1.00  0.00    -0.389 C  
HETATM   18  C   UNL     1     -13.090  15.746  66.344  1.00  0.00     3.672 C  
HETATM   19  C   UNL     1     -11.660  15.321  69.020  1.00  0.00    -0.343 C  
HETATM   20  C   UNL     1     -12.766  14.392  66.989  1.00  0.00     0.623 C  
HETATM   21  C   UNL     1     -13.967  14.656  69.105  1.00  0.00     5.649 C  
HETATM   22  N   UNL     1     -12.691  14.431  68.461  1.00  0.00     0.494 NA 
ENDROOT
BRANCH   3  23
HETATM   23  O   UNL     1     -10.951  12.761  70.436  1.00  0.00     0.839 OA 
BRANCH  23  24
HETATM   24  C   UNL     1     -10.466  12.565  69.165  1.00  0.00     0.110 C  
HETATM   25  O   UNL     1     -10.493  13.435  68.299  1.00  0.00    -0.237 OA 
BRANCH  24  26
HETATM   26  C   UNL     1      -9.931  11.218  68.772  1.00  0.00    -0.203 A  
HETATM   27  C   UNL     1      -8.419   9.027  67.781  1.00  0.00    -0.117 A  
HETATM   28  C   UNL     1      -9.405  10.271  69.640  1.00  0.00    -0.167 A  
HETATM   29  C   UNL     1      -9.823  10.970  67.395  1.00  0.00    -0.197 A  
HETATM   30  C   UNL     1      -9.049   9.917  66.892  1.00  0.00    -0.142 A  
HETATM   31  C   UNL     1      -8.626   9.196  69.164  1.00  0.00    -0.133 A  
BRANCH  30  32
HETATM   32  O   UNL     1      -8.831   9.737  65.544  1.00  0.00    -0.146 OA 
HETATM   33  C   UNL     1      -9.823  10.292  64.680  1.00  0.00    -0.327 C  
ENDBRANCH  30  32
BRANCH  27  34
HETATM   34  O   UNL     1      -7.659   8.034  67.206  1.00  0.00    -0.094 OA 
HETATM   35  C   UNL     1      -8.344   7.113  66.361  1.00  0.00    -0.125 C  
ENDBRANCH  27  34
BRANCH  31  36
HETATM   36  O   UNL     1      -8.063   8.283  70.022  1.00  0.00    -0.111 OA 
HETATM   37  C   UNL     1      -8.588   8.269  71.346  1.00  0.00    -0.149 C  
ENDBRANCH  31  36
ENDBRANCH  24  26
ENDBRANCH  23  24
ENDBRANCH   3  23
BRANCH   5  38
HETATM   38  O   UNL     1     -13.546  11.244  72.552  1.00  0.00     0.026 OA 
HETATM   39  C   UNL     1     -14.137  10.476  71.522  1.00  0.00     0.871 C  
ENDBRANCH   5  38
BRANCH   8  40
HETATM   40  C   UNL     1     -11.201  13.791  73.516  1.00  0.00     4.664 C  
HETATM   41  O   UNL     1     -10.946  13.206  74.557  1.00  0.00     8.069 OA 
BRANCH  40  42
HETATM   42  O   UNL     1     -10.480  14.833  73.020  1.00  0.00     2.124 OA 
HETATM   43  C   UNL     1     -11.004  16.167  73.095  1.00  0.00     2.216 C  
ENDBRANCH  40  42
ENDBRANCH   8  40
TORSDOF 9
ENDMDL
MODEL      195
REMARK 921   NORMALIZED FREE ENERGY PREDICTED BY IDOCK:   34.42 KCAL/MOL
REMARK 922        TOTAL FREE ENERGY PREDICTED BY IDOCK:   49.90 KCAL/MOL
REMARK 923 INTER-LIGAND FREE ENERGY PREDICTED BY IDOCK:   51.21 KCAL/MOL
REMARK 924 INTRA-LIGAND FREE ENERGY PREDICTED BY IDOCK:   -1.31 KCAL/MOL
REMARK 927      BINDING AFFINITY PREDICTED BY RF-SCORE:    0.00 PKD
ROOT
HETATM    1  C   UNL     1      -7.472  12.731  68.005  1.00  0.00    -0.122 C  
HETATM    2  C   UNL     1      -7.854  12.880  69.481  1.00  0.00     0.960 C  
HETATM    3  C   UNL     1      -9.352  13.255  69.779  1.00  0.00     2.145 C  
HETATM    4  C   UNL     1      -6.139  17.819  64.877  1.00  0.00     0.816 A  
HETATM    5  C   UNL     1     -10.058  11.938  69.482  1.00  0.00     0.687 C  
HETATM    6  C   UNL     1      -5.144  18.759  64.529  1.00  0.00    -0.220 A  
HETATM    7  C   UNL     1      -5.336  19.597  63.419  1.00  0.00    -0.316 A  
HETATM    8  C   UNL     1      -9.918  11.762  67.915  1.00  0.00    -0.187 C  
HETATM    9  C   UNL     1      -6.497  19.499  62.670  1.00  0.00     2.006 A  
HETATM   10  C   UNL     1      -7.497  18.561  62.990  1.00  0.00    12.602 A  
HETATM   11  H   UNL     1      -8.984  16.420  64.273  1.00  0.00     0.000 HD 
HETATM   12  C   UNL     1      -8.739  12.649  67.130  1.00  0.00    -0.201 C  
HETATM   13  C   UNL     1      -7.290  17.726  64.107  1.00  0.00     7.723 A  
HETATM   14  N   UNL     1      -8.095  16.736  64.660  1.00  0.00     5.144 NA 
HETATM   15  C   UNL     1      -7.516  16.244  65.807  1.00  0.00     1.618 A  
HETATM   16  C   UNL     1      -6.301  16.905  65.947  1.00  0.00     0.758 A  
HETATM   17  C   UNL     1      -8.893  14.028  66.327  1.00  0.00     0.181 C  
HETATM   18  C   UNL     1      -5.442  16.716  67.142  1.00  0.00    -0.170 C  
HETATM   19  C   UNL     1      -8.165  15.340  66.859  1.00  0.00    -0.228 C  
HETATM   20  C   UNL     1      -6.329  16.224  68.293  1.00  0.00    -0.124 C  
HETATM   21  C   UNL     1      -6.477  13.853  67.704  1.00  0.00    -0.147 C  
HETATM   22  N   UNL     1      -7.197  15.087  67.939  1.00  0.00    -0.132 NA 
ENDROOT
BRANCH   3  23
HETATM   23  O   UNL     1     -10.028  14.307  68.985  1.00  0.00    -0.196 OA 
BRANCH  23  24
HETATM   24  C   UNL     1     -10.106  15.527  69.614  1.00  0.00    -0.293 C  
HETATM   25  O   UNL     1      -9.909  15.671  70.818  1.00  0.00     0.458 OA 
BRANCH  24  26
HETATM   26  C   UNL     1     -10.509  16.744  68.831  1.00  0.00    -0.332 A  
HETATM   27  C   UNL     1     -10.660  18.992  67.101  1.00  0.00    -0.462 A  
HETATM   28  C   UNL     1     -11.411  16.765  67.777  1.00  0.00     0.266 A  
HETATM   29  C   UNL     1      -9.795  17.921  69.101  1.00  0.00    -0.158 A  
HETATM   30  C   UNL     1      -9.830  19.022  68.236  1.00  0.00    -0.378 A  
HETATM   31  C   UNL     1     -11.475  17.862  66.891  1.00  0.00     1.258 A  
BRANCH  30  32
HETATM   32  O   UNL     1      -9.039  20.134  68.421  1.00  0.00    -0.170 OA 
HETATM   33  C   UNL     1      -7.634  19.921  68.285  1.00  0.00    -0.271 C  
ENDBRANCH  30  32
BRANCH  27  34
HETATM   34  O   UNL     1     -10.619  20.103  66.291  1.00  0.00    -0.390 OA 
HETATM   35  C   UNL     1     -10.965  21.347  66.894  1.00  0.00     4.482 C  
ENDBRANCH  27  34
BRANCH  31  36
HETATM   36  O   UNL     1     -12.332  17.868  65.818  1.00  0.00     4.523 OA 
HETATM   37  C   UNL     1     -13.407  16.935  65.875  1.00  0.00     9.275 C  
ENDBRANCH  31  36
ENDBRANCH  24  26
ENDBRANCH  23  24
ENDBRANCH   3  23
BRANCH   5  38
HETATM   38  O   UNL     1      -9.399  10.917  70.260  1.00  0.00     1.004 OA 
HETATM   39  C   UNL     1     -10.036   9.664  70.415  1.00  0.00    -0.271 C  
ENDBRANCH   5  38
BRANCH   8  40
HETATM   40  C   UNL     1     -11.327  11.803  67.359  1.00  0.00    -0.311 C  
HETATM   41  O   UNL     1     -11.933  10.834  66.929  1.00  0.00     0.272 OA 
BRANCH  40  42
HETATM   42  O   UNL     1     -11.792  13.082  67.323  1.00  0.00    -0.362 OA 
HETATM   43  C   UNL     1     -12.892  13.420  66.467  1.00  0.00     0.468 C  
ENDBRANCH  40  42
ENDBRANCH   8  40
TORSDOF 9
ENDMDL
MODEL      196
REMARK 921   NORMALIZED FREE ENERGY PREDICTED BY IDOCK:   34.55 KCAL/MOL
REMARK 922        TOTAL FREE ENERGY PREDICTED BY IDOCK:   50.10 KCAL/MOL
REMARK 923 INTER-LIGAND FREE ENERGY PREDICTED BY IDOCK:   12.36 KCAL/MOL
REMARK 924 INTRA-LIGAND FREE ENERGY PREDICTED BY IDOCK:   37.73 KCAL/MOL
REMARK 927      BINDING AFFINITY PREDICTED BY RF-SCORE:    0.00 PKD
ROOT
HETATM    1  C   UNL     1      -5.300  10.136  70.142  1.00  0.00    -0.040 C  
HETATM    2  C   UNL     1      -6.010   9.565  71.373  1.00  0.00    -0.052 C  
HETATM    3  C   UNL     1      -7.069   8.434  71.106  1.00  0.00    -0.066 C  
HETATM    4  C   UNL     1      -8.182  14.488  66.948  1.00  0.00    -0.073 A  
HETATM    5  C   UNL     1      -6.168   7.248  70.780  1.00  0.00    -0.035 C  
HETATM    6  C   UNL     1      -8.452  15.868  66.819  1.00  0.00    -0.297 A  
HETATM    7  C   UNL     1      -8.939  16.371  65.602  1.00  0.00     0.193 A  
HETATM    8  C   UNL     1      -5.515   7.623  69.388  1.00  0.00    -0.023 C  
HETATM    9  C   UNL     1      -9.151  15.515  64.534  1.00  0.00     4.631 A  
HETATM   10  C   UNL     1      -8.877  14.138  64.635  1.00  0.00     4.319 A  
HETATM   11  H   UNL     1      -8.059  11.539  65.642  1.00  0.00     0.000 HD 
HETATM   12  C   UNL     1      -5.536   9.227  68.919  1.00  0.00    -0.037 C  
HETATM   13  C   UNL     1      -8.388  13.647  65.863  1.00  0.00     1.821 A  
HETATM   14  N   UNL     1      -8.049  12.356  66.253  1.00  0.00     0.363 NA 
HETATM   15  C   UNL     1      -7.700  12.342  67.584  1.00  0.00    -0.151 A  
HETATM   16  C   UNL     1      -7.774  13.659  68.022  1.00  0.00    -0.143 A  
HETATM   17  C   UNL     1      -6.555   9.965  67.926  1.00  0.00    -0.064 C  
HETATM   18  C   UNL     1      -7.574  14.021  69.447  1.00  0.00     0.193 C  
HETATM   19  C   UNL     1      -7.507  11.114  68.478  1.00  0.00    -0.112 C  
HETATM   20  C   UNL     1      -7.866  12.778  70.299  1.00  0.00     3.379 C  
HETATM   21  C   UNL     1      -5.739  11.597  70.032  1.00  0.00    -0.128 C  
HETATM   22  N   UNL     1      -7.174  11.560  69.841  1.00  0.00     0.200 NA 
ENDROOT
BRANCH   3  23
HETATM   23  O   UNL     1      -8.039   8.570  69.995  1.00  0.00    -0.104 OA 
BRANCH  23  24
HETATM   24  C   UNL     1      -8.908   7.512  69.871  1.00  0.00    -0.141 C  
HETATM   25  O   UNL     1      -9.896   7.373  70.587  1.00  0.00    -0.180 OA 
BRANCH  24  26
HETATM   26  C   UNL     1      -8.628   6.431  68.867  1.00  0.00    -0.123 A  
HETATM   27  C   UNL     1      -7.692   4.842  66.706  1.00  0.00    -0.092 A  
HETATM   28  C   UNL     1      -7.894   5.277  69.103  1.00  0.00    -0.085 A  
HETATM   29  C   UNL     1      -9.018   6.695  67.545  1.00  0.00    -0.114 A  
HETATM   30  C   UNL     1      -8.533   5.944  66.467  1.00  0.00    -0.113 A  
HETATM   31  C   UNL     1      -7.396   4.496  68.039  1.00  0.00    -0.065 A  
BRANCH  30  32
HETATM   32  O   UNL     1      -8.807   6.267  65.156  1.00  0.00    -0.028 OA 
HETATM   33  C   UNL     1      -8.093   7.389  64.637  1.00  0.00    -0.092 C  
ENDBRANCH  30  32
BRANCH  27  34
HETATM   34  O   UNL     1      -7.241   4.172  65.593  1.00  0.00    -0.069 OA 
HETATM   35  C   UNL     1      -6.216   4.809  64.833  1.00  0.00    -0.034 C  
ENDBRANCH  27  34
BRANCH  31  36
HETATM   36  O   UNL     1      -6.628   3.380  68.266  1.00  0.00    -0.036 OA 
HETATM   37  C   UNL     1      -7.019   2.204  67.563  1.00  0.00    -0.040 C  
ENDBRANCH  31  36
ENDBRANCH  24  26
ENDBRANCH  23  24
ENDBRANCH   3  23
BRANCH   5  38
HETATM   38  O   UNL     1      -5.228   7.118  71.866  1.00  0.00    -0.034 OA 
HETATM   39  C   UNL     1      -5.445   6.111  72.835  1.00  0.00    -0.036 C  
ENDBRANCH   5  38
BRANCH   8  40
HETATM   40  C   UNL     1      -6.008   6.586  68.399  1.00  0.00    -0.021 C  
HETATM   41  O   UNL     1      -5.747   6.583  67.206  1.00  0.00    -0.012 OA 
BRANCH  40  42
HETATM   42  O   UNL     1      -6.854   5.709  69.006  1.00  0.00    -0.057 OA 
HETATM   43  C   UNL     1      -6.538   4.310  69.032  1.00  0.00    -0.041 C  
ENDBRANCH  40  42
ENDBRANCH   8  40
TORSDOF 9
ENDMDL
MODEL      197
REMARK 921   NORMALIZED FREE ENERGY PREDICTED BY IDOCK:   34.77 KCAL/MOL
REMARK 922        TOTAL FREE ENERGY PREDICTED BY IDOCK:   50.43 KCAL/MOL
REMARK 923 INTER-LIGAND FREE ENERGY PREDICTED BY IDOCK:   33.32 KCAL/MOL
REMARK 924 INTRA-LIGAND FREE ENERGY PREDICTED BY IDOCK:   17.11 KCAL/MOL
REMARK 927      BINDING AFFINITY PREDICTED BY RF-SCORE:    0.00 PKD
ROOT
HETATM    1  C   UNL     1      -5.330  15.440  68.981  1.00  0.00    -0.098 C  
HETATM    2  C   UNL     1      -6.198  16.683  69.201  1.00  0.00    -0.184 C  
HETATM    3  C   UNL     1      -7.277  16.588  70.340  1.00  0.00     1.671 C  
HETATM    4  C   UNL     1      -7.624  10.931  65.537  1.00  0.00     0.076 A  
HETATM    5  C   UNL     1      -6.408  16.681  71.588  1.00  0.00     2.867 C  
HETATM    6  C   UNL     1      -7.808  10.427  64.231  1.00  0.00    -0.058 A  
HETATM    7  C   UNL     1      -8.134   9.073  64.048  1.00  0.00    -0.158 A  
HETATM    8  C   UNL     1      -5.590  15.326  71.598  1.00  0.00     0.262 C  
HETATM    9  C   UNL     1      -8.273   8.239  65.145  1.00  0.00    -0.156 A  
HETATM   10  C   UNL     1      -8.081   8.717  66.456  1.00  0.00    -0.103 A  
HETATM   11  H   UNL     1      -7.510  10.439  68.725  1.00  0.00     0.000 HD 
HETATM   12  C   UNL     1      -5.478  14.468  70.169  1.00  0.00    -0.111 C  
HETATM   13  C   UNL     1      -7.753  10.078  66.624  1.00  0.00    -0.104 A  
HETATM   14  N   UNL     1      -7.525  10.819  67.778  1.00  0.00    -0.093 NA 
HETATM   15  C   UNL     1      -7.324  12.142  67.457  1.00  0.00    -0.135 A  
HETATM   16  C   UNL     1      -7.378  12.220  66.070  1.00  0.00     1.473 A  
HETATM   17  C   UNL     1      -6.344  13.207  69.690  1.00  0.00    -0.086 C  
HETATM   18  C   UNL     1      -7.316  13.521  65.358  1.00  0.00     7.770 C  
HETATM   19  C   UNL     1      -7.292  13.334  68.417  1.00  0.00    -0.112 C  
HETATM   20  C   UNL     1      -7.761  14.619  66.334  1.00  0.00     1.373 C  
HETATM   21  C   UNL     1      -5.680  14.912  67.588  1.00  0.00    -0.004 C  
HETATM   22  N   UNL     1      -7.085  14.569  67.643  1.00  0.00    -0.174 NA 
ENDROOT
BRANCH   3  23
HETATM   23  O   UNL     1      -8.113  15.372  70.474  1.00  0.00     0.737 OA 
BRANCH  23  24
HETATM   24  C   UNL     1      -8.758  14.999  69.318  1.00  0.00    -0.161 C  
HETATM   25  O   UNL     1      -8.753  15.685  68.300  1.00  0.00    -0.168 OA 
BRANCH  24  26
HETATM   26  C   UNL     1      -9.563  13.731  69.291  1.00  0.00     0.461 A  
HETATM   27  C   UNL     1     -10.903  11.323  68.603  1.00  0.00    -0.204 A  
HETATM   28  C   UNL     1      -9.193  12.525  69.871  1.00  0.00     2.929 A  
HETATM   29  C   UNL     1     -10.709  13.740  68.482  1.00  0.00    -0.274 A  
HETATM   30  C   UNL     1     -11.356  12.557  68.103  1.00  0.00    -0.295 A  
HETATM   31  C   UNL     1      -9.829  11.318  69.515  1.00  0.00     0.374 A  
BRANCH  30  32
HETATM   32  O   UNL     1     -12.404  12.540  67.210  1.00  0.00    -0.359 OA 
HETATM   33  C   UNL     1     -12.315  11.562  66.174  1.00  0.00     1.902 C  
ENDBRANCH  30  32
BRANCH  27  34
HETATM   34  O   UNL     1     -11.578  10.208  68.164  1.00  0.00    -0.225 OA 
HETATM   35  C   UNL     1     -12.308   9.475  69.145  1.00  0.00     1.785 C  
ENDBRANCH  27  34
BRANCH  31  36
HETATM   36  O   UNL     1      -9.436  10.115  70.049  1.00  0.00    -0.187 OA 
HETATM   37  C   UNL     1      -8.075  10.035  70.464  1.00  0.00     0.323 C  
ENDBRANCH  31  36
ENDBRANCH  24  26
ENDBRANCH  23  24
ENDBRANCH   3  23
BRANCH   5  38
HETATM   38  O   UNL     1      -5.599  17.868  71.455  1.00  0.00     0.019 OA 
HETATM   39  C   UNL     1      -6.229  19.082  71.098  1.00  0.00     0.587 C  
ENDBRANCH   5  38
BRANCH   8  40
HETATM   40  C   UNL     1      -6.025  14.581  72.844  1.00  0.00     0.426 C  
HETATM   41  O   UNL     1      -5.272  14.209  73.730  1.00  0.00    -0.321 OA 
BRANCH  40  42
HETATM   42  O   UNL     1      -7.357  14.306  72.798  1.00  0.00     2.709 OA 
HETATM   43  C   UNL     1      -8.306  15.377  72.692  1.00  0.00     9.346 C  
ENDBRANCH  40  42
ENDBRANCH   8  40
TORSDOF 9
ENDMDL
MODEL      198
REMARK 921   NORMALIZED FREE ENERGY PREDICTED BY IDOCK:   37.18 KCAL/MOL
REMARK 922        TOTAL FREE ENERGY PREDICTED BY IDOCK:   54.10 KCAL/MOL
REMARK 923 INTER-LIGAND FREE ENERGY PREDICTED BY IDOCK:   17.86 KCAL/MOL
REMARK 924 INTRA-LIGAND FREE ENERGY PREDICTED BY IDOCK:   36.24 KCAL/MOL
REMARK 927      BINDING AFFINITY PREDICTED BY RF-SCORE:    0.00 PKD
ROOT
HETATM    1  C   UNL     1     -10.459  15.888  64.649  1.00  0.00     0.229 C  
HETATM    2  C   UNL     1      -9.865  14.553  64.188  1.00  0.00     2.377 C  
HETATM    3  C   UNL     1      -9.946  13.363  65.212  1.00  0.00    -0.174 C  
HETATM    4  C   UNL     1      -6.972  19.509  68.140  1.00  0.00    -0.314 A  
HETATM    5  C   UNL     1     -11.426  13.003  65.140  1.00  0.00    -0.306 C  
HETATM    6  C   UNL     1      -5.975  20.508  68.168  1.00  0.00    -0.320 A  
HETATM    7  C   UNL     1      -5.785  21.269  69.333  1.00  0.00     0.180 A  
HETATM    8  C   UNL     1     -12.163  14.241  65.794  1.00  0.00    -0.415 C  
HETATM    9  C   UNL     1      -6.576  21.039  70.447  1.00  0.00     1.915 A  
HETATM   10  C   UNL     1      -7.585  20.057  70.437  1.00  0.00     0.850 A  
HETATM   11  H   UNL     1      -9.388  17.940  69.596  1.00  0.00     0.000 HD 
HETATM   12  C   UNL     1     -11.325  15.682  65.908  1.00  0.00     0.044 C  
HETATM   13  C   UNL     1      -7.764  19.301  69.260  1.00  0.00    -0.154 A  
HETATM   14  N   UNL     1      -8.655  18.274  68.970  1.00  0.00    -0.104 NA 
HETATM   15  C   UNL     1      -8.401  17.772  67.714  1.00  0.00    -0.235 A  
HETATM   16  C   UNL     1      -7.364  18.534  67.189  1.00  0.00    -0.219 A  
HETATM   17  C   UNL     1     -10.540  16.286  67.169  1.00  0.00    -0.291 C  
HETATM   18  C   UNL     1      -6.739  18.209  65.883  1.00  0.00    -0.327 C  
HETATM   19  C   UNL     1      -8.963  16.487  67.099  1.00  0.00    -0.205 C  
HETATM   20  C   UNL     1      -6.994  16.724  65.590  1.00  0.00     1.431 C  
HETATM   21  C   UNL     1      -9.288  16.867  64.749  1.00  0.00     3.405 C  
HETATM   22  N   UNL     1      -8.401  16.314  65.750  1.00  0.00    -0.047 NA 
ENDROOT
BRANCH   3  23
HETATM   23  O   UNL     1      -9.616  13.585  66.639  1.00  0.00    -0.264 OA 
BRANCH  23  24
HETATM   24  C   UNL     1     -10.497  14.404  67.303  1.00  0.00    -0.269 C  
HETATM   25  O   UNL     1     -11.229  15.203  66.726  1.00  0.00    -0.331 OA 
BRANCH  24  26
HETATM   26  C   UNL     1     -10.542  14.388  68.804  1.00  0.00    -0.256 A  
HETATM   27  C   UNL     1     -10.556  15.014  71.575  1.00  0.00     0.758 A  
HETATM   28  C   UNL     1     -11.669  14.148  69.578  1.00  0.00    -0.364 A  
HETATM   29  C   UNL     1      -9.374  14.800  69.465  1.00  0.00     0.095 A  
HETATM   30  C   UNL     1      -9.376  15.148  70.822  1.00  0.00     1.646 A  
HETATM   31  C   UNL     1     -11.700  14.483  70.948  1.00  0.00    -0.250 A  
BRANCH  30  32
HETATM   32  O   UNL     1      -8.269  15.672  71.453  1.00  0.00     3.435 OA 
HETATM   33  C   UNL     1      -7.011  15.334  70.870  1.00  0.00     0.991 C  
ENDBRANCH  30  32
BRANCH  27  34
HETATM   34  O   UNL     1     -10.480  15.399  72.893  1.00  0.00     1.626 OA 
HETATM   35  C   UNL     1     -11.680  15.888  73.488  1.00  0.00    -0.069 C  
ENDBRANCH  27  34
BRANCH  31  36
HETATM   36  O   UNL     1     -12.829  14.293  71.707  1.00  0.00    -0.319 OA 
HETATM   37  C   UNL     1     -13.072  12.955  72.134  1.00  0.00    -0.361 C  
ENDBRANCH  31  36
ENDBRANCH  24  26
ENDBRANCH  23  24
ENDBRANCH   3  23
BRANCH   5  38
HETATM   38  O   UNL     1     -11.742  12.784  63.750  1.00  0.00    -0.416 OA 
HETATM   39  C   UNL     1     -11.844  11.456  63.277  1.00  0.00     0.230 C  
ENDBRANCH   5  38
BRANCH   8  40
HETATM   40  C   UNL     1     -12.845  13.714  67.041  1.00  0.00     0.809 C  
HETATM   41  O   UNL     1     -13.310  14.412  67.927  1.00  0.00     2.401 OA 
BRANCH  40  42
HETATM   42  O   UNL     1     -12.789  12.354  67.080  1.00  0.00     0.886 OA 
HETATM   43  C   UNL     1     -12.334  11.690  68.267  1.00  0.00     0.565 C  
ENDBRANCH  40  42
ENDBRANCH   8  40
TORSDOF 9
ENDMDL
MODEL      199
REMARK 921   NORMALIZED FREE ENERGY PREDICTED BY IDOCK:   38.31 KCAL/MOL
REMARK 922        TOTAL FREE ENERGY PREDICTED BY IDOCK:   55.83 KCAL/MOL
REMARK 923 INTER-LIGAND FREE ENERGY PREDICTED BY IDOCK:   -2.11 KCAL/MOL
REMARK 924 INTRA-LIGAND FREE ENERGY PREDICTED BY IDOCK:   57.94 KCAL/MOL
REMARK 927      BINDING AFFINITY PREDICTED BY RF-SCORE:    0.00 PKD
ROOT
HETATM    1  C   UNL     1     -10.253  10.840  64.921  1.00  0.00    -0.388 C  
HETATM    2  C   UNL     1     -11.768  11.049  65.013  1.00  0.00     0.786 C  
HETATM    3  C   UNL     1     -12.252  12.285  65.856  1.00  0.00    -0.017 C  
HETATM    4  C   UNL     1      -7.484   7.946  69.547  1.00  0.00    -0.093 A  
HETATM    5  C   UNL     1     -11.909  13.440  64.921  1.00  0.00    -0.372 C  
HETATM    6  C   UNL     1      -7.123   6.702  70.108  1.00  0.00    -0.075 A  
HETATM    7  C   UNL     1      -6.120   6.645  71.089  1.00  0.00    -0.036 A  
HETATM    8  C   UNL     1     -10.327  13.472  64.901  1.00  0.00    -0.395 C  
HETATM    9  C   UNL     1      -5.489   7.807  71.502  1.00  0.00    -0.035 A  
HETATM   10  C   UNL     1      -5.823   9.057  70.948  1.00  0.00    -0.042 A  
HETATM   11  H   UNL     1      -7.050  11.138  69.334  1.00  0.00     0.000 HD 
HETATM   12  C   UNL     1      -9.509  12.103  65.401  1.00  0.00    -0.035 C  
HETATM   13  C   UNL     1      -6.831   9.099  69.963  1.00  0.00    -0.049 A  
HETATM   14  N   UNL     1      -7.371  10.172  69.263  1.00  0.00    -0.087 NA 
HETATM   15  C   UNL     1      -8.403   9.740  68.462  1.00  0.00    -0.110 A  
HETATM   16  C   UNL     1      -8.477   8.362  68.626  1.00  0.00    -0.128 A  
HETATM   17  C   UNL     1      -8.857  11.794  66.832  1.00  0.00    -0.191 C  
HETATM   18  C   UNL     1      -9.555   7.557  68.000  1.00  0.00    -0.156 C  
HETATM   19  C   UNL     1      -9.428  10.607  67.724  1.00  0.00    -0.153 C  
HETATM   20  C   UNL     1     -10.741   8.489  67.717  1.00  0.00    -0.101 C  
HETATM   21  C   UNL     1      -9.956   9.526  65.644  1.00  0.00    -0.199 C  
HETATM   22  N   UNL     1     -10.375   9.732  67.015  1.00  0.00    -0.238 NA 
ENDROOT
BRANCH   3  23
HETATM   23  O   UNL     1     -11.632  12.580  67.168  1.00  0.00    -0.328 OA 
BRANCH  23  24
HETATM   24  C   UNL     1     -10.408  11.985  67.362  1.00  0.00    -0.207 C  
HETATM   25  O   UNL     1     -10.218  10.782  67.204  1.00  0.00    -0.196 OA 
BRANCH  24  26
HETATM   26  C   UNL     1      -9.249  12.807  67.849  1.00  0.00    -0.205 A  
HETATM   27  C   UNL     1      -7.414  14.393  69.328  1.00  0.00    -0.060 A  
HETATM   28  C   UNL     1      -7.987  12.321  68.162  1.00  0.00    -0.155 A  
HETATM   29  C   UNL     1      -9.523  14.150  68.150  1.00  0.00    -0.213 A  
HETATM   30  C   UNL     1      -8.645  14.931  68.911  1.00  0.00    -0.177 A  
HETATM   31  C   UNL     1      -7.078  13.086  68.923  1.00  0.00    -0.068 A  
BRANCH  30  32
HETATM   32  O   UNL     1      -8.956  16.209  69.321  1.00  0.00    -0.246 OA 
HETATM   33  C   UNL     1     -10.349  16.501  69.422  1.00  0.00    -0.298 C  
ENDBRANCH  30  32
BRANCH  27  34
HETATM   34  O   UNL     1      -6.619  15.217  70.091  1.00  0.00    -0.161 OA 
HETATM   35  C   UNL     1      -5.211  15.017  69.994  1.00  0.00    -0.103 C  
ENDBRANCH  27  34
BRANCH  31  36
HETATM   36  O   UNL     1      -5.846  12.592  69.277  1.00  0.00    -0.074 OA 
HETATM   37  C   UNL     1      -5.438  11.402  68.607  1.00  0.00    -0.042 C  
ENDBRANCH  31  36
ENDBRANCH  24  26
ENDBRANCH  23  24
ENDBRANCH   3  23
BRANCH   5  38
HETATM   38  O   UNL     1     -12.518  13.150  63.647  1.00  0.00    -0.685 OA 
HETATM   39  C   UNL     1     -13.698  12.372  63.619  1.00  0.00     1.859 C  
ENDBRANCH   5  38
BRANCH   8  40
HETATM   40  C   UNL     1      -9.925  14.802  65.507  1.00  0.00    -0.356 C  
HETATM   41  O   UNL     1     -10.708  15.656  65.892  1.00  0.00    -0.322 OA 
BRANCH  40  42
HETATM   42  O   UNL     1      -8.572  14.951  65.482  1.00  0.00     1.109 OA 
HETATM   43  C   UNL     1      -7.989  16.238  65.729  1.00  0.00     0.935 C  
ENDBRANCH  40  42
ENDBRANCH   8  40
TORSDOF 9
ENDMDL
MODEL      200
REMARK 921   NORMALIZED FREE ENERGY PREDICTED BY IDOCK:   40.91 KCAL/MOL
REMARK 922        TOTAL FREE ENERGY PREDICTED BY IDOCK:   59.80 KCAL/MOL
REMARK 923 INTER-LIGAND FREE ENERGY PREDICTED BY IDOCK:   60.16 KCAL/MOL
REMARK 924 INTRA-LIGAND FREE ENERGY PREDICTED BY IDOCK:   -0.36 KCAL/MOL
REMARK 927      BINDING AFFINITY PREDICTED BY RF-SCORE:    0.00 PKD
ROOT
HETATM    1  C   UNL     1      -7.472  12.731  68.005  1.00  0.00    -0.122 C  
HETATM    2  C   UNL     1      -7.854  12.880  69.481  1.00  0.00     0.960 C  
HETATM    3  C   UNL     1      -9.352  13.255  69.779  1.00  0.00     2.145 C  
HETATM    4  C   UNL     1      -6.139  17.819  64.877  1.00  0.00     0.816 A  
HETATM    5  C   UNL     1     -10.058  11.938  69.482  1.00  0.00     0.687 C  
HETATM    6  C   UNL     1      -5.144  18.759  64.529  1.00  0.00    -0.220 A  
HETATM    7  C   UNL     1      -5.336  19.597  63.419  1.00  0.00    -0.316 A  
HETATM    8  C   UNL     1      -9.918  11.762  67.915  1.00  0.00    -0.187 C  
HETATM    9  C   UNL     1      -6.497  19.499  62.670  1.00  0.00     2.006 A  
HETATM   10  C   UNL     1      -7.497  18.561  62.990  1.00  0.00    12.602 A  
HETATM   11  H   UNL     1      -8.984  16.420  64.273  1.00  0.00     0.000 HD 
HETATM   12  C   UNL     1      -8.739  12.649  67.130  1.00  0.00    -0.201 C  
HETATM   13  C   UNL     1      -7.290  17.726  64.107  1.00  0.00     7.723 A  
HETATM   14  N   UNL     1      -8.095  16.736  64.660  1.00  0.00     5.144 NA 
HETATM   15  C   UNL     1      -7.516  16.244  65.807  1.00  0.00     1.618 A  
HETATM   16  C   UNL     1      -6.301  16.905  65.947  1.00  0.00     0.758 A  
HETATM   17  C   UNL     1      -8.893  14.028  66.327  1.00  0.00     0.181 C  
HETATM   18  C   UNL     1      -5.442  16.716  67.142  1.00  0.00    -0.170 C  
HETATM   19  C   UNL     1      -8.165  15.340  66.859  1.00  0.00    -0.228 C  
HETATM   20  C   UNL     1      -6.329  16.224  68.293  1.00  0.00    -0.124 C  
HETATM   21  C   UNL     1      -6.477  13.853  67.704  1.00  0.00    -0.147 C  
HETATM   22  N   UNL     1      -7.197  15.087  67.939  1.00  0.00    -0.132 NA 
ENDROOT
BRANCH   3  23
HETATM   23  O   UNL     1     -10.028  14.307  68.985  1.00  0.00    -0.196 OA 
BRANCH  23  24
HETATM   24  C   UNL     1     -10.106  15.527  69.614  1.00  0.00    -0.293 C  
HETATM   25  O   UNL     1      -9.909  15.671  70.818  1.00  0.00     0.458 OA 
BRANCH  24  26
HETATM   26  C   UNL     1     -10.509  16.744  68.831  1.00  0.00    -0.332 A  
HETATM   27  C   UNL     1     -11.881  18.792  67.419  1.00  0.00     2.078 A  
HETATM   28  C   UNL     1     -10.522  18.047  69.310  1.00  0.00     0.179 A  
HETATM   29  C   UNL     1     -11.059  16.511  67.561  1.00  0.00    -0.078 A  
HETATM   30  C   UNL     1     -11.771  17.500  66.871  1.00  0.00     1.920 A  
HETATM   31  C   UNL     1     -11.226  19.067  68.635  1.00  0.00     1.505 A  
BRANCH  30  32
HETATM   32  O   UNL     1     -12.422  17.251  65.683  1.00  0.00     4.098 OA 
HETATM   33  C   UNL     1     -13.522  16.345  65.762  1.00  0.00     6.594 C  
ENDBRANCH  30  32
BRANCH  27  34
HETATM   34  O   UNL     1     -12.616  19.698  66.690  1.00  0.00     3.419 OA 
HETATM   35  C   UNL     1     -12.170  19.962  65.361  1.00  0.00     5.026 C  
ENDBRANCH  27  34
BRANCH  31  36
HETATM   36  O   UNL     1     -11.282  20.347  69.129  1.00  0.00     1.098 OA 
HETATM   37  C   UNL     1     -10.291  20.684  70.096  1.00  0.00     1.093 C  
ENDBRANCH  31  36
ENDBRANCH  24  26
ENDBRANCH  23  24
ENDBRANCH   3  23
BRANCH   5  38
HETATM   38  O   UNL     1      -9.399  10.917  70.260  1.00  0.00     1.004 OA 
HETATM   39  C   UNL     1     -10.036   9.664  70.415  1.00  0.00    -0.271 C  
ENDBRANCH   5  38
BRANCH   8  40
HETATM   40  C   UNL     1     -11.327  11.803  67.359  1.00  0.00    -0.311 C  
HETATM   41  O   UNL     1     -11.933  10.834  66.929  1.00  0.00     0.272 OA 
BRANCH  40  42
HETATM   42  O   UNL     1     -11.792  13.082  67.323  1.00  0.00    -0.362 OA 
HETATM   43  C   UNL     1     -12.892  13.420  66.467  1.00  0.00     0.468 C  
ENDBRANCH  40  42
ENDBRANCH   8  40
TORSDOF 9
ENDMDL
MODEL      201
REMARK 921   NORMALIZED FREE ENERGY PREDICTED BY IDOCK:   44.36 KCAL/MOL
REMARK 922        TOTAL FREE ENERGY PREDICTED BY IDOCK:   65.07 KCAL/MOL
REMARK 923 INTER-LIGAND FREE ENERGY PREDICTED BY IDOCK:   52.74 KCAL/MOL
REMARK 924 INTRA-LIGAND FREE ENERGY PREDICTED BY IDOCK:   12.33 KCAL/MOL
REMARK 927      BINDING AFFINITY PREDICTED BY RF-SCORE:    0.00 PKD
ROOT
HETATM    1  C   UNL     1      -8.078   7.933  69.288  1.00  0.00    -0.126 C  
HETATM    2  C   UNL     1      -6.720   8.560  69.619  1.00  0.00    -0.040 C  
HETATM    3  C   UNL     1      -6.723   9.699  70.703  1.00  0.00    -0.116 C  
HETATM    4  C   UNL     1     -11.666  10.850  65.279  1.00  0.00     1.137 A  
HETATM    5  C   UNL     1      -6.932   8.896  71.982  1.00  0.00     0.053 C  
HETATM    6  C   UNL     1     -11.984  11.055  63.919  1.00  0.00     1.111 A  
HETATM    7  C   UNL     1     -13.222  11.621  63.572  1.00  0.00     0.274 A  
HETATM    8  C   UNL     1      -8.414   8.351  71.865  1.00  0.00    -0.237 C  
HETATM    9  C   UNL     1     -14.124  11.974  64.562  1.00  0.00     3.902 A  
HETATM   10  C   UNL     1     -13.834  11.767  65.924  1.00  0.00     9.344 A  
HETATM   11  H   UNL     1     -12.504  11.004  68.392  1.00  0.00     0.000 HD 
HETATM   12  C   UNL     1      -9.122   8.327  70.352  1.00  0.00    -0.148 C  
HETATM   13  C   UNL     1     -12.588  11.197  66.257  1.00  0.00     4.269 A  
HETATM   14  N   UNL     1     -12.031  10.895  67.495  1.00  0.00    -0.187 NA 
HETATM   15  C   UNL     1     -10.746  10.430  67.333  1.00  0.00    -0.283 A  
HETATM   16  C   UNL     1     -10.513  10.393  65.963  1.00  0.00    -0.211 A  
HETATM   17  C   UNL     1     -10.133   9.389  69.704  1.00  0.00    -0.218 C  
HETATM   18  C   UNL     1      -9.181  10.047  65.407  1.00  0.00    -0.259 C  
HETATM   19  C   UNL     1      -9.690  10.224  68.423  1.00  0.00    -0.156 C  
HETATM   20  C   UNL     1      -8.127  10.329  66.486  1.00  0.00    -0.121 C  
HETATM   21  C   UNL     1      -8.377   8.301  67.833  1.00  0.00    -0.128 C  
HETATM   22  N   UNL     1      -8.445   9.747  67.802  1.00  0.00    -0.121 NA 
ENDROOT
BRANCH   3  23
HETATM   23  O   UNL     1      -7.760  10.755  70.671  1.00  0.00     0.579 OA 
BRANCH  23  24
HETATM   24  C   UNL     1      -7.272  12.020  70.441  1.00  0.00     2.094 C  
HETATM   25  O   UNL     1      -6.072  12.274  70.399  1.00  0.00    -0.146 OA 
BRANCH  24  26
HETATM   26  C   UNL     1      -8.226  13.171  70.296  1.00  0.00     3.804 A  
HETATM   27  C   UNL     1      -9.474  15.693  69.907  1.00  0.00    -0.025 A  
HETATM   28  C   UNL     1      -9.090  13.376  69.229  1.00  0.00     0.788 A  
HETATM   29  C   UNL     1      -8.115  14.194  71.250  1.00  0.00     4.888 A  
HETATM   30  C   UNL     1      -8.692  15.454  71.053  1.00  0.00     2.892 A  
HETATM   31  C   UNL     1      -9.692  14.632  69.007  1.00  0.00    -0.160 A  
BRANCH  30  32
HETATM   32  O   UNL     1      -8.489  16.506  71.919  1.00  0.00     8.868 OA 
HETATM   33  C   UNL     1      -9.182  17.712  71.598  1.00  0.00    10.013 C  
ENDBRANCH  30  32
BRANCH  27  34
HETATM   34  O   UNL     1      -9.986  16.963  69.778  1.00  0.00     0.008 OA 
HETATM   35  C   UNL     1     -10.268  17.407  68.453  1.00  0.00    -0.362 C  
ENDBRANCH  27  34
BRANCH  31  36
HETATM   36  O   UNL     1     -10.510  14.854  67.926  1.00  0.00    -0.245 OA 
HETATM   37  C   UNL     1      -9.899  15.484  66.804  1.00  0.00    -0.241 C  
ENDBRANCH  31  36
ENDBRANCH  24  26
ENDBRANCH  23  24
ENDBRANCH   3  23
BRANCH   5  38
HETATM   38  O   UNL     1      -5.918   7.871  72.012  1.00  0.00    -0.038 OA 
HETATM   39  C   UNL     1      -5.767   7.033  70.884  1.00  0.00    -0.027 C  
ENDBRANCH   5  38
BRANCH   8  40
HETATM   40  C   UNL     1      -9.188   8.986  73.003  1.00  0.00     1.153 C  
HETATM   41  O   UNL     1      -8.788   9.072  74.153  1.00  0.00     0.586 OA 
BRANCH  40  42
HETATM   42  O   UNL     1     -10.426   9.368  72.586  1.00  0.00     0.920 OA 
HETATM   43  C   UNL     1     -10.716   9.448  71.184  1.00  0.00    -0.347 C  
ENDBRANCH  40  42
ENDBRANCH   8  40
TORSDOF 9
ENDMDL
MODEL      202
REMARK 921   NORMALIZED FREE ENERGY PREDICTED BY IDOCK:   48.53 KCAL/MOL
REMARK 922        TOTAL FREE ENERGY PREDICTED BY IDOCK:   71.44 KCAL/MOL
REMARK 923 INTER-LIGAND FREE ENERGY PREDICTED BY IDOCK:   26.73 KCAL/MOL
REMARK 924 INTRA-LIGAND FREE ENERGY PREDICTED BY IDOCK:   44.71 KCAL/MOL
REMARK 927      BINDING AFFINITY PREDICTED BY RF-SCORE:    0.00 PKD
ROOT
HETATM    1  C   UNL     1      -9.729  16.268  68.563  1.00  0.00    -0.224 C  
HETATM    2  C   UNL     1     -10.916  16.168  69.526  1.00  0.00    -0.341 C  
HETATM    3  C   UNL     1     -10.692  15.306  70.822  1.00  0.00    -0.131 C  
HETATM    4  C   UNL     1      -8.885  11.693  64.587  1.00  0.00     0.472 A  
HETATM    5  C   UNL     1      -9.796  16.225  71.644  1.00  0.00     4.357 C  
HETATM    6  C   UNL     1      -9.225  11.152  63.329  1.00  0.00    -0.260 A  
HETATM    7  C   UNL     1      -8.402  10.175  62.746  1.00  0.00    -0.171 A  
HETATM    8  C   UNL     1      -8.427  16.250  70.850  1.00  0.00     4.168 C  
HETATM    9  C   UNL     1      -7.262   9.747  63.405  1.00  0.00    -0.123 A  
HETATM   10  C   UNL     1      -6.895  10.282  64.655  1.00  0.00    -0.077 A  
HETATM   11  H   UNL     1      -6.857  11.862  67.093  1.00  0.00     0.000 HD 
HETATM   12  C   UNL     1      -8.440  15.772  69.249  1.00  0.00    -0.258 C  
HETATM   13  C   UNL     1      -7.731  11.263  65.228  1.00  0.00     0.574 A  
HETATM   14  N   UNL     1      -7.633  11.946  66.435  1.00  0.00     0.130 NA 
HETATM   15  C   UNL     1      -8.735  12.750  66.613  1.00  0.00    -0.058 A  
HETATM   16  C   UNL     1      -9.514  12.605  65.471  1.00  0.00     0.068 A  
HETATM   17  C   UNL     1      -8.049  14.348  68.626  1.00  0.00    -0.146 C  
HETATM   18  C   UNL     1     -10.850  13.239  65.351  1.00  0.00    -0.304 C  
HETATM   19  C   UNL     1      -9.158  13.471  67.896  1.00  0.00    -0.204 C  
HETATM   20  C   UNL     1     -11.380  13.504  66.767  1.00  0.00    -0.328 C  
HETATM   21  C   UNL     1     -10.160  15.565  67.275  1.00  0.00    -0.250 C  
HETATM   22  N   UNL     1     -10.418  14.190  67.649  1.00  0.00    -0.244 NA 
ENDROOT
BRANCH   3  23
HETATM   23  O   UNL     1     -10.015  13.992  70.734  1.00  0.00     2.320 OA 
BRANCH  23  24
HETATM   24  C   UNL     1      -9.917  13.490  69.457  1.00  0.00     0.803 C  
HETATM   25  O   UNL     1     -10.338  14.089  68.472  1.00  0.00    -0.237 OA 
BRANCH  24  26
HETATM   26  C   UNL     1      -9.329  12.126  69.237  1.00  0.00     0.750 A  
HETATM   27  C   UNL     1      -8.498   9.606  68.221  1.00  0.00    -0.118 A  
HETATM   28  C   UNL     1      -7.982  11.843  69.062  1.00  0.00     0.135 A  
HETATM   29  C   UNL     1     -10.245  11.079  69.043  1.00  0.00    -0.217 A  
HETATM   30  C   UNL     1      -9.855   9.846  68.507  1.00  0.00    -0.156 A  
HETATM   31  C   UNL     1      -7.557  10.608  68.529  1.00  0.00    -0.097 A  
BRANCH  30  32
HETATM   32  O   UNL     1     -10.759   8.855  68.195  1.00  0.00    -0.187 OA 
HETATM   33  C   UNL     1     -10.658   7.663  68.973  1.00  0.00    -0.174 C  
ENDBRANCH  30  32
BRANCH  27  34
HETATM   34  O   UNL     1      -8.202   8.379  67.675  1.00  0.00    -0.123 OA 
HETATM   35  C   UNL     1      -6.821   8.045  67.562  1.00  0.00    -0.070 C  
ENDBRANCH  27  34
BRANCH  31  36
HETATM   36  O   UNL     1      -6.228  10.341  68.309  1.00  0.00    -0.048 OA 
HETATM   37  C   UNL     1      -5.427  11.453  67.919  1.00  0.00    -0.044 C  
ENDBRANCH  31  36
ENDBRANCH  24  26
ENDBRANCH  23  24
ENDBRANCH   3  23
BRANCH   5  38
HETATM   38  O   UNL     1     -10.461  17.501  71.731  1.00  0.00     2.670 OA 
HETATM   39  C   UNL     1      -9.815  18.641  71.199  1.00  0.00     3.860 C  
ENDBRANCH   5  38
BRANCH   8  40
HETATM   40  C   UNL     1      -7.395  15.626  71.770  1.00  0.00     4.549 C  
HETATM   41  O   UNL     1      -7.631  14.749  72.585  1.00  0.00     3.476 OA 
BRANCH  40  42
HETATM   42  O   UNL     1      -6.189  16.241  71.624  1.00  0.00     1.476 OA 
HETATM   43  C   UNL     1      -6.132  17.634  71.287  1.00  0.00     1.507 C  
ENDBRANCH  40  42
ENDBRANCH   8  40
TORSDOF 9
ENDMDL
MODEL      203
REMARK 921   NORMALIZED FREE ENERGY PREDICTED BY IDOCK:   48.84 KCAL/MOL
REMARK 922        TOTAL FREE ENERGY PREDICTED BY IDOCK:   71.90 KCAL/MOL
REMARK 923 INTER-LIGAND FREE ENERGY PREDICTED BY IDOCK:   31.65 KCAL/MOL
REMARK 924 INTRA-LIGAND FREE ENERGY PREDICTED BY IDOCK:   40.25 KCAL/MOL
REMARK 927      BINDING AFFINITY PREDICTED BY RF-SCORE:    0.00 PKD
ROOT
HETATM    1  C   UNL     1     -11.862   6.968  65.573  1.00  0.00     7.622 C  
HETATM    2  C   UNL     1     -10.825   6.674  64.484  1.00  0.00     7.963 C  
HETATM    3  C   UNL     1      -9.458   6.068  64.967  1.00  0.00     0.739 C  
HETATM    4  C   UNL     1     -11.358  12.236  68.645  1.00  0.00    -0.339 A  
HETATM    5  C   UNL     1      -9.863   4.637  65.302  1.00  0.00    -0.123 C  
HETATM    6  C   UNL     1     -11.666  13.614  68.674  1.00  0.00    -0.389 A  
HETATM    7  C   UNL     1     -11.583  14.320  69.886  1.00  0.00    -0.337 A  
HETATM    8  C   UNL     1     -10.793   4.780  66.574  1.00  0.00     0.213 C  
HETATM    9  C   UNL     1     -11.202  13.664  71.045  1.00  0.00     1.423 A  
HETATM   10  C   UNL     1     -10.904  12.288  71.042  1.00  0.00     3.913 A  
HETATM   11  H   UNL     1     -10.504   9.537  70.196  1.00  0.00     0.000 HD 
HETATM   12  C   UNL     1     -11.460   6.279  66.893  1.00  0.00     0.280 C  
HETATM   13  C   UNL     1     -10.992  11.592  69.819  1.00  0.00     0.014 A  
HETATM   14  N   UNL     1     -10.747  10.258  69.515  1.00  0.00    -0.232 NA 
HETATM   15  C   UNL     1     -10.878  10.050  68.161  1.00  0.00    -0.255 A  
HETATM   16  C   UNL     1     -11.263  11.269  67.614  1.00  0.00    -0.357 A  
HETATM   17  C   UNL     1     -10.953   7.402  67.918  1.00  0.00    -0.065 C  
HETATM   18  C   UNL     1     -11.391  11.461  66.148  1.00  0.00    -0.115 C  
HETATM   19  C   UNL     1     -10.456   8.810  67.368  1.00  0.00    -0.279 C  
HETATM   20  C   UNL     1     -10.527  10.402  65.452  1.00  0.00    -0.117 C  
HETATM   21  C   UNL     1     -12.044   8.486  65.594  1.00  0.00    11.537 C  
HETATM   22  N   UNL     1     -10.748   9.029  65.943  1.00  0.00     0.916 NA 
ENDROOT
BRANCH   3  23
HETATM   23  O   UNL     1      -8.777   6.624  66.160  1.00  0.00    -0.140 OA 
BRANCH  23  24
HETATM   24  C   UNL     1      -8.970   5.897  67.311  1.00  0.00    -0.108 C  
HETATM   25  O   UNL     1      -9.437   4.762  67.312  1.00  0.00    -0.129 OA 
BRANCH  24  26
HETATM   26  C   UNL     1      -8.661   6.518  68.643  1.00  0.00    -0.123 A  
HETATM   27  C   UNL     1      -7.450   7.630  70.960  1.00  0.00    -0.075 A  
HETATM   28  C   UNL     1      -8.880   7.844  68.988  1.00  0.00    -0.145 A  
HETATM   29  C   UNL     1      -7.956   5.716  69.554  1.00  0.00    -0.092 A  
HETATM   30  C   UNL     1      -7.322   6.258  70.679  1.00  0.00    -0.082 A  
HETATM   31  C   UNL     1      -8.261   8.418  70.118  1.00  0.00    -0.117 A  
BRANCH  30  32
HETATM   32  O   UNL     1      -6.523   5.506  71.512  1.00  0.00    -0.040 OA 
HETATM   33  C   UNL     1      -6.914   5.484  72.884  1.00  0.00    -0.084 C  
ENDBRANCH  30  32
BRANCH  27  34
HETATM   34  O   UNL     1      -6.778   8.086  72.070  1.00  0.00    -0.057 OA 
HETATM   35  C   UNL     1      -7.308   9.247  72.707  1.00  0.00     0.978 C  
ENDBRANCH  27  34
BRANCH  31  36
HETATM   36  O   UNL     1      -8.435   9.742  70.438  1.00  0.00    -0.188 OA 
HETATM   37  C   UNL     1      -7.260  10.548  70.410  1.00  0.00     0.279 C  
ENDBRANCH  31  36
ENDBRANCH  24  26
ENDBRANCH  23  24
ENDBRANCH   3  23
BRANCH   5  38
HETATM   38  O   UNL     1     -10.521   4.099  64.137  1.00  0.00    -0.177 OA 
HETATM   39  C   UNL     1      -9.967   4.359  62.862  1.00  0.00     0.020 C  
ENDBRANCH   5  38
BRANCH   8  40
HETATM   40  C   UNL     1     -10.075   4.066  67.702  1.00  0.00     0.217 C  
HETATM   41  O   UNL     1      -9.809   4.566  68.784  1.00  0.00    -0.163 OA 
BRANCH  40  42
HETATM   42  O   UNL     1      -9.690   2.820  67.313  1.00  0.00    -0.012 OA 
HETATM   43  C   UNL     1      -8.688   2.666  66.297  1.00  0.00    -0.125 C  
ENDBRANCH  40  42
ENDBRANCH   8  40
TORSDOF 9
ENDMDL
MODEL      204
REMARK 921   NORMALIZED FREE ENERGY PREDICTED BY IDOCK:   50.79 KCAL/MOL
REMARK 922        TOTAL FREE ENERGY PREDICTED BY IDOCK:   74.89 KCAL/MOL
REMARK 923 INTER-LIGAND FREE ENERGY PREDICTED BY IDOCK:   12.65 KCAL/MOL
REMARK 924 INTRA-LIGAND FREE ENERGY PREDICTED BY IDOCK:   62.24 KCAL/MOL
REMARK 927      BINDING AFFINITY PREDICTED BY RF-SCORE:    0.00 PKD
ROOT
HETATM    1  C   UNL     1      -8.163  16.781  65.489  1.00  0.00     1.185 C  
HETATM    2  C   UNL     1      -9.511  17.508  65.486  1.00  0.00     0.620 C  
HETATM    3  C   UNL     1     -10.221  17.666  66.880  1.00  0.00    -0.334 C  
HETATM    4  C   UNL     1      -8.220  10.662  65.422  1.00  0.00    -0.125 A  
HETATM    5  C   UNL     1      -9.369  18.748  67.532  1.00  0.00    -0.290 C  
HETATM    6  C   UNL     1      -8.287   9.496  64.629  1.00  0.00    -0.161 A  
HETATM    7  C   UNL     1      -7.884   8.264  65.169  1.00  0.00    -0.120 A  
HETATM    8  C   UNL     1      -7.974  18.047  67.790  1.00  0.00    -0.235 C  
HETATM    9  C   UNL     1      -7.422   8.197  66.473  1.00  0.00    -0.088 A  
HETATM   10  C   UNL     1      -7.334   9.348  67.277  1.00  0.00    -0.087 A  
HETATM   11  H   UNL     1      -7.443  12.099  68.206  1.00  0.00     0.000 HD 
HETATM   12  C   UNL     1      -7.625  16.658  66.929  1.00  0.00    -0.262 C  
HETATM   13  C   UNL     1      -7.741  10.579  66.722  1.00  0.00    -0.118 A  
HETATM   14  N   UNL     1      -7.779  11.854  67.274  1.00  0.00    -0.156 NA 
HETATM   15  C   UNL     1      -8.338  12.738  66.381  1.00  0.00     0.387 A  
HETATM   16  C   UNL     1      -8.609  12.011  65.228  1.00  0.00     0.830 A  
HETATM   17  C   UNL     1      -7.766  15.131  67.395  1.00  0.00    -0.225 C  
HETATM   18  C   UNL     1      -9.327  12.611  64.075  1.00  0.00     0.827 C  
HETATM   19  C   UNL     1      -8.802  14.170  66.661  1.00  0.00    -0.114 C  
HETATM   20  C   UNL     1     -10.142  13.804  64.592  1.00  0.00    -0.160 C  
HETATM   21  C   UNL     1      -8.370  15.488  64.698  1.00  0.00     7.653 C  
HETATM   22  N   UNL     1      -9.372  14.741  65.429  1.00  0.00     0.149 NA 
ENDROOT
BRANCH   3  23
HETATM   23  O   UNL     1     -10.279  16.523  67.820  1.00  0.00    -0.261 OA 
BRANCH  23  24
HETATM   24  C   UNL     1      -9.944  15.313  67.260  1.00  0.00    -0.226 C  
HETATM   25  O   UNL     1      -9.387  15.213  66.171  1.00  0.00    -0.291 OA 
BRANCH  24  26
HETATM   26  C   UNL     1     -10.321  14.039  67.960  1.00  0.00    -0.240 A  
HETATM   27  C   UNL     1     -10.597  11.839  69.737  1.00  0.00     0.511 A  
HETATM   28  C   UNL     1     -11.528  13.793  68.601  1.00  0.00    -0.336 A  
HETATM   29  C   UNL     1      -9.303  13.082  68.101  1.00  0.00    -0.217 A  
HETATM   30  C   UNL     1      -9.411  12.015  69.002  1.00  0.00     0.318 A  
HETATM   31  C   UNL     1     -11.670  12.724  69.509  1.00  0.00    -0.318 A  
BRANCH  30  32
HETATM   32  O   UNL     1      -8.373  11.142  69.241  1.00  0.00    -0.043 OA 
HETATM   33  C   UNL     1      -8.750   9.866  69.758  1.00  0.00    -0.212 C  
ENDBRANCH  30  32
BRANCH  27  34
HETATM   34  O   UNL     1     -10.613  10.781  70.616  1.00  0.00     0.299 OA 
HETATM   35  C   UNL     1      -9.396  10.052  70.761  1.00  0.00     0.627 C  
ENDBRANCH  27  34
BRANCH  31  36
HETATM   36  O   UNL     1     -12.847  12.505  70.182  1.00  0.00     0.184 OA 
HETATM   37  C   UNL     1     -13.306  11.156  70.207  1.00  0.00     0.696 C  
ENDBRANCH  31  36
ENDBRANCH  24  26
ENDBRANCH  23  24
ENDBRANCH   3  23
BRANCH   5  38
HETATM   38  O   UNL     1      -9.320  19.860  66.616  1.00  0.00    -0.351 OA 
HETATM   39  C   UNL     1     -10.451  20.129  65.812  1.00  0.00    -0.280 C  
ENDBRANCH   5  38
BRANCH   8  40
HETATM   40  C   UNL     1      -7.788  18.018  69.294  1.00  0.00     0.159 C  
HETATM   41  O   UNL     1      -6.717  17.867  69.859  1.00  0.00    -0.003 OA 
BRANCH  40  42
HETATM   42  O   UNL     1      -8.991  18.094  69.927  1.00  0.00     1.046 OA 
HETATM   43  C   UNL     1      -9.291  19.221  70.761  1.00  0.00     2.411 C  
ENDBRANCH  40  42
ENDBRANCH   8  40
TORSDOF 9
ENDMDL
MODEL      205
REMARK 921   NORMALIZED FREE ENERGY PREDICTED BY IDOCK:   50.80 KCAL/MOL
REMARK 922        TOTAL FREE ENERGY PREDICTED BY IDOCK:   74.90 KCAL/MOL
REMARK 923 INTER-LIGAND FREE ENERGY PREDICTED BY IDOCK:    9.31 KCAL/MOL
REMARK 924 INTRA-LIGAND FREE ENERGY PREDICTED BY IDOCK:   65.58 KCAL/MOL
REMARK 927      BINDING AFFINITY PREDICTED BY RF-SCORE:    0.00 PKD
ROOT
HETATM    1  C   UNL     1     -10.418  10.841  67.647  1.00  0.00    -0.252 C  
HETATM    2  C   UNL     1     -10.097   9.890  66.490  1.00  0.00    -0.298 C  
HETATM    3  C   UNL     1      -8.595   9.837  66.027  1.00  0.00    -0.135 C  
HETATM    4  C   UNL     1     -11.296  16.751  66.323  1.00  0.00     0.734 A  
HETATM    5  C   UNL     1      -7.956   9.050  67.165  1.00  0.00    -0.102 C  
HETATM    6  C   UNL     1     -12.215  17.738  65.908  1.00  0.00     5.451 A  
HETATM    7  C   UNL     1     -11.921  19.095  66.119  1.00  0.00     3.238 A  
HETATM    8  C   UNL     1      -8.033  10.027  68.408  1.00  0.00    -0.097 C  
HETATM    9  C   UNL     1     -10.734  19.459  66.733  1.00  0.00    -0.550 A  
HETATM   10  C   UNL     1      -9.809  18.492  67.167  1.00  0.00    -0.335 A  
HETATM   11  H   UNL     1      -8.514  15.958  67.756  1.00  0.00     0.000 HD 
HETATM   12  C   UNL     1      -9.118  11.296  68.342  1.00  0.00    -0.170 C  
HETATM   13  C   UNL     1     -10.117  17.133  66.949  1.00  0.00    -0.298 A  
HETATM   14  N   UNL     1      -9.400  15.981  67.251  1.00  0.00    -0.209 NA 
HETATM   15  C   UNL     1     -10.061  14.875  66.768  1.00  0.00    -0.251 A  
HETATM   16  C   UNL     1     -11.239  15.341  66.196  1.00  0.00    -0.225 A  
HETATM   17  C   UNL     1      -8.845  12.827  67.955  1.00  0.00    -0.186 C  
HETATM   18  C   UNL     1     -12.163  14.438  65.466  1.00  0.00    -0.352 C  
HETATM   19  C   UNL     1      -9.517  13.448  66.652  1.00  0.00    -0.260 C  
HETATM   20  C   UNL     1     -11.362  13.218  64.993  1.00  0.00    -0.305 C  
HETATM   21  C   UNL     1     -11.329  11.926  67.071  1.00  0.00    -0.329 C  
HETATM   22  N   UNL     1     -10.548  12.588  66.048  1.00  0.00    -0.258 NA 
ENDROOT
BRANCH   3  23
HETATM   23  O   UNL     1      -7.821  11.089  65.866  1.00  0.00    -0.130 OA 
BRANCH  23  24
HETATM   24  C   UNL     1      -8.472  12.217  66.305  1.00  0.00     0.146 C  
HETATM   25  O   UNL     1      -9.413  12.723  65.700  1.00  0.00    -0.111 OA 
BRANCH  24  26
HETATM   26  C   UNL     1      -7.994  12.918  67.545  1.00  0.00    -0.178 A  
HETATM   27  C   UNL     1      -7.171  14.788  69.519  1.00  0.00    -0.160 A  
HETATM   28  C   UNL     1      -8.718  13.072  68.718  1.00  0.00     0.167 A  
HETATM   29  C   UNL     1      -6.770  13.597  67.440  1.00  0.00    -0.023 A  
HETATM   30  C   UNL     1      -6.371  14.550  68.386  1.00  0.00    -0.101 A  
HETATM   31  C   UNL     1      -8.339  14.019  69.693  1.00  0.00     0.871 A  
BRANCH  30  32
HETATM   32  O   UNL     1      -5.235  15.314  68.233  1.00  0.00    -0.097 OA 
HETATM   33  C   UNL     1      -5.420  16.566  67.573  1.00  0.00    -0.147 C  
ENDBRANCH  30  32
BRANCH  27  34
HETATM   34  O   UNL     1      -6.719  15.754  70.387  1.00  0.00     0.122 OA 
HETATM   35  C   UNL     1      -6.744  17.100  69.915  1.00  0.00     0.255 C  
ENDBRANCH  27  34
BRANCH  31  36
HETATM   36  O   UNL     1      -9.079  14.210  70.834  1.00  0.00     3.298 OA 
HETATM   37  C   UNL     1     -10.468  14.459  70.639  1.00  0.00     1.037 C  
ENDBRANCH  31  36
ENDBRANCH  24  26
ENDBRANCH  23  24
ENDBRANCH   3  23
BRANCH   5  38
HETATM   38  O   UNL     1      -8.710   7.830  67.315  1.00  0.00    -0.126 OA 
HETATM   39  C   UNL     1      -8.742   6.914  66.239  1.00  0.00    -0.142 C  
ENDBRANCH   5  38
BRANCH   8  40
HETATM   40  C   UNL     1      -6.599  10.337  68.789  1.00  0.00    -0.052 C  
HETATM   41  O   UNL     1      -6.212  11.407  69.232  1.00  0.00    -0.057 OA 
BRANCH  40  42
HETATM   42  O   UNL     1      -5.785   9.288  68.487  1.00  0.00    -0.041 OA 
HETATM   43  C   UNL     1      -5.437   8.336  69.503  1.00  0.00    -0.030 C  
ENDBRANCH  40  42
ENDBRANCH   8  40
TORSDOF 9
ENDMDL
MODEL      206
REMARK 921   NORMALIZED FREE ENERGY PREDICTED BY IDOCK:   52.77 KCAL/MOL
REMARK 922        TOTAL FREE ENERGY PREDICTED BY IDOCK:   77.91 KCAL/MOL
REMARK 923 INTER-LIGAND FREE ENERGY PREDICTED BY IDOCK:   18.94 KCAL/MOL
REMARK 924 INTRA-LIGAND FREE ENERGY PREDICTED BY IDOCK:   58.97 KCAL/MOL
REMARK 927      BINDING AFFINITY PREDICTED BY RF-SCORE:    0.00 PKD
ROOT
HETATM    1  C   UNL     1     -11.475  14.622  64.876  1.00  0.00    -0.401 C  
HETATM    2  C   UNL     1     -12.512  15.467  65.621  1.00  0.00     1.099 C  
HETATM    3  C   UNL     1     -11.988  16.284  66.859  1.00  0.00     1.353 C  
HETATM    4  C   UNL     1     -10.145   9.093  67.138  1.00  0.00    -0.301 A  
HETATM    5  C   UNL     1     -11.214  17.405  66.175  1.00  0.00     0.756 C  
HETATM    6  C   UNL     1     -10.498   7.727  67.186  1.00  0.00    -0.413 A  
HETATM    7  C   UNL     1      -9.560   6.781  67.632  1.00  0.00    -0.139 A  
HETATM    8  C   UNL     1      -9.967  16.680  65.524  1.00  0.00    -0.090 C  
HETATM    9  C   UNL     1      -8.295   7.191  68.021  1.00  0.00    -0.119 A  
HETATM   10  C   UNL     1      -7.917   8.546  67.969  1.00  0.00    -0.111 A  
HETATM   11  H   UNL     1      -7.946  11.420  67.544  1.00  0.00     0.000 HD 
HETATM   12  C   UNL     1     -10.049  15.026  65.304  1.00  0.00    -0.378 C  
HETATM   13  C   UNL     1      -8.869   9.484  67.519  1.00  0.00    -0.125 A  
HETATM   14  N   UNL     1      -8.786  10.865  67.379  1.00  0.00    -0.130 NA 
HETATM   15  C   UNL     1     -10.002  11.373  66.985  1.00  0.00    -0.201 A  
HETATM   16  C   UNL     1     -10.850  10.283  66.828  1.00  0.00    -0.157 A  
HETATM   17  C   UNL     1      -9.447  13.862  66.227  1.00  0.00    -0.235 C  
HETATM   18  C   UNL     1     -12.291  10.452  66.517  1.00  0.00     5.221 C  
HETATM   19  C   UNL     1     -10.427  12.844  66.959  1.00  0.00    -0.238 C  
HETATM   20  C   UNL     1     -12.714  11.855  66.973  1.00  0.00     2.819 C  
HETATM   21  C   UNL     1     -11.886  13.162  65.077  1.00  0.00    -0.354 C  
HETATM   22  N   UNL     1     -11.824  12.933  66.505  1.00  0.00    -0.398 NA 
ENDROOT
BRANCH   3  23
HETATM   23  O   UNL     1     -11.074  15.649  67.836  1.00  0.00    -0.312 OA 
BRANCH  23  24
HETATM   24  C   UNL     1      -9.835  15.337  67.331  1.00  0.00    -0.217 C  
HETATM   25  O   UNL     1      -9.663  14.485  66.464  1.00  0.00    -0.261 OA 
BRANCH  24  26
HETATM   26  C   UNL     1      -8.612  16.007  67.891  1.00  0.00    -0.165 A  
HETATM   27  C   UNL     1      -6.727  17.498  69.404  1.00  0.00    -0.179 A  
HETATM   28  C   UNL     1      -7.568  15.369  68.545  1.00  0.00    -0.122 A  
HETATM   29  C   UNL     1      -8.612  17.410  67.876  1.00  0.00    -0.232 A  
HETATM   30  C   UNL     1      -7.713  18.157  68.648  1.00  0.00    -0.297 A  
HETATM   31  C   UNL     1      -6.643  16.094  69.325  1.00  0.00    -0.189 A  
BRANCH  30  32
HETATM   32  O   UNL     1      -7.781  19.530  68.742  1.00  0.00    -0.344 OA 
HETATM   33  C   UNL     1      -8.865  20.041  69.517  1.00  0.00     0.607 C  
ENDBRANCH  30  32
BRANCH  27  34
HETATM   34  O   UNL     1      -5.899  18.303  70.152  1.00  0.00    -0.238 OA 
HETATM   35  C   UNL     1      -6.310  18.575  71.490  1.00  0.00     1.834 C  
ENDBRANCH  27  34
BRANCH  31  36
HETATM   36  O   UNL     1      -5.635  15.463  70.014  1.00  0.00    -0.117 OA 
HETATM   37  C   UNL     1      -5.267  16.056  71.256  1.00  0.00    -0.045 C  
ENDBRANCH  31  36
ENDBRANCH  24  26
ENDBRANCH  23  24
ENDBRANCH   3  23
BRANCH   5  38
HETATM   38  O   UNL     1     -12.109  18.022  65.227  1.00  0.00     3.249 OA 
HETATM   39  C   UNL     1     -11.915  17.775  63.849  1.00  0.00     7.166 C  
ENDBRANCH   5  38
BRANCH   8  40
HETATM   40  C   UNL     1      -8.743  17.246  66.217  1.00  0.00    -0.224 C  
HETATM   41  O   UNL     1      -8.674  17.501  67.408  1.00  0.00    -0.224 OA 
BRANCH  40  42
HETATM   42  O   UNL     1      -7.761  17.513  65.312  1.00  0.00     0.240 OA 
HETATM   43  C   UNL     1      -7.492  18.868  64.927  1.00  0.00     1.550 C  
ENDBRANCH  40  42
ENDBRANCH   8  40
TORSDOF 9
ENDMDL
MODEL      207
REMARK 921   NORMALIZED FREE ENERGY PREDICTED BY IDOCK:   56.26 KCAL/MOL
REMARK 922        TOTAL FREE ENERGY PREDICTED BY IDOCK:   83.23 KCAL/MOL
REMARK 923 INTER-LIGAND FREE ENERGY PREDICTED BY IDOCK:   46.97 KCAL/MOL
REMARK 924 INTRA-LIGAND FREE ENERGY PREDICTED BY IDOCK:   36.26 KCAL/MOL
REMARK 927      BINDING AFFINITY PREDICTED BY RF-SCORE:    0.00 PKD
ROOT
HETATM    1  C   UNL     1      -7.750   7.026  65.420  1.00  0.00    -0.111 C  
HETATM    2  C   UNL     1      -6.369   6.455  65.085  1.00  0.00    -0.034 C  
HETATM    3  C   UNL     1      -5.951   5.146  65.850  1.00  0.00    -0.022 C  
HETATM    4  C   UNL     1      -8.248  10.553  70.397  1.00  0.00     1.053 A  
HETATM    5  C   UNL     1      -6.816   4.101  65.154  1.00  0.00    -0.053 C  
HETATM    6  C   UNL     1      -8.126  11.853  70.933  1.00  0.00     7.050 A  
HETATM    7  C   UNL     1      -8.745  12.162  72.155  1.00  0.00    20.695 A  
HETATM    8  C   UNL     1      -8.293   4.456  65.598  1.00  0.00    -0.114 C  
HETATM    9  C   UNL     1      -9.471  11.194  72.829  1.00  0.00    17.255 A  
HETATM   10  C   UNL     1      -9.617   9.895  72.307  1.00  0.00     3.866 A  
HETATM   11  H   UNL     1      -9.448   7.562  70.583  1.00  0.00     0.000 HD 
HETATM   12  C   UNL     1      -8.584   5.988  66.199  1.00  0.00    -0.142 C  
HETATM   13  C   UNL     1      -8.991   9.599  71.078  1.00  0.00     0.339 A  
HETATM   14  N   UNL     1      -8.950   8.420  70.343  1.00  0.00    -0.144 NA 
HETATM   15  C   UNL     1      -8.139   8.578  69.243  1.00  0.00    -0.113 A  
HETATM   16  C   UNL     1      -7.703   9.898  69.265  1.00  0.00    -0.109 A  
HETATM   17  C   UNL     1      -8.684   6.460  67.727  1.00  0.00    -0.114 C  
HETATM   18  C   UNL     1      -6.711  10.409  68.287  1.00  0.00    -0.061 C  
HETATM   19  C   UNL     1      -7.612   7.481  68.314  1.00  0.00    -0.114 C  
HETATM   20  C   UNL     1      -5.913   9.213  67.750  1.00  0.00    -0.049 C  
HETATM   21  C   UNL     1      -7.505   8.380  66.088  1.00  0.00    -0.088 C  
HETATM   22  N   UNL     1      -6.750   8.091  67.289  1.00  0.00    -0.064 NA 
ENDROOT
BRANCH   3  23
HETATM   23  O   UNL     1      -6.196   5.024  67.306  1.00  0.00    -0.033 OA 
BRANCH  23  24
HETATM   24  C   UNL     1      -7.501   4.750  67.638  1.00  0.00    -0.078 C  
HETATM   25  O   UNL     1      -8.414   4.753  66.817  1.00  0.00    -0.107 OA 
BRANCH  24  26
HETATM   26  C   UNL     1      -7.867   4.496  69.073  1.00  0.00    -0.070 A  
HETATM   27  C   UNL     1      -9.050   3.661  71.517  1.00  0.00    -0.114 A  
HETATM   28  C   UNL     1      -7.172   3.676  69.951  1.00  0.00    -0.042 A  
HETATM   29  C   UNL     1      -9.097   5.017  69.502  1.00  0.00    -0.150 A  
HETATM   30  C   UNL     1      -9.709   4.585  70.686  1.00  0.00    -0.212 A  
HETATM   31  C   UNL     1      -7.759   3.229  71.153  1.00  0.00    -0.050 A  
BRANCH  30  32
HETATM   32  O   UNL     1     -10.972   4.993  71.057  1.00  0.00     0.010 OA 
HETATM   33  C   UNL     1     -11.173   6.406  71.102  1.00  0.00    -0.302 C  
ENDBRANCH  30  32
BRANCH  27  34
HETATM   34  O   UNL     1      -9.730   3.272  72.647  1.00  0.00    -0.120 OA 
HETATM   35  C   UNL     1      -9.273   2.084  73.291  1.00  0.00    -0.072 C  
ENDBRANCH  27  34
BRANCH  31  36
HETATM   36  O   UNL     1      -7.095   2.379  72.004  1.00  0.00    -0.035 OA 
HETATM   37  C   UNL     1      -6.243   3.000  72.962  1.00  0.00    -0.009 C  
ENDBRANCH  31  36
ENDBRANCH  24  26
ENDBRANCH  23  24
ENDBRANCH   3  23
BRANCH   5  38
HETATM   38  O   UNL     1      -6.571   4.221  63.738  1.00  0.00    -0.039 OA 
HETATM   39  C   UNL     1      -5.928   3.155  63.067  1.00  0.00    -0.013 C  
ENDBRANCH   5  38
BRANCH   8  40
HETATM   40  C   UNL     1      -8.788   3.270  66.402  1.00  0.00    -0.141 C  
HETATM   41  O   UNL     1      -9.245   3.338  67.532  1.00  0.00    -0.163 OA 
BRANCH  40  42
HETATM   42  O   UNL     1      -8.571   2.109  65.726  1.00  0.00    -0.100 OA 
HETATM   43  C   UNL     1      -9.373   1.785  64.582  1.00  0.00    -0.117 C  
ENDBRANCH  40  42
ENDBRANCH   8  40
TORSDOF 9
ENDMDL
MODEL      208
REMARK 921   NORMALIZED FREE ENERGY PREDICTED BY IDOCK:   61.15 KCAL/MOL
REMARK 922        TOTAL FREE ENERGY PREDICTED BY IDOCK:   90.68 KCAL/MOL
REMARK 923 INTER-LIGAND FREE ENERGY PREDICTED BY IDOCK:   -4.18 KCAL/MOL
REMARK 924 INTRA-LIGAND FREE ENERGY PREDICTED BY IDOCK:   94.86 KCAL/MOL
REMARK 927      BINDING AFFINITY PREDICTED BY RF-SCORE:    0.00 PKD
ROOT
HETATM    1  C   UNL     1      -8.239  11.739  67.892  1.00  0.00    -0.147 C  
HETATM    2  C   UNL     1      -9.314  11.456  68.945  1.00  0.00    -0.044 C  
HETATM    3  C   UNL     1     -10.801  11.738  68.518  1.00  0.00    -0.224 C  
HETATM    4  C   UNL     1      -6.285  17.507  67.289  1.00  0.00    -0.166 A  
HETATM    5  C   UNL     1     -11.073  10.567  67.580  1.00  0.00    -0.290 C  
HETATM    6  C   UNL     1      -5.394  18.500  67.750  1.00  0.00    -0.168 A  
HETATM    7  C   UNL     1      -5.133  19.626  66.951  1.00  0.00    -0.158 A  
HETATM    8  C   UNL     1     -10.156  10.853  66.321  1.00  0.00    -0.284 C  
HETATM    9  C   UNL     1      -5.748  19.756  65.717  1.00  0.00    -0.189 A  
HETATM   10  C   UNL     1      -6.629  18.772  65.231  1.00  0.00    -0.244 A  
HETATM   11  H   UNL     1      -8.230  16.361  64.983  1.00  0.00     0.000 HD 
HETATM   12  C   UNL     1      -8.885  11.922  66.504  1.00  0.00    -0.178 C  
HETATM   13  C   UNL     1      -6.881  17.647  66.044  1.00  0.00    -0.273 A  
HETATM   14  N   UNL     1      -7.702  16.545  65.836  1.00  0.00     0.098 NA 
HETATM   15  C   UNL     1      -7.699  15.738  66.951  1.00  0.00    -0.219 A  
HETATM   16  C   UNL     1      -6.819  16.323  67.855  1.00  0.00    -0.152 A  
HETATM   17  C   UNL     1      -8.819  13.475  66.114  1.00  0.00     0.371 C  
HETATM   18  C   UNL     1      -6.642  15.790  69.228  1.00  0.00    -0.160 C  
HETATM   19  C   UNL     1      -8.644  14.572  67.254  1.00  0.00    -0.215 C  
HETATM   20  C   UNL     1      -7.900  14.991  69.595  1.00  0.00    -0.090 C  
HETATM   21  C   UNL     1      -7.397  12.894  68.438  1.00  0.00    -0.119 C  
HETATM   22  N   UNL     1      -8.308  14.011  68.572  1.00  0.00    -0.156 NA 
ENDROOT
BRANCH   3  23
HETATM   23  O   UNL     1     -11.142  12.979  67.785  1.00  0.00    -0.245 OA 
BRANCH  23  24
HETATM   24  C   UNL     1     -10.509  13.112  66.572  1.00  0.00    -0.279 C  
HETATM   25  O   UNL     1     -10.551  14.143  65.907  1.00  0.00    -0.284 OA 
BRANCH  24  26
HETATM   26  C   UNL     1      -9.779  11.939  65.981  1.00  0.00    -0.257 A  
HETATM   27  C   UNL     1      -7.931  10.175  64.739  1.00  0.00    -0.146 A  
HETATM   28  C   UNL     1      -9.203  10.900  66.697  1.00  0.00    -0.184 A  
HETATM   29  C   UNL     1      -9.538  11.990  64.599  1.00  0.00    -0.002 A  
HETATM   30  C   UNL     1      -8.601  11.153  63.981  1.00  0.00     0.267 A  
HETATM   31  C   UNL     1      -8.260  10.036  66.102  1.00  0.00    -0.121 A  
BRANCH  30  32
HETATM   32  O   UNL     1      -8.262  11.275  62.652  1.00  0.00    -0.080 OA 
HETATM   33  C   UNL     1      -6.943  11.757  62.394  1.00  0.00     1.258 C  
ENDBRANCH  30  32
BRANCH  27  34
HETATM   34  O   UNL     1      -7.010   9.410  64.062  1.00  0.00    -0.091 OA 
HETATM   35  C   UNL     1      -7.500   8.227  63.434  1.00  0.00    -0.119 C  
ENDBRANCH  27  34
BRANCH  31  36
HETATM   36  O   UNL     1      -7.651   9.035  66.819  1.00  0.00    -0.089 OA 
HETATM   37  C   UNL     1      -6.276   9.242  67.128  1.00  0.00    -0.058 C  
ENDBRANCH  31  36
ENDBRANCH  24  26
ENDBRANCH  23  24
ENDBRANCH   3  23
BRANCH   5  38
HETATM   38  O   UNL     1     -10.743   9.362  68.298  1.00  0.00    -0.220 OA 
HETATM   39  C   UNL     1     -10.792   8.126  67.612  1.00  0.00    -0.023 C  
ENDBRANCH   5  38
BRANCH   8  40
HETATM   40  C   UNL     1     -11.099  11.062  65.152  1.00  0.00     0.060 C  
HETATM   41  O   UNL     1     -10.875  10.707  64.006  1.00  0.00    -0.040 OA 
BRANCH  40  42
HETATM   42  O   UNL     1     -12.190  11.777  65.539  1.00  0.00    -0.280 OA 
HETATM   43  C   UNL     1     -12.897  12.579  64.582  1.00  0.00    -0.236 C  
ENDBRANCH  40  42
ENDBRANCH   8  40
TORSDOF 9
ENDMDL
MODEL      209
REMARK 921   NORMALIZED FREE ENERGY PREDICTED BY IDOCK:   62.02 KCAL/MOL
REMARK 922        TOTAL FREE ENERGY PREDICTED BY IDOCK:   92.02 KCAL/MOL
REMARK 923 INTER-LIGAND FREE ENERGY PREDICTED BY IDOCK:   -4.04 KCAL/MOL
REMARK 924 INTRA-LIGAND FREE ENERGY PREDICTED BY IDOCK:   96.06 KCAL/MOL
REMARK 927      BINDING AFFINITY PREDICTED BY RF-SCORE:    0.00 PKD
ROOT
HETATM    1  C   UNL     1      -9.445  12.830  66.211  1.00  0.00    -0.198 C  
HETATM    2  C   UNL     1     -10.410  12.968  65.030  1.00  0.00    -0.336 C  
HETATM    3  C   UNL     1     -11.915  13.248  65.389  1.00  0.00    -0.395 C  
HETATM    4  C   UNL     1      -9.113   7.396  69.007  1.00  0.00    -0.133 A  
HETATM    5  C   UNL     1     -11.856  14.709  65.819  1.00  0.00    -0.274 C  
HETATM    6  C   UNL     1      -8.526   6.113  69.016  1.00  0.00    -0.118 A  
HETATM    7  C   UNL     1      -8.573   5.333  70.183  1.00  0.00    -0.122 A  
HETATM    8  C   UNL     1     -11.043  14.685  67.177  1.00  0.00    -0.328 C  
HETATM    9  C   UNL     1      -9.193   5.826  71.320  1.00  0.00    -0.161 A  
HETATM   10  C   UNL     1      -9.774   7.108  71.339  1.00  0.00    -0.170 A  
HETATM   11  H   UNL     1     -10.664   9.762  70.561  1.00  0.00     0.000 HD 
HETATM   12  C   UNL     1     -10.108  13.340  67.507  1.00  0.00    -0.223 C  
HETATM   13  C   UNL     1      -9.718   7.879  70.160  1.00  0.00    -0.179 A  
HETATM   14  N   UNL     1     -10.210   9.150  69.883  1.00  0.00    -0.195 NA 
HETATM   15  C   UNL     1      -9.997   9.461  68.560  1.00  0.00    -0.173 A  
HETATM   16  C   UNL     1      -9.312   8.383  68.010  1.00  0.00    -0.146 A  
HETATM   17  C   UNL     1     -10.461  12.077  68.428  1.00  0.00    -0.231 C  
HETATM   18  C   UNL     1      -9.006   8.310  66.560  1.00  0.00    -0.189 C  
HETATM   19  C   UNL     1     -10.594  10.632  67.775  1.00  0.00    -0.236 C  
HETATM   20  C   UNL     1     -10.005   9.207  65.817  1.00  0.00    -0.075 C  
HETATM   21  C   UNL     1      -8.948  11.383  66.194  1.00  0.00    -0.201 C  
HETATM   22  N   UNL     1     -10.127  10.564  66.381  1.00  0.00    -0.221 NA 
ENDROOT
BRANCH   3  23
HETATM   23  O   UNL     1     -12.574  12.493  66.480  1.00  0.00    -0.215 OA 
BRANCH  23  24
HETATM   24  C   UNL     1     -11.850  12.439  67.647  1.00  0.00    -0.295 C  
HETATM   25  O   UNL     1     -11.956  11.522  68.456  1.00  0.00    -0.472 OA 
BRANCH  24  26
HETATM   26  C   UNL     1     -10.928  13.570  68.004  1.00  0.00    -0.271 A  
HETATM   27  C   UNL     1      -8.891  15.248  69.057  1.00  0.00    -0.226 A  
HETATM   28  C   UNL     1      -9.967  14.124  67.170  1.00  0.00    -0.255 A  
HETATM   29  C   UNL     1     -10.948  13.989  69.343  1.00  0.00    -0.194 A  
HETATM   30  C   UNL     1      -9.930  14.784  69.884  1.00  0.00     0.212 A  
HETATM   31  C   UNL     1      -8.932  14.933  67.684  1.00  0.00    -0.180 A  
BRANCH  30  32
HETATM   32  O   UNL     1      -9.870  15.100  71.224  1.00  0.00     1.025 OA 
HETATM   33  C   UNL     1     -11.127  15.351  71.853  1.00  0.00    -0.160 C  
ENDBRANCH  30  32
BRANCH  27  34
HETATM   34  O   UNL     1      -7.919  16.003  69.670  1.00  0.00    -0.130 OA 
HETATM   35  C   UNL     1      -7.931  17.403  69.399  1.00  0.00     0.301 C  
ENDBRANCH  27  34
BRANCH  31  36
HETATM   36  O   UNL     1      -7.950  15.445  66.871  1.00  0.00    -0.218 OA 
HETATM   37  C   UNL     1      -6.624  15.002  67.144  1.00  0.00     0.318 C  
ENDBRANCH  31  36
ENDBRANCH  24  26
ENDBRANCH  23  24
ENDBRANCH   3  23
BRANCH   5  38
HETATM   38  O   UNL     1     -11.218  15.441  64.753  1.00  0.00    -0.413 OA 
HETATM   39  C   UNL     1     -11.038  16.835  64.898  1.00  0.00    -0.054 C  
ENDBRANCH   5  38
BRANCH   8  40
HETATM   40  C   UNL     1     -12.000  15.166  68.249  1.00  0.00    -0.159 C  
HETATM   41  O   UNL     1     -11.969  16.273  68.764  1.00  0.00    -0.205 OA 
BRANCH  40  42
HETATM   42  O   UNL     1     -12.843  14.165  68.623  1.00  0.00     0.531 OA 
HETATM   43  C   UNL     1     -13.518  14.232  69.888  1.00  0.00     1.329 C  
ENDBRANCH  40  42
ENDBRANCH   8  40
TORSDOF 9
ENDMDL
MODEL      210
REMARK 921   NORMALIZED FREE ENERGY PREDICTED BY IDOCK:   62.09 KCAL/MOL
REMARK 922        TOTAL FREE ENERGY PREDICTED BY IDOCK:   92.12 KCAL/MOL
REMARK 923 INTER-LIGAND FREE ENERGY PREDICTED BY IDOCK:   91.32 KCAL/MOL
REMARK 924 INTRA-LIGAND FREE ENERGY PREDICTED BY IDOCK:    0.80 KCAL/MOL
REMARK 927      BINDING AFFINITY PREDICTED BY RF-SCORE:    0.00 PKD
ROOT
HETATM    1  C   UNL     1      -9.384  14.006  68.486  1.00  0.00    -0.182 C  
HETATM    2  C   UNL     1      -8.078  13.534  69.134  1.00  0.00     0.374 C  
HETATM    3  C   UNL     1      -6.808  13.511  68.207  1.00  0.00    -0.108 C  
HETATM    4  C   UNL     1     -12.608   9.923  65.264  1.00  0.00    10.917 A  
HETATM    5  C   UNL     1      -6.492  14.998  68.092  1.00  0.00    -0.131 C  
HETATM    6  C   UNL     1     -13.576   8.896  65.302  1.00  0.00    24.981 A  
HETATM    7  C   UNL     1     -14.231   8.513  64.120  1.00  0.00    17.527 A  
HETATM    8  C   UNL     1      -7.689  15.588  67.240  1.00  0.00    -0.244 C  
HETATM    9  C   UNL     1     -13.928   9.144  62.925  1.00  0.00    15.315 A  
HETATM   10  C   UNL     1     -12.976  10.179  62.865  1.00  0.00     7.955 A  
HETATM   11  H   UNL     1     -10.983  12.161  63.601  1.00  0.00     0.000 HD 
HETATM   12  C   UNL     1      -9.093  14.689  67.134  1.00  0.00    -0.236 C  
HETATM   13  C   UNL     1     -12.327  10.553  64.060  1.00  0.00     4.495 A  
HETATM   14  N   UNL     1     -11.350  11.513  64.299  1.00  0.00    -0.291 NA 
HETATM   15  C   UNL     1     -10.950  11.462  65.614  1.00  0.00    -0.190 A  
HETATM   16  C   UNL     1     -11.728  10.483  66.222  1.00  0.00     1.671 A  
HETATM   17  C   UNL     1      -9.569  13.710  65.958  1.00  0.00    -0.186 C  
HETATM   18  C   UNL     1     -11.499  10.064  67.627  1.00  0.00     0.357 C  
HETATM   19  C   UNL     1      -9.736  12.153  66.241  1.00  0.00    -0.238 C  
HETATM   20  C   UNL     1     -10.051  10.413  67.997  1.00  0.00    -0.163 C  
HETATM   21  C   UNL     1     -10.322  12.797  68.480  1.00  0.00    -0.221 C  
HETATM   22  N   UNL     1      -9.663  11.797  67.667  1.00  0.00    -0.179 NA 
ENDROOT
BRANCH   3  23
HETATM   23  O   UNL     1      -6.900  12.971  66.831  1.00  0.00     0.035 OA 
BRANCH  23  24
HETATM   24  C   UNL     1      -5.966  12.006  66.540  1.00  0.00     0.349 C  
HETATM   25  O   UNL     1      -5.220  12.071  65.567  1.00  0.00     0.648 OA 
BRANCH  24  26
HETATM   26  C   UNL     1      -5.876  10.775  67.396  1.00  0.00    -0.045 A  
HETATM   27  C   UNL     1      -6.182   8.748  69.363  1.00  0.00    -0.041 A  
HETATM   28  C   UNL     1      -6.324   9.509  67.044  1.00  0.00    -0.066 A  
HETATM   29  C   UNL     1      -5.437  10.967  68.715  1.00  0.00    -0.040 A  
HETATM   30  C   UNL     1      -5.618   9.991  69.703  1.00  0.00    -0.037 A  
HETATM   31  C   UNL     1      -6.510   8.503  68.015  1.00  0.00    -0.057 A  
BRANCH  30  32
HETATM   32  O   UNL     1      -5.307  10.211  71.027  1.00  0.00    -0.065 OA 
HETATM   33  C   UNL     1      -6.318   9.846  71.966  1.00  0.00     0.674 C  
ENDBRANCH  30  32
BRANCH  27  34
HETATM   34  O   UNL     1      -6.346   7.854  70.395  1.00  0.00    -0.036 OA 
HETATM   35  C   UNL     1      -5.173   7.189  70.858  1.00  0.00    -0.023 C  
ENDBRANCH  27  34
BRANCH  31  36
HETATM   36  O   UNL     1      -6.999   7.264  67.679  1.00  0.00    -0.071 OA 
HETATM   37  C   UNL     1      -6.085   6.179  67.812  1.00  0.00    -0.017 C  
ENDBRANCH  31  36
ENDBRANCH  24  26
ENDBRANCH  23  24
ENDBRANCH   3  23
BRANCH   5  38
HETATM   38  O   UNL     1      -6.400  15.519  69.434  1.00  0.00    -0.121 OA 
HETATM   39  C   UNL     1      -7.225  16.607  69.798  1.00  0.00     0.332 C  
ENDBRANCH   5  38
BRANCH   8  40
HETATM   40  C   UNL     1      -7.075  16.103  65.953  1.00  0.00     2.000 C  
HETATM   41  O   UNL     1      -6.208  15.525  65.316  1.00  0.00     7.142 OA 
BRANCH  40  42
HETATM   42  O   UNL     1      -7.560  17.339  65.652  1.00  0.00    -0.366 OA 
HETATM   43  C   UNL     1      -6.655  18.399  65.312  1.00  0.00    -0.091 C  
ENDBRANCH  40  42
ENDBRANCH   8  40
TORSDOF 9
ENDMDL
MODEL      211
REMARK 921   NORMALIZED FREE ENERGY PREDICTED BY IDOCK:   63.39 KCAL/MOL
REMARK 922        TOTAL FREE ENERGY PREDICTED BY IDOCK:   94.12 KCAL/MOL
REMARK 923 INTER-LIGAND FREE ENERGY PREDICTED BY IDOCK:    7.68 KCAL/MOL
REMARK 924 INTRA-LIGAND FREE ENERGY PREDICTED BY IDOCK:   86.44 KCAL/MOL
REMARK 927      BINDING AFFINITY PREDICTED BY RF-SCORE:    0.00 PKD
ROOT
HETATM    1  C   UNL     1      -9.118   6.403  67.727  1.00  0.00    -0.111 C  
HETATM    2  C   UNL     1      -7.914   6.021  68.593  1.00  0.00    -0.104 C  
HETATM    3  C   UNL     1      -8.158   5.976  70.146  1.00  0.00    -0.114 C  
HETATM    4  C   UNL     1     -10.375  12.353  67.048  1.00  0.00    -0.235 A  
HETATM    5  C   UNL     1      -8.968   4.692  70.286  1.00  0.00    -0.096 C  
HETATM    6  C   UNL     1     -10.107  13.536  66.325  1.00  0.00    -0.298 A  
HETATM    7  C   UNL     1     -11.009  14.610  66.390  1.00  0.00    -0.325 A  
HETATM    8  C   UNL     1     -10.354   5.026  69.600  1.00  0.00    -0.260 C  
HETATM    9  C   UNL     1     -12.156  14.506  67.159  1.00  0.00    -0.301 A  
HETATM   10  C   UNL     1     -12.451  13.332  67.877  1.00  0.00     0.334 A  
HETATM   11  H   UNL     1     -12.316  10.648  68.982  1.00  0.00     0.000 HD 
HETATM   12  C   UNL     1     -10.418   6.328  68.555  1.00  0.00    -0.273 C  
HETATM   13  C   UNL     1     -11.536  12.261  67.802  1.00  0.00    -0.351 A  
HETATM   14  N   UNL     1     -11.555  11.008  68.405  1.00  0.00    -0.420 NA 
HETATM   15  C   UNL     1     -10.398  10.325  68.110  1.00  0.00    -0.177 A  
HETATM   16  C   UNL     1      -9.662  11.148  67.265  1.00  0.00    -0.186 A  
HETATM   17  C   UNL     1     -10.919   7.822  68.847  1.00  0.00     0.082 C  
HETATM   18  C   UNL     1      -8.291  10.790  66.825  1.00  0.00    -0.136 C  
HETATM   19  C   UNL     1      -9.892   9.035  68.761  1.00  0.00    -0.172 C  
HETATM   20  C   UNL     1      -7.706   9.806  67.846  1.00  0.00    -0.087 C  
HETATM   21  C   UNL     1      -8.771   7.742  67.074  1.00  0.00    -0.129 C  
HETATM   22  N   UNL     1      -8.594   8.674  68.168  1.00  0.00    -0.140 NA 
ENDROOT
BRANCH   3  23
HETATM   23  O   UNL     1      -8.923   7.056  70.811  1.00  0.00    -0.149 OA 
BRANCH  23  24
HETATM   24  C   UNL     1      -9.382   8.031  69.959  1.00  0.00    -0.156 C  
HETATM   25  O   UNL     1     -10.475   7.971  69.403  1.00  0.00    -0.219 OA 
BRANCH  24  26
HETATM   26  C   UNL     1      -8.503   9.203  69.625  1.00  0.00    -0.133 A  
HETATM   27  C   UNL     1      -6.432  11.138  69.436  1.00  0.00    -0.100 A  
HETATM   28  C   UNL     1      -7.808   9.381  68.437  1.00  0.00    -0.090 A  
HETATM   29  C   UNL     1      -8.254  10.109  70.668  1.00  0.00     0.770 A  
HETATM   30  C   UNL     1      -7.211  11.042  70.603  1.00  0.00     1.565 A  
HETATM   31  C   UNL     1      -6.757  10.316  68.339  1.00  0.00    -0.057 A  
BRANCH  30  32
HETATM   32  O   UNL     1      -6.876  11.851  71.666  1.00  0.00     3.163 OA 
HETATM   33  C   UNL     1      -5.482  11.928  71.965  1.00  0.00     0.581 C  
ENDBRANCH  30  32
BRANCH  27  34
HETATM   34  O   UNL     1      -5.414  12.063  69.462  1.00  0.00    -0.065 OA 
HETATM   35  C   UNL     1      -5.756  13.378  69.894  1.00  0.00    -0.119 C  
ENDBRANCH  27  34
BRANCH  31  36
HETATM   36  O   UNL     1      -6.033  10.464  67.180  1.00  0.00    -0.049 OA 
HETATM   37  C   UNL     1      -5.161  11.589  67.131  1.00  0.00    -0.083 C  
ENDBRANCH  31  36
ENDBRANCH  24  26
ENDBRANCH  23  24
ENDBRANCH   3  23
BRANCH   5  38
HETATM   38  O   UNL     1      -8.218   3.643  69.641  1.00  0.00    -0.053 OA 
HETATM   39  C   UNL     1      -7.730   2.574  70.427  1.00  0.00    -0.042 C  
ENDBRANCH   5  38
BRANCH   8  40
HETATM   40  C   UNL     1     -11.398   4.942  70.696  1.00  0.00     1.737 C  
HETATM   41  O   UNL     1     -12.597   5.102  70.528  1.00  0.00     4.775 OA 
BRANCH  40  42
HETATM   42  O   UNL     1     -10.807   4.751  71.907  1.00  0.00    -0.083 OA 
HETATM   43  C   UNL     1     -10.483   3.424  72.344  1.00  0.00    -0.016 C  
ENDBRANCH  40  42
ENDBRANCH   8  40
TORSDOF 9
ENDMDL
MODEL      212
REMARK 921   NORMALIZED FREE ENERGY PREDICTED BY IDOCK:   69.24 KCAL/MOL
REMARK 922        TOTAL FREE ENERGY PREDICTED BY IDOCK:  103.04 KCAL/MOL
REMARK 923 INTER-LIGAND FREE ENERGY PREDICTED BY IDOCK:   80.10 KCAL/MOL
REMARK 924 INTRA-LIGAND FREE ENERGY PREDICTED BY IDOCK:   22.95 KCAL/MOL
REMARK 927      BINDING AFFINITY PREDICTED BY RF-SCORE:    0.00 PKD
ROOT
HETATM    1  C   UNL     1     -12.891   6.898  65.200  1.00  0.00    12.955 C  
HETATM    2  C   UNL     1     -12.125   6.187  64.081  1.00  0.00     9.972 C  
HETATM    3  C   UNL     1     -10.676   5.689  64.433  1.00  0.00     3.344 C  
HETATM    4  C   UNL     1     -11.765  12.846  66.096  1.00  0.00    -0.451 A  
HETATM    5  C   UNL     1     -10.979   4.484  65.317  1.00  0.00     0.028 C  
HETATM    6  C   UNL     1     -12.073  14.171  65.718  1.00  0.00    -0.433 A  
HETATM    7  C   UNL     1     -11.726  15.236  66.566  1.00  0.00     0.077 A  
HETATM    8  C   UNL     1     -11.598   5.108  66.633  1.00  0.00     2.179 C  
HETATM    9  C   UNL     1     -11.085  14.983  67.767  1.00  0.00    -0.312 A  
HETATM   10  C   UNL     1     -10.779  13.670  68.171  1.00  0.00    -0.260 A  
HETATM   11  H   UNL     1     -10.549  10.775  68.253  1.00  0.00     0.000 HD 
HETATM   12  C   UNL     1     -12.192   6.668  66.556  1.00  0.00     4.536 C  
HETATM   13  C   UNL     1     -11.134  12.611  67.311  1.00  0.00    -0.278 A  
HETATM   14  N   UNL     1     -10.949  11.239  67.436  1.00  0.00    -0.264 NA 
HETATM   15  C   UNL     1     -11.381  10.598  66.298  1.00  0.00     0.533 A  
HETATM   16  C   UNL     1     -11.894  11.585  65.464  1.00  0.00     0.324 A  
HETATM   17  C   UNL     1     -11.479   8.033  66.999  1.00  0.00     1.752 C  
HETATM   18  C   UNL     1     -12.354  11.282  64.086  1.00  0.00     0.695 C  
HETATM   19  C   UNL     1     -11.136   9.138  65.906  1.00  0.00     2.396 C  
HETATM   20  C   UNL     1     -11.657   9.995  63.625  1.00  0.00     5.780 C  
HETATM   21  C   UNL     1     -13.081   8.345  64.740  1.00  0.00    23.133 C  
HETATM   22  N   UNL     1     -11.746   8.885  64.591  1.00  0.00    11.222 NA 
ENDROOT
BRANCH   3  23
HETATM   23  O   UNL     1      -9.750   6.566  65.186  1.00  0.00     0.907 OA 
BRANCH  23  24
HETATM   24  C   UNL     1      -9.135   5.956  66.253  1.00  0.00    -0.149 C  
HETATM   25  O   UNL     1      -8.990   4.739  66.333  1.00  0.00    -0.112 OA 
BRANCH  24  26
HETATM   26  C   UNL     1      -8.666   6.783  67.415  1.00  0.00    -0.119 A  
HETATM   27  C   UNL     1      -7.322   8.558  69.180  1.00  0.00    -0.079 A  
HETATM   28  C   UNL     1      -9.317   7.895  67.932  1.00  0.00    -0.150 A  
HETATM   29  C   UNL     1      -7.387   6.488  67.913  1.00  0.00    -0.093 A  
HETATM   30  C   UNL     1      -6.699   7.372  68.752  1.00  0.00    -0.053 A  
HETATM   31  C   UNL     1      -8.653   8.801  68.785  1.00  0.00    -0.137 A  
BRANCH  30  32
HETATM   32  O   UNL     1      -5.397   7.155  69.148  1.00  0.00    -0.014 OA 
HETATM   33  C   UNL     1      -5.178   7.127  70.558  1.00  0.00    -0.023 C  
ENDBRANCH  30  32
BRANCH  27  34
HETATM   34  O   UNL     1      -6.570   9.382  69.984  1.00  0.00    -0.049 OA 
HETATM   35  C   UNL     1      -6.181   8.859  71.252  1.00  0.00    -0.060 C  
ENDBRANCH  27  34
BRANCH  31  36
HETATM   36  O   UNL     1      -9.277   9.927  69.261  1.00  0.00    -0.174 OA 
HETATM   37  C   UNL     1      -8.655  11.167  68.935  1.00  0.00    -0.087 C  
ENDBRANCH  31  36
ENDBRANCH  24  26
ENDBRANCH  23  24
ENDBRANCH   3  23
BRANCH   5  38
HETATM   38  O   UNL     1     -11.878   3.631  64.579  1.00  0.00     0.960 OA 
HETATM   39  C   UNL     1     -11.671   3.466  63.190  1.00  0.00     1.390 C  
ENDBRANCH   5  38
BRANCH   8  40
HETATM   40  C   UNL     1     -10.635   4.768  67.753  1.00  0.00     0.292 C  
HETATM   41  O   UNL     1     -10.026   5.589  68.420  1.00  0.00    -0.140 OA 
BRANCH  40  42
HETATM   42  O   UNL     1     -10.474   3.420  67.855  1.00  0.00     1.247 OA 
HETATM   43  C   UNL     1      -9.230   2.817  67.472  1.00  0.00    -0.187 C  
ENDBRANCH  40  42
ENDBRANCH   8  40
TORSDOF 9
ENDMDL
MODEL      213
REMARK 921   NORMALIZED FREE ENERGY PREDICTED BY IDOCK:   69.41 KCAL/MOL
REMARK 922        TOTAL FREE ENERGY PREDICTED BY IDOCK:  103.29 KCAL/MOL
REMARK 923 INTER-LIGAND FREE ENERGY PREDICTED BY IDOCK:    4.15 KCAL/MOL
REMARK 924 INTRA-LIGAND FREE ENERGY PREDICTED BY IDOCK:   99.15 KCAL/MOL
REMARK 927      BINDING AFFINITY PREDICTED BY RF-SCORE:    0.00 PKD
ROOT
HETATM    1  C   UNL     1     -10.125  11.224  67.049  1.00  0.00    -0.238 C  
HETATM    2  C   UNL     1     -10.255  10.236  65.887  1.00  0.00    -0.293 C  
HETATM    3  C   UNL     1      -8.950   9.960  65.055  1.00  0.00    -0.201 C  
HETATM    4  C   UNL     1     -10.460  17.198  65.767  1.00  0.00    -0.242 A  
HETATM    5  C   UNL     1      -8.156   9.088  66.020  1.00  0.00    -0.111 C  
HETATM    6  C   UNL     1     -11.305  18.311  65.565  1.00  0.00     1.316 A  
HETATM    7  C   UNL     1     -10.775  19.610  65.640  1.00  0.00    -0.428 A  
HETATM    8  C   UNL     1      -7.765  10.065  67.202  1.00  0.00    -0.092 C  
HETATM    9  C   UNL     1      -9.430  19.794  65.913  1.00  0.00    -0.277 A  
HETATM   10  C   UNL     1      -8.571  18.700  66.132  1.00  0.00    -0.155 A  
HETATM   11  H   UNL     1      -7.545  16.002  66.465  1.00  0.00     0.000 HD 
HETATM   12  C   UNL     1      -8.637  11.481  67.368  1.00  0.00    -0.145 C  
HETATM   13  C   UNL     1      -9.117  17.402  66.054  1.00  0.00    -0.051 A  
HETATM   14  N   UNL     1      -8.520  16.156  66.205  1.00  0.00    -0.332 NA 
HETATM   15  C   UNL     1      -9.434  15.160  65.952  1.00  0.00    -0.299 A  
HETATM   16  C   UNL     1     -10.641  15.796  65.685  1.00  0.00    -0.393 A  
HETATM   17  C   UNL     1      -8.258  12.955  66.864  1.00  0.00    -0.012 C  
HETATM   18  C   UNL     1     -11.844  15.040  65.253  1.00  0.00    -0.148 C  
HETATM   19  C   UNL     1      -9.150  13.668  65.756  1.00  0.00     0.503 C  
HETATM   20  C   UNL     1     -11.376  13.715  64.637  1.00  0.00    -0.366 C  
HETATM   21  C   UNL     1     -10.989  12.432  66.685  1.00  0.00    -0.268 C  
HETATM   22  N   UNL     1     -10.414  12.971  65.471  1.00  0.00    -0.281 NA 
ENDROOT
BRANCH   3  23
HETATM   23  O   UNL     1      -8.073  11.084  64.651  1.00  0.00     0.139 OA 
BRANCH  23  24
HETATM   24  C   UNL     1      -8.640  12.326  64.805  1.00  0.00     1.735 C  
HETATM   25  O   UNL     1      -9.211  12.917  63.892  1.00  0.00     0.621 OA 
BRANCH  24  26
HETATM   26  C   UNL     1      -8.516  13.044  66.119  1.00  0.00     0.749 A  
HETATM   27  C   UNL     1      -8.511  13.829  68.849  1.00  0.00     0.129 A  
HETATM   28  C   UNL     1      -7.326  13.350  66.764  1.00  0.00     0.848 A  
HETATM   29  C   UNL     1      -9.713  13.284  66.810  1.00  0.00    -0.258 A  
HETATM   30  C   UNL     1      -9.726  13.634  68.167  1.00  0.00    -0.229 A  
HETATM   31  C   UNL     1      -7.306  13.711  68.128  1.00  0.00    -0.121 A  
BRANCH  30  32
HETATM   32  O   UNL     1     -10.892  13.751  68.890  1.00  0.00    -0.246 OA 
HETATM   33  C   UNL     1     -10.860  13.194  70.204  1.00  0.00     1.040 C  
ENDBRANCH  30  32
BRANCH  27  34
HETATM   34  O   UNL     1      -8.611  14.148  70.183  1.00  0.00     1.287 OA 
HETATM   35  C   UNL     1      -7.992  15.364  70.598  1.00  0.00     1.649 C  
ENDBRANCH  27  34
BRANCH  31  36
HETATM   36  O   UNL     1      -6.128  13.969  68.785  1.00  0.00    -0.079 OA 
HETATM   37  C   UNL     1      -5.167  14.732  68.061  1.00  0.00    -0.107 C  
ENDBRANCH  31  36
ENDBRANCH  24  26
ENDBRANCH  23  24
ENDBRANCH   3  23
BRANCH   5  38
HETATM   38  O   UNL     1      -9.012   7.993  66.406  1.00  0.00    -0.151 OA 
HETATM   39  C   UNL     1      -8.637   6.678  66.048  1.00  0.00    -0.148 C  
ENDBRANCH   5  38
BRANCH   8  40
HETATM   40  C   UNL     1      -6.253  10.159  67.189  1.00  0.00    -0.062 C  
HETATM   41  O   UNL     1      -5.571  10.259  66.181  1.00  0.00    -0.053 OA 
BRANCH  40  42
HETATM   42  O   UNL     1      -5.754  10.026  68.448  1.00  0.00    -0.042 OA 
HETATM   43  C   UNL     1      -6.319   9.060  69.345  1.00  0.00    -0.044 C  
ENDBRANCH  40  42
ENDBRANCH   8  40
TORSDOF 9
ENDMDL
MODEL      214
REMARK 921   NORMALIZED FREE ENERGY PREDICTED BY IDOCK:   70.71 KCAL/MOL
REMARK 922        TOTAL FREE ENERGY PREDICTED BY IDOCK:  105.28 KCAL/MOL
REMARK 923 INTER-LIGAND FREE ENERGY PREDICTED BY IDOCK:   40.27 KCAL/MOL
REMARK 924 INTRA-LIGAND FREE ENERGY PREDICTED BY IDOCK:   65.01 KCAL/MOL
REMARK 927      BINDING AFFINITY PREDICTED BY RF-SCORE:    0.00 PKD
ROOT
HETATM    1  C   UNL     1      -7.850  13.668  71.860  1.00  0.00     8.346 C  
HETATM    2  C   UNL     1      -6.686  14.337  72.598  1.00  0.00     2.308 C  
HETATM    3  C   UNL     1      -5.642  15.102  71.706  1.00  0.00     0.260 C  
HETATM    4  C   UNL     1      -6.878   8.149  69.402  1.00  0.00    -0.043 A  
HETATM    5  C   UNL     1      -6.429  16.350  71.324  1.00  0.00     2.268 C  
HETATM    6  C   UNL     1      -6.861   6.754  69.616  1.00  0.00    -0.055 A  
HETATM    7  C   UNL     1      -6.900   5.881  68.516  1.00  0.00    -0.070 A  
HETATM    8  C   UNL     1      -7.570  15.817  70.364  1.00  0.00     1.145 C  
HETATM    9  C   UNL     1      -6.957   6.390  67.230  1.00  0.00    -0.072 A  
HETATM   10  C   UNL     1      -6.989   7.777  66.993  1.00  0.00    -0.077 A  
HETATM   11  H   UNL     1      -7.043  10.656  67.376  1.00  0.00     0.000 HD 
HETATM   12  C   UNL     1      -7.932  14.186  70.409  1.00  0.00     1.882 C  
HETATM   13  C   UNL     1      -6.950   8.641  68.106  1.00  0.00    -0.074 A  
HETATM   14  N   UNL     1      -6.952  10.030  68.177  1.00  0.00    -0.075 NA 
HETATM   15  C   UNL     1      -6.812  10.436  69.484  1.00  0.00    -0.093 A  
HETATM   16  C   UNL     1      -6.771   9.278  70.251  1.00  0.00    -0.066 A  
HETATM   17  C   UNL     1      -7.432  13.023  69.426  1.00  0.00     0.434 C  
HETATM   18  C   UNL     1      -6.512   9.317  71.712  1.00  0.00     0.071 C  
HETATM   19  C   UNL     1      -6.513  11.851  69.988  1.00  0.00     0.002 C  
HETATM   20  C   UNL     1      -5.775  10.626  72.029  1.00  0.00     0.592 C  
HETATM   21  C   UNL     1      -7.681  12.162  72.064  1.00  0.00    13.008 C  
HETATM   22  N   UNL     1      -6.411  11.827  71.456  1.00  0.00     1.286 NA 
ENDROOT
BRANCH   3  23
HETATM   23  O   UNL     1      -5.146  14.492  70.450  1.00  0.00    -0.096 OA 
BRANCH  23  24
HETATM   24  C   UNL     1      -5.665  15.051  69.307  1.00  0.00    -0.095 C  
HETATM   25  O   UNL     1      -5.963  14.389  68.317  1.00  0.00    -0.099 OA 
BRANCH  24  26
HETATM   26  C   UNL     1      -5.825  16.541  69.213  1.00  0.00    -0.154 A  
HETATM   27  C   UNL     1      -6.754  19.205  68.875  1.00  0.00    -0.301 A  
HETATM   28  C   UNL     1      -5.858  17.421  70.286  1.00  0.00    -0.118 A  
HETATM   29  C   UNL     1      -6.117  17.056  67.940  1.00  0.00    -0.143 A  
HETATM   30  C   UNL     1      -6.612  18.354  67.763  1.00  0.00    -0.213 A  
HETATM   31  C   UNL     1      -6.345  18.736  70.139  1.00  0.00     0.028 A  
BRANCH  30  32
HETATM   32  O   UNL     1      -7.020  18.830  66.537  1.00  0.00    -0.199 OA 
HETATM   33  C   UNL     1      -7.395  17.835  65.584  1.00  0.00     0.098 C  
ENDBRANCH  30  32
BRANCH  27  34
HETATM   34  O   UNL     1      -7.268  20.454  68.619  1.00  0.00    -0.157 OA 
HETATM   35  C   UNL     1      -6.604  21.227  67.621  1.00  0.00    -0.237 C  
ENDBRANCH  27  34
BRANCH  31  36
HETATM   36  O   UNL     1      -6.425  19.596  71.207  1.00  0.00     0.126 OA 
HETATM   37  C   UNL     1      -5.183  20.102  71.691  1.00  0.00    -0.389 C  
ENDBRANCH  31  36
ENDBRANCH  24  26
ENDBRANCH  23  24
ENDBRANCH   3  23
BRANCH   5  38
HETATM   38  O   UNL     1      -6.907  16.943  72.549  1.00  0.00     6.082 OA 
HETATM   39  C   UNL     1      -6.025  17.029  73.651  1.00  0.00     5.922 C  
ENDBRANCH   5  38
BRANCH   8  40
HETATM   40  C   UNL     1      -7.314  16.452  69.012  1.00  0.00    -0.221 C  
HETATM   41  O   UNL     1      -6.703  17.494  68.838  1.00  0.00    -0.217 OA 
BRANCH  40  42
HETATM   42  O   UNL     1      -7.935  15.748  68.027  1.00  0.00    -0.132 OA 
HETATM   43  C   UNL     1      -9.367  15.670  67.996  1.00  0.00    -0.193 C  
ENDBRANCH  40  42
ENDBRANCH   8  40
TORSDOF 9
ENDMDL
MODEL      215
REMARK 921   NORMALIZED FREE ENERGY PREDICTED BY IDOCK:   76.58 KCAL/MOL
REMARK 922        TOTAL FREE ENERGY PREDICTED BY IDOCK:  114.24 KCAL/MOL
REMARK 923 INTER-LIGAND FREE ENERGY PREDICTED BY IDOCK:   -1.71 KCAL/MOL
REMARK 924 INTRA-LIGAND FREE ENERGY PREDICTED BY IDOCK:  115.95 KCAL/MOL
REMARK 927      BINDING AFFINITY PREDICTED BY RF-SCORE:    0.00 PKD
ROOT
HETATM    1  C   UNL     1     -11.727   9.390  69.232  1.00  0.00     0.516 C  
HETATM    2  C   UNL     1     -11.391  10.163  70.510  1.00  0.00    -0.416 C  
HETATM    3  C   UNL     1     -10.350  11.332  70.366  1.00  0.00     1.653 C  
HETATM    4  C   UNL     1      -7.920   4.916  67.517  1.00  0.00    -0.095 A  
HETATM    5  C   UNL     1     -11.185  12.394  69.659  1.00  0.00    -0.036 C  
HETATM    6  C   UNL     1      -7.566   3.557  67.656  1.00  0.00    -0.069 A  
HETATM    7  C   UNL     1      -6.755   2.946  66.686  1.00  0.00    -0.041 A  
HETATM    8  C   UNL     1     -11.432  11.800  68.213  1.00  0.00    -0.370 C  
HETATM    9  C   UNL     1      -6.307   3.678  65.598  1.00  0.00    -0.032 A  
HETATM   10  C   UNL     1      -6.658   5.031  65.432  1.00  0.00    -0.037 A  
HETATM   11  H   UNL     1      -7.825   7.662  65.824  1.00  0.00     0.000 HD 
HETATM   12  C   UNL     1     -11.219  10.157  67.994  1.00  0.00    -0.247 C  
HETATM   13  C   UNL     1      -7.474   5.630  66.414  1.00  0.00    -0.087 A  
HETATM   14  N   UNL     1      -7.959   6.929  66.520  1.00  0.00    -0.106 NA 
HETATM   15  C   UNL     1      -8.645   7.080  67.703  1.00  0.00    -0.122 A  
HETATM   16  C   UNL     1      -8.632   5.837  68.325  1.00  0.00    -0.112 A  
HETATM   17  C   UNL     1      -9.944   9.383  67.406  1.00  0.00    -0.252 C  
HETATM   18  C   UNL     1      -9.183   5.640  69.689  1.00  0.00    -0.163 C  
HETATM   19  C   UNL     1      -9.120   8.390  68.338  1.00  0.00    -0.135 C  
HETATM   20  C   UNL     1      -9.179   6.998  70.404  1.00  0.00    -0.156 C  
HETATM   21  C   UNL     1     -11.211   7.966  69.442  1.00  0.00     0.198 C  
HETATM   22  N   UNL     1      -9.780   8.092  69.619  1.00  0.00    -0.169 NA 
ENDROOT
BRANCH   3  23
HETATM   23  O   UNL     1      -9.117  11.137  69.568  1.00  0.00     0.189 OA 
BRANCH  23  24
HETATM   24  C   UNL     1      -8.878  12.128  68.646  1.00  0.00    -0.002 C  
HETATM   25  O   UNL     1      -7.749  12.527  68.374  1.00  0.00    -0.128 OA 
BRANCH  24  26
HETATM   26  C   UNL     1     -10.032  12.813  67.972  1.00  0.00    -0.225 A  
HETATM   27  C   UNL     1     -11.739  14.369  66.317  1.00  0.00    -0.385 A  
HETATM   28  C   UNL     1     -10.966  12.202  67.147  1.00  0.00    -0.316 A  
HETATM   29  C   UNL     1     -10.069  14.212  68.073  1.00  0.00    -0.233 A  
HETATM   30  C   UNL     1     -10.876  14.993  67.237  1.00  0.00    -0.310 A  
HETATM   31  C   UNL     1     -11.798  12.961  66.297  1.00  0.00    -0.416 A  
BRANCH  30  32
HETATM   32  O   UNL     1     -10.831  16.370  67.239  1.00  0.00    -0.291 OA 
HETATM   33  C   UNL     1     -10.950  16.991  65.959  1.00  0.00     0.161 C  
ENDBRANCH  30  32
BRANCH  27  34
HETATM   34  O   UNL     1     -12.480  15.206  65.518  1.00  0.00     0.202 OA 
HETATM   35  C   UNL     1     -11.782  15.877  64.471  1.00  0.00    -0.161 C  
ENDBRANCH  27  34
BRANCH  31  36
HETATM   36  O   UNL     1     -12.691  12.360  65.444  1.00  0.00    -0.582 OA 
HETATM   37  C   UNL     1     -12.293  11.098  64.917  1.00  0.00     1.932 C  
ENDBRANCH  31  36
ENDBRANCH  24  26
ENDBRANCH  23  24
ENDBRANCH   3  23
BRANCH   5  38
HETATM   38  O   UNL     1     -12.382  12.584  70.441  1.00  0.00    -0.309 OA 
HETATM   39  C   UNL     1     -13.223  11.472  70.676  1.00  0.00     0.431 C  
ENDBRANCH   5  38
BRANCH   8  40
HETATM   40  C   UNL     1     -10.743  12.742  67.246  1.00  0.00    -0.237 C  
HETATM   41  O   UNL     1     -10.567  12.515  66.060  1.00  0.00    -0.254 OA 
BRANCH  40  42
HETATM   42  O   UNL     1     -10.268  13.837  67.901  1.00  0.00    -0.235 OA 
HETATM   43  C   UNL     1     -11.041  14.433  68.953  1.00  0.00    -0.259 C  
ENDBRANCH  40  42
ENDBRANCH   8  40
TORSDOF 9
ENDMDL
MODEL      216
REMARK 921   NORMALIZED FREE ENERGY PREDICTED BY IDOCK:   80.78 KCAL/MOL
REMARK 922        TOTAL FREE ENERGY PREDICTED BY IDOCK:  120.65 KCAL/MOL
REMARK 923 INTER-LIGAND FREE ENERGY PREDICTED BY IDOCK:   25.72 KCAL/MOL
REMARK 924 INTRA-LIGAND FREE ENERGY PREDICTED BY IDOCK:   94.93 KCAL/MOL
REMARK 927      BINDING AFFINITY PREDICTED BY RF-SCORE:    0.00 PKD
ROOT
HETATM    1  C   UNL     1      -9.808  13.227  65.514  1.00  0.00    -0.154 C  
HETATM    2  C   UNL     1      -9.094  12.452  64.402  1.00  0.00     0.915 C  
HETATM    3  C   UNL     1      -8.231  11.219  64.856  1.00  0.00     0.506 C  
HETATM    4  C   UNL     1      -6.589  17.433  68.580  1.00  0.00    -0.193 A  
HETATM    5  C   UNL     1      -9.314  10.201  65.197  1.00  0.00    -0.235 C  
HETATM    6  C   UNL     1      -6.136  18.769  68.617  1.00  0.00    -0.230 A  
HETATM    7  C   UNL     1      -5.677  19.315  69.827  1.00  0.00    -0.265 A  
HETATM    8  C   UNL     1     -10.012  10.791  66.490  1.00  0.00    -0.260 C  
HETATM    9  C   UNL     1      -5.671  18.543  70.977  1.00  0.00     0.070 A  
HETATM   10  C   UNL     1      -6.130  17.212  70.967  1.00  0.00     1.180 A  
HETATM   11  H   UNL     1      -7.230  14.663  70.109  1.00  0.00     0.000 HD 
HETATM   12  C   UNL     1      -9.798  12.414  66.824  1.00  0.00    -0.228 C  
HETATM   13  C   UNL     1      -6.589  16.678  69.745  1.00  0.00    -0.066 A  
HETATM   14  N   UNL     1      -7.077  15.413  69.435  1.00  0.00    -0.178 NA 
HETATM   15  C   UNL     1      -7.321  15.321  68.084  1.00  0.00    -0.114 A  
HETATM   16  C   UNL     1      -7.027  16.568  67.546  1.00  0.00    -0.174 A  
HETATM   17  C   UNL     1      -8.764  13.099  67.839  1.00  0.00    -0.192 C  
HETATM   18  C   UNL     1      -7.064  16.818  66.084  1.00  0.00     0.060 C  
HETATM   19  C   UNL     1      -7.618  14.051  67.281  1.00  0.00    -0.070 C  
HETATM   20  C   UNL     1      -6.887  15.472  65.368  1.00  0.00     7.907 C  
HETATM   21  C   UNL     1      -9.175  14.619  65.541  1.00  0.00     0.468 C  
HETATM   22  N   UNL     1      -7.779  14.407  65.862  1.00  0.00     2.629 NA 
ENDROOT
BRANCH   3  23
HETATM   23  O   UNL     1      -7.339  11.326  66.033  1.00  0.00    -0.025 OA 
BRANCH  23  24
HETATM   24  C   UNL     1      -7.244  12.594  66.556  1.00  0.00     0.946 C  
HETATM   25  O   UNL     1      -6.389  13.400  66.199  1.00  0.00     2.800 OA 
BRANCH  24  26
HETATM   26  C   UNL     1      -8.172  13.017  67.658  1.00  0.00    -0.171 A  
HETATM   27  C   UNL     1      -9.474  14.291  69.838  1.00  0.00     1.052 A  
HETATM   28  C   UNL     1      -9.408  13.626  67.486  1.00  0.00    -0.223 A  
HETATM   29  C   UNL     1      -7.670  12.920  68.965  1.00  0.00     0.200 A  
HETATM   30  C   UNL     1      -8.281  13.575  70.042  1.00  0.00     2.318 A  
HETATM   31  C   UNL     1     -10.051  14.289  68.552  1.00  0.00    -0.246 A  
BRANCH  30  32
HETATM   32  O   UNL     1      -7.732  13.592  71.305  1.00  0.00     3.553 OA 
HETATM   33  C   UNL     1      -7.813  14.839  71.995  1.00  0.00     4.915 C  
ENDBRANCH  30  32
BRANCH  27  34
HETATM   34  O   UNL     1      -9.996  14.924  70.942  1.00  0.00     0.627 OA 
HETATM   35  C   UNL     1     -10.851  16.039  70.695  1.00  0.00    -0.162 C  
ENDBRANCH  27  34
BRANCH  31  36
HETATM   36  O   UNL     1     -11.250  14.935  68.377  1.00  0.00    -0.266 OA 
HETATM   37  C   UNL     1     -12.319  14.134  67.880  1.00  0.00     0.015 C  
ENDBRANCH  31  36
ENDBRANCH  24  26
ENDBRANCH  23  24
ENDBRANCH   3  23
BRANCH   5  38
HETATM   38  O   UNL     1     -10.177  10.097  64.046  1.00  0.00    -0.065 OA 
HETATM   39  C   UNL     1     -10.493  11.271  63.325  1.00  0.00    -0.305 C  
ENDBRANCH   5  38
BRANCH   8  40
HETATM   40  C   UNL     1      -9.748   9.794  67.602  1.00  0.00    -0.156 C  
HETATM   41  O   UNL     1     -10.121   8.632  67.596  1.00  0.00    -0.185 OA 
BRANCH  40  42
HETATM   42  O   UNL     1      -9.116  10.397  68.645  1.00  0.00    -0.141 OA 
HETATM   43  C   UNL     1      -8.199   9.649  69.456  1.00  0.00    -0.136 C  
ENDBRANCH  40  42
ENDBRANCH   8  40
TORSDOF 9
ENDMDL
MODEL      217
REMARK 921   NORMALIZED FREE ENERGY PREDICTED BY IDOCK:   82.02 KCAL/MOL
REMARK 922        TOTAL FREE ENERGY PREDICTED BY IDOCK:  122.54 KCAL/MOL
REMARK 923 INTER-LIGAND FREE ENERGY PREDICTED BY IDOCK:   16.23 KCAL/MOL
REMARK 924 INTRA-LIGAND FREE ENERGY PREDICTED BY IDOCK:  106.31 KCAL/MOL
REMARK 927      BINDING AFFINITY PREDICTED BY RF-SCORE:    0.00 PKD
ROOT
HETATM    1  C   UNL     1      -9.493  12.239  67.127  1.00  0.00    -0.196 C  
HETATM    2  C   UNL     1      -9.576  12.327  65.600  1.00  0.00    -0.148 C  
HETATM    3  C   UNL     1     -10.892  12.953  65.008  1.00  0.00    -0.299 C  
HETATM    4  C   UNL     1     -12.211   7.489  69.865  1.00  0.00     0.725 A  
HETATM    5  C   UNL     1     -10.690  14.431  65.320  1.00  0.00    -0.375 C  
HETATM    6  C   UNL     1     -12.093   6.144  70.275  1.00  0.00     0.463 A  
HETATM    7  C   UNL     1     -12.977   5.629  71.237  1.00  0.00     2.621 A  
HETATM    8  C   UNL     1     -10.794  14.516  66.897  1.00  0.00    -0.305 C  
HETATM    9  C   UNL     1     -13.959   6.441  71.780  1.00  0.00     0.267 A  
HETATM   10  C   UNL     1     -14.088   7.789  71.396  1.00  0.00    -0.458 A  
HETATM   11  H   UNL     1     -13.660  10.363  70.117  1.00  0.00     0.000 HD 
HETATM   12  C   UNL     1     -10.591  13.108  67.773  1.00  0.00    -0.242 C  
HETATM   13  C   UNL     1     -13.193   8.293  70.430  1.00  0.00     1.249 A  
HETATM   14  N   UNL     1     -13.092   9.555  69.857  1.00  0.00     1.103 NA 
HETATM   15  C   UNL     1     -12.116   9.557  68.888  1.00  0.00     1.534 A  
HETATM   16  C   UNL     1     -11.560   8.283  68.889  1.00  0.00     1.153 A  
HETATM   17  C   UNL     1     -11.713  12.138  68.382  1.00  0.00    -0.388 C  
HETATM   18  C   UNL     1     -10.544   7.873  67.889  1.00  0.00    -0.215 C  
HETATM   19  C   UNL     1     -11.847  10.646  67.845  1.00  0.00     0.381 C  
HETATM   20  C   UNL     1     -10.689   8.784  66.662  1.00  0.00     0.077 C  
HETATM   21  C   UNL     1      -9.476  10.749  67.472  1.00  0.00    -0.154 C  
HETATM   22  N   UNL     1     -10.733  10.222  66.983  1.00  0.00    -0.242 NA 
ENDROOT
BRANCH   3  23
HETATM   23  O   UNL     1     -12.212  12.563  65.553  1.00  0.00    -0.528 OA 
BRANCH  23  24
HETATM   24  C   UNL     1     -12.487  13.083  66.796  1.00  0.00     0.191 C  
HETATM   25  O   UNL     1     -13.575  12.949  67.349  1.00  0.00     4.154 OA 
BRANCH  24  26
HETATM   26  C   UNL     1     -11.450  13.907  67.504  1.00  0.00    -0.368 A  
HETATM   27  C   UNL     1      -9.615  15.052  69.345  1.00  0.00    -0.139 A  
HETATM   28  C   UNL     1     -10.086  13.885  67.249  1.00  0.00    -0.242 A  
HETATM   29  C   UNL     1     -11.894  14.644  68.612  1.00  0.00    -0.346 A  
HETATM   30  C   UNL     1     -11.001  15.181  69.548  1.00  0.00    -0.272 A  
HETATM   31  C   UNL     1      -9.161  14.422  68.169  1.00  0.00    -0.199 A  
BRANCH  30  32
HETATM   32  O   UNL     1     -11.423  15.798  70.705  1.00  0.00    -0.327 OA 
HETATM   33  C   UNL     1     -12.810  16.131  70.754  1.00  0.00     0.662 C  
ENDBRANCH  30  32
BRANCH  27  34
HETATM   34  O   UNL     1      -8.807  15.587  70.321  1.00  0.00     0.318 OA 
HETATM   35  C   UNL     1      -7.542  16.093  69.900  1.00  0.00     0.483 C  
ENDBRANCH  27  34
BRANCH  31  36
HETATM   36  O   UNL     1      -7.808  14.360  67.945  1.00  0.00    -0.124 OA 
HETATM   37  C   UNL     1      -7.304  13.092  67.536  1.00  0.00    -0.152 C  
ENDBRANCH  31  36
ENDBRANCH  24  26
ENDBRANCH  23  24
ENDBRANCH   3  23
BRANCH   5  38
HETATM   38  O   UNL     1      -9.405  14.807  64.784  1.00  0.00     0.623 OA 
HETATM   39  C   UNL     1      -8.870  16.070  65.125  1.00  0.00     2.133 C  
ENDBRANCH   5  38
BRANCH   8  40
HETATM   40  C   UNL     1     -12.011  15.370  67.193  1.00  0.00     0.330 C  
HETATM   41  O   UNL     1     -12.890  15.630  66.387  1.00  0.00     1.819 OA 
BRANCH  40  42
HETATM   42  O   UNL     1     -11.945  15.878  68.454  1.00  0.00    -0.251 OA 
HETATM   43  C   UNL     1     -11.943  17.299  68.654  1.00  0.00     1.909 C  
ENDBRANCH  40  42
ENDBRANCH   8  40
TORSDOF 9
ENDMDL
MODEL      218
REMARK 921   NORMALIZED FREE ENERGY PREDICTED BY IDOCK:   93.27 KCAL/MOL
REMARK 922        TOTAL FREE ENERGY PREDICTED BY IDOCK:  139.71 KCAL/MOL
REMARK 923 INTER-LIGAND FREE ENERGY PREDICTED BY IDOCK:   31.93 KCAL/MOL
REMARK 924 INTRA-LIGAND FREE ENERGY PREDICTED BY IDOCK:  107.78 KCAL/MOL
REMARK 927      BINDING AFFINITY PREDICTED BY RF-SCORE:    0.00 PKD
ROOT
HETATM    1  C   UNL     1      -9.656   5.840  66.740  1.00  0.00    -0.161 C  
HETATM    2  C   UNL     1      -8.453   5.458  67.608  1.00  0.00    -0.105 C  
HETATM    3  C   UNL     1      -8.697   5.420  69.161  1.00  0.00    -0.101 C  
HETATM    4  C   UNL     1     -10.895  11.791  66.036  1.00  0.00    -0.343 A  
HETATM    5  C   UNL     1      -9.511   4.140  69.307  1.00  0.00    -0.188 C  
HETATM    6  C   UNL     1     -10.623  12.970  65.308  1.00  0.00    -0.320 A  
HETATM    7  C   UNL     1     -11.523  14.047  65.368  1.00  0.00    -0.315 A  
HETATM    8  C   UNL     1     -10.897   4.475  68.619  1.00  0.00     1.520 C  
HETATM    9  C   UNL     1     -12.670  13.949  66.138  1.00  0.00    -0.336 A  
HETATM   10  C   UNL     1     -12.968  12.779  66.861  1.00  0.00     2.301 A  
HETATM   11  H   UNL     1     -12.841  10.100  67.977  1.00  0.00     0.000 HD 
HETATM   12  C   UNL     1     -10.956   5.773  67.568  1.00  0.00    -0.147 C  
HETATM   13  C   UNL     1     -12.057  11.706  66.791  1.00  0.00     0.681 A  
HETATM   14  N   UNL     1     -12.080  10.456  67.399  1.00  0.00     1.256 NA 
HETATM   15  C   UNL     1     -10.924   9.768  67.107  1.00  0.00    -0.033 A  
HETATM   16  C   UNL     1     -10.186  10.585  66.258  1.00  0.00    -0.296 A  
HETATM   17  C   UNL     1     -11.453   7.270  67.854  1.00  0.00     0.594 C  
HETATM   18  C   UNL     1      -8.816  10.221  65.820  1.00  0.00    -0.179 C  
HETATM   19  C   UNL     1     -10.422   8.479  67.763  1.00  0.00    -0.223 C  
HETATM   20  C   UNL     1      -8.234   9.239  66.845  1.00  0.00    -0.119 C  
HETATM   21  C   UNL     1      -9.305   7.175  66.082  1.00  0.00    -0.045 C  
HETATM   22  N   UNL     1      -9.126   8.111  67.171  1.00  0.00    -0.136 NA 
ENDROOT
BRANCH   3  23
HETATM   23  O   UNL     1      -9.459   6.505  69.822  1.00  0.00    -0.150 OA 
BRANCH  23  24
HETATM   24  C   UNL     1      -9.915   7.479  68.965  1.00  0.00    -0.175 C  
HETATM   25  O   UNL     1     -11.109   7.697  68.778  1.00  0.00     0.040 OA 
BRANCH  24  26
HETATM   26  C   UNL     1      -8.933   8.283  68.162  1.00  0.00    -0.139 A  
HETATM   27  C   UNL     1      -6.982  10.120  67.219  1.00  0.00    -0.083 A  
HETATM   28  C   UNL     1      -7.703   7.835  67.702  1.00  0.00    -0.121 A  
HETATM   29  C   UNL     1      -9.232   9.645  68.000  1.00  0.00    -0.132 A  
HETATM   30  C   UNL     1      -8.268  10.567  67.573  1.00  0.00    -0.114 A  
HETATM   31  C   UNL     1      -6.714   8.738  67.261  1.00  0.00    -0.063 A  
BRANCH  30  32
HETATM   32  O   UNL     1      -8.510  11.923  67.528  1.00  0.00    -0.147 OA 
HETATM   33  C   UNL     1      -8.499  12.592  68.789  1.00  0.00     0.155 C  
ENDBRANCH  30  32
BRANCH  27  34
HETATM   34  O   UNL     1      -6.089  11.092  66.833  1.00  0.00    -0.067 OA 
HETATM   35  C   UNL     1      -6.346  11.740  65.589  1.00  0.00     1.560 C  
ENDBRANCH  27  34
BRANCH  31  36
HETATM   36  O   UNL     1      -5.477   8.303  66.850  1.00  0.00    -0.035 OA 
HETATM   37  C   UNL     1      -5.140   6.965  67.204  1.00  0.00    -0.012 C  
ENDBRANCH  31  36
ENDBRANCH  24  26
ENDBRANCH  23  24
ENDBRANCH   3  23
BRANCH   5  38
HETATM   38  O   UNL     1      -8.764   3.086  68.666  1.00  0.00    -0.083 OA 
HETATM   39  C   UNL     1      -7.365   3.028  68.863  1.00  0.00    -0.048 C  
ENDBRANCH   5  38
BRANCH   8  40
HETATM   40  C   UNL     1     -11.941   4.399  69.715  1.00  0.00     9.686 C  
HETATM   41  O   UNL     1     -13.146   4.370  69.526  1.00  0.00    17.095 OA 
BRANCH  40  42
HETATM   42  O   UNL     1     -11.353   4.456  70.942  1.00  0.00     1.677 OA 
HETATM   43  C   UNL     1     -10.810   5.695  71.418  1.00  0.00    -0.222 C  
ENDBRANCH  40  42
ENDBRANCH   8  40
TORSDOF 9
ENDMDL
MODEL      219
REMARK 921   NORMALIZED FREE ENERGY PREDICTED BY IDOCK:   98.71 KCAL/MOL
REMARK 922        TOTAL FREE ENERGY PREDICTED BY IDOCK:  148.01 KCAL/MOL
REMARK 923 INTER-LIGAND FREE ENERGY PREDICTED BY IDOCK:   25.67 KCAL/MOL
REMARK 924 INTRA-LIGAND FREE ENERGY PREDICTED BY IDOCK:  122.34 KCAL/MOL
REMARK 927      BINDING AFFINITY PREDICTED BY RF-SCORE:    0.00 PKD
ROOT
HETATM    1  C   UNL     1      -9.042   7.325  67.547  1.00  0.00    -0.125 C  
HETATM    2  C   UNL     1     -10.415   7.143  66.894  1.00  0.00    -0.364 C  
HETATM    3  C   UNL     1     -11.649   7.693  67.699  1.00  0.00     1.441 C  
HETATM    4  C   UNL     1      -7.310   3.216  71.739  1.00  0.00    -0.043 A  
HETATM    5  C   UNL     1     -11.491   9.196  67.505  1.00  0.00     1.354 C  
HETATM    6  C   UNL     1      -6.708   1.961  71.976  1.00  0.00    -0.018 A  
HETATM    7  C   UNL     1      -6.229   1.651  73.260  1.00  0.00    -0.008 A  
HETATM    8  C   UNL     1     -10.188   9.562  68.327  1.00  0.00    -0.225 C  
HETATM    9  C   UNL     1      -6.347   2.575  74.285  1.00  0.00    -0.016 A  
HETATM   10  C   UNL     1      -6.931   3.837  74.068  1.00  0.00    -0.051 A  
HETATM   11  H   UNL     1      -8.196   6.130  72.808  1.00  0.00     0.000 HD 
HETATM   12  C   UNL     1      -9.134   8.326  68.717  1.00  0.00    -0.144 C  
HETATM   13  C   UNL     1      -7.407   4.135  72.775  1.00  0.00    -0.072 A  
HETATM   14  N   UNL     1      -8.033   5.273  72.278  1.00  0.00    -0.105 NA 
HETATM   15  C   UNL     1      -8.402   5.075  70.968  1.00  0.00    -0.118 A  
HETATM   16  C   UNL     1      -7.954   3.805  70.623  1.00  0.00    -0.055 A  
HETATM   17  C   UNL     1      -9.010   7.513  70.092  1.00  0.00    -0.147 C  
HETATM   18  C   UNL     1      -8.272   3.195  69.308  1.00  0.00    -0.077 C  
HETATM   19  C   UNL     1      -9.329   5.954  70.123  1.00  0.00    -0.156 C  
HETATM   20  C   UNL     1      -9.532   3.878  68.759  1.00  0.00    -0.155 C  
HETATM   21  C   UNL     1      -8.525   5.919  67.859  1.00  0.00    -0.107 C  
HETATM   22  N   UNL     1      -9.478   5.351  68.789  1.00  0.00    -0.123 NA 
ENDROOT
BRANCH   3  23
HETATM   23  O   UNL     1     -11.758   7.444  69.155  1.00  0.00     0.444 OA 
BRANCH  23  24
HETATM   24  C   UNL     1     -10.703   7.928  69.892  1.00  0.00    -0.244 C  
HETATM   25  O   UNL     1      -9.837   7.203  70.373  1.00  0.00    -0.176 OA 
BRANCH  24  26
HETATM   26  C   UNL     1     -10.615   9.398  70.190  1.00  0.00    -0.279 A  
HETATM   27  C   UNL     1     -11.072  12.181  70.529  1.00  0.00     1.409 A  
HETATM   28  C   UNL     1     -10.603   9.967  71.456  1.00  0.00     0.725 A  
HETATM   29  C   UNL     1     -10.704  10.262  69.088  1.00  0.00    -0.259 A  
HETATM   30  C   UNL     1     -10.968  11.629  69.240  1.00  0.00    -0.192 A  
HETATM   31  C   UNL     1     -10.859  11.342  71.641  1.00  0.00     4.816 A  
BRANCH  30  32
HETATM   32  O   UNL     1     -11.183  12.465  68.166  1.00  0.00    -0.229 OA 
HETATM   33  C   UNL     1     -10.295  13.578  68.066  1.00  0.00    -0.241 C  
ENDBRANCH  30  32
BRANCH  27  34
HETATM   34  O   UNL     1     -11.355  13.525  70.591  1.00  0.00     0.195 OA 
HETATM   35  C   UNL     1     -10.658  14.369  69.677  1.00  0.00     0.005 C  
ENDBRANCH  27  34
BRANCH  31  36
HETATM   36  O   UNL     1     -10.896  11.902  72.895  1.00  0.00    10.797 OA 
HETATM   37  C   UNL     1     -11.569  13.154  72.996  1.00  0.00     5.448 C  
ENDBRANCH  31  36
ENDBRANCH  24  26
ENDBRANCH  23  24
ENDBRANCH   3  23
BRANCH   5  38
HETATM   38  O   UNL     1     -11.389   9.433  66.086  1.00  0.00     1.300 OA 
HETATM   39  C   UNL     1     -11.049  10.730  65.637  1.00  0.00     0.224 C  
ENDBRANCH   5  38
BRANCH   8  40
HETATM   40  C   UNL     1     -10.639  10.490  69.438  1.00  0.00    -0.240 C  
HETATM   41  O   UNL     1     -11.600  10.290  70.164  1.00  0.00    -0.262 OA 
BRANCH  40  42
HETATM   42  O   UNL     1      -9.878  11.619  69.458  1.00  0.00     0.333 OA 
HETATM   43  C   UNL     1      -8.490  11.541  69.813  1.00  0.00     1.406 C  
ENDBRANCH  40  42
ENDBRANCH   8  40
TORSDOF 9
ENDMDL
