MODEL        1
REMARK 921   NORMALIZED FREE ENERGY PREDICTED BY IDOCK:   -4.64 KCAL/MOL
REMARK 922        TOTAL FREE ENERGY PREDICTED BY IDOCK:   -5.10 KCAL/MOL
REMARK 923 INTER-LIGAND FREE ENERGY PREDICTED BY IDOCK:   -4.91 KCAL/MOL
REMARK 924 INTRA-LIGAND FREE ENERGY PREDICTED BY IDOCK:   -0.19 KCAL/MOL
REMARK 927      BINDING AFFINITY PREDICTED BY RF-SCORE:    0.00 PKD
ROOT
HETATM    1  F   UNL     1     -12.440  13.237  71.054  1.00  0.00    -0.404 F  
HETATM    2  C   UNL     1     -13.477  13.114  71.915  1.00  0.00    -0.424 C  
HETATM    3  O   UNL     1     -13.308  14.065  72.939  1.00  0.00    -0.601 OA 
HETATM    4  F   UNL     1     -13.372  11.889  72.484  1.00  0.00    -0.561 F  
ENDROOT
BRANCH   3   5
HETATM    5  C   UNL     1     -13.335  15.375  72.384  1.00  0.00    -0.458 C  
HETATM    6  C   UNL     1     -11.933  16.004  72.276  1.00  0.00    -0.538 C  
HETATM    7  F   UNL     1     -14.127  16.125  73.202  1.00  0.00    -0.690 F  
HETATM    8  F   UNL     1     -11.595  16.208  70.977  1.00  0.00    -0.369 F  
HETATM    9  F   UNL     1     -10.964  15.234  72.823  1.00  0.00    -0.405 F  
HETATM   10  F   UNL     1     -11.876  17.208  72.889  1.00  0.00    -0.457 F  
ENDBRANCH   3   5
TORSDOF 1
ENDMDL
MODEL        2
REMARK 921   NORMALIZED FREE ENERGY PREDICTED BY IDOCK:   -4.33 KCAL/MOL
REMARK 922        TOTAL FREE ENERGY PREDICTED BY IDOCK:   -4.77 KCAL/MOL
REMARK 923 INTER-LIGAND FREE ENERGY PREDICTED BY IDOCK:   -4.55 KCAL/MOL
REMARK 924 INTRA-LIGAND FREE ENERGY PREDICTED BY IDOCK:   -0.22 KCAL/MOL
REMARK 927      BINDING AFFINITY PREDICTED BY RF-SCORE:    0.00 PKD
ROOT
HETATM    1  F   UNL     1     -11.033  12.368  63.576  1.00  0.00    -0.402 F  
HETATM    2  C   UNL     1     -12.374  12.506  63.457  1.00  0.00    -0.525 C  
HETATM    3  O   UNL     1     -12.924  12.559  64.752  1.00  0.00    -0.827 OA 
HETATM    4  F   UNL     1     -12.834  11.374  62.872  1.00  0.00    -0.512 F  
ENDROOT
BRANCH   3   5
HETATM    5  C   UNL     1     -12.413  13.694  65.442  1.00  0.00    -0.499 C  
HETATM    6  C   UNL     1     -11.740  13.325  66.777  1.00  0.00    -0.385 C  
HETATM    7  F   UNL     1     -13.473  14.523  65.660  1.00  0.00    -0.353 F  
HETATM    8  F   UNL     1     -10.413  13.611  66.744  1.00  0.00    -0.261 F  
HETATM    9  F   UNL     1     -11.857  12.012  67.083  1.00  0.00    -0.393 F  
HETATM   10  F   UNL     1     -12.265  14.022  67.812  1.00  0.00    -0.391 F  
ENDBRANCH   3   5
TORSDOF 1
ENDMDL
MODEL        3
REMARK 921   NORMALIZED FREE ENERGY PREDICTED BY IDOCK:   -4.27 KCAL/MOL
REMARK 922        TOTAL FREE ENERGY PREDICTED BY IDOCK:   -4.71 KCAL/MOL
REMARK 923 INTER-LIGAND FREE ENERGY PREDICTED BY IDOCK:   -4.47 KCAL/MOL
REMARK 924 INTRA-LIGAND FREE ENERGY PREDICTED BY IDOCK:   -0.24 KCAL/MOL
REMARK 927      BINDING AFFINITY PREDICTED BY RF-SCORE:    0.00 PKD
ROOT
HETATM    1  F   UNL     1     -11.943  14.727  73.959  1.00  0.00    -0.544 F  
HETATM    2  C   UNL     1     -12.760  15.792  73.789  1.00  0.00    -0.608 C  
HETATM    3  O   UNL     1     -12.808  16.090  72.414  1.00  0.00    -0.448 OA 
HETATM    4  F   UNL     1     -12.170  16.843  74.406  1.00  0.00    -0.573 F  
ENDROOT
BRANCH   3   5
HETATM    5  C   UNL     1     -13.354  14.984  71.704  1.00  0.00    -0.401 C  
HETATM    6  C   UNL     1     -12.328  14.307  70.776  1.00  0.00    -0.357 C  
HETATM    7  F   UNL     1     -14.401  15.469  70.977  1.00  0.00    -0.520 F  
HETATM    8  F   UNL     1     -12.075  13.036  71.182  1.00  0.00    -0.399 F  
HETATM    9  F   UNL     1     -11.141  14.956  70.737  1.00  0.00    -0.290 F  
HETATM   10  F   UNL     1     -12.779  14.229  69.503  1.00  0.00    -0.329 F  
ENDBRANCH   3   5
TORSDOF 1
ENDMDL
MODEL        4
REMARK 921   NORMALIZED FREE ENERGY PREDICTED BY IDOCK:   -4.23 KCAL/MOL
REMARK 922        TOTAL FREE ENERGY PREDICTED BY IDOCK:   -4.67 KCAL/MOL
REMARK 923 INTER-LIGAND FREE ENERGY PREDICTED BY IDOCK:   -4.52 KCAL/MOL
REMARK 924 INTRA-LIGAND FREE ENERGY PREDICTED BY IDOCK:   -0.14 KCAL/MOL
REMARK 927      BINDING AFFINITY PREDICTED BY RF-SCORE:    0.00 PKD
ROOT
HETATM    1  F   UNL     1     -11.781  14.681  69.280  1.00  0.00    -0.273 F  
HETATM    2  C   UNL     1     -12.522  13.847  70.046  1.00  0.00    -0.266 C  
HETATM    3  O   UNL     1     -12.308  14.189  71.395  1.00  0.00    -0.342 OA 
HETATM    4  F   UNL     1     -12.022  12.601  69.865  1.00  0.00    -0.347 F  
ENDROOT
BRANCH   3   5
HETATM    5  C   UNL     1     -12.748  15.523  71.625  1.00  0.00    -0.434 C  
HETATM    6  C   UNL     1     -12.871  15.859  73.123  1.00  0.00    -0.537 C  
HETATM    7  F   UNL     1     -13.961  15.641  71.013  1.00  0.00    -0.540 F  
HETATM    8  F   UNL     1     -11.985  16.825  73.476  1.00  0.00    -0.564 F  
HETATM    9  F   UNL     1     -12.638  14.794  73.925  1.00  0.00    -0.595 F  
HETATM   10  F   UNL     1     -14.103  16.326  73.432  1.00  0.00    -0.627 F  
ENDBRANCH   3   5
TORSDOF 1
ENDMDL
MODEL        5
REMARK 921   NORMALIZED FREE ENERGY PREDICTED BY IDOCK:   -4.19 KCAL/MOL
REMARK 922        TOTAL FREE ENERGY PREDICTED BY IDOCK:   -4.63 KCAL/MOL
REMARK 923 INTER-LIGAND FREE ENERGY PREDICTED BY IDOCK:   -4.39 KCAL/MOL
REMARK 924 INTRA-LIGAND FREE ENERGY PREDICTED BY IDOCK:   -0.24 KCAL/MOL
REMARK 927      BINDING AFFINITY PREDICTED BY RF-SCORE:    0.00 PKD
ROOT
HETATM    1  F   UNL     1     -11.335  11.814  64.396  1.00  0.00    -0.364 F  
HETATM    2  C   UNL     1     -12.045  12.568  63.525  1.00  0.00    -0.562 C  
HETATM    3  O   UNL     1     -12.558  13.676  64.225  1.00  0.00    -0.640 OA 
HETATM    4  F   UNL     1     -13.101  11.819  63.129  1.00  0.00    -0.670 F  
ENDROOT
BRANCH   3   5
HETATM    5  C   UNL     1     -11.485  14.461  64.731  1.00  0.00    -0.402 C  
HETATM    6  C   UNL     1     -11.402  14.436  66.269  1.00  0.00    -0.350 C  
HETATM    7  F   UNL     1     -11.696  15.734  64.290  1.00  0.00    -0.446 F  
HETATM    8  F   UNL     1     -10.251  13.845  66.681  1.00  0.00    -0.258 F  
HETATM    9  F   UNL     1     -12.424  13.759  66.842  1.00  0.00    -0.423 F  
HETATM   10  F   UNL     1     -11.410  15.684  66.792  1.00  0.00    -0.278 F  
ENDBRANCH   3   5
TORSDOF 1
ENDMDL
MODEL        6
REMARK 921   NORMALIZED FREE ENERGY PREDICTED BY IDOCK:   -4.17 KCAL/MOL
REMARK 922        TOTAL FREE ENERGY PREDICTED BY IDOCK:   -4.61 KCAL/MOL
REMARK 923 INTER-LIGAND FREE ENERGY PREDICTED BY IDOCK:   -4.38 KCAL/MOL
REMARK 924 INTRA-LIGAND FREE ENERGY PREDICTED BY IDOCK:   -0.23 KCAL/MOL
REMARK 927      BINDING AFFINITY PREDICTED BY RF-SCORE:    0.00 PKD
ROOT
HETATM    1  F   UNL     1     -11.775  13.748  70.195  1.00  0.00    -0.322 F  
HETATM    2  C   UNL     1     -11.106  14.907  69.993  1.00  0.00    -0.232 C  
HETATM    3  O   UNL     1     -11.888  15.958  70.509  1.00  0.00    -0.347 OA 
HETATM    4  F   UNL     1     -11.028  15.086  68.653  1.00  0.00    -0.229 F  
ENDROOT
BRANCH   3   5
HETATM    5  C   UNL     1     -12.065  15.778  71.909  1.00  0.00    -0.465 C  
HETATM    6  C   UNL     1     -13.504  15.372  72.279  1.00  0.00    -0.472 C  
HETATM    7  F   UNL     1     -11.744  16.966  72.496  1.00  0.00    -0.565 F  
HETATM    8  F   UNL     1     -13.532  14.125  72.815  1.00  0.00    -0.511 F  
HETATM    9  F   UNL     1     -14.342  15.367  71.217  1.00  0.00    -0.546 F  
HETATM   10  F   UNL     1     -14.038  16.206  73.202  1.00  0.00    -0.690 F  
ENDBRANCH   3   5
TORSDOF 1
ENDMDL
MODEL        7
REMARK 921   NORMALIZED FREE ENERGY PREDICTED BY IDOCK:   -4.10 KCAL/MOL
REMARK 922        TOTAL FREE ENERGY PREDICTED BY IDOCK:   -4.53 KCAL/MOL
REMARK 923 INTER-LIGAND FREE ENERGY PREDICTED BY IDOCK:   -4.39 KCAL/MOL
REMARK 924 INTRA-LIGAND FREE ENERGY PREDICTED BY IDOCK:   -0.14 KCAL/MOL
REMARK 927      BINDING AFFINITY PREDICTED BY RF-SCORE:    0.00 PKD
ROOT
HETATM    1  F   UNL     1     -11.019  15.517  66.692  1.00  0.00    -0.312 F  
HETATM    2  C   UNL     1     -10.341  15.839  65.566  1.00  0.00    -0.404 C  
HETATM    3  O   UNL     1     -10.557  17.205  65.302  1.00  0.00    -0.662 OA 
HETATM    4  F   UNL     1     -10.907  15.140  64.553  1.00  0.00    -0.379 F  
ENDROOT
BRANCH   3   5
HETATM    5  C   UNL     1     -10.046  17.986  66.376  1.00  0.00    -0.384 C  
HETATM    6  C   UNL     1     -10.437  19.471  66.270  1.00  0.00    -0.512 C  
HETATM    7  F   UNL     1      -8.689  17.851  66.341  1.00  0.00    -0.256 F  
HETATM    8  F   UNL     1     -11.242  19.834  67.302  1.00  0.00    -0.532 F  
HETATM    9  F   UNL     1     -11.101  19.764  65.127  1.00  0.00    -0.529 F  
HETATM   10  F   UNL     1      -9.353  20.280  66.317  1.00  0.00    -0.421 F  
ENDBRANCH   3   5
TORSDOF 1
ENDMDL
MODEL        8
REMARK 921   NORMALIZED FREE ENERGY PREDICTED BY IDOCK:   -4.09 KCAL/MOL
REMARK 922        TOTAL FREE ENERGY PREDICTED BY IDOCK:   -4.52 KCAL/MOL
REMARK 923 INTER-LIGAND FREE ENERGY PREDICTED BY IDOCK:   -4.28 KCAL/MOL
REMARK 924 INTRA-LIGAND FREE ENERGY PREDICTED BY IDOCK:   -0.24 KCAL/MOL
REMARK 927      BINDING AFFINITY PREDICTED BY RF-SCORE:    0.00 PKD
ROOT
HETATM    1  F   UNL     1     -12.136  13.309  62.848  1.00  0.00    -0.585 F  
HETATM    2  C   UNL     1     -12.307  12.418  63.852  1.00  0.00    -0.508 C  
HETATM    3  O   UNL     1     -11.609  12.892  64.980  1.00  0.00    -0.310 OA 
HETATM    4  F   UNL     1     -11.706  11.268  63.463  1.00  0.00    -0.449 F  
ENDROOT
BRANCH   3   5
HETATM    5  C   UNL     1     -12.153  14.141  65.388  1.00  0.00    -0.410 C  
HETATM    6  C   UNL     1     -11.157  15.305  65.230  1.00  0.00    -0.376 C  
HETATM    7  F   UNL     1     -12.510  13.999  66.696  1.00  0.00    -0.461 F  
HETATM    8  F   UNL     1     -11.599  16.198  64.307  1.00  0.00    -0.502 F  
HETATM    9  F   UNL     1      -9.928  14.899  64.833  1.00  0.00    -0.379 F  
HETATM   10  F   UNL     1     -10.994  15.986  66.388  1.00  0.00    -0.300 F  
ENDBRANCH   3   5
TORSDOF 1
ENDMDL
MODEL        9
REMARK 921   NORMALIZED FREE ENERGY PREDICTED BY IDOCK:   -4.03 KCAL/MOL
REMARK 922        TOTAL FREE ENERGY PREDICTED BY IDOCK:   -4.46 KCAL/MOL
REMARK 923 INTER-LIGAND FREE ENERGY PREDICTED BY IDOCK:   -4.22 KCAL/MOL
REMARK 924 INTRA-LIGAND FREE ENERGY PREDICTED BY IDOCK:   -0.24 KCAL/MOL
REMARK 927      BINDING AFFINITY PREDICTED BY RF-SCORE:    0.00 PKD
ROOT
HETATM    1  F   UNL     1     -11.844  12.872  63.055  1.00  0.00    -0.576 F  
HETATM    2  C   UNL     1     -11.030  11.946  63.612  1.00  0.00    -0.440 C  
HETATM    3  O   UNL     1     -10.704  12.378  64.912  1.00  0.00    -0.275 OA 
HETATM    4  F   UNL     1      -9.884  11.946  62.891  1.00  0.00    -0.403 F  
ENDROOT
BRANCH   3   5
HETATM    5  C   UNL     1     -11.888  12.469  65.696  1.00  0.00    -0.438 C  
HETATM    6  C   UNL     1     -12.210  13.913  66.123  1.00  0.00    -0.464 C  
HETATM    7  F   UNL     1     -11.687  11.685  66.793  1.00  0.00    -0.373 F  
HETATM    8  F   UNL     1     -13.374  14.334  65.566  1.00  0.00    -0.520 F  
HETATM    9  F   UNL     1     -11.252  14.798  65.760  1.00  0.00    -0.317 F  
HETATM   10  F   UNL     1     -12.358  14.018  67.465  1.00  0.00    -0.412 F  
ENDBRANCH   3   5
TORSDOF 1
ENDMDL
MODEL       10
REMARK 921   NORMALIZED FREE ENERGY PREDICTED BY IDOCK:   -3.97 KCAL/MOL
REMARK 922        TOTAL FREE ENERGY PREDICTED BY IDOCK:   -4.40 KCAL/MOL
REMARK 923 INTER-LIGAND FREE ENERGY PREDICTED BY IDOCK:   -4.22 KCAL/MOL
REMARK 924 INTRA-LIGAND FREE ENERGY PREDICTED BY IDOCK:   -0.18 KCAL/MOL
REMARK 927      BINDING AFFINITY PREDICTED BY RF-SCORE:    0.00 PKD
ROOT
HETATM    1  F   UNL     1     -10.651  10.445  64.516  1.00  0.00    -0.401 F  
HETATM    2  C   UNL     1      -9.947  11.210  63.649  1.00  0.00    -0.363 C  
HETATM    3  O   UNL     1     -10.678  12.390  63.416  1.00  0.00    -0.446 OA 
HETATM    4  F   UNL     1      -9.897  10.531  62.478  1.00  0.00    -0.299 F  
ENDROOT
BRANCH   3   5
HETATM    5  C   UNL     1     -10.826  13.109  64.635  1.00  0.00    -0.366 C  
HETATM    6  C   UNL     1     -12.227  12.949  65.254  1.00  0.00    -0.476 C  
HETATM    7  F   UNL     1     -10.585  14.419  64.344  1.00  0.00    -0.395 F  
HETATM    8  F   UNL     1     -12.158  12.304  66.447  1.00  0.00    -0.434 F  
HETATM    9  F   UNL     1     -13.075  12.244  64.469  1.00  0.00    -0.545 F  
HETATM   10  F   UNL     1     -12.810  14.147  65.491  1.00  0.00    -0.491 F  
ENDBRANCH   3   5
TORSDOF 1
ENDMDL
MODEL       11
REMARK 921   NORMALIZED FREE ENERGY PREDICTED BY IDOCK:   -3.96 KCAL/MOL
REMARK 922        TOTAL FREE ENERGY PREDICTED BY IDOCK:   -4.38 KCAL/MOL
REMARK 923 INTER-LIGAND FREE ENERGY PREDICTED BY IDOCK:   -4.14 KCAL/MOL
REMARK 924 INTRA-LIGAND FREE ENERGY PREDICTED BY IDOCK:   -0.24 KCAL/MOL
REMARK 927      BINDING AFFINITY PREDICTED BY RF-SCORE:    0.00 PKD
ROOT
HETATM    1  F   UNL     1     -10.858  16.453  67.107  1.00  0.00    -0.321 F  
HETATM    2  C   UNL     1     -10.232  16.568  65.913  1.00  0.00    -0.349 C  
HETATM    3  O   UNL     1     -10.164  17.936  65.586  1.00  0.00    -0.589 OA 
HETATM    4  F   UNL     1     -11.030  15.975  64.993  1.00  0.00    -0.377 F  
ENDROOT
BRANCH   3   5
HETATM    5  C   UNL     1      -9.395  18.623  66.566  1.00  0.00    -0.320 C  
HETATM    6  C   UNL     1     -10.240  19.594  67.412  1.00  0.00    -0.434 C  
HETATM    7  F   UNL     1      -8.427  19.305  65.890  1.00  0.00    -0.309 F  
HETATM    8  F   UNL     1     -10.272  19.201  68.711  1.00  0.00    -0.420 F  
HETATM    9  F   UNL     1     -11.524  19.682  66.992  1.00  0.00    -0.437 F  
HETATM   10  F   UNL     1      -9.731  20.848  67.394  1.00  0.00    -0.589 F  
ENDBRANCH   3   5
TORSDOF 1
ENDMDL
MODEL       12
REMARK 921   NORMALIZED FREE ENERGY PREDICTED BY IDOCK:   -3.95 KCAL/MOL
REMARK 922        TOTAL FREE ENERGY PREDICTED BY IDOCK:   -4.38 KCAL/MOL
REMARK 923 INTER-LIGAND FREE ENERGY PREDICTED BY IDOCK:   -4.16 KCAL/MOL
REMARK 924 INTRA-LIGAND FREE ENERGY PREDICTED BY IDOCK:   -0.21 KCAL/MOL
REMARK 927      BINDING AFFINITY PREDICTED BY RF-SCORE:    0.00 PKD
ROOT
HETATM    1  F   UNL     1     -12.130  14.392  66.749  1.00  0.00    -0.407 F  
HETATM    2  C   UNL     1     -11.612  13.249  67.255  1.00  0.00    -0.359 C  
HETATM    3  O   UNL     1     -11.905  12.204  66.359  1.00  0.00    -0.563 OA 
HETATM    4  F   UNL     1     -12.279  12.992  68.405  1.00  0.00    -0.353 F  
ENDROOT
BRANCH   3   5
HETATM    5  C   UNL     1     -11.288  12.462  65.104  1.00  0.00    -0.323 C  
HETATM    6  C   UNL     1     -12.280  12.399  63.928  1.00  0.00    -0.513 C  
HETATM    7  F   UNL     1     -10.313  11.520  64.951  1.00  0.00    -0.274 F  
HETATM    8  F   UNL     1     -12.406  13.614  63.336  1.00  0.00    -0.548 F  
HETATM    9  F   UNL     1     -13.521  12.009  64.303  1.00  0.00    -0.417 F  
HETATM   10  F   UNL     1     -11.867  11.537  62.969  1.00  0.00    -0.406 F  
ENDBRANCH   3   5
TORSDOF 1
ENDMDL
MODEL       13
REMARK 921   NORMALIZED FREE ENERGY PREDICTED BY IDOCK:   -3.94 KCAL/MOL
REMARK 922        TOTAL FREE ENERGY PREDICTED BY IDOCK:   -4.37 KCAL/MOL
REMARK 923 INTER-LIGAND FREE ENERGY PREDICTED BY IDOCK:   -4.22 KCAL/MOL
REMARK 924 INTRA-LIGAND FREE ENERGY PREDICTED BY IDOCK:   -0.14 KCAL/MOL
REMARK 927      BINDING AFFINITY PREDICTED BY RF-SCORE:    0.00 PKD
ROOT
HETATM    1  F   UNL     1     -11.943  14.043  67.558  1.00  0.00    -0.369 F  
HETATM    2  C   UNL     1     -11.673  12.731  67.370  1.00  0.00    -0.366 C  
HETATM    3  O   UNL     1     -12.152  12.366  66.097  1.00  0.00    -0.611 OA 
HETATM    4  F   UNL     1     -12.401  12.046  68.283  1.00  0.00    -0.299 F  
ENDROOT
BRANCH   3   5
HETATM    5  C   UNL     1     -11.470  13.114  65.097  1.00  0.00    -0.300 C  
HETATM    6  C   UNL     1     -11.818  12.655  63.669  1.00  0.00    -0.530 C  
HETATM    7  F   UNL     1     -10.137  12.952  65.334  1.00  0.00    -0.276 F  
HETATM    8  F   UNL     1     -12.460  13.639  62.988  1.00  0.00    -0.530 F  
HETATM    9  F   UNL     1     -12.620  11.565  63.644  1.00  0.00    -0.502 F  
HETATM   10  F   UNL     1     -10.708  12.346  62.958  1.00  0.00    -0.440 F  
ENDBRANCH   3   5
TORSDOF 1
ENDMDL
MODEL       14
REMARK 921   NORMALIZED FREE ENERGY PREDICTED BY IDOCK:   -3.93 KCAL/MOL
REMARK 922        TOTAL FREE ENERGY PREDICTED BY IDOCK:   -4.36 KCAL/MOL
REMARK 923 INTER-LIGAND FREE ENERGY PREDICTED BY IDOCK:   -4.12 KCAL/MOL
REMARK 924 INTRA-LIGAND FREE ENERGY PREDICTED BY IDOCK:   -0.24 KCAL/MOL
REMARK 927      BINDING AFFINITY PREDICTED BY RF-SCORE:    0.00 PKD
ROOT
HETATM    1  F   UNL     1     -11.017  10.891  66.258  1.00  0.00    -0.306 F  
HETATM    2  C   UNL     1     -11.325  11.963  67.024  1.00  0.00    -0.329 C  
HETATM    3  O   UNL     1     -11.399  13.092  66.186  1.00  0.00    -0.295 OA 
HETATM    4  F   UNL     1     -10.282  12.156  67.866  1.00  0.00    -0.183 F  
ENDROOT
BRANCH   3   5
HETATM    5  C   UNL     1     -12.436  12.909  65.229  1.00  0.00    -0.493 C  
HETATM    6  C   UNL     1     -11.901  12.778  63.791  1.00  0.00    -0.499 C  
HETATM    7  F   UNL     1     -13.254  13.995  65.333  1.00  0.00    -0.516 F  
HETATM    8  F   UNL     1     -12.164  11.545  63.287  1.00  0.00    -0.568 F  
HETATM    9  F   UNL     1     -10.564  12.966  63.704  1.00  0.00    -0.398 F  
HETATM   10  F   UNL     1     -12.482  13.673  62.957  1.00  0.00    -0.530 F  
ENDBRANCH   3   5
TORSDOF 1
ENDMDL
MODEL       15
REMARK 921   NORMALIZED FREE ENERGY PREDICTED BY IDOCK:   -3.91 KCAL/MOL
REMARK 922        TOTAL FREE ENERGY PREDICTED BY IDOCK:   -4.33 KCAL/MOL
REMARK 923 INTER-LIGAND FREE ENERGY PREDICTED BY IDOCK:   -4.14 KCAL/MOL
REMARK 924 INTRA-LIGAND FREE ENERGY PREDICTED BY IDOCK:   -0.19 KCAL/MOL
REMARK 927      BINDING AFFINITY PREDICTED BY RF-SCORE:    0.00 PKD
ROOT
HETATM    1  F   UNL     1      -9.792  14.990  65.158  1.00  0.00    -0.355 F  
HETATM    2  C   UNL     1     -10.963  15.637  65.364  1.00  0.00    -0.333 C  
HETATM    3  O   UNL     1     -11.962  14.976  64.623  1.00  0.00    -0.414 OA 
HETATM    4  F   UNL     1     -10.825  16.876  64.834  1.00  0.00    -0.374 F  
ENDROOT
BRANCH   3   5
HETATM    5  C   UNL     1     -12.097  13.639  65.090  1.00  0.00    -0.403 C  
HETATM    6  C   UNL     1     -12.155  12.612  63.944  1.00  0.00    -0.487 C  
HETATM    7  F   UNL     1     -13.248  13.599  65.820  1.00  0.00    -0.445 F  
HETATM    8  F   UNL     1     -11.079  11.784  63.983  1.00  0.00    -0.344 F  
HETATM    9  F   UNL     1     -12.171  13.186  62.719  1.00  0.00    -0.496 F  
HETATM   10  F   UNL     1     -13.255  11.828  64.029  1.00  0.00    -0.490 F  
ENDBRANCH   3   5
TORSDOF 1
ENDMDL
MODEL       16
REMARK 921   NORMALIZED FREE ENERGY PREDICTED BY IDOCK:   -3.90 KCAL/MOL
REMARK 922        TOTAL FREE ENERGY PREDICTED BY IDOCK:   -4.32 KCAL/MOL
REMARK 923 INTER-LIGAND FREE ENERGY PREDICTED BY IDOCK:   -4.26 KCAL/MOL
REMARK 924 INTRA-LIGAND FREE ENERGY PREDICTED BY IDOCK:   -0.06 KCAL/MOL
REMARK 927      BINDING AFFINITY PREDICTED BY RF-SCORE:    0.00 PKD
ROOT
HETATM    1  F   UNL     1     -11.678  15.954  68.881  1.00  0.00    -0.344 F  
HETATM    2  C   UNL     1     -11.004  15.364  69.896  1.00  0.00    -0.294 C  
HETATM    3  O   UNL     1     -11.556  15.819  71.109  1.00  0.00    -0.348 OA 
HETATM    4  F   UNL     1      -9.730  15.819  69.838  1.00  0.00    -0.263 F  
ENDROOT
BRANCH   3   5
HETATM    5  C   UNL     1     -12.922  15.431  71.188  1.00  0.00    -0.479 C  
HETATM    6  C   UNL     1     -13.397  15.221  72.638  1.00  0.00    -0.478 C  
HETATM    7  F   UNL     1     -13.036  14.271  70.481  1.00  0.00    -0.394 F  
HETATM    8  F   UNL     1     -14.353  16.127  72.969  1.00  0.00    -0.665 F  
HETATM    9  F   UNL     1     -12.400  15.345  73.545  1.00  0.00    -0.444 F  
HETATM   10  F   UNL     1     -13.943  13.995  72.814  1.00  0.00    -0.551 F  
ENDBRANCH   3   5
TORSDOF 1
ENDMDL
MODEL       17
REMARK 921   NORMALIZED FREE ENERGY PREDICTED BY IDOCK:   -3.86 KCAL/MOL
REMARK 922        TOTAL FREE ENERGY PREDICTED BY IDOCK:   -4.28 KCAL/MOL
REMARK 923 INTER-LIGAND FREE ENERGY PREDICTED BY IDOCK:   -4.14 KCAL/MOL
REMARK 924 INTRA-LIGAND FREE ENERGY PREDICTED BY IDOCK:   -0.14 KCAL/MOL
REMARK 927      BINDING AFFINITY PREDICTED BY RF-SCORE:    0.00 PKD
ROOT
HETATM    1  F   UNL     1     -12.228  12.810  68.019  1.00  0.00    -0.364 F  
HETATM    2  C   UNL     1     -11.578  13.853  67.452  1.00  0.00    -0.368 C  
HETATM    3  O   UNL     1     -11.120  13.444  66.185  1.00  0.00    -0.286 OA 
HETATM    4  F   UNL     1     -10.485  14.095  68.215  1.00  0.00    -0.226 F  
ENDROOT
BRANCH   3   5
HETATM    5  C   UNL     1     -12.230  13.103  65.363  1.00  0.00    -0.461 C  
HETATM    6  C   UNL     1     -11.821  12.788  63.912  1.00  0.00    -0.468 C  
HETATM    7  F   UNL     1     -13.076  14.172  65.394  1.00  0.00    -0.527 F  
HETATM    8  F   UNL     1     -12.080  11.490  63.608  1.00  0.00    -0.500 F  
HETATM    9  F   UNL     1     -10.505  12.996  63.677  1.00  0.00    -0.382 F  
HETATM   10  F   UNL     1     -12.507  13.543  63.023  1.00  0.00    -0.555 F  
ENDBRANCH   3   5
TORSDOF 1
ENDMDL
MODEL       18
REMARK 921   NORMALIZED FREE ENERGY PREDICTED BY IDOCK:   -3.86 KCAL/MOL
REMARK 922        TOTAL FREE ENERGY PREDICTED BY IDOCK:   -4.28 KCAL/MOL
REMARK 923 INTER-LIGAND FREE ENERGY PREDICTED BY IDOCK:   -4.07 KCAL/MOL
REMARK 924 INTRA-LIGAND FREE ENERGY PREDICTED BY IDOCK:   -0.21 KCAL/MOL
REMARK 927      BINDING AFFINITY PREDICTED BY RF-SCORE:    0.00 PKD
ROOT
HETATM    1  F   UNL     1     -11.065  13.565  67.315  1.00  0.00    -0.270 F  
HETATM    2  C   UNL     1     -11.354  12.250  67.171  1.00  0.00    -0.335 C  
HETATM    3  O   UNL     1     -12.212  12.112  66.063  1.00  0.00    -0.609 OA 
HETATM    4  F   UNL     1     -12.055  11.880  68.269  1.00  0.00    -0.377 F  
ENDROOT
BRANCH   3   5
HETATM    5  C   UNL     1     -11.549  12.560  64.887  1.00  0.00    -0.341 C  
HETATM    6  C   UNL     1     -12.054  13.932  64.405  1.00  0.00    -0.443 C  
HETATM    7  F   UNL     1     -11.772  11.612  63.932  1.00  0.00    -0.444 F  
HETATM    8  F   UNL     1     -11.069  14.864  64.482  1.00  0.00    -0.358 F  
HETATM    9  F   UNL     1     -13.098  14.396  65.131  1.00  0.00    -0.416 F  
HETATM   10  F   UNL     1     -12.456  13.894  63.113  1.00  0.00    -0.476 F  
ENDBRANCH   3   5
TORSDOF 1
ENDMDL
MODEL       19
REMARK 921   NORMALIZED FREE ENERGY PREDICTED BY IDOCK:   -3.83 KCAL/MOL
REMARK 922        TOTAL FREE ENERGY PREDICTED BY IDOCK:   -4.25 KCAL/MOL
REMARK 923 INTER-LIGAND FREE ENERGY PREDICTED BY IDOCK:   -4.01 KCAL/MOL
REMARK 924 INTRA-LIGAND FREE ENERGY PREDICTED BY IDOCK:   -0.24 KCAL/MOL
REMARK 927      BINDING AFFINITY PREDICTED BY RF-SCORE:    0.00 PKD
ROOT
HETATM    1  F   UNL     1     -12.816  10.048  70.347  1.00  0.00    -0.305 F  
HETATM    2  C   UNL     1     -12.586  10.412  71.630  1.00  0.00    -0.417 C  
HETATM    3  O   UNL     1     -12.881   9.309  72.455  1.00  0.00    -0.387 OA 
HETATM    4  F   UNL     1     -13.479  11.385  71.928  1.00  0.00    -0.494 F  
ENDROOT
BRANCH   3   5
HETATM    5  C   UNL     1     -12.016   8.226  72.131  1.00  0.00    -0.369 C  
HETATM    6  C   UNL     1     -12.782   6.971  71.673  1.00  0.00    -0.377 C  
HETATM    7  F   UNL     1     -11.297   7.956  73.257  1.00  0.00    -0.456 F  
HETATM    8  F   UNL     1     -12.499   6.679  70.377  1.00  0.00    -0.419 F  
HETATM    9  F   UNL     1     -14.125   7.107  71.766  1.00  0.00    -0.438 F  
HETATM   10  F   UNL     1     -12.442   5.883  72.402  1.00  0.00    -0.352 F  
ENDBRANCH   3   5
TORSDOF 1
ENDMDL
MODEL       20
REMARK 921   NORMALIZED FREE ENERGY PREDICTED BY IDOCK:   -3.81 KCAL/MOL
REMARK 922        TOTAL FREE ENERGY PREDICTED BY IDOCK:   -4.23 KCAL/MOL
REMARK 923 INTER-LIGAND FREE ENERGY PREDICTED BY IDOCK:   -3.99 KCAL/MOL
REMARK 924 INTRA-LIGAND FREE ENERGY PREDICTED BY IDOCK:   -0.24 KCAL/MOL
REMARK 927      BINDING AFFINITY PREDICTED BY RF-SCORE:    0.00 PKD
ROOT
HETATM    1  F   UNL     1     -12.767   6.355  71.665  1.00  0.00    -0.366 F  
HETATM    2  C   UNL     1     -11.676   6.702  70.943  1.00  0.00    -0.375 C  
HETATM    3  O   UNL     1     -11.791   8.064  70.607  1.00  0.00    -0.223 OA 
HETATM    4  F   UNL     1     -11.729   5.998  69.788  1.00  0.00    -0.473 F  
ENDROOT
BRANCH   3   5
HETATM    5  C   UNL     1     -11.816   8.849  71.794  1.00  0.00    -0.358 C  
HETATM    6  C   UNL     1     -13.162   9.567  72.004  1.00  0.00    -0.452 C  
HETATM    7  F   UNL     1     -10.808   9.759  71.677  1.00  0.00    -0.406 F  
HETATM    8  F   UNL     1     -13.785   9.108  73.120  1.00  0.00    -0.395 F  
HETATM    9  F   UNL     1     -14.020   9.397  70.972  1.00  0.00    -0.391 F  
HETATM   10  F   UNL     1     -12.998  10.900  72.168  1.00  0.00    -0.549 F  
ENDBRANCH   3   5
TORSDOF 1
ENDMDL
MODEL       21
REMARK 921   NORMALIZED FREE ENERGY PREDICTED BY IDOCK:   -3.80 KCAL/MOL
REMARK 922        TOTAL FREE ENERGY PREDICTED BY IDOCK:   -4.21 KCAL/MOL
REMARK 923 INTER-LIGAND FREE ENERGY PREDICTED BY IDOCK:   -4.18 KCAL/MOL
REMARK 924 INTRA-LIGAND FREE ENERGY PREDICTED BY IDOCK:   -0.04 KCAL/MOL
REMARK 927      BINDING AFFINITY PREDICTED BY RF-SCORE:    0.00 PKD
ROOT
HETATM    1  F   UNL     1      -9.302  18.886  67.208  1.00  0.00    -0.285 F  
HETATM    2  C   UNL     1     -10.487  18.938  66.557  1.00  0.00    -0.432 C  
HETATM    3  O   UNL     1     -10.443  18.012  65.497  1.00  0.00    -0.636 OA 
HETATM    4  F   UNL     1     -10.579  20.172  66.008  1.00  0.00    -0.520 F  
ENDROOT
BRANCH   3   5
HETATM    5  C   UNL     1     -10.271  16.699  66.017  1.00  0.00    -0.351 C  
HETATM    6  C   UNL     1     -10.962  15.624  65.157  1.00  0.00    -0.398 C  
HETATM    7  F   UNL     1     -10.798  16.708  67.275  1.00  0.00    -0.321 F  
HETATM    8  F   UNL     1     -10.047  14.781  64.611  1.00  0.00    -0.380 F  
HETATM    9  F   UNL     1     -11.682  16.145  64.137  1.00  0.00    -0.518 F  
HETATM   10  F   UNL     1     -11.807  14.862  65.890  1.00  0.00    -0.337 F  
ENDBRANCH   3   5
TORSDOF 1
ENDMDL
MODEL       22
REMARK 921   NORMALIZED FREE ENERGY PREDICTED BY IDOCK:   -3.79 KCAL/MOL
REMARK 922        TOTAL FREE ENERGY PREDICTED BY IDOCK:   -4.21 KCAL/MOL
REMARK 923 INTER-LIGAND FREE ENERGY PREDICTED BY IDOCK:   -3.97 KCAL/MOL
REMARK 924 INTRA-LIGAND FREE ENERGY PREDICTED BY IDOCK:   -0.24 KCAL/MOL
REMARK 927      BINDING AFFINITY PREDICTED BY RF-SCORE:    0.00 PKD
ROOT
HETATM    1  F   UNL     1     -12.033  14.530  65.880  1.00  0.00    -0.364 F  
HETATM    2  C   UNL     1     -12.384  14.637  64.578  1.00  0.00    -0.398 C  
HETATM    3  O   UNL     1     -11.680  13.656  63.854  1.00  0.00    -0.389 OA 
HETATM    4  F   UNL     1     -11.943  15.844  64.150  1.00  0.00    -0.477 F  
ENDROOT
BRANCH   3   5
HETATM    5  C   UNL     1     -12.052  12.363  64.317  1.00  0.00    -0.433 C  
HETATM    6  C   UNL     1     -10.907  11.643  65.053  1.00  0.00    -0.288 C  
HETATM    7  F   UNL     1     -12.427  11.651  63.216  1.00  0.00    -0.633 F  
HETATM    8  F   UNL     1     -11.222  11.443  66.359  1.00  0.00    -0.339 F  
HETATM    9  F   UNL     1      -9.743  12.334  65.027  1.00  0.00    -0.248 F  
HETATM   10  F   UNL     1     -10.656  10.424  64.521  1.00  0.00    -0.401 F  
ENDBRANCH   3   5
TORSDOF 1
ENDMDL
MODEL       23
REMARK 921   NORMALIZED FREE ENERGY PREDICTED BY IDOCK:   -3.78 KCAL/MOL
REMARK 922        TOTAL FREE ENERGY PREDICTED BY IDOCK:   -4.19 KCAL/MOL
REMARK 923 INTER-LIGAND FREE ENERGY PREDICTED BY IDOCK:   -4.05 KCAL/MOL
REMARK 924 INTRA-LIGAND FREE ENERGY PREDICTED BY IDOCK:   -0.14 KCAL/MOL
REMARK 927      BINDING AFFINITY PREDICTED BY RF-SCORE:    0.00 PKD
ROOT
HETATM    1  F   UNL     1     -11.051  15.863  65.161  1.00  0.00    -0.358 F  
HETATM    2  C   UNL     1      -9.997  16.014  65.995  1.00  0.00    -0.339 C  
HETATM    3  O   UNL     1      -9.493  17.318  65.829  1.00  0.00    -0.527 OA 
HETATM    4  F   UNL     1      -9.037  15.156  65.574  1.00  0.00    -0.262 F  
ENDROOT
BRANCH   3   5
HETATM    5  C   UNL     1     -10.491  18.266  66.188  1.00  0.00    -0.383 C  
HETATM    6  C   UNL     1     -10.003  19.721  66.063  1.00  0.00    -0.447 C  
HETATM    7  F   UNL     1     -10.837  17.993  67.479  1.00  0.00    -0.398 F  
HETATM    8  F   UNL     1     -10.700  20.384  65.104  1.00  0.00    -0.435 F  
HETATM    9  F   UNL     1      -8.693  19.813  65.737  1.00  0.00    -0.355 F  
HETATM   10  F   UNL     1     -10.174  20.408  67.216  1.00  0.00    -0.546 F  
ENDBRANCH   3   5
TORSDOF 1
ENDMDL
MODEL       24
REMARK 921   NORMALIZED FREE ENERGY PREDICTED BY IDOCK:   -3.75 KCAL/MOL
REMARK 922        TOTAL FREE ENERGY PREDICTED BY IDOCK:   -4.17 KCAL/MOL
REMARK 923 INTER-LIGAND FREE ENERGY PREDICTED BY IDOCK:   -4.02 KCAL/MOL
REMARK 924 INTRA-LIGAND FREE ENERGY PREDICTED BY IDOCK:   -0.15 KCAL/MOL
REMARK 927      BINDING AFFINITY PREDICTED BY RF-SCORE:    0.00 PKD
ROOT
HETATM    1  F   UNL     1     -10.427  12.245  68.306  1.00  0.00    -0.198 F  
HETATM    2  C   UNL     1     -11.774  12.345  68.237  1.00  0.00    -0.345 C  
HETATM    3  O   UNL     1     -12.328  11.311  69.016  1.00  0.00    -0.446 OA 
HETATM    4  F   UNL     1     -12.120  12.106  66.950  1.00  0.00    -0.390 F  
ENDROOT
BRANCH   3   5
HETATM    5  C   UNL     1     -11.932  11.471  70.373  1.00  0.00    -0.368 C  
HETATM    6  C   UNL     1     -12.732  10.573  71.336  1.00  0.00    -0.442 C  
HETATM    7  F   UNL     1     -12.127  12.785  70.681  1.00  0.00    -0.415 F  
HETATM    8  F   UNL     1     -11.922   9.659  71.930  1.00  0.00    -0.426 F  
HETATM    9  F   UNL     1     -13.722   9.886  70.720  1.00  0.00    -0.408 F  
HETATM   10  F   UNL     1     -13.306  11.290  72.330  1.00  0.00    -0.584 F  
ENDBRANCH   3   5
TORSDOF 1
ENDMDL
MODEL       25
REMARK 921   NORMALIZED FREE ENERGY PREDICTED BY IDOCK:   -3.75 KCAL/MOL
REMARK 922        TOTAL FREE ENERGY PREDICTED BY IDOCK:   -4.17 KCAL/MOL
REMARK 923 INTER-LIGAND FREE ENERGY PREDICTED BY IDOCK:   -3.93 KCAL/MOL
REMARK 924 INTRA-LIGAND FREE ENERGY PREDICTED BY IDOCK:   -0.24 KCAL/MOL
REMARK 927      BINDING AFFINITY PREDICTED BY RF-SCORE:    0.00 PKD
ROOT
HETATM    1  F   UNL     1      -9.974  11.596  66.755  1.00  0.00    -0.207 F  
HETATM    2  C   UNL     1     -11.250  11.194  66.955  1.00  0.00    -0.219 C  
HETATM    3  O   UNL     1     -12.105  12.233  66.541  1.00  0.00    -0.616 OA 
HETATM    4  F   UNL     1     -11.411  11.051  68.293  1.00  0.00    -0.284 F  
ENDROOT
BRANCH   3   5
HETATM    5  C   UNL     1     -11.922  12.477  65.152  1.00  0.00    -0.434 C  
HETATM    6  C   UNL     1     -11.477  13.922  64.855  1.00  0.00    -0.350 C  
HETATM    7  F   UNL     1     -13.119  12.219  64.552  1.00  0.00    -0.545 F  
HETATM    8  F   UNL     1     -10.230  13.943  64.318  1.00  0.00    -0.441 F  
HETATM    9  F   UNL     1     -11.448  14.704  65.959  1.00  0.00    -0.330 F  
HETATM   10  F   UNL     1     -12.298  14.526  63.964  1.00  0.00    -0.503 F  
ENDBRANCH   3   5
TORSDOF 1
ENDMDL
MODEL       26
REMARK 921   NORMALIZED FREE ENERGY PREDICTED BY IDOCK:   -3.73 KCAL/MOL
REMARK 922        TOTAL FREE ENERGY PREDICTED BY IDOCK:   -4.14 KCAL/MOL
REMARK 923 INTER-LIGAND FREE ENERGY PREDICTED BY IDOCK:   -3.99 KCAL/MOL
REMARK 924 INTRA-LIGAND FREE ENERGY PREDICTED BY IDOCK:   -0.15 KCAL/MOL
REMARK 927      BINDING AFFINITY PREDICTED BY RF-SCORE:    0.00 PKD
ROOT
HETATM    1  F   UNL     1     -11.245  16.805  64.751  1.00  0.00    -0.431 F  
HETATM    2  C   UNL     1     -10.505  16.158  65.680  1.00  0.00    -0.383 C  
HETATM    3  O   UNL     1     -11.208  15.002  66.071  1.00  0.00    -0.343 OA 
HETATM    4  F   UNL     1     -10.436  16.970  66.762  1.00  0.00    -0.302 F  
ENDROOT
BRANCH   3   5
HETATM    5  C   UNL     1     -11.376  14.143  64.949  1.00  0.00    -0.365 C  
HETATM    6  C   UNL     1     -11.891  12.746  65.342  1.00  0.00    -0.415 C  
HETATM    7  F   UNL     1     -10.155  14.046  64.350  1.00  0.00    -0.441 F  
HETATM    8  F   UNL     1     -13.126  12.523  64.823  1.00  0.00    -0.542 F  
HETATM    9  F   UNL     1     -11.985  12.574  66.681  1.00  0.00    -0.433 F  
HETATM   10  F   UNL     1     -11.086  11.765  64.871  1.00  0.00    -0.337 F  
ENDBRANCH   3   5
TORSDOF 1
ENDMDL
MODEL       27
REMARK 921   NORMALIZED FREE ENERGY PREDICTED BY IDOCK:   -3.72 KCAL/MOL
REMARK 922        TOTAL FREE ENERGY PREDICTED BY IDOCK:   -4.13 KCAL/MOL
REMARK 923 INTER-LIGAND FREE ENERGY PREDICTED BY IDOCK:   -4.00 KCAL/MOL
REMARK 924 INTRA-LIGAND FREE ENERGY PREDICTED BY IDOCK:   -0.13 KCAL/MOL
REMARK 927      BINDING AFFINITY PREDICTED BY RF-SCORE:    0.00 PKD
ROOT
HETATM    1  F   UNL     1     -12.158  12.814  69.039  1.00  0.00    -0.322 F  
HETATM    2  C   UNL     1     -11.679  11.726  68.393  1.00  0.00    -0.325 C  
HETATM    3  O   UNL     1     -12.136  11.773  67.062  1.00  0.00    -0.575 OA 
HETATM    4  F   UNL     1     -12.247  10.642  68.973  1.00  0.00    -0.341 F  
ENDROOT
BRANCH   3   5
HETATM    5  C   UNL     1     -11.627  12.938  66.423  1.00  0.00    -0.371 C  
HETATM    6  C   UNL     1     -12.290  13.206  65.059  1.00  0.00    -0.459 C  
HETATM    7  F   UNL     1     -10.287  12.739  66.266  1.00  0.00    -0.244 F  
HETATM    8  F   UNL     1     -12.993  14.368  65.084  1.00  0.00    -0.446 F  
HETATM    9  F   UNL     1     -13.149  12.229  64.687  1.00  0.00    -0.543 F  
HETATM   10  F   UNL     1     -11.373  13.325  64.071  1.00  0.00    -0.371 F  
ENDBRANCH   3   5
TORSDOF 1
ENDMDL
MODEL       28
REMARK 921   NORMALIZED FREE ENERGY PREDICTED BY IDOCK:   -3.69 KCAL/MOL
REMARK 922        TOTAL FREE ENERGY PREDICTED BY IDOCK:   -4.10 KCAL/MOL
REMARK 923 INTER-LIGAND FREE ENERGY PREDICTED BY IDOCK:   -3.86 KCAL/MOL
REMARK 924 INTRA-LIGAND FREE ENERGY PREDICTED BY IDOCK:   -0.24 KCAL/MOL
REMARK 927      BINDING AFFINITY PREDICTED BY RF-SCORE:    0.00 PKD
ROOT
HETATM    1  F   UNL     1     -11.575  11.428  67.115  1.00  0.00    -0.357 F  
HETATM    2  C   UNL     1     -10.498  11.127  66.352  1.00  0.00    -0.260 C  
HETATM    3  O   UNL     1     -10.759  11.563  65.039  1.00  0.00    -0.285 OA 
HETATM    4  F   UNL     1     -10.408   9.777  66.316  1.00  0.00    -0.312 F  
ENDROOT
BRANCH   3   5
HETATM    5  C   UNL     1     -10.938  12.974  65.030  1.00  0.00    -0.298 C  
HETATM    6  C   UNL     1     -12.386  13.388  64.708  1.00  0.00    -0.396 C  
HETATM    7  F   UNL     1     -10.085  13.467  64.087  1.00  0.00    -0.433 F  
HETATM    8  F   UNL     1     -12.956  14.017  65.768  1.00  0.00    -0.532 F  
HETATM    9  F   UNL     1     -13.179  12.338  64.395  1.00  0.00    -0.501 F  
HETATM   10  F   UNL     1     -12.441  14.251  63.666  1.00  0.00    -0.485 F  
ENDBRANCH   3   5
TORSDOF 1
ENDMDL
MODEL       29
REMARK 921   NORMALIZED FREE ENERGY PREDICTED BY IDOCK:   -3.68 KCAL/MOL
REMARK 922        TOTAL FREE ENERGY PREDICTED BY IDOCK:   -4.09 KCAL/MOL
REMARK 923 INTER-LIGAND FREE ENERGY PREDICTED BY IDOCK:   -3.93 KCAL/MOL
REMARK 924 INTRA-LIGAND FREE ENERGY PREDICTED BY IDOCK:   -0.16 KCAL/MOL
REMARK 927      BINDING AFFINITY PREDICTED BY RF-SCORE:    0.00 PKD
ROOT
HETATM    1  F   UNL     1     -12.542   6.691  70.466  1.00  0.00    -0.406 F  
HETATM    2  C   UNL     1     -12.415   6.717  71.813  1.00  0.00    -0.349 C  
HETATM    3  O   UNL     1     -12.105   8.036  72.196  1.00  0.00    -0.313 OA 
HETATM    4  F   UNL     1     -11.344   5.948  72.121  1.00  0.00    -0.295 F  
ENDROOT
BRANCH   3   5
HETATM    5  C   UNL     1     -13.170   8.904  71.826  1.00  0.00    -0.378 C  
HETATM    6  C   UNL     1     -12.675  10.279  71.339  1.00  0.00    -0.442 C  
HETATM    7  F   UNL     1     -13.953   9.049  72.933  1.00  0.00    -0.468 F  
HETATM    8  F   UNL     1     -12.986  10.469  70.031  1.00  0.00    -0.349 F  
HETATM    9  F   UNL     1     -11.335  10.430  71.455  1.00  0.00    -0.364 F  
HETATM   10  F   UNL     1     -13.250  11.292  72.029  1.00  0.00    -0.562 F  
ENDBRANCH   3   5
TORSDOF 1
ENDMDL
MODEL       30
REMARK 921   NORMALIZED FREE ENERGY PREDICTED BY IDOCK:   -3.67 KCAL/MOL
REMARK 922        TOTAL FREE ENERGY PREDICTED BY IDOCK:   -4.08 KCAL/MOL
REMARK 923 INTER-LIGAND FREE ENERGY PREDICTED BY IDOCK:   -3.94 KCAL/MOL
REMARK 924 INTRA-LIGAND FREE ENERGY PREDICTED BY IDOCK:   -0.14 KCAL/MOL
REMARK 927      BINDING AFFINITY PREDICTED BY RF-SCORE:    0.00 PKD
ROOT
HETATM    1  F   UNL     1     -10.720  16.301  66.886  1.00  0.00    -0.311 F  
HETATM    2  C   UNL     1     -10.063  16.394  65.707  1.00  0.00    -0.327 C  
HETATM    3  O   UNL     1     -10.206  15.168  65.029  1.00  0.00    -0.364 OA 
HETATM    4  F   UNL     1      -8.749  16.539  66.000  1.00  0.00    -0.314 F  
ENDROOT
BRANCH   3   5
HETATM    5  C   UNL     1     -11.582  14.928  64.761  1.00  0.00    -0.410 C  
HETATM    6  C   UNL     1     -11.832  13.550  64.122  1.00  0.00    -0.437 C  
HETATM    7  F   UNL     1     -11.991  15.920  63.919  1.00  0.00    -0.403 F  
HETATM    8  F   UNL     1     -12.568  12.761  64.947  1.00  0.00    -0.479 F  
HETATM    9  F   UNL     1     -10.690  12.879  63.846  1.00  0.00    -0.365 F  
HETATM   10  F   UNL     1     -12.522  13.652  62.962  1.00  0.00    -0.530 F  
ENDBRANCH   3   5
TORSDOF 1
ENDMDL
MODEL       31
REMARK 921   NORMALIZED FREE ENERGY PREDICTED BY IDOCK:   -3.66 KCAL/MOL
REMARK 922        TOTAL FREE ENERGY PREDICTED BY IDOCK:   -4.07 KCAL/MOL
REMARK 923 INTER-LIGAND FREE ENERGY PREDICTED BY IDOCK:   -3.85 KCAL/MOL
REMARK 924 INTRA-LIGAND FREE ENERGY PREDICTED BY IDOCK:   -0.22 KCAL/MOL
REMARK 927      BINDING AFFINITY PREDICTED BY RF-SCORE:    0.00 PKD
ROOT
HETATM    1  F   UNL     1     -12.917  12.257  64.759  1.00  0.00    -0.542 F  
HETATM    2  C   UNL     1     -11.866  12.757  64.069  1.00  0.00    -0.435 C  
HETATM    3  O   UNL     1     -11.216  13.700  64.887  1.00  0.00    -0.317 OA 
HETATM    4  F   UNL     1     -12.377  13.429  63.010  1.00  0.00    -0.607 F  
ENDROOT
BRANCH   3   5
HETATM    5  C   UNL     1     -10.722  13.058  66.057  1.00  0.00    -0.274 C  
HETATM    6  C   UNL     1     -11.536  13.409  67.316  1.00  0.00    -0.360 C  
HETATM    7  F   UNL     1      -9.428  13.463  66.203  1.00  0.00    -0.266 F  
HETATM    8  F   UNL     1     -12.158  12.308  67.811  1.00  0.00    -0.398 F  
HETATM    9  F   UNL     1     -12.495  14.336  67.085  1.00  0.00    -0.423 F  
HETATM   10  F   UNL     1     -10.748  13.891  68.304  1.00  0.00    -0.228 F  
ENDBRANCH   3   5
TORSDOF 1
ENDMDL
MODEL       32
REMARK 921   NORMALIZED FREE ENERGY PREDICTED BY IDOCK:   -3.62 KCAL/MOL
REMARK 922        TOTAL FREE ENERGY PREDICTED BY IDOCK:   -4.02 KCAL/MOL
REMARK 923 INTER-LIGAND FREE ENERGY PREDICTED BY IDOCK:   -3.78 KCAL/MOL
REMARK 924 INTRA-LIGAND FREE ENERGY PREDICTED BY IDOCK:   -0.24 KCAL/MOL
REMARK 927      BINDING AFFINITY PREDICTED BY RF-SCORE:    0.00 PKD
ROOT
HETATM    1  F   UNL     1     -10.464  15.722  67.219  1.00  0.00    -0.278 F  
HETATM    2  C   UNL     1     -11.324  15.047  68.016  1.00  0.00    -0.327 C  
HETATM    3  O   UNL     1     -12.257  14.389  67.192  1.00  0.00    -0.390 OA 
HETATM    4  F   UNL     1     -12.005  15.973  68.732  1.00  0.00    -0.390 F  
ENDROOT
BRANCH   3   5
HETATM    5  C   UNL     1     -11.582  13.452  66.360  1.00  0.00    -0.346 C  
HETATM    6  C   UNL     1     -11.726  13.775  64.861  1.00  0.00    -0.363 C  
HETATM    7  F   UNL     1     -12.124  12.231  66.634  1.00  0.00    -0.425 F  
HETATM    8  F   UNL     1     -10.521  14.082  64.315  1.00  0.00    -0.413 F  
HETATM    9  F   UNL     1     -12.548  14.823  64.622  1.00  0.00    -0.439 F  
HETATM   10  F   UNL     1     -12.214  12.722  64.166  1.00  0.00    -0.409 F  
ENDBRANCH   3   5
TORSDOF 1
ENDMDL
MODEL       33
REMARK 921   NORMALIZED FREE ENERGY PREDICTED BY IDOCK:   -3.60 KCAL/MOL
REMARK 922        TOTAL FREE ENERGY PREDICTED BY IDOCK:   -4.00 KCAL/MOL
REMARK 923 INTER-LIGAND FREE ENERGY PREDICTED BY IDOCK:   -3.85 KCAL/MOL
REMARK 924 INTRA-LIGAND FREE ENERGY PREDICTED BY IDOCK:   -0.16 KCAL/MOL
REMARK 927      BINDING AFFINITY PREDICTED BY RF-SCORE:    0.00 PKD
ROOT
HETATM    1  F   UNL     1     -11.383  16.589  69.955  1.00  0.00    -0.310 F  
HETATM    2  C   UNL     1     -10.878  16.104  68.797  1.00  0.00    -0.310 C  
HETATM    3  O   UNL     1     -10.748  17.177  67.895  1.00  0.00    -0.368 OA 
HETATM    4  F   UNL     1     -11.806  15.261  68.286  1.00  0.00    -0.340 F  
ENDROOT
BRANCH   3   5
HETATM    5  C   UNL     1      -9.836  18.135  68.420  1.00  0.00    -0.370 C  
HETATM    6  C   UNL     1     -10.204  19.580  68.035  1.00  0.00    -0.437 C  
HETATM    7  F   UNL     1      -8.608  17.812  67.923  1.00  0.00    -0.231 F  
HETATM    8  F   UNL     1     -10.526  20.306  69.137  1.00  0.00    -0.509 F  
HETATM    9  F   UNL     1     -11.259  19.650  67.190  1.00  0.00    -0.567 F  
HETATM   10  F   UNL     1      -9.172  20.217  67.435  1.00  0.00    -0.406 F  
ENDBRANCH   3   5
TORSDOF 1
ENDMDL
MODEL       34
REMARK 921   NORMALIZED FREE ENERGY PREDICTED BY IDOCK:   -3.59 KCAL/MOL
REMARK 922        TOTAL FREE ENERGY PREDICTED BY IDOCK:   -3.99 KCAL/MOL
REMARK 923 INTER-LIGAND FREE ENERGY PREDICTED BY IDOCK:   -3.75 KCAL/MOL
REMARK 924 INTRA-LIGAND FREE ENERGY PREDICTED BY IDOCK:   -0.24 KCAL/MOL
REMARK 927      BINDING AFFINITY PREDICTED BY RF-SCORE:    0.00 PKD
ROOT
HETATM    1  F   UNL     1      -9.814  16.714  68.749  1.00  0.00    -0.213 F  
HETATM    2  C   UNL     1     -10.857  16.661  67.888  1.00  0.00    -0.321 C  
HETATM    3  O   UNL     1     -11.284  17.979  67.639  1.00  0.00    -0.082 OA 
HETATM    4  F   UNL     1     -11.866  16.029  68.534  1.00  0.00    -0.380 F  
ENDROOT
BRANCH   3   5
HETATM    5  C   UNL     1     -10.230  18.714  67.026  1.00  0.00    -0.381 C  
HETATM    6  C   UNL     1      -9.762  19.907  67.880  1.00  0.00    -0.389 C  
HETATM    7  F   UNL     1     -10.710  19.151  65.827  1.00  0.00    -0.506 F  
HETATM    8  F   UNL     1      -8.477  19.737  68.285  1.00  0.00    -0.346 F  
HETATM    9  F   UNL     1     -10.510  20.086  68.994  1.00  0.00    -0.519 F  
HETATM   10  F   UNL     1      -9.803  21.068  67.185  1.00  0.00    -0.611 F  
ENDBRANCH   3   5
TORSDOF 1
ENDMDL
MODEL       35
REMARK 921   NORMALIZED FREE ENERGY PREDICTED BY IDOCK:   -3.57 KCAL/MOL
REMARK 922        TOTAL FREE ENERGY PREDICTED BY IDOCK:   -3.97 KCAL/MOL
REMARK 923 INTER-LIGAND FREE ENERGY PREDICTED BY IDOCK:   -3.85 KCAL/MOL
REMARK 924 INTRA-LIGAND FREE ENERGY PREDICTED BY IDOCK:   -0.12 KCAL/MOL
REMARK 927      BINDING AFFINITY PREDICTED BY RF-SCORE:    0.00 PKD
ROOT
HETATM    1  F   UNL     1     -11.462  10.153  71.345  1.00  0.00    -0.420 F  
HETATM    2  C   UNL     1     -12.607  10.835  71.108  1.00  0.00    -0.428 C  
HETATM    3  O   UNL     1     -12.264  12.089  70.568  1.00  0.00    -0.364 OA 
HETATM    4  F   UNL     1     -13.185  11.061  72.312  1.00  0.00    -0.580 F  
ENDROOT
BRANCH   3   5
HETATM    5  C   UNL     1     -11.584  11.907  69.332  1.00  0.00    -0.325 C  
HETATM    6  C   UNL     1     -11.640  13.155  68.433  1.00  0.00    -0.337 C  
HETATM    7  F   UNL     1     -12.183  10.850  68.712  1.00  0.00    -0.383 F  
HETATM    8  F   UNL     1     -10.398  13.673  68.247  1.00  0.00    -0.222 F  
HETATM    9  F   UNL     1     -12.410  14.143  68.946  1.00  0.00    -0.372 F  
HETATM   10  F   UNL     1     -12.131  12.867  67.205  1.00  0.00    -0.418 F  
ENDBRANCH   3   5
TORSDOF 1
ENDMDL
MODEL       36
REMARK 921   NORMALIZED FREE ENERGY PREDICTED BY IDOCK:   -3.56 KCAL/MOL
REMARK 922        TOTAL FREE ENERGY PREDICTED BY IDOCK:   -3.97 KCAL/MOL
REMARK 923 INTER-LIGAND FREE ENERGY PREDICTED BY IDOCK:   -3.83 KCAL/MOL
REMARK 924 INTRA-LIGAND FREE ENERGY PREDICTED BY IDOCK:   -0.13 KCAL/MOL
REMARK 927      BINDING AFFINITY PREDICTED BY RF-SCORE:    0.00 PKD
ROOT
HETATM    1  F   UNL     1     -10.947  19.354  67.307  1.00  0.00    -0.538 F  
HETATM    2  C   UNL     1     -10.468  19.391  66.042  1.00  0.00    -0.505 C  
HETATM    3  O   UNL     1      -9.697  18.232  65.834  1.00  0.00    -0.516 OA 
HETATM    4  F   UNL     1      -9.627  20.450  65.972  1.00  0.00    -0.438 F  
ENDROOT
BRANCH   3   5
HETATM    5  C   UNL     1     -10.520  17.080  65.971  1.00  0.00    -0.274 C  
HETATM    6  C   UNL     1      -9.708  15.773  66.041  1.00  0.00    -0.345 C  
HETATM    7  F   UNL     1     -11.348  17.064  64.888  1.00  0.00    -0.319 F  
HETATM    8  F   UNL     1      -9.859  15.174  67.250  1.00  0.00    -0.222 F  
HETATM    9  F   UNL     1      -8.381  15.964  65.854  1.00  0.00    -0.316 F  
HETATM   10  F   UNL     1     -10.115  14.880  65.109  1.00  0.00    -0.359 F  
ENDBRANCH   3   5
TORSDOF 1
ENDMDL
MODEL       37
REMARK 921   NORMALIZED FREE ENERGY PREDICTED BY IDOCK:   -3.56 KCAL/MOL
REMARK 922        TOTAL FREE ENERGY PREDICTED BY IDOCK:   -3.97 KCAL/MOL
REMARK 923 INTER-LIGAND FREE ENERGY PREDICTED BY IDOCK:   -3.72 KCAL/MOL
REMARK 924 INTRA-LIGAND FREE ENERGY PREDICTED BY IDOCK:   -0.24 KCAL/MOL
REMARK 927      BINDING AFFINITY PREDICTED BY RF-SCORE:    0.00 PKD
ROOT
HETATM    1  F   UNL     1     -11.091  14.131  65.616  1.00  0.00    -0.294 F  
HETATM    2  C   UNL     1     -12.252  13.755  66.202  1.00  0.00    -0.459 C  
HETATM    3  O   UNL     1     -12.372  12.358  66.073  1.00  0.00    -0.627 OA 
HETATM    4  F   UNL     1     -13.254  14.312  65.482  1.00  0.00    -0.541 F  
ENDROOT
BRANCH   3   5
HETATM    5  C   UNL     1     -11.297  11.721  66.752  1.00  0.00    -0.320 C  
HETATM    6  C   UNL     1     -10.401  10.899  65.807  1.00  0.00    -0.241 C  
HETATM    7  F   UNL     1     -11.859  10.910  67.693  1.00  0.00    -0.332 F  
HETATM    8  F   UNL     1      -9.148  11.420  65.754  1.00  0.00    -0.201 F  
HETATM    9  F   UNL     1     -10.868  10.858  64.537  1.00  0.00    -0.404 F  
HETATM   10  F   UNL     1     -10.274   9.617  66.224  1.00  0.00    -0.304 F  
ENDBRANCH   3   5
TORSDOF 1
ENDMDL
MODEL       38
REMARK 921   NORMALIZED FREE ENERGY PREDICTED BY IDOCK:   -3.56 KCAL/MOL
REMARK 922        TOTAL FREE ENERGY PREDICTED BY IDOCK:   -3.96 KCAL/MOL
REMARK 923 INTER-LIGAND FREE ENERGY PREDICTED BY IDOCK:   -3.73 KCAL/MOL
REMARK 924 INTRA-LIGAND FREE ENERGY PREDICTED BY IDOCK:   -0.23 KCAL/MOL
REMARK 927      BINDING AFFINITY PREDICTED BY RF-SCORE:    0.00 PKD
ROOT
HETATM    1  F   UNL     1     -13.312  12.347  64.685  1.00  0.00    -0.429 F  
HETATM    2  C   UNL     1     -12.468  12.002  63.684  1.00  0.00    -0.525 C  
HETATM    3  O   UNL     1     -11.676  13.124  63.375  1.00  0.00    -0.475 OA 
HETATM    4  F   UNL     1     -13.234  11.740  62.598  1.00  0.00    -0.258 F  
ENDROOT
BRANCH   3   5
HETATM    5  C   UNL     1     -10.902  13.491  64.511  1.00  0.00    -0.410 C  
HETATM    6  C   UNL     1     -11.148  14.945  64.954  1.00  0.00    -0.414 C  
HETATM    7  F   UNL     1      -9.596  13.318  64.162  1.00  0.00    -0.093 F  
HETATM    8  F   UNL     1     -11.713  14.985  66.189  1.00  0.00    -0.331 F  
HETATM    9  F   UNL     1     -11.970  15.621  64.118  1.00  0.00    -0.461 F  
HETATM   10  F   UNL     1      -9.994  15.648  65.029  1.00  0.00    -0.334 F  
ENDBRANCH   3   5
TORSDOF 1
ENDMDL
MODEL       39
REMARK 921   NORMALIZED FREE ENERGY PREDICTED BY IDOCK:   -3.54 KCAL/MOL
REMARK 922        TOTAL FREE ENERGY PREDICTED BY IDOCK:   -3.94 KCAL/MOL
REMARK 923 INTER-LIGAND FREE ENERGY PREDICTED BY IDOCK:   -3.70 KCAL/MOL
REMARK 924 INTRA-LIGAND FREE ENERGY PREDICTED BY IDOCK:   -0.24 KCAL/MOL
REMARK 927      BINDING AFFINITY PREDICTED BY RF-SCORE:    0.00 PKD
ROOT
HETATM    1  F   UNL     1     -10.177   7.190  70.084  1.00  0.00    -0.187 F  
HETATM    2  C   UNL     1     -11.093   6.194  70.069  1.00  0.00    -0.392 C  
HETATM    3  O   UNL     1     -11.920   6.345  71.198  1.00  0.00    -0.328 OA 
HETATM    4  F   UNL     1     -10.412   5.033  70.224  1.00  0.00    -0.326 F  
ENDROOT
BRANCH   3   5
HETATM    5  C   UNL     1     -12.606   7.589  71.124  1.00  0.00    -0.260 C  
HETATM    6  C   UNL     1     -12.240   8.540  72.279  1.00  0.00    -0.389 C  
HETATM    7  F   UNL     1     -13.938   7.299  71.155  1.00  0.00    -0.470 F  
HETATM    8  F   UNL     1     -11.609   9.648  71.812  1.00  0.00    -0.428 F  
HETATM    9  F   UNL     1     -11.420   7.971  73.193  1.00  0.00    -0.459 F  
HETATM   10  F   UNL     1     -13.339   8.967  72.944  1.00  0.00    -0.465 F  
ENDBRANCH   3   5
TORSDOF 1
ENDMDL
MODEL       40
REMARK 921   NORMALIZED FREE ENERGY PREDICTED BY IDOCK:   -3.53 KCAL/MOL
REMARK 922        TOTAL FREE ENERGY PREDICTED BY IDOCK:   -3.93 KCAL/MOL
REMARK 923 INTER-LIGAND FREE ENERGY PREDICTED BY IDOCK:   -3.81 KCAL/MOL
REMARK 924 INTRA-LIGAND FREE ENERGY PREDICTED BY IDOCK:   -0.13 KCAL/MOL
REMARK 927      BINDING AFFINITY PREDICTED BY RF-SCORE:    0.00 PKD
ROOT
HETATM    1  F   UNL     1     -10.553  14.264  67.208  1.00  0.00    -0.267 F  
HETATM    2  C   UNL     1     -11.882  14.059  67.352  1.00  0.00    -0.409 C  
HETATM    3  O   UNL     1     -12.136  13.783  68.709  1.00  0.00    -0.357 OA 
HETATM    4  F   UNL     1     -12.185  12.939  66.652  1.00  0.00    -0.438 F  
ENDROOT
BRANCH   3   5
HETATM    5  C   UNL     1     -11.765  14.904  69.502  1.00  0.00    -0.320 C  
HETATM    6  C   UNL     1     -12.438  14.903  70.887  1.00  0.00    -0.330 C  
HETATM    7  F   UNL     1     -12.131  16.014  68.800  1.00  0.00    -0.390 F  
HETATM    8  F   UNL     1     -11.514  14.772  71.874  1.00  0.00    -0.409 F  
HETATM    9  F   UNL     1     -13.329  13.895  71.042  1.00  0.00    -0.364 F  
HETATM   10  F   UNL     1     -13.102  16.058  71.123  1.00  0.00    -0.522 F  
ENDBRANCH   3   5
TORSDOF 1
ENDMDL
MODEL       41
REMARK 921   NORMALIZED FREE ENERGY PREDICTED BY IDOCK:   -3.52 KCAL/MOL
REMARK 922        TOTAL FREE ENERGY PREDICTED BY IDOCK:   -3.92 KCAL/MOL
REMARK 923 INTER-LIGAND FREE ENERGY PREDICTED BY IDOCK:   -3.78 KCAL/MOL
REMARK 924 INTRA-LIGAND FREE ENERGY PREDICTED BY IDOCK:   -0.15 KCAL/MOL
REMARK 927      BINDING AFFINITY PREDICTED BY RF-SCORE:    0.00 PKD
ROOT
HETATM    1  F   UNL     1     -13.223  11.684  72.314  1.00  0.00    -0.609 F  
HETATM    2  C   UNL     1     -12.780  11.228  71.119  1.00  0.00    -0.390 C  
HETATM    3  O   UNL     1     -11.818  10.230  71.363  1.00  0.00    -0.355 OA 
HETATM    4  F   UNL     1     -12.144  12.260  70.516  1.00  0.00    -0.407 F  
ENDROOT
BRANCH   3   5
HETATM    5  C   UNL     1     -12.419   9.148  72.064  1.00  0.00    -0.382 C  
HETATM    6  C   UNL     1     -11.496   7.919  72.165  1.00  0.00    -0.324 C  
HETATM    7  F   UNL     1     -13.557   8.830  71.384  1.00  0.00    -0.357 F  
HETATM    8  F   UNL     1     -11.165   7.667  73.458  1.00  0.00    -0.411 F  
HETATM    9  F   UNL     1     -10.339   8.068  71.480  1.00  0.00    -0.216 F  
HETATM   10  F   UNL     1     -12.096   6.802  71.691  1.00  0.00    -0.325 F  
ENDBRANCH   3   5
TORSDOF 1
ENDMDL
MODEL       42
REMARK 921   NORMALIZED FREE ENERGY PREDICTED BY IDOCK:   -3.52 KCAL/MOL
REMARK 922        TOTAL FREE ENERGY PREDICTED BY IDOCK:   -3.92 KCAL/MOL
REMARK 923 INTER-LIGAND FREE ENERGY PREDICTED BY IDOCK:   -3.77 KCAL/MOL
REMARK 924 INTRA-LIGAND FREE ENERGY PREDICTED BY IDOCK:   -0.14 KCAL/MOL
REMARK 927      BINDING AFFINITY PREDICTED BY RF-SCORE:    0.00 PKD
ROOT
HETATM    1  F   UNL     1     -10.761  14.597  69.028  1.00  0.00    -0.220 F  
HETATM    2  C   UNL     1     -11.492  15.599  68.485  1.00  0.00    -0.375 C  
HETATM    3  O   UNL     1     -11.087  15.758  67.146  1.00  0.00    -0.286 OA 
HETATM    4  F   UNL     1     -11.153  16.733  69.144  1.00  0.00    -0.301 F  
ENDROOT
BRANCH   3   5
HETATM    5  C   UNL     1     -11.353  14.562  66.422  1.00  0.00    -0.349 C  
HETATM    6  C   UNL     1     -11.259  14.757  64.897  1.00  0.00    -0.406 C  
HETATM    7  F   UNL     1     -12.611  14.169  66.772  1.00  0.00    -0.458 F  
HETATM    8  F   UNL     1     -10.240  14.025  64.378  1.00  0.00    -0.457 F  
HETATM    9  F   UNL     1     -11.046  16.045  64.541  1.00  0.00    -0.456 F  
HETATM   10  F   UNL     1     -12.389  14.354  64.270  1.00  0.00    -0.463 F  
ENDBRANCH   3   5
TORSDOF 1
ENDMDL
MODEL       43
REMARK 921   NORMALIZED FREE ENERGY PREDICTED BY IDOCK:   -3.52 KCAL/MOL
REMARK 922        TOTAL FREE ENERGY PREDICTED BY IDOCK:   -3.92 KCAL/MOL
REMARK 923 INTER-LIGAND FREE ENERGY PREDICTED BY IDOCK:   -3.77 KCAL/MOL
REMARK 924 INTRA-LIGAND FREE ENERGY PREDICTED BY IDOCK:   -0.15 KCAL/MOL
REMARK 927      BINDING AFFINITY PREDICTED BY RF-SCORE:    0.00 PKD
ROOT
HETATM    1  F   UNL     1      -7.842  17.576  68.111  1.00  0.00    -0.211 F  
HETATM    2  C   UNL     1      -7.335  17.703  66.862  1.00  0.00    -0.201 C  
HETATM    3  O   UNL     1      -8.401  17.979  65.985  1.00  0.00    -0.494 OA 
HETATM    4  F   UNL     1      -6.835  16.493  66.517  1.00  0.00    -0.237 F  
ENDROOT
BRANCH   3   5
HETATM    5  C   UNL     1      -9.014  19.210  66.350  1.00  0.00    -0.342 C  
HETATM    6  C   UNL     1     -10.514  19.253  66.004  1.00  0.00    -0.487 C  
HETATM    7  F   UNL     1      -8.346  20.190  65.678  1.00  0.00    -0.332 F  
HETATM    8  F   UNL     1     -11.268  19.339  67.131  1.00  0.00    -0.540 F  
HETATM    9  F   UNL     1     -10.933  18.157  65.329  1.00  0.00    -0.434 F  
HETATM   10  F   UNL     1     -10.823  20.329  65.244  1.00  0.00    -0.489 F  
ENDBRANCH   3   5
TORSDOF 1
ENDMDL
MODEL       44
REMARK 921   NORMALIZED FREE ENERGY PREDICTED BY IDOCK:   -3.51 KCAL/MOL
REMARK 922        TOTAL FREE ENERGY PREDICTED BY IDOCK:   -3.91 KCAL/MOL
REMARK 923 INTER-LIGAND FREE ENERGY PREDICTED BY IDOCK:   -3.66 KCAL/MOL
REMARK 924 INTRA-LIGAND FREE ENERGY PREDICTED BY IDOCK:   -0.24 KCAL/MOL
REMARK 927      BINDING AFFINITY PREDICTED BY RF-SCORE:    0.00 PKD
ROOT
HETATM    1  F   UNL     1     -10.552  11.169  69.470  1.00  0.00    -0.246 F  
HETATM    2  C   UNL     1     -11.822  11.630  69.395  1.00  0.00    -0.342 C  
HETATM    3  O   UNL     1     -12.665  10.691  70.020  1.00  0.00    -0.278 OA 
HETATM    4  F   UNL     1     -12.154  11.655  68.082  1.00  0.00    -0.362 F  
ENDROOT
BRANCH   3   5
HETATM    5  C   UNL     1     -12.309  10.568  71.392  1.00  0.00    -0.372 C  
HETATM    6  C   UNL     1     -11.839   9.149  71.760  1.00  0.00    -0.383 C  
HETATM    7  F   UNL     1     -13.420  10.899  72.110  1.00  0.00    -0.533 F  
HETATM    8  F   UNL     1     -10.534   9.155  72.137  1.00  0.00    -0.404 F  
HETATM    9  F   UNL     1     -11.953   8.271  70.736  1.00  0.00    -0.292 F  
HETATM   10  F   UNL     1     -12.543   8.641  72.798  1.00  0.00    -0.452 F  
ENDBRANCH   3   5
TORSDOF 1
ENDMDL
MODEL       45
REMARK 921   NORMALIZED FREE ENERGY PREDICTED BY IDOCK:   -3.50 KCAL/MOL
REMARK 922        TOTAL FREE ENERGY PREDICTED BY IDOCK:   -3.90 KCAL/MOL
REMARK 923 INTER-LIGAND FREE ENERGY PREDICTED BY IDOCK:   -3.69 KCAL/MOL
REMARK 924 INTRA-LIGAND FREE ENERGY PREDICTED BY IDOCK:   -0.21 KCAL/MOL
REMARK 927      BINDING AFFINITY PREDICTED BY RF-SCORE:    0.00 PKD
ROOT
HETATM    1  F   UNL     1      -9.025  11.406  65.147  1.00  0.00    -0.187 F  
HETATM    2  C   UNL     1     -10.113  10.771  64.653  1.00  0.00    -0.344 C  
HETATM    3  O   UNL     1     -11.215  11.639  64.772  1.00  0.00    -0.297 OA 
HETATM    4  F   UNL     1     -10.349   9.710  65.462  1.00  0.00    -0.351 F  
ENDROOT
BRANCH   3   5
HETATM    5  C   UNL     1     -10.987  12.810  63.998  1.00  0.00    -0.415 C  
HETATM    6  C   UNL     1     -11.156  14.105  64.814  1.00  0.00    -0.387 C  
HETATM    7  F   UNL     1     -11.884  12.778  62.972  1.00  0.00    -0.552 F  
HETATM    8  F   UNL     1      -9.978  14.775  64.909  1.00  0.00    -0.387 F  
HETATM    9  F   UNL     1     -11.589  13.882  66.077  1.00  0.00    -0.317 F  
HETATM   10  F   UNL     1     -12.041  14.951  64.235  1.00  0.00    -0.450 F  
ENDBRANCH   3   5
TORSDOF 1
ENDMDL
MODEL       46
REMARK 921   NORMALIZED FREE ENERGY PREDICTED BY IDOCK:   -3.50 KCAL/MOL
REMARK 922        TOTAL FREE ENERGY PREDICTED BY IDOCK:   -3.89 KCAL/MOL
REMARK 923 INTER-LIGAND FREE ENERGY PREDICTED BY IDOCK:   -3.66 KCAL/MOL
REMARK 924 INTRA-LIGAND FREE ENERGY PREDICTED BY IDOCK:   -0.24 KCAL/MOL
REMARK 927      BINDING AFFINITY PREDICTED BY RF-SCORE:    0.00 PKD
ROOT
HETATM    1  F   UNL     1      -7.284  19.776  69.104  1.00  0.00    -0.363 F  
HETATM    2  C   UNL     1      -6.892  19.579  67.824  1.00  0.00    -0.239 C  
HETATM    3  O   UNL     1      -7.981  19.041  67.112  1.00  0.00    -0.250 OA 
HETATM    4  F   UNL     1      -5.924  18.632  67.852  1.00  0.00    -0.181 F  
ENDROOT
BRANCH   3   5
HETATM    5  C   UNL     1      -9.059  19.969  67.116  1.00  0.00    -0.363 C  
HETATM    6  C   UNL     1     -10.260  19.483  67.949  1.00  0.00    -0.431 C  
HETATM    7  F   UNL     1      -9.427  20.141  65.814  1.00  0.00    -0.434 F  
HETATM    8  F   UNL     1     -10.466  20.295  69.018  1.00  0.00    -0.536 F  
HETATM    9  F   UNL     1     -10.097  18.228  68.429  1.00  0.00    -0.315 F  
HETATM   10  F   UNL     1     -11.405  19.487  67.228  1.00  0.00    -0.543 F  
ENDBRANCH   3   5
TORSDOF 1
ENDMDL
MODEL       47
REMARK 921   NORMALIZED FREE ENERGY PREDICTED BY IDOCK:   -3.46 KCAL/MOL
REMARK 922        TOTAL FREE ENERGY PREDICTED BY IDOCK:   -3.86 KCAL/MOL
REMARK 923 INTER-LIGAND FREE ENERGY PREDICTED BY IDOCK:   -3.65 KCAL/MOL
REMARK 924 INTRA-LIGAND FREE ENERGY PREDICTED BY IDOCK:   -0.21 KCAL/MOL
REMARK 927      BINDING AFFINITY PREDICTED BY RF-SCORE:    0.00 PKD
ROOT
HETATM    1  F   UNL     1     -11.706   8.021  73.045  1.00  0.00    -0.443 F  
HETATM    2  C   UNL     1     -11.013   7.712  71.925  1.00  0.00    -0.241 C  
HETATM    3  O   UNL     1     -11.506   8.508  70.874  1.00  0.00    -0.266 OA 
HETATM    4  F   UNL     1     -11.307   6.424  71.625  1.00  0.00    -0.279 F  
ENDROOT
BRANCH   3   5
HETATM    5  C   UNL     1     -11.291   9.882  71.173  1.00  0.00    -0.370 C  
HETATM    6  C   UNL     1     -12.574  10.725  71.054  1.00  0.00    -0.420 C  
HETATM    7  F   UNL     1     -10.349  10.326  70.293  1.00  0.00    -0.312 F  
HETATM    8  F   UNL     1     -12.933  11.232  72.261  1.00  0.00    -0.535 F  
HETATM    9  F   UNL     1     -13.630  10.019  70.588  1.00  0.00    -0.417 F  
HETATM   10  F   UNL     1     -12.404  11.779  70.222  1.00  0.00    -0.363 F  
ENDBRANCH   3   5
TORSDOF 1
ENDMDL
MODEL       48
REMARK 921   NORMALIZED FREE ENERGY PREDICTED BY IDOCK:   -3.46 KCAL/MOL
REMARK 922        TOTAL FREE ENERGY PREDICTED BY IDOCK:   -3.85 KCAL/MOL
REMARK 923 INTER-LIGAND FREE ENERGY PREDICTED BY IDOCK:   -3.89 KCAL/MOL
REMARK 924 INTRA-LIGAND FREE ENERGY PREDICTED BY IDOCK:    0.03 KCAL/MOL
REMARK 927      BINDING AFFINITY PREDICTED BY RF-SCORE:    0.00 PKD
ROOT
HETATM    1  F   UNL     1     -12.346  13.844  63.809  1.00  0.00    -0.498 F  
HETATM    2  C   UNL     1     -12.786  12.656  64.284  1.00  0.00    -0.305 C  
HETATM    3  O   UNL     1     -11.795  12.133  65.137  1.00  0.00    -0.358 OA 
HETATM    4  F   UNL     1     -12.883  11.820  63.223  1.00  0.00    -0.698 F  
ENDROOT
BRANCH   3   5
HETATM    5  C   UNL     1     -11.598  13.015  66.237  1.00  0.00    -0.360 C  
HETATM    6  C   UNL     1     -11.360  12.267  67.562  1.00  0.00    -0.325 C  
HETATM    7  F   UNL     1     -12.721  13.783  66.322  1.00  0.00    -0.447 F  
HETATM    8  F   UNL     1     -10.110  12.509  68.036  1.00  0.00    -0.195 F  
HETATM    9  F   UNL     1     -11.487  10.925  67.443  1.00  0.00    -0.369 F  
HETATM   10  F   UNL     1     -12.226  12.664  68.523  1.00  0.00    -0.333 F  
ENDBRANCH   3   5
TORSDOF 1
ENDMDL
MODEL       49
REMARK 921   NORMALIZED FREE ENERGY PREDICTED BY IDOCK:   -3.45 KCAL/MOL
REMARK 922        TOTAL FREE ENERGY PREDICTED BY IDOCK:   -3.85 KCAL/MOL
REMARK 923 INTER-LIGAND FREE ENERGY PREDICTED BY IDOCK:   -3.70 KCAL/MOL
REMARK 924 INTRA-LIGAND FREE ENERGY PREDICTED BY IDOCK:   -0.15 KCAL/MOL
REMARK 927      BINDING AFFINITY PREDICTED BY RF-SCORE:    0.00 PKD
ROOT
HETATM    1  F   UNL     1     -12.639  14.211  66.900  1.00  0.00    -0.440 F  
HETATM    2  C   UNL     1     -11.414  14.544  67.368  1.00  0.00    -0.368 C  
HETATM    3  O   UNL     1     -11.588  15.347  68.512  1.00  0.00    -0.336 OA 
HETATM    4  F   UNL     1     -10.829  15.316  66.422  1.00  0.00    -0.303 F  
ENDROOT
BRANCH   3   5
HETATM    5  C   UNL     1     -12.269  14.604  69.517  1.00  0.00    -0.258 C  
HETATM    6  C   UNL     1     -12.294  15.328  70.876  1.00  0.00    -0.377 C  
HETATM    7  F   UNL     1     -11.615  13.413  69.628  1.00  0.00    -0.309 F  
HETATM    8  F   UNL     1     -13.565  15.651  71.228  1.00  0.00    -0.527 F  
HETATM    9  F   UNL     1     -11.577  16.476  70.878  1.00  0.00    -0.402 F  
HETATM   10  F   UNL     1     -11.798  14.551  71.867  1.00  0.00    -0.383 F  
ENDBRANCH   3   5
TORSDOF 1
ENDMDL
MODEL       50
REMARK 921   NORMALIZED FREE ENERGY PREDICTED BY IDOCK:   -3.45 KCAL/MOL
REMARK 922        TOTAL FREE ENERGY PREDICTED BY IDOCK:   -3.84 KCAL/MOL
REMARK 923 INTER-LIGAND FREE ENERGY PREDICTED BY IDOCK:   -3.62 KCAL/MOL
REMARK 924 INTRA-LIGAND FREE ENERGY PREDICTED BY IDOCK:   -0.22 KCAL/MOL
REMARK 927      BINDING AFFINITY PREDICTED BY RF-SCORE:    0.00 PKD
ROOT
HETATM    1  F   UNL     1     -11.368  15.296  66.236  1.00  0.00    -0.335 F  
HETATM    2  C   UNL     1     -10.806  15.759  65.095  1.00  0.00    -0.428 C  
HETATM    3  O   UNL     1     -10.353  17.071  65.334  1.00  0.00    -0.617 OA 
HETATM    4  F   UNL     1     -11.795  15.838  64.174  1.00  0.00    -0.453 F  
ENDROOT
BRANCH   3   5
HETATM    5  C   UNL     1      -9.360  17.055  66.353  1.00  0.00    -0.270 C  
HETATM    6  C   UNL     1      -9.684  18.013  67.514  1.00  0.00    -0.289 C  
HETATM    7  F   UNL     1      -8.188  17.415  65.757  1.00  0.00    -0.236 F  
HETATM    8  F   UNL     1      -9.891  17.324  68.666  1.00  0.00    -0.256 F  
HETATM    9  F   UNL     1     -10.793  18.758  67.292  1.00  0.00    -0.452 F  
HETATM   10  F   UNL     1      -8.669  18.876  67.751  1.00  0.00    -0.289 F  
ENDBRANCH   3   5
TORSDOF 1
ENDMDL
MODEL       51
REMARK 921   NORMALIZED FREE ENERGY PREDICTED BY IDOCK:   -3.43 KCAL/MOL
REMARK 922        TOTAL FREE ENERGY PREDICTED BY IDOCK:   -3.83 KCAL/MOL
REMARK 923 INTER-LIGAND FREE ENERGY PREDICTED BY IDOCK:   -3.72 KCAL/MOL
REMARK 924 INTRA-LIGAND FREE ENERGY PREDICTED BY IDOCK:   -0.11 KCAL/MOL
REMARK 927      BINDING AFFINITY PREDICTED BY RF-SCORE:    0.00 PKD
ROOT
HETATM    1  F   UNL     1      -6.520  18.127  68.176  1.00  0.00    -0.179 F  
HETATM    2  C   UNL     1      -7.167  19.028  68.951  1.00  0.00    -0.329 C  
HETATM    3  O   UNL     1      -7.914  19.872  68.108  1.00  0.00    -0.306 OA 
HETATM    4  F   UNL     1      -6.216  19.790  69.542  1.00  0.00    -0.288 F  
ENDROOT
BRANCH   3   5
HETATM    5  C   UNL     1      -8.884  19.106  67.403  1.00  0.00    -0.293 C  
HETATM    6  C   UNL     1     -10.080  19.952  66.930  1.00  0.00    -0.450 C  
HETATM    7  F   UNL     1      -9.304  18.131  68.258  1.00  0.00    -0.267 F  
HETATM    8  F   UNL     1     -10.137  19.993  65.573  1.00  0.00    -0.471 F  
HETATM    9  F   UNL     1     -10.028  21.233  67.364  1.00  0.00    -0.576 F  
HETATM   10  F   UNL     1     -11.258  19.437  67.355  1.00  0.00    -0.564 F  
ENDBRANCH   3   5
TORSDOF 1
ENDMDL
MODEL       52
REMARK 921   NORMALIZED FREE ENERGY PREDICTED BY IDOCK:   -3.43 KCAL/MOL
REMARK 922        TOTAL FREE ENERGY PREDICTED BY IDOCK:   -3.83 KCAL/MOL
REMARK 923 INTER-LIGAND FREE ENERGY PREDICTED BY IDOCK:   -3.62 KCAL/MOL
REMARK 924 INTRA-LIGAND FREE ENERGY PREDICTED BY IDOCK:   -0.21 KCAL/MOL
REMARK 927      BINDING AFFINITY PREDICTED BY RF-SCORE:    0.00 PKD
ROOT
HETATM    1  F   UNL     1     -13.807   9.660  72.292  1.00  0.00    -0.438 F  
HETATM    2  C   UNL     1     -13.020  10.513  71.596  1.00  0.00    -0.476 C  
HETATM    3  O   UNL     1     -11.698  10.030  71.651  1.00  0.00    -0.345 OA 
HETATM    4  F   UNL     1     -13.042  11.695  72.257  1.00  0.00    -0.580 F  
ENDROOT
BRANCH   3   5
HETATM    5  C   UNL     1     -11.632   8.749  71.034  1.00  0.00    -0.288 C  
HETATM    6  C   UNL     1     -11.495   7.604  72.054  1.00  0.00    -0.283 C  
HETATM    7  F   UNL     1     -10.550   8.775  70.205  1.00  0.00    -0.201 F  
HETATM    8  F   UNL     1     -12.587   6.797  72.024  1.00  0.00    -0.356 F  
HETATM    9  F   UNL     1     -11.361   8.043  73.328  1.00  0.00    -0.439 F  
HETATM   10  F   UNL     1     -10.423   6.822  71.789  1.00  0.00    -0.211 F  
ENDBRANCH   3   5
TORSDOF 1
ENDMDL
MODEL       53
REMARK 921   NORMALIZED FREE ENERGY PREDICTED BY IDOCK:   -3.40 KCAL/MOL
REMARK 922        TOTAL FREE ENERGY PREDICTED BY IDOCK:   -3.79 KCAL/MOL
REMARK 923 INTER-LIGAND FREE ENERGY PREDICTED BY IDOCK:   -3.63 KCAL/MOL
REMARK 924 INTRA-LIGAND FREE ENERGY PREDICTED BY IDOCK:   -0.16 KCAL/MOL
REMARK 927      BINDING AFFINITY PREDICTED BY RF-SCORE:    0.00 PKD
ROOT
HETATM    1  F   UNL     1     -12.717  10.855  69.087  1.00  0.00    -0.265 F  
HETATM    2  C   UNL     1     -11.840  11.454  69.926  1.00  0.00    -0.359 C  
HETATM    3  O   UNL     1     -11.979  10.864  71.196  1.00  0.00    -0.314 OA 
HETATM    4  F   UNL     1     -12.227  12.747  70.040  1.00  0.00    -0.355 F  
ENDROOT
BRANCH   3   5
HETATM    5  C   UNL     1     -11.655   9.481  71.118  1.00  0.00    -0.367 C  
HETATM    6  C   UNL     1     -12.542   8.610  72.029  1.00  0.00    -0.378 C  
HETATM    7  F   UNL     1     -10.347   9.368  71.485  1.00  0.00    -0.374 F  
HETATM    8  F   UNL     1     -13.307   7.764  71.292  1.00  0.00    -0.341 F  
HETATM    9  F   UNL     1     -13.383   9.338  72.801  1.00  0.00    -0.484 F  
HETATM   10  F   UNL     1     -11.802   7.843  72.863  1.00  0.00    -0.390 F  
ENDBRANCH   3   5
TORSDOF 1
ENDMDL
MODEL       54
REMARK 921   NORMALIZED FREE ENERGY PREDICTED BY IDOCK:   -3.38 KCAL/MOL
REMARK 922        TOTAL FREE ENERGY PREDICTED BY IDOCK:   -3.77 KCAL/MOL
REMARK 923 INTER-LIGAND FREE ENERGY PREDICTED BY IDOCK:   -3.63 KCAL/MOL
REMARK 924 INTRA-LIGAND FREE ENERGY PREDICTED BY IDOCK:   -0.14 KCAL/MOL
REMARK 927      BINDING AFFINITY PREDICTED BY RF-SCORE:    0.00 PKD
ROOT
HETATM    1  F   UNL     1     -11.136  19.163  67.113  1.00  0.00    -0.530 F  
HETATM    2  C   UNL     1     -10.406  19.238  65.976  1.00  0.00    -0.475 C  
HETATM    3  O   UNL     1      -9.169  19.834  66.291  1.00  0.00    -0.369 OA 
HETATM    4  F   UNL     1     -11.059  20.085  65.146  1.00  0.00    -0.533 F  
ENDROOT
BRANCH   3   5
HETATM    5  C   UNL     1      -8.470  19.018  67.223  1.00  0.00    -0.277 C  
HETATM    6  C   UNL     1      -7.362  19.785  67.969  1.00  0.00    -0.289 C  
HETATM    7  F   UNL     1      -7.933  17.988  66.510  1.00  0.00    -0.235 F  
HETATM    8  F   UNL     1      -7.638  19.864  69.297  1.00  0.00    -0.354 F  
HETATM    9  F   UNL     1      -7.200  21.051  67.521  1.00  0.00    -0.368 F  
HETATM   10  F   UNL     1      -6.162  19.168  67.856  1.00  0.00    -0.201 F  
ENDBRANCH   3   5
TORSDOF 1
ENDMDL
MODEL       55
REMARK 921   NORMALIZED FREE ENERGY PREDICTED BY IDOCK:   -3.36 KCAL/MOL
REMARK 922        TOTAL FREE ENERGY PREDICTED BY IDOCK:   -3.75 KCAL/MOL
REMARK 923 INTER-LIGAND FREE ENERGY PREDICTED BY IDOCK:   -3.55 KCAL/MOL
REMARK 924 INTRA-LIGAND FREE ENERGY PREDICTED BY IDOCK:   -0.19 KCAL/MOL
REMARK 927      BINDING AFFINITY PREDICTED BY RF-SCORE:    0.00 PKD
ROOT
HETATM    1  F   UNL     1      -8.757  16.307  65.999  1.00  0.00    -0.325 F  
HETATM    2  C   UNL     1      -9.440  16.531  67.146  1.00  0.00    -0.239 C  
HETATM    3  O   UNL     1     -10.813  16.380  66.873  1.00  0.00    -0.249 OA 
HETATM    4  F   UNL     1      -9.237  17.829  67.476  1.00  0.00    -0.239 F  
ENDROOT
BRANCH   3   5
HETATM    5  C   UNL     1     -11.071  15.047  66.447  1.00  0.00    -0.329 C  
HETATM    6  C   UNL     1     -11.286  14.939  64.926  1.00  0.00    -0.413 C  
HETATM    7  F   UNL     1     -12.188  14.638  67.113  1.00  0.00    -0.412 F  
HETATM    8  F   UNL     1     -10.305  14.198  64.350  1.00  0.00    -0.440 F  
HETATM    9  F   UNL     1     -11.291  16.142  64.306  1.00  0.00    -0.489 F  
HETATM   10  F   UNL     1     -12.460  14.335  64.628  1.00  0.00    -0.419 F  
ENDBRANCH   3   5
TORSDOF 1
ENDMDL
MODEL       56
REMARK 921   NORMALIZED FREE ENERGY PREDICTED BY IDOCK:   -3.31 KCAL/MOL
REMARK 922        TOTAL FREE ENERGY PREDICTED BY IDOCK:   -3.69 KCAL/MOL
REMARK 923 INTER-LIGAND FREE ENERGY PREDICTED BY IDOCK:   -3.50 KCAL/MOL
REMARK 924 INTRA-LIGAND FREE ENERGY PREDICTED BY IDOCK:   -0.20 KCAL/MOL
REMARK 927      BINDING AFFINITY PREDICTED BY RF-SCORE:    0.00 PKD
ROOT
HETATM    1  F   UNL     1      -9.955  10.971  66.063  1.00  0.00    -0.235 F  
HETATM    2  C   UNL     1      -9.679  11.963  66.941  1.00  0.00    -0.200 C  
HETATM    3  O   UNL     1     -10.353  13.123  66.514  1.00  0.00    -0.273 OA 
HETATM    4  F   UNL     1      -8.351  12.212  66.846  1.00  0.00    -0.166 F  
ENDROOT
BRANCH   3   5
HETATM    5  C   UNL     1     -11.756  12.891  66.523  1.00  0.00    -0.393 C  
HETATM    6  C   UNL     1     -12.438  13.317  65.210  1.00  0.00    -0.489 C  
HETATM    7  F   UNL     1     -12.260  13.604  67.570  1.00  0.00    -0.395 F  
HETATM    8  F   UNL     1     -12.962  12.242  64.566  1.00  0.00    -0.549 F  
HETATM    9  F   UNL     1     -11.590  13.923  64.346  1.00  0.00    -0.359 F  
HETATM   10  F   UNL     1     -13.459  14.177  65.431  1.00  0.00    -0.436 F  
ENDBRANCH   3   5
TORSDOF 1
ENDMDL
MODEL       57
REMARK 921   NORMALIZED FREE ENERGY PREDICTED BY IDOCK:   -3.26 KCAL/MOL
REMARK 922        TOTAL FREE ENERGY PREDICTED BY IDOCK:   -3.64 KCAL/MOL
REMARK 923 INTER-LIGAND FREE ENERGY PREDICTED BY IDOCK:   -3.50 KCAL/MOL
REMARK 924 INTRA-LIGAND FREE ENERGY PREDICTED BY IDOCK:   -0.15 KCAL/MOL
REMARK 927      BINDING AFFINITY PREDICTED BY RF-SCORE:    0.00 PKD
ROOT
HETATM    1  F   UNL     1     -10.007  20.874  67.064  1.00  0.00    -0.602 F  
HETATM    2  C   UNL     1     -10.504  19.671  66.693  1.00  0.00    -0.497 C  
HETATM    3  O   UNL     1      -9.450  18.737  66.722  1.00  0.00    -0.297 OA 
HETATM    4  F   UNL     1     -10.899  19.790  65.403  1.00  0.00    -0.595 F  
ENDROOT
BRANCH   3   5
HETATM    5  C   UNL     1      -8.945  18.628  68.047  1.00  0.00    -0.302 C  
HETATM    6  C   UNL     1      -7.978  17.442  68.219  1.00  0.00    -0.253 C  
HETATM    7  F   UNL     1     -10.027  18.477  68.863  1.00  0.00    -0.358 F  
HETATM    8  F   UNL     1      -6.726  17.877  68.517  1.00  0.00    -0.195 F  
HETATM    9  F   UNL     1      -7.878  16.675  67.108  1.00  0.00    -0.160 F  
HETATM   10  F   UNL     1      -8.359  16.626  69.230  1.00  0.00    -0.239 F  
ENDBRANCH   3   5
TORSDOF 1
ENDMDL
MODEL       58
REMARK 921   NORMALIZED FREE ENERGY PREDICTED BY IDOCK:   -3.26 KCAL/MOL
REMARK 922        TOTAL FREE ENERGY PREDICTED BY IDOCK:   -3.64 KCAL/MOL
REMARK 923 INTER-LIGAND FREE ENERGY PREDICTED BY IDOCK:   -3.45 KCAL/MOL
REMARK 924 INTRA-LIGAND FREE ENERGY PREDICTED BY IDOCK:   -0.19 KCAL/MOL
REMARK 927      BINDING AFFINITY PREDICTED BY RF-SCORE:    0.00 PKD
ROOT
HETATM    1  F   UNL     1     -12.705  12.405  64.638  1.00  0.00    -0.523 F  
HETATM    2  C   UNL     1     -12.100  12.423  63.428  1.00  0.00    -0.524 C  
HETATM    3  O   UNL     1     -10.708  12.366  63.636  1.00  0.00    -0.417 OA 
HETATM    4  F   UNL     1     -12.373  13.626  62.869  1.00  0.00    -0.516 F  
ENDROOT
BRANCH   3   5
HETATM    5  C   UNL     1     -10.372  11.149  64.291  1.00  0.00    -0.351 C  
HETATM    6  C   UNL     1     -10.071  11.344  65.789  1.00  0.00    -0.246 C  
HETATM    7  F   UNL     1      -9.275  10.654  63.650  1.00  0.00    -0.189 F  
HETATM    8  F   UNL     1     -10.988  10.697  66.554  1.00  0.00    -0.288 F  
HETATM    9  F   UNL     1     -10.083  12.643  66.167  1.00  0.00    -0.235 F  
HETATM   10  F   UNL     1      -8.859  10.845  66.126  1.00  0.00    -0.160 F  
ENDBRANCH   3   5
TORSDOF 1
ENDMDL
MODEL       59
REMARK 921   NORMALIZED FREE ENERGY PREDICTED BY IDOCK:   -3.26 KCAL/MOL
REMARK 922        TOTAL FREE ENERGY PREDICTED BY IDOCK:   -3.64 KCAL/MOL
REMARK 923 INTER-LIGAND FREE ENERGY PREDICTED BY IDOCK:   -3.45 KCAL/MOL
REMARK 924 INTRA-LIGAND FREE ENERGY PREDICTED BY IDOCK:   -0.19 KCAL/MOL
REMARK 927      BINDING AFFINITY PREDICTED BY RF-SCORE:    0.00 PKD
ROOT
HETATM    1  F   UNL     1     -10.881  15.628  64.331  1.00  0.00    -0.380 F  
HETATM    2  C   UNL     1     -10.343  15.877  65.548  1.00  0.00    -0.400 C  
HETATM    3  O   UNL     1     -10.986  15.047  66.486  1.00  0.00    -0.321 OA 
HETATM    4  F   UNL     1     -10.658  17.156  65.862  1.00  0.00    -0.347 F  
ENDROOT
BRANCH   3   5
HETATM    5  C   UNL     1     -10.750  13.683  66.159  1.00  0.00    -0.286 C  
HETATM    6  C   UNL     1     -11.963  13.014  65.487  1.00  0.00    -0.424 C  
HETATM    7  F   UNL     1     -10.449  13.051  67.328  1.00  0.00    -0.233 F  
HETATM    8  F   UNL     1     -11.671  12.653  64.211  1.00  0.00    -0.351 F  
HETATM    9  F   UNL     1     -13.049  13.820  65.433  1.00  0.00    -0.517 F  
HETATM   10  F   UNL     1     -12.337  11.887  66.136  1.00  0.00    -0.196 F  
ENDBRANCH   3   5
TORSDOF 1
ENDMDL
MODEL       60
REMARK 921   NORMALIZED FREE ENERGY PREDICTED BY IDOCK:   -3.25 KCAL/MOL
REMARK 922        TOTAL FREE ENERGY PREDICTED BY IDOCK:   -3.63 KCAL/MOL
REMARK 923 INTER-LIGAND FREE ENERGY PREDICTED BY IDOCK:   -3.49 KCAL/MOL
REMARK 924 INTRA-LIGAND FREE ENERGY PREDICTED BY IDOCK:   -0.14 KCAL/MOL
REMARK 927      BINDING AFFINITY PREDICTED BY RF-SCORE:    0.00 PKD
ROOT
HETATM    1  F   UNL     1     -12.957  13.275  65.085  1.00  0.00    -0.491 F  
HETATM    2  C   UNL     1     -11.918  13.805  64.400  1.00  0.00    -0.445 C  
HETATM    3  O   UNL     1     -11.591  15.041  64.991  1.00  0.00    -0.366 OA 
HETATM    4  F   UNL     1     -12.364  14.065  63.148  1.00  0.00    -0.413 F  
ENDROOT
BRANCH   3   5
HETATM    5  C   UNL     1     -11.185  14.834  66.338  1.00  0.00    -0.342 C  
HETATM    6  C   UNL     1     -10.489  16.066  66.946  1.00  0.00    -0.306 C  
HETATM    7  F   UNL     1     -10.334  13.769  66.327  1.00  0.00    -0.271 F  
HETATM    8  F   UNL     1     -11.218  16.577  67.971  1.00  0.00    -0.345 F  
HETATM    9  F   UNL     1     -10.307  17.065  66.052  1.00  0.00    -0.313 F  
HETATM   10  F   UNL     1      -9.271  15.757  67.448  1.00  0.00    -0.194 F  
ENDBRANCH   3   5
TORSDOF 1
ENDMDL
MODEL       61
REMARK 921   NORMALIZED FREE ENERGY PREDICTED BY IDOCK:   -3.23 KCAL/MOL
REMARK 922        TOTAL FREE ENERGY PREDICTED BY IDOCK:   -3.61 KCAL/MOL
REMARK 923 INTER-LIGAND FREE ENERGY PREDICTED BY IDOCK:   -3.38 KCAL/MOL
REMARK 924 INTRA-LIGAND FREE ENERGY PREDICTED BY IDOCK:   -0.24 KCAL/MOL
REMARK 927      BINDING AFFINITY PREDICTED BY RF-SCORE:    0.00 PKD
ROOT
HETATM    1  F   UNL     1     -11.427   9.698  69.973  1.00  0.00    -0.249 F  
HETATM    2  C   UNL     1     -11.855  10.116  71.187  1.00  0.00    -0.381 C  
HETATM    3  O   UNL     1     -12.482   9.030  71.826  1.00  0.00    -0.323 OA 
HETATM    4  F   UNL     1     -12.805  11.055  70.966  1.00  0.00    -0.403 F  
ENDROOT
BRANCH   3   5
HETATM    5  C   UNL     1     -11.541   7.980  72.016  1.00  0.00    -0.316 C  
HETATM    6  C   UNL     1     -11.971   6.666  71.337  1.00  0.00    -0.353 C  
HETATM    7  F   UNL     1     -11.428   7.801  73.363  1.00  0.00    -0.393 F  
HETATM    8  F   UNL     1     -11.106   6.328  70.346  1.00  0.00    -0.300 F  
HETATM    9  F   UNL     1     -13.204   6.736  70.783  1.00  0.00    -0.331 F  
HETATM   10  F   UNL     1     -11.988   5.633  72.211  1.00  0.00    -0.328 F  
ENDBRANCH   3   5
TORSDOF 1
ENDMDL
MODEL       62
REMARK 921   NORMALIZED FREE ENERGY PREDICTED BY IDOCK:   -3.22 KCAL/MOL
REMARK 922        TOTAL FREE ENERGY PREDICTED BY IDOCK:   -3.60 KCAL/MOL
REMARK 923 INTER-LIGAND FREE ENERGY PREDICTED BY IDOCK:   -3.48 KCAL/MOL
REMARK 924 INTRA-LIGAND FREE ENERGY PREDICTED BY IDOCK:   -0.12 KCAL/MOL
REMARK 927      BINDING AFFINITY PREDICTED BY RF-SCORE:    0.00 PKD
ROOT
HETATM    1  F   UNL     1     -10.485  10.750  69.888  1.00  0.00    -0.261 F  
HETATM    2  C   UNL     1     -11.767  11.169  69.781  1.00  0.00    -0.345 C  
HETATM    3  O   UNL     1     -11.781  12.330  68.984  1.00  0.00    -0.287 OA 
HETATM    4  F   UNL     1     -12.167  11.531  71.024  1.00  0.00    -0.433 F  
ENDROOT
BRANCH   3   5
HETATM    5  C   UNL     1     -11.297  12.021  67.683  1.00  0.00    -0.307 C  
HETATM    6  C   UNL     1     -11.735  13.052  66.625  1.00  0.00    -0.381 C  
HETATM    7  F   UNL     1     -11.786  10.787  67.370  1.00  0.00    -0.323 F  
HETATM    8  F   UNL     1     -10.661  13.708  66.116  1.00  0.00    -0.278 F  
HETATM    9  F   UNL     1     -12.578  13.990  67.118  1.00  0.00    -0.379 F  
HETATM   10  F   UNL     1     -12.364  12.463  65.582  1.00  0.00    -0.485 F  
ENDBRANCH   3   5
TORSDOF 1
ENDMDL
MODEL       63
REMARK 921   NORMALIZED FREE ENERGY PREDICTED BY IDOCK:   -3.22 KCAL/MOL
REMARK 922        TOTAL FREE ENERGY PREDICTED BY IDOCK:   -3.60 KCAL/MOL
REMARK 923 INTER-LIGAND FREE ENERGY PREDICTED BY IDOCK:   -3.37 KCAL/MOL
REMARK 924 INTRA-LIGAND FREE ENERGY PREDICTED BY IDOCK:   -0.23 KCAL/MOL
REMARK 927      BINDING AFFINITY PREDICTED BY RF-SCORE:    0.00 PKD
ROOT
HETATM    1  F   UNL     1     -11.360  15.329  69.128  1.00  0.00    -0.236 F  
HETATM    2  C   UNL     1     -11.243  16.015  67.967  1.00  0.00    -0.303 C  
HETATM    3  O   UNL     1     -10.992  15.088  66.937  1.00  0.00    -0.314 OA 
HETATM    4  F   UNL     1     -10.141  16.794  68.082  1.00  0.00    -0.246 F  
ENDROOT
BRANCH   3   5
HETATM    5  C   UNL     1     -12.091  14.192  66.822  1.00  0.00    -0.442 C  
HETATM    6  C   UNL     1     -11.672  12.716  66.953  1.00  0.00    -0.383 C  
HETATM    7  F   UNL     1     -12.649  14.418  65.598  1.00  0.00    -0.426 F  
HETATM    8  F   UNL     1     -12.221  12.155  68.061  1.00  0.00    -0.376 F  
HETATM    9  F   UNL     1     -10.332  12.553  67.048  1.00  0.00    -0.220 F  
HETATM   10  F   UNL     1     -12.087  11.981  65.896  1.00  0.00    -0.424 F  
ENDBRANCH   3   5
TORSDOF 1
ENDMDL
MODEL       64
REMARK 921   NORMALIZED FREE ENERGY PREDICTED BY IDOCK:   -3.21 KCAL/MOL
REMARK 922        TOTAL FREE ENERGY PREDICTED BY IDOCK:   -3.60 KCAL/MOL
REMARK 923 INTER-LIGAND FREE ENERGY PREDICTED BY IDOCK:   -3.38 KCAL/MOL
REMARK 924 INTRA-LIGAND FREE ENERGY PREDICTED BY IDOCK:   -0.22 KCAL/MOL
REMARK 927      BINDING AFFINITY PREDICTED BY RF-SCORE:    0.00 PKD
ROOT
HETATM    1  F   UNL     1     -12.656  14.396  65.126  1.00  0.00    -0.424 F  
HETATM    2  C   UNL     1     -11.458  14.976  64.879  1.00  0.00    -0.399 C  
HETATM    3  O   UNL     1     -10.949  15.462  66.098  1.00  0.00    -0.323 OA 
HETATM    4  F   UNL     1     -11.697  16.049  64.088  1.00  0.00    -0.487 F  
ENDROOT
BRANCH   3   5
HETATM    5  C   UNL     1     -10.749  14.378  66.998  1.00  0.00    -0.285 C  
HETATM    6  C   UNL     1     -11.447  14.593  68.354  1.00  0.00    -0.311 C  
HETATM    7  F   UNL     1      -9.401  14.264  67.173  1.00  0.00    -0.196 F  
HETATM    8  F   UNL     1     -12.423  13.669  68.547  1.00  0.00    -0.350 F  
HETATM    9  F   UNL     1     -12.025  15.812  68.463  1.00  0.00    -0.373 F  
HETATM   10  F   UNL     1     -10.582  14.471  69.388  1.00  0.00    -0.232 F  
ENDBRANCH   3   5
TORSDOF 1
ENDMDL
MODEL       65
REMARK 921   NORMALIZED FREE ENERGY PREDICTED BY IDOCK:   -3.21 KCAL/MOL
REMARK 922        TOTAL FREE ENERGY PREDICTED BY IDOCK:   -3.59 KCAL/MOL
REMARK 923 INTER-LIGAND FREE ENERGY PREDICTED BY IDOCK:   -3.35 KCAL/MOL
REMARK 924 INTRA-LIGAND FREE ENERGY PREDICTED BY IDOCK:   -0.23 KCAL/MOL
REMARK 927      BINDING AFFINITY PREDICTED BY RF-SCORE:    0.00 PKD
ROOT
HETATM    1  F   UNL     1     -11.160  16.022  69.877  1.00  0.00    -0.253 F  
HETATM    2  C   UNL     1     -11.885  15.231  70.701  1.00  0.00    -0.335 C  
HETATM    3  O   UNL     1     -12.531  14.257  69.915  1.00  0.00    -0.337 OA 
HETATM    4  F   UNL     1     -12.850  16.011  71.245  1.00  0.00    -0.501 F  
ENDROOT
BRANCH   3   5
HETATM    5  C   UNL     1     -11.559  13.453  69.257  1.00  0.00    -0.310 C  
HETATM    6  C   UNL     1     -11.523  13.688  67.736  1.00  0.00    -0.318 C  
HETATM    7  F   UNL     1     -11.883  12.156  69.527  1.00  0.00    -0.317 F  
HETATM    8  F   UNL     1     -10.331  14.219  67.357  1.00  0.00    -0.250 F  
HETATM    9  F   UNL     1     -12.489  14.534  67.308  1.00  0.00    -0.372 F  
HETATM   10  F   UNL     1     -11.674  12.534  67.046  1.00  0.00    -0.359 F  
ENDBRANCH   3   5
TORSDOF 1
ENDMDL
MODEL       66
REMARK 921   NORMALIZED FREE ENERGY PREDICTED BY IDOCK:   -3.19 KCAL/MOL
REMARK 922        TOTAL FREE ENERGY PREDICTED BY IDOCK:   -3.57 KCAL/MOL
REMARK 923 INTER-LIGAND FREE ENERGY PREDICTED BY IDOCK:   -3.33 KCAL/MOL
REMARK 924 INTRA-LIGAND FREE ENERGY PREDICTED BY IDOCK:   -0.24 KCAL/MOL
REMARK 927      BINDING AFFINITY PREDICTED BY RF-SCORE:    0.00 PKD
ROOT
HETATM    1  F   UNL     1      -8.617  19.216  68.214  1.00  0.00    -0.315 F  
HETATM    2  C   UNL     1      -8.697  19.865  67.030  1.00  0.00    -0.334 C  
HETATM    3  O   UNL     1      -8.968  18.913  66.028  1.00  0.00    -0.470 OA 
HETATM    4  F   UNL     1      -7.467  20.373  66.777  1.00  0.00    -0.285 F  
ENDROOT
BRANCH   3   5
HETATM    5  C   UNL     1     -10.221  18.291  66.288  1.00  0.00    -0.401 C  
HETATM    6  C   UNL     1     -10.085  16.793  66.619  1.00  0.00    -0.300 C  
HETATM    7  F   UNL     1     -10.977  18.459  65.165  1.00  0.00    -0.427 F  
HETATM    8  F   UNL     1     -10.479  16.543  67.895  1.00  0.00    -0.269 F  
HETATM    9  F   UNL     1      -8.816  16.338  66.498  1.00  0.00    -0.212 F  
HETATM   10  F   UNL     1     -10.859  16.029  65.814  1.00  0.00    -0.319 F  
ENDBRANCH   3   5
TORSDOF 1
ENDMDL
MODEL       67
REMARK 921   NORMALIZED FREE ENERGY PREDICTED BY IDOCK:   -3.19 KCAL/MOL
REMARK 922        TOTAL FREE ENERGY PREDICTED BY IDOCK:   -3.57 KCAL/MOL
REMARK 923 INTER-LIGAND FREE ENERGY PREDICTED BY IDOCK:   -3.44 KCAL/MOL
REMARK 924 INTRA-LIGAND FREE ENERGY PREDICTED BY IDOCK:   -0.13 KCAL/MOL
REMARK 927      BINDING AFFINITY PREDICTED BY RF-SCORE:    0.00 PKD
ROOT
HETATM    1  F   UNL     1     -13.005  12.281  64.632  1.00  0.00    -0.555 F  
HETATM    2  C   UNL     1     -11.922  12.627  63.897  1.00  0.00    -0.479 C  
HETATM    3  O   UNL     1     -11.242  13.654  64.579  1.00  0.00    -0.359 OA 
HETATM    4  F   UNL     1     -12.387  13.154  62.739  1.00  0.00    -0.477 F  
ENDROOT
BRANCH   3   5
HETATM    5  C   UNL     1     -10.795  13.173  65.842  1.00  0.00    -0.273 C  
HETATM    6  C   UNL     1      -9.673  14.039  66.444  1.00  0.00    -0.296 C  
HETATM    7  F   UNL     1     -10.351  11.901  65.637  1.00  0.00    -0.245 F  
HETATM    8  F   UNL     1     -10.087  14.635  67.593  1.00  0.00    -0.223 F  
HETATM    9  F   UNL     1      -9.260  15.024  65.613  1.00  0.00    -0.329 F  
HETATM   10  F   UNL     1      -8.583  13.301  66.757  1.00  0.00    -0.202 F  
ENDBRANCH   3   5
TORSDOF 1
ENDMDL
MODEL       68
REMARK 921   NORMALIZED FREE ENERGY PREDICTED BY IDOCK:   -3.19 KCAL/MOL
REMARK 922        TOTAL FREE ENERGY PREDICTED BY IDOCK:   -3.57 KCAL/MOL
REMARK 923 INTER-LIGAND FREE ENERGY PREDICTED BY IDOCK:   -3.52 KCAL/MOL
REMARK 924 INTRA-LIGAND FREE ENERGY PREDICTED BY IDOCK:   -0.05 KCAL/MOL
REMARK 927      BINDING AFFINITY PREDICTED BY RF-SCORE:    0.00 PKD
ROOT
HETATM    1  F   UNL     1     -12.662  14.812  64.512  1.00  0.00    -0.445 F  
HETATM    2  C   UNL     1     -11.386  14.400  64.694  1.00  0.00    -0.371 C  
HETATM    3  O   UNL     1     -11.216  14.096  66.058  1.00  0.00    -0.310 OA 
HETATM    4  F   UNL     1     -10.588  15.459  64.417  1.00  0.00    -0.323 F  
ENDROOT
BRANCH   3   5
HETATM    5  C   UNL     1     -12.089  13.034  66.423  1.00  0.00    -0.358 C  
HETATM    6  C   UNL     1     -11.513  12.149  67.544  1.00  0.00    -0.340 C  
HETATM    7  F   UNL     1     -12.292  12.295  65.296  1.00  0.00    -0.475 F  
HETATM    8  F   UNL     1     -12.272  12.236  68.667  1.00  0.00    -0.339 F  
HETATM    9  F   UNL     1     -10.250  12.489  67.891  1.00  0.00    -0.199 F  
HETATM   10  F   UNL     1     -11.488  10.843  67.189  1.00  0.00    -0.360 F  
ENDBRANCH   3   5
TORSDOF 1
ENDMDL
MODEL       69
REMARK 921   NORMALIZED FREE ENERGY PREDICTED BY IDOCK:   -3.19 KCAL/MOL
REMARK 922        TOTAL FREE ENERGY PREDICTED BY IDOCK:   -3.57 KCAL/MOL
REMARK 923 INTER-LIGAND FREE ENERGY PREDICTED BY IDOCK:   -3.43 KCAL/MOL
REMARK 924 INTRA-LIGAND FREE ENERGY PREDICTED BY IDOCK:   -0.14 KCAL/MOL
REMARK 927      BINDING AFFINITY PREDICTED BY RF-SCORE:    0.00 PKD
ROOT
HETATM    1  F   UNL     1      -9.825   7.877  70.552  1.00  0.00    -0.182 F  
HETATM    2  C   UNL     1     -10.153   9.096  71.040  1.00  0.00    -0.303 C  
HETATM    3  O   UNL     1     -11.543   9.265  70.893  1.00  0.00    -0.274 OA 
HETATM    4  F   UNL     1      -9.551  10.012  70.245  1.00  0.00    -0.272 F  
ENDROOT
BRANCH   3   5
HETATM    5  C   UNL     1     -12.228   8.276  71.653  1.00  0.00    -0.313 C  
HETATM    6  C   UNL     1     -13.759   8.427  71.583  1.00  0.00    -0.364 C  
HETATM    7  F   UNL     1     -11.798   8.410  72.940  1.00  0.00    -0.452 F  
HETATM    8  F   UNL     1     -14.323   7.355  70.969  1.00  0.00    -0.505 F  
HETATM    9  F   UNL     1     -14.151   9.528  70.901  1.00  0.00    -0.338 F  
HETATM   10  F   UNL     1     -14.311   8.507  72.816  1.00  0.00    -0.422 F  
ENDBRANCH   3   5
TORSDOF 1
ENDMDL
MODEL       70
REMARK 921   NORMALIZED FREE ENERGY PREDICTED BY IDOCK:   -3.18 KCAL/MOL
REMARK 922        TOTAL FREE ENERGY PREDICTED BY IDOCK:   -3.56 KCAL/MOL
REMARK 923 INTER-LIGAND FREE ENERGY PREDICTED BY IDOCK:   -3.32 KCAL/MOL
REMARK 924 INTRA-LIGAND FREE ENERGY PREDICTED BY IDOCK:   -0.24 KCAL/MOL
REMARK 927      BINDING AFFINITY PREDICTED BY RF-SCORE:    0.00 PKD
ROOT
HETATM    1  F   UNL     1     -11.046   5.976  71.261  1.00  0.00    -0.302 F  
HETATM    2  C   UNL     1     -11.617   6.058  72.485  1.00  0.00    -0.267 C  
HETATM    3  O   UNL     1     -11.517   7.391  72.925  1.00  0.00    -0.298 OA 
HETATM    4  F   UNL     1     -10.865   5.302  73.320  1.00  0.00    -0.231 F  
ENDROOT
BRANCH   3   5
HETATM    5  C   UNL     1     -12.231   8.242  72.036  1.00  0.00    -0.348 C  
HETATM    6  C   UNL     1     -11.330   9.301  71.373  1.00  0.00    -0.364 C  
HETATM    7  F   UNL     1     -13.203   8.847  72.777  1.00  0.00    -0.463 F  
HETATM    8  F   UNL     1     -11.263   9.107  70.031  1.00  0.00    -0.244 F  
HETATM    9  F   UNL     1     -10.060   9.282  71.841  1.00  0.00    -0.397 F  
HETATM   10  F   UNL     1     -11.804  10.554  71.564  1.00  0.00    -0.407 F  
ENDBRANCH   3   5
TORSDOF 1
ENDMDL
MODEL       71
REMARK 921   NORMALIZED FREE ENERGY PREDICTED BY IDOCK:   -3.18 KCAL/MOL
REMARK 922        TOTAL FREE ENERGY PREDICTED BY IDOCK:   -3.56 KCAL/MOL
REMARK 923 INTER-LIGAND FREE ENERGY PREDICTED BY IDOCK:   -3.42 KCAL/MOL
REMARK 924 INTRA-LIGAND FREE ENERGY PREDICTED BY IDOCK:   -0.14 KCAL/MOL
REMARK 927      BINDING AFFINITY PREDICTED BY RF-SCORE:    0.00 PKD
ROOT
HETATM    1  F   UNL     1     -10.224  16.628  66.981  1.00  0.00    -0.264 F  
HETATM    2  C   UNL     1      -9.786  16.041  65.843  1.00  0.00    -0.343 C  
HETATM    3  O   UNL     1      -9.969  14.651  65.971  1.00  0.00    -0.284 OA 
HETATM    4  F   UNL     1      -8.452  16.266  65.775  1.00  0.00    -0.336 F  
ENDROOT
BRANCH   3   5
HETATM    5  C   UNL     1     -11.354  14.364  66.122  1.00  0.00    -0.350 C  
HETATM    6  C   UNL     1     -11.624  12.875  66.410  1.00  0.00    -0.371 C  
HETATM    7  F   UNL     1     -11.956  14.736  64.956  1.00  0.00    -0.359 F  
HETATM    8  F   UNL     1     -12.163  12.712  67.646  1.00  0.00    -0.387 F  
HETATM    9  F   UNL     1     -10.506  12.115  66.361  1.00  0.00    -0.237 F  
HETATM   10  F   UNL     1     -12.503  12.345  65.527  1.00  0.00    -0.492 F  
ENDBRANCH   3   5
TORSDOF 1
ENDMDL
MODEL       72
REMARK 921   NORMALIZED FREE ENERGY PREDICTED BY IDOCK:   -3.18 KCAL/MOL
REMARK 922        TOTAL FREE ENERGY PREDICTED BY IDOCK:   -3.56 KCAL/MOL
REMARK 923 INTER-LIGAND FREE ENERGY PREDICTED BY IDOCK:   -3.35 KCAL/MOL
REMARK 924 INTRA-LIGAND FREE ENERGY PREDICTED BY IDOCK:   -0.21 KCAL/MOL
REMARK 927      BINDING AFFINITY PREDICTED BY RF-SCORE:    0.00 PKD
ROOT
HETATM    1  F   UNL     1      -7.493  17.647  66.921  1.00  0.00    -0.186 F  
HETATM    2  C   UNL     1      -8.463  17.304  66.043  1.00  0.00    -0.101 C  
HETATM    3  O   UNL     1      -9.603  18.081  66.327  1.00  0.00    -0.375 OA 
HETATM    4  F   UNL     1      -8.784  16.013  66.299  1.00  0.00    -0.271 F  
ENDROOT
BRANCH   3   5
HETATM    5  C   UNL     1      -9.298  19.459  66.147  1.00  0.00    -0.300 C  
HETATM    6  C   UNL     1      -9.130  20.210  67.481  1.00  0.00    -0.356 C  
HETATM    7  F   UNL     1     -10.329  19.992  65.431  1.00  0.00    -0.488 F  
HETATM    8  F   UNL     1      -7.856  20.659  67.625  1.00  0.00    -0.340 F  
HETATM    9  F   UNL     1      -9.405  19.441  68.560  1.00  0.00    -0.368 F  
HETATM   10  F   UNL     1      -9.937  21.295  67.550  1.00  0.00    -0.568 F  
ENDBRANCH   3   5
TORSDOF 1
ENDMDL
MODEL       73
REMARK 921   NORMALIZED FREE ENERGY PREDICTED BY IDOCK:   -3.14 KCAL/MOL
REMARK 922        TOTAL FREE ENERGY PREDICTED BY IDOCK:   -3.52 KCAL/MOL
REMARK 923 INTER-LIGAND FREE ENERGY PREDICTED BY IDOCK:   -3.30 KCAL/MOL
REMARK 924 INTRA-LIGAND FREE ENERGY PREDICTED BY IDOCK:   -0.22 KCAL/MOL
REMARK 927      BINDING AFFINITY PREDICTED BY RF-SCORE:    0.00 PKD
ROOT
HETATM    1  F   UNL     1      -9.181  16.761  68.061  1.00  0.00    -0.214 F  
HETATM    2  C   UNL     1     -10.214  17.539  68.461  1.00  0.00    -0.378 C  
HETATM    3  O   UNL     1      -9.692  18.782  68.865  1.00  0.00    -0.372 OA 
HETATM    4  F   UNL     1     -10.745  16.951  69.559  1.00  0.00    -0.307 F  
ENDROOT
BRANCH   3   5
HETATM    5  C   UNL     1      -9.053  19.414  67.761  1.00  0.00    -0.315 C  
HETATM    6  C   UNL     1      -7.603  19.828  68.071  1.00  0.00    -0.299 C  
HETATM    7  F   UNL     1      -9.803  20.511  67.455  1.00  0.00    -0.522 F  
HETATM    8  F   UNL     1      -6.727  19.138  67.296  1.00  0.00    -0.193 F  
HETATM    9  F   UNL     1      -7.253  19.606  69.359  1.00  0.00    -0.376 F  
HETATM   10  F   UNL     1      -7.393  21.142  67.824  1.00  0.00    -0.326 F  
ENDBRANCH   3   5
TORSDOF 1
ENDMDL
MODEL       74
REMARK 921   NORMALIZED FREE ENERGY PREDICTED BY IDOCK:   -3.14 KCAL/MOL
REMARK 922        TOTAL FREE ENERGY PREDICTED BY IDOCK:   -3.52 KCAL/MOL
REMARK 923 INTER-LIGAND FREE ENERGY PREDICTED BY IDOCK:   -3.27 KCAL/MOL
REMARK 924 INTRA-LIGAND FREE ENERGY PREDICTED BY IDOCK:   -0.24 KCAL/MOL
REMARK 927      BINDING AFFINITY PREDICTED BY RF-SCORE:    0.00 PKD
ROOT
HETATM    1  F   UNL     1      -9.530  16.198  69.404  1.00  0.00    -0.234 F  
HETATM    2  C   UNL     1     -10.789  15.724  69.555  1.00  0.00    -0.287 C  
HETATM    3  O   UNL     1     -11.530  16.087  68.414  1.00  0.00    -0.369 OA 
HETATM    4  F   UNL     1     -11.330  16.378  70.609  1.00  0.00    -0.368 F  
ENDROOT
BRANCH   3   5
HETATM    5  C   UNL     1     -10.957  15.484  67.260  1.00  0.00    -0.303 C  
HETATM    6  C   UNL     1     -10.378  16.517  66.275  1.00  0.00    -0.320 C  
HETATM    7  F   UNL     1     -11.951  14.767  66.663  1.00  0.00    -0.371 F  
HETATM    8  F   UNL     1      -9.031  16.380  66.167  1.00  0.00    -0.287 F  
HETATM    9  F   UNL     1     -10.619  17.796  66.647  1.00  0.00    -0.336 F  
HETATM   10  F   UNL     1     -10.888  16.363  65.031  1.00  0.00    -0.398 F  
ENDBRANCH   3   5
TORSDOF 1
ENDMDL
MODEL       75
REMARK 921   NORMALIZED FREE ENERGY PREDICTED BY IDOCK:   -3.10 KCAL/MOL
REMARK 922        TOTAL FREE ENERGY PREDICTED BY IDOCK:   -3.48 KCAL/MOL
REMARK 923 INTER-LIGAND FREE ENERGY PREDICTED BY IDOCK:   -3.24 KCAL/MOL
REMARK 924 INTRA-LIGAND FREE ENERGY PREDICTED BY IDOCK:   -0.24 KCAL/MOL
REMARK 927      BINDING AFFINITY PREDICTED BY RF-SCORE:    0.00 PKD
ROOT
HETATM    1  F   UNL     1     -12.712  13.202  71.237  1.00  0.00    -0.410 F  
HETATM    2  C   UNL     1     -12.335  14.497  71.125  1.00  0.00    -0.345 C  
HETATM    3  O   UNL     1     -11.394  14.587  70.081  1.00  0.00    -0.252 OA 
HETATM    4  F   UNL     1     -11.693  14.820  72.272  1.00  0.00    -0.406 F  
ENDROOT
BRANCH   3   5
HETATM    5  C   UNL     1     -11.998  14.185  68.857  1.00  0.00    -0.341 C  
HETATM    6  C   UNL     1     -11.312  12.956  68.232  1.00  0.00    -0.291 C  
HETATM    7  F   UNL     1     -11.913  15.253  68.014  1.00  0.00    -0.346 F  
HETATM    8  F   UNL     1     -12.159  11.895  68.198  1.00  0.00    -0.380 F  
HETATM    9  F   UNL     1     -10.209  12.562  68.911  1.00  0.00    -0.208 F  
HETATM   10  F   UNL     1     -10.929  13.191  66.955  1.00  0.00    -0.256 F  
ENDBRANCH   3   5
TORSDOF 1
ENDMDL
MODEL       76
REMARK 921   NORMALIZED FREE ENERGY PREDICTED BY IDOCK:   -3.07 KCAL/MOL
REMARK 922        TOTAL FREE ENERGY PREDICTED BY IDOCK:   -3.44 KCAL/MOL
REMARK 923 INTER-LIGAND FREE ENERGY PREDICTED BY IDOCK:   -3.20 KCAL/MOL
REMARK 924 INTRA-LIGAND FREE ENERGY PREDICTED BY IDOCK:   -0.24 KCAL/MOL
REMARK 927      BINDING AFFINITY PREDICTED BY RF-SCORE:    0.00 PKD
ROOT
HETATM    1  F   UNL     1      -8.729  16.733  67.846  1.00  0.00    -0.192 F  
HETATM    2  C   UNL     1      -9.662  17.470  68.492  1.00  0.00    -0.319 C  
HETATM    3  O   UNL     1     -10.928  17.097  68.002  1.00  0.00    -0.362 OA 
HETATM    4  F   UNL     1      -9.459  18.761  68.134  1.00  0.00    -0.299 F  
ENDROOT
BRANCH   3   5
HETATM    5  C   UNL     1     -11.163  15.722  68.286  1.00  0.00    -0.356 C  
HETATM    6  C   UNL     1     -11.307  14.868  67.012  1.00  0.00    -0.342 C  
HETATM    7  F   UNL     1     -12.310  15.670  69.022  1.00  0.00    -0.316 F  
HETATM    8  F   UNL     1     -10.298  13.964  66.921  1.00  0.00    -0.256 F  
HETATM    9  F   UNL     1     -11.285  15.604  65.877  1.00  0.00    -0.305 F  
HETATM   10  F   UNL     1     -12.464  14.166  67.008  1.00  0.00    -0.451 F  
ENDBRANCH   3   5
TORSDOF 1
ENDMDL
MODEL       77
REMARK 921   NORMALIZED FREE ENERGY PREDICTED BY IDOCK:   -3.07 KCAL/MOL
REMARK 922        TOTAL FREE ENERGY PREDICTED BY IDOCK:   -3.44 KCAL/MOL
REMARK 923 INTER-LIGAND FREE ENERGY PREDICTED BY IDOCK:   -3.23 KCAL/MOL
REMARK 924 INTRA-LIGAND FREE ENERGY PREDICTED BY IDOCK:   -0.21 KCAL/MOL
REMARK 927      BINDING AFFINITY PREDICTED BY RF-SCORE:    0.00 PKD
ROOT
HETATM    1  F   UNL     1     -10.081  11.312  68.432  1.00  0.00    -0.168 F  
HETATM    2  C   UNL     1     -10.877  11.039  67.372  1.00  0.00    -0.274 C  
HETATM    3  O   UNL     1     -11.959  11.939  67.396  1.00  0.00    -0.603 OA 
HETATM    4  F   UNL     1     -11.383   9.798  67.572  1.00  0.00    -0.308 F  
ENDROOT
BRANCH   3   5
HETATM    5  C   UNL     1     -11.475  13.271  67.265  1.00  0.00    -0.338 C  
HETATM    6  C   UNL     1     -11.528  14.056  68.589  1.00  0.00    -0.302 C  
HETATM    7  F   UNL     1     -12.257  13.876  66.326  1.00  0.00    -0.396 F  
HETATM    8  F   UNL     1     -10.278  14.379  69.009  1.00  0.00    -0.224 F  
HETATM    9  F   UNL     1     -12.118  13.363  69.592  1.00  0.00    -0.327 F  
HETATM   10  F   UNL     1     -12.209  15.218  68.456  1.00  0.00    -0.290 F  
ENDBRANCH   3   5
TORSDOF 1
ENDMDL
MODEL       78
REMARK 921   NORMALIZED FREE ENERGY PREDICTED BY IDOCK:   -3.04 KCAL/MOL
REMARK 922        TOTAL FREE ENERGY PREDICTED BY IDOCK:   -3.41 KCAL/MOL
REMARK 923 INTER-LIGAND FREE ENERGY PREDICTED BY IDOCK:   -3.23 KCAL/MOL
REMARK 924 INTRA-LIGAND FREE ENERGY PREDICTED BY IDOCK:   -0.17 KCAL/MOL
REMARK 927      BINDING AFFINITY PREDICTED BY RF-SCORE:    0.00 PKD
ROOT
HETATM    1  F   UNL     1     -12.785   6.669  70.884  1.00  0.00    -0.389 F  
HETATM    2  C   UNL     1     -13.182   7.874  71.354  1.00  0.00    -0.245 C  
HETATM    3  O   UNL     1     -12.313   8.243  72.399  1.00  0.00    -0.353 OA 
HETATM    4  F   UNL     1     -14.410   7.699  71.897  1.00  0.00    -0.429 F  
ENDROOT
BRANCH   3   5
HETATM    5  C   UNL     1     -10.988   8.368  71.896  1.00  0.00    -0.305 C  
HETATM    6  C   UNL     1      -9.932   7.769  72.844  1.00  0.00    -0.279 C  
HETATM    7  F   UNL     1     -10.764   9.702  71.723  1.00  0.00    -0.406 F  
HETATM    8  F   UNL     1      -9.311   6.708  72.267  1.00  0.00    -0.140 F  
HETATM    9  F   UNL     1     -10.457   7.335  74.013  1.00  0.00    -0.394 F  
HETATM   10  F   UNL     1      -8.968   8.667  73.152  1.00  0.00    -0.295 F  
ENDBRANCH   3   5
TORSDOF 1
ENDMDL
MODEL       79
REMARK 921   NORMALIZED FREE ENERGY PREDICTED BY IDOCK:   -3.03 KCAL/MOL
REMARK 922        TOTAL FREE ENERGY PREDICTED BY IDOCK:   -3.40 KCAL/MOL
REMARK 923 INTER-LIGAND FREE ENERGY PREDICTED BY IDOCK:   -3.16 KCAL/MOL
REMARK 924 INTRA-LIGAND FREE ENERGY PREDICTED BY IDOCK:   -0.24 KCAL/MOL
REMARK 927      BINDING AFFINITY PREDICTED BY RF-SCORE:    0.00 PKD
ROOT
HETATM    1  F   UNL     1     -10.358  19.470  68.297  1.00  0.00    -0.458 F  
HETATM    2  C   UNL     1     -10.626  19.317  66.980  1.00  0.00    -0.470 C  
HETATM    3  O   UNL     1      -9.840  18.253  66.496  1.00  0.00    -0.326 OA 
HETATM    4  F   UNL     1     -10.201  20.443  66.359  1.00  0.00    -0.532 F  
ENDROOT
BRANCH   3   5
HETATM    5  C   UNL     1     -10.195  17.052  67.171  1.00  0.00    -0.306 C  
HETATM    6  C   UNL     1      -9.018  16.440  67.953  1.00  0.00    -0.196 C  
HETATM    7  F   UNL     1     -10.629  16.184  66.213  1.00  0.00    -0.299 F  
HETATM    8  F   UNL     1      -9.269  16.448  69.288  1.00  0.00    -0.243 F  
HETATM    9  F   UNL     1      -7.854  17.103  67.763  1.00  0.00    -0.172 F  
HETATM   10  F   UNL     1      -8.801  15.150  67.604  1.00  0.00    -0.162 F  
ENDBRANCH   3   5
TORSDOF 1
ENDMDL
MODEL       80
REMARK 921   NORMALIZED FREE ENERGY PREDICTED BY IDOCK:   -3.03 KCAL/MOL
REMARK 922        TOTAL FREE ENERGY PREDICTED BY IDOCK:   -3.40 KCAL/MOL
REMARK 923 INTER-LIGAND FREE ENERGY PREDICTED BY IDOCK:   -3.16 KCAL/MOL
REMARK 924 INTRA-LIGAND FREE ENERGY PREDICTED BY IDOCK:   -0.24 KCAL/MOL
REMARK 927      BINDING AFFINITY PREDICTED BY RF-SCORE:    0.00 PKD
ROOT
HETATM    1  F   UNL     1     -12.102   4.815  73.082  1.00  0.00    -0.376 F  
HETATM    2  C   UNL     1     -10.824   5.246  73.191  1.00  0.00    -0.287 C  
HETATM    3  O   UNL     1     -10.620   6.253  72.228  1.00  0.00    -0.202 OA 
HETATM    4  F   UNL     1     -10.028   4.203  72.856  1.00  0.00    -0.158 F  
ENDROOT
BRANCH   3   5
HETATM    5  C   UNL     1     -11.489   7.348  72.489  1.00  0.00    -0.301 C  
HETATM    6  C   UNL     1     -12.545   7.546  71.385  1.00  0.00    -0.351 C  
HETATM    7  F   UNL     1     -10.699   8.454  72.591  1.00  0.00    -0.378 F  
HETATM    8  F   UNL     1     -13.796   7.332  71.869  1.00  0.00    -0.386 F  
HETATM    9  F   UNL     1     -12.376   6.708  70.335  1.00  0.00    -0.441 F  
HETATM   10  F   UNL     1     -12.526   8.806  70.894  1.00  0.00    -0.278 F  
ENDBRANCH   3   5
TORSDOF 1
ENDMDL
MODEL       81
REMARK 921   NORMALIZED FREE ENERGY PREDICTED BY IDOCK:   -3.00 KCAL/MOL
REMARK 922        TOTAL FREE ENERGY PREDICTED BY IDOCK:   -3.37 KCAL/MOL
REMARK 923 INTER-LIGAND FREE ENERGY PREDICTED BY IDOCK:   -3.19 KCAL/MOL
REMARK 924 INTRA-LIGAND FREE ENERGY PREDICTED BY IDOCK:   -0.18 KCAL/MOL
REMARK 927      BINDING AFFINITY PREDICTED BY RF-SCORE:    0.00 PKD
ROOT
HETATM    1  F   UNL     1     -11.048  13.852  69.799  1.00  0.00    -0.254 F  
HETATM    2  C   UNL     1     -12.022  14.323  70.612  1.00  0.00    -0.322 C  
HETATM    3  O   UNL     1     -13.013  13.330  70.726  1.00  0.00    -0.162 OA 
HETATM    4  F   UNL     1     -12.584  15.380  69.978  1.00  0.00    -0.373 F  
ENDROOT
BRANCH   3   5
HETATM    5  C   UNL     1     -12.454  12.164  71.319  1.00  0.00    -0.185 C  
HETATM    6  C   UNL     1     -12.159  11.056  70.291  1.00  0.00    -0.362 C  
HETATM    7  F   UNL     1     -13.361  11.726  72.239  1.00  0.00    -0.610 F  
HETATM    8  F   UNL     1     -10.825  10.814  70.211  1.00  0.00    -0.318 F  
HETATM    9  F   UNL     1     -12.582  11.365  69.043  1.00  0.00    -0.261 F  
HETATM   10  F   UNL     1     -12.749   9.886  70.631  1.00  0.00    -0.340 F  
ENDBRANCH   3   5
TORSDOF 1
ENDMDL
MODEL       82
REMARK 921   NORMALIZED FREE ENERGY PREDICTED BY IDOCK:   -2.97 KCAL/MOL
REMARK 922        TOTAL FREE ENERGY PREDICTED BY IDOCK:   -3.34 KCAL/MOL
REMARK 923 INTER-LIGAND FREE ENERGY PREDICTED BY IDOCK:   -3.18 KCAL/MOL
REMARK 924 INTRA-LIGAND FREE ENERGY PREDICTED BY IDOCK:   -0.16 KCAL/MOL
REMARK 927      BINDING AFFINITY PREDICTED BY RF-SCORE:    0.00 PKD
ROOT
HETATM    1  F   UNL     1      -8.802   8.882  72.341  1.00  0.00    -0.274 F  
HETATM    2  C   UNL     1      -9.081   7.880  73.207  1.00  0.00    -0.278 C  
HETATM    3  O   UNL     1     -10.481   7.769  73.307  1.00  0.00    -0.349 OA 
HETATM    4  F   UNL     1      -8.623   8.269  74.420  1.00  0.00    -0.302 F  
ENDROOT
BRANCH   3   5
HETATM    5  C   UNL     1     -11.026   7.433  72.036  1.00  0.00    -0.236 C  
HETATM    6  C   UNL     1     -12.377   8.121  71.767  1.00  0.00    -0.321 C  
HETATM    7  F   UNL     1     -11.176   6.077  72.025  1.00  0.00    -0.279 F  
HETATM    8  F   UNL     1     -12.279   8.987  70.725  1.00  0.00    -0.292 F  
HETATM    9  F   UNL     1     -12.832   8.827  72.828  1.00  0.00    -0.461 F  
HETATM   10  F   UNL     1     -13.340   7.227  71.443  1.00  0.00    -0.387 F  
ENDBRANCH   3   5
TORSDOF 1
ENDMDL
MODEL       83
REMARK 921   NORMALIZED FREE ENERGY PREDICTED BY IDOCK:   -2.97 KCAL/MOL
REMARK 922        TOTAL FREE ENERGY PREDICTED BY IDOCK:   -3.34 KCAL/MOL
REMARK 923 INTER-LIGAND FREE ENERGY PREDICTED BY IDOCK:   -3.09 KCAL/MOL
REMARK 924 INTRA-LIGAND FREE ENERGY PREDICTED BY IDOCK:   -0.24 KCAL/MOL
REMARK 927      BINDING AFFINITY PREDICTED BY RF-SCORE:    0.00 PKD
ROOT
HETATM    1  F   UNL     1      -8.721  13.260  66.848  1.00  0.00    -0.204 F  
HETATM    2  C   UNL     1      -9.528  12.296  67.350  1.00  0.00    -0.181 C  
HETATM    3  O   UNL     1     -10.859  12.739  67.237  1.00  0.00    -0.244 OA 
HETATM    4  F   UNL     1      -9.248  12.199  68.672  1.00  0.00    -0.185 F  
ENDROOT
BRANCH   3   5
HETATM    5  C   UNL     1     -11.185  12.929  65.866  1.00  0.00    -0.293 C  
HETATM    6  C   UNL     1     -11.524  14.394  65.533  1.00  0.00    -0.340 C  
HETATM    7  F   UNL     1     -12.256  12.126  65.607  1.00  0.00    -0.460 F  
HETATM    8  F   UNL     1     -10.611  14.919  64.675  1.00  0.00    -0.409 F  
HETATM    9  F   UNL     1     -11.548  15.193  66.625  1.00  0.00    -0.338 F  
HETATM   10  F   UNL     1     -12.733  14.505  64.934  1.00  0.00    -0.438 F  
ENDBRANCH   3   5
TORSDOF 1
ENDMDL
MODEL       84
REMARK 921   NORMALIZED FREE ENERGY PREDICTED BY IDOCK:   -2.95 KCAL/MOL
REMARK 922        TOTAL FREE ENERGY PREDICTED BY IDOCK:   -3.32 KCAL/MOL
REMARK 923 INTER-LIGAND FREE ENERGY PREDICTED BY IDOCK:   -3.18 KCAL/MOL
REMARK 924 INTRA-LIGAND FREE ENERGY PREDICTED BY IDOCK:   -0.14 KCAL/MOL
REMARK 927      BINDING AFFINITY PREDICTED BY RF-SCORE:    0.00 PKD
ROOT
HETATM    1  F   UNL     1      -9.395  16.514  68.635  1.00  0.00    -0.206 F  
HETATM    2  C   UNL     1      -9.847  16.487  67.360  1.00  0.00    -0.253 C  
HETATM    3  O   UNL     1      -9.937  17.815  66.901  1.00  0.00    -0.303 OA 
HETATM    4  F   UNL     1     -11.106  15.990  67.400  1.00  0.00    -0.321 F  
ENDROOT
BRANCH   3   5
HETATM    5  C   UNL     1      -8.646  18.413  66.910  1.00  0.00    -0.271 C  
HETATM    6  C   UNL     1      -8.648  19.841  66.335  1.00  0.00    -0.360 C  
HETATM    7  F   UNL     1      -7.841  17.604  66.163  1.00  0.00    -0.274 F  
HETATM    8  F   UNL     1      -8.314  20.747  67.291  1.00  0.00    -0.381 F  
HETATM    9  F   UNL     1      -9.852  20.211  65.840  1.00  0.00    -0.483 F  
HETATM   10  F   UNL     1      -7.748  19.980  65.334  1.00  0.00    -0.327 F  
ENDBRANCH   3   5
TORSDOF 1
ENDMDL
MODEL       85
REMARK 921   NORMALIZED FREE ENERGY PREDICTED BY IDOCK:   -2.94 KCAL/MOL
REMARK 922        TOTAL FREE ENERGY PREDICTED BY IDOCK:   -3.30 KCAL/MOL
REMARK 923 INTER-LIGAND FREE ENERGY PREDICTED BY IDOCK:   -3.06 KCAL/MOL
REMARK 924 INTRA-LIGAND FREE ENERGY PREDICTED BY IDOCK:   -0.24 KCAL/MOL
REMARK 927      BINDING AFFINITY PREDICTED BY RF-SCORE:    0.00 PKD
ROOT
HETATM    1  F   UNL     1     -10.873   5.139  69.521  1.00  0.00    -0.331 F  
HETATM    2  C   UNL     1     -10.693   6.330  68.903  1.00  0.00    -0.299 C  
HETATM    3  O   UNL     1     -11.363   7.316  69.652  1.00  0.00    -0.144 OA 
HETATM    4  F   UNL     1     -11.314   6.247  67.702  1.00  0.00    -0.399 F  
ENDROOT
BRANCH   3   5
HETATM    5  C   UNL     1     -10.797   7.393  70.955  1.00  0.00    -0.240 C  
HETATM    6  C   UNL     1     -11.823   7.105  72.067  1.00  0.00    -0.295 C  
HETATM    7  F   UNL     1     -10.300   8.656  71.086  1.00  0.00    -0.225 F  
HETATM    8  F   UNL     1     -11.496   5.975  72.745  1.00  0.00    -0.293 F  
HETATM    9  F   UNL     1     -13.081   6.938  71.597  1.00  0.00    -0.387 F  
HETATM   10  F   UNL     1     -11.870   8.106  72.977  1.00  0.00    -0.450 F  
ENDBRANCH   3   5
TORSDOF 1
ENDMDL
MODEL       86
REMARK 921   NORMALIZED FREE ENERGY PREDICTED BY IDOCK:   -2.93 KCAL/MOL
REMARK 922        TOTAL FREE ENERGY PREDICTED BY IDOCK:   -3.30 KCAL/MOL
REMARK 923 INTER-LIGAND FREE ENERGY PREDICTED BY IDOCK:   -3.16 KCAL/MOL
REMARK 924 INTRA-LIGAND FREE ENERGY PREDICTED BY IDOCK:   -0.14 KCAL/MOL
REMARK 927      BINDING AFFINITY PREDICTED BY RF-SCORE:    0.00 PKD
ROOT
HETATM    1  F   UNL     1     -12.477  12.839  64.818  1.00  0.00    -0.443 F  
HETATM    2  C   UNL     1     -11.435  12.359  65.537  1.00  0.00    -0.361 C  
HETATM    3  O   UNL     1     -10.781  13.451  66.138  1.00  0.00    -0.280 OA 
HETATM    4  F   UNL     1     -10.569  11.809  64.653  1.00  0.00    -0.292 F  
ENDROOT
BRANCH   3   5
HETATM    5  C   UNL     1     -11.674  14.114  67.025  1.00  0.00    -0.405 C  
HETATM    6  C   UNL     1     -10.946  15.028  68.029  1.00  0.00    -0.284 C  
HETATM    7  F   UNL     1     -12.359  13.138  67.686  1.00  0.00    -0.336 F  
HETATM    8  F   UNL     1     -11.278  16.329  67.826  1.00  0.00    -0.328 F  
HETATM    9  F   UNL     1      -9.598  14.944  67.940  1.00  0.00    -0.197 F  
HETATM   10  F   UNL     1     -11.279  14.734  69.307  1.00  0.00    -0.237 F  
ENDBRANCH   3   5
TORSDOF 1
ENDMDL
MODEL       87
REMARK 921   NORMALIZED FREE ENERGY PREDICTED BY IDOCK:   -2.93 KCAL/MOL
REMARK 922        TOTAL FREE ENERGY PREDICTED BY IDOCK:   -3.30 KCAL/MOL
REMARK 923 INTER-LIGAND FREE ENERGY PREDICTED BY IDOCK:   -3.09 KCAL/MOL
REMARK 924 INTRA-LIGAND FREE ENERGY PREDICTED BY IDOCK:   -0.21 KCAL/MOL
REMARK 927      BINDING AFFINITY PREDICTED BY RF-SCORE:    0.00 PKD
ROOT
HETATM    1  F   UNL     1      -9.392  14.524  68.095  1.00  0.00    -0.176 F  
HETATM    2  C   UNL     1      -8.689  15.494  67.467  1.00  0.00    -0.172 C  
HETATM    3  O   UNL     1      -9.121  15.549  66.128  1.00  0.00    -0.306 OA 
HETATM    4  F   UNL     1      -7.395  15.096  67.455  1.00  0.00    -0.165 F  
ENDROOT
BRANCH   3   5
HETATM    5  C   UNL     1     -10.501  15.893  66.085  1.00  0.00    -0.326 C  
HETATM    6  C   UNL     1     -11.332  14.912  65.237  1.00  0.00    -0.358 C  
HETATM    7  F   UNL     1     -10.571  17.149  65.560  1.00  0.00    -0.365 F  
HETATM    8  F   UNL     1     -12.231  14.248  66.008  1.00  0.00    -0.390 F  
HETATM    9  F   UNL     1     -10.575  13.978  64.615  1.00  0.00    -0.378 F  
HETATM   10  F   UNL     1     -12.038  15.554  64.277  1.00  0.00    -0.452 F  
ENDBRANCH   3   5
TORSDOF 1
ENDMDL
MODEL       88
REMARK 921   NORMALIZED FREE ENERGY PREDICTED BY IDOCK:   -2.93 KCAL/MOL
REMARK 922        TOTAL FREE ENERGY PREDICTED BY IDOCK:   -3.30 KCAL/MOL
REMARK 923 INTER-LIGAND FREE ENERGY PREDICTED BY IDOCK:   -3.06 KCAL/MOL
REMARK 924 INTRA-LIGAND FREE ENERGY PREDICTED BY IDOCK:   -0.24 KCAL/MOL
REMARK 927      BINDING AFFINITY PREDICTED BY RF-SCORE:    0.00 PKD
ROOT
HETATM    1  F   UNL     1     -10.739  12.363  66.889  1.00  0.00    -0.239 F  
HETATM    2  C   UNL     1     -11.037  13.383  66.051  1.00  0.00    -0.283 C  
HETATM    3  O   UNL     1     -10.440  13.112  64.805  1.00  0.00    -0.335 OA 
HETATM    4  F   UNL     1     -10.438  14.489  66.551  1.00  0.00    -0.271 F  
ENDROOT
BRANCH   3   5
HETATM    5  C   UNL     1     -10.982  11.912  64.266  1.00  0.00    -0.353 C  
HETATM    6  C   UNL     1      -9.950  10.771  64.200  1.00  0.00    -0.343 C  
HETATM    7  F   UNL     1     -11.430  12.217  63.015  1.00  0.00    -0.429 F  
HETATM    8  F   UNL     1     -10.308   9.748  65.018  1.00  0.00    -0.338 F  
HETATM    9  F   UNL     1      -8.707  11.159  64.568  1.00  0.00    -0.132 F  
HETATM   10  F   UNL     1      -9.851  10.257  62.952  1.00  0.00    -0.332 F  
ENDBRANCH   3   5
TORSDOF 1
ENDMDL
MODEL       89
REMARK 921   NORMALIZED FREE ENERGY PREDICTED BY IDOCK:   -2.93 KCAL/MOL
REMARK 922        TOTAL FREE ENERGY PREDICTED BY IDOCK:   -3.29 KCAL/MOL
REMARK 923 INTER-LIGAND FREE ENERGY PREDICTED BY IDOCK:   -3.06 KCAL/MOL
REMARK 924 INTRA-LIGAND FREE ENERGY PREDICTED BY IDOCK:   -0.23 KCAL/MOL
REMARK 927      BINDING AFFINITY PREDICTED BY RF-SCORE:    0.00 PKD
ROOT
HETATM    1  F   UNL     1     -12.518  14.341  69.059  1.00  0.00    -0.337 F  
HETATM    2  C   UNL     1     -11.200  14.062  69.185  1.00  0.00    -0.269 C  
HETATM    3  O   UNL     1     -10.806  13.302  68.068  1.00  0.00    -0.232 OA 
HETATM    4  F   UNL     1     -11.070  13.270  70.276  1.00  0.00     0.002 F  
ENDROOT
BRANCH   3   5
HETATM    5  C   UNL     1     -10.994  14.064  66.881  1.00  0.00    -0.298 C  
HETATM    6  C   UNL     1     -11.916  13.364  65.865  1.00  0.00    -0.409 C  
HETATM    7  F   UNL     1      -9.756  14.253  66.343  1.00  0.00    -0.256 F  
HETATM    8  F   UNL     1     -13.057  14.077  65.678  1.00  0.00    -0.554 F  
HETATM    9  F   UNL     1     -12.283  12.120  66.253  1.00  0.00    -0.396 F  
HETATM   10  F   UNL     1     -11.326  13.244  64.653  1.00  0.00    -0.315 F  
ENDBRANCH   3   5
TORSDOF 1
ENDMDL
MODEL       90
REMARK 921   NORMALIZED FREE ENERGY PREDICTED BY IDOCK:   -2.91 KCAL/MOL
REMARK 922        TOTAL FREE ENERGY PREDICTED BY IDOCK:   -3.27 KCAL/MOL
REMARK 923 INTER-LIGAND FREE ENERGY PREDICTED BY IDOCK:   -3.03 KCAL/MOL
REMARK 924 INTRA-LIGAND FREE ENERGY PREDICTED BY IDOCK:   -0.24 KCAL/MOL
REMARK 927      BINDING AFFINITY PREDICTED BY RF-SCORE:    0.00 PKD
ROOT
HETATM    1  F   UNL     1     -11.436  11.100  66.932  1.00  0.00    -0.356 F  
HETATM    2  C   UNL     1     -10.500  10.123  66.882  1.00  0.00    -0.222 C  
HETATM    3  O   UNL     1     -10.125   9.947  65.536  1.00  0.00    -0.303 OA 
HETATM    4  F   UNL     1     -11.106   8.979  67.282  1.00  0.00    -0.286 F  
ENDROOT
BRANCH   3   5
HETATM    5  C   UNL     1      -9.548  11.149  65.040  1.00  0.00    -0.239 C  
HETATM    6  C   UNL     1     -10.352  11.759  63.877  1.00  0.00    -0.385 C  
HETATM    7  F   UNL     1      -8.287  10.833  64.629  1.00  0.00    -0.170 F  
HETATM    8  F   UNL     1     -10.869  12.965  64.226  1.00  0.00    -0.319 F  
HETATM    9  F   UNL     1     -11.388  10.981  63.485  1.00  0.00    -0.371 F  
HETATM   10  F   UNL     1      -9.578  11.965  62.786  1.00  0.00    -0.381 F  
ENDBRANCH   3   5
TORSDOF 1
ENDMDL
MODEL       91
REMARK 921   NORMALIZED FREE ENERGY PREDICTED BY IDOCK:   -2.90 KCAL/MOL
REMARK 922        TOTAL FREE ENERGY PREDICTED BY IDOCK:   -3.26 KCAL/MOL
REMARK 923 INTER-LIGAND FREE ENERGY PREDICTED BY IDOCK:   -3.04 KCAL/MOL
REMARK 924 INTRA-LIGAND FREE ENERGY PREDICTED BY IDOCK:   -0.23 KCAL/MOL
REMARK 927      BINDING AFFINITY PREDICTED BY RF-SCORE:    0.00 PKD
ROOT
HETATM    1  F   UNL     1      -9.470  14.108  69.125  1.00  0.00    -0.134 F  
HETATM    2  C   UNL     1      -9.523  15.457  69.205  1.00  0.00    -0.261 C  
HETATM    3  O   UNL     1     -10.872  15.833  69.348  1.00  0.00    -0.229 OA 
HETATM    4  F   UNL     1      -9.097  15.938  68.013  1.00  0.00    -0.180 F  
ENDROOT
BRANCH   3   5
HETATM    5  C   UNL     1     -11.395  15.289  70.554  1.00  0.00    -0.309 C  
HETATM    6  C   UNL     1     -12.394  14.144  70.306  1.00  0.00    -0.356 C  
HETATM    7  F   UNL     1     -12.006  16.317  71.210  1.00  0.00    -0.432 F  
HETATM    8  F   UNL     1     -11.917  12.971  70.796  1.00  0.00    -0.408 F  
HETATM    9  F   UNL     1     -12.660  13.948  68.994  1.00  0.00    -0.327 F  
HETATM   10  F   UNL     1     -13.579  14.372  70.920  1.00  0.00    -0.403 F  
ENDBRANCH   3   5
TORSDOF 1
ENDMDL
MODEL       92
REMARK 921   NORMALIZED FREE ENERGY PREDICTED BY IDOCK:   -2.89 KCAL/MOL
REMARK 922        TOTAL FREE ENERGY PREDICTED BY IDOCK:   -3.25 KCAL/MOL
REMARK 923 INTER-LIGAND FREE ENERGY PREDICTED BY IDOCK:   -3.01 KCAL/MOL
REMARK 924 INTRA-LIGAND FREE ENERGY PREDICTED BY IDOCK:   -0.24 KCAL/MOL
REMARK 927      BINDING AFFINITY PREDICTED BY RF-SCORE:    0.00 PKD
ROOT
HETATM    1  F   UNL     1     -10.557  17.118  68.434  1.00  0.00    -0.307 F  
HETATM    2  C   UNL     1      -9.797  16.093  68.884  1.00  0.00    -0.239 C  
HETATM    3  O   UNL     1     -10.010  14.988  68.037  1.00  0.00    -0.216 OA 
HETATM    4  F   UNL     1     -10.273  15.758  70.107  1.00  0.00    -0.282 F  
ENDROOT
BRANCH   3   5
HETATM    5  C   UNL     1      -9.594  15.312  66.716  1.00  0.00    -0.241 C  
HETATM    6  C   UNL     1     -10.732  15.182  65.686  1.00  0.00    -0.363 C  
HETATM    7  F   UNL     1      -8.579  14.456  66.408  1.00  0.00    -0.193 F  
HETATM    8  F   UNL     1     -11.035  16.390  65.145  1.00  0.00    -0.369 F  
HETATM    9  F   UNL     1     -11.874  14.687  66.219  1.00  0.00    -0.370 F  
HETATM   10  F   UNL     1     -10.389  14.369  64.660  1.00  0.00    -0.432 F  
ENDBRANCH   3   5
TORSDOF 1
ENDMDL
MODEL       93
REMARK 921   NORMALIZED FREE ENERGY PREDICTED BY IDOCK:   -2.86 KCAL/MOL
REMARK 922        TOTAL FREE ENERGY PREDICTED BY IDOCK:   -3.22 KCAL/MOL
REMARK 923 INTER-LIGAND FREE ENERGY PREDICTED BY IDOCK:   -2.98 KCAL/MOL
REMARK 924 INTRA-LIGAND FREE ENERGY PREDICTED BY IDOCK:   -0.24 KCAL/MOL
REMARK 927      BINDING AFFINITY PREDICTED BY RF-SCORE:    0.00 PKD
ROOT
HETATM    1  F   UNL     1      -8.085  16.446  69.232  1.00  0.00    -0.233 F  
HETATM    2  C   UNL     1      -7.209  17.429  68.921  1.00  0.00    -0.250 C  
HETATM    3  O   UNL     1      -7.773  18.207  67.892  1.00  0.00    -0.226 OA 
HETATM    4  F   UNL     1      -6.109  16.826  68.410  1.00  0.00    -0.124 F  
ENDROOT
BRANCH   3   5
HETATM    5  C   UNL     1      -8.978  18.806  68.353  1.00  0.00    -0.335 C  
HETATM    6  C   UNL     1     -10.205  18.393  67.519  1.00  0.00    -0.374 C  
HETATM    7  F   UNL     1      -8.791  20.155  68.282  1.00  0.00    -0.337 F  
HETATM    8  F   UNL     1     -11.084  17.682  68.272  1.00  0.00    -0.308 F  
HETATM    9  F   UNL     1      -9.885  17.626  66.451  1.00  0.00    -0.268 F  
HETATM   10  F   UNL     1     -10.876  19.469  67.046  1.00  0.00    -0.527 F  
ENDBRANCH   3   5
TORSDOF 1
ENDMDL
MODEL       94
REMARK 921   NORMALIZED FREE ENERGY PREDICTED BY IDOCK:   -2.86 KCAL/MOL
REMARK 922        TOTAL FREE ENERGY PREDICTED BY IDOCK:   -3.22 KCAL/MOL
REMARK 923 INTER-LIGAND FREE ENERGY PREDICTED BY IDOCK:   -3.08 KCAL/MOL
REMARK 924 INTRA-LIGAND FREE ENERGY PREDICTED BY IDOCK:   -0.15 KCAL/MOL
REMARK 927      BINDING AFFINITY PREDICTED BY RF-SCORE:    0.00 PKD
ROOT
HETATM    1  F   UNL     1     -10.060   9.222  71.886  1.00  0.00    -0.397 F  
HETATM    2  C   UNL     1     -11.340   9.117  71.461  1.00  0.00    -0.368 C  
HETATM    3  O   UNL     1     -11.628  10.241  70.662  1.00  0.00    -0.297 OA 
HETATM    4  F   UNL     1     -12.127   9.195  72.561  1.00  0.00    -0.390 F  
ENDROOT
BRANCH   3   5
HETATM    5  C   UNL     1     -10.773  10.249  69.524  1.00  0.00    -0.249 C  
HETATM    6  C   UNL     1     -11.219  11.263  68.454  1.00  0.00    -0.262 C  
HETATM    7  F   UNL     1     -10.795   8.985  69.015  1.00  0.00    -0.235 F  
HETATM    8  F   UNL     1     -10.289  12.241  68.298  1.00  0.00    -0.195 F  
HETATM    9  F   UNL     1     -12.389  11.872  68.756  1.00  0.00    -0.322 F  
HETATM   10  F   UNL     1     -11.377  10.678  67.244  1.00  0.00    -0.360 F  
ENDBRANCH   3   5
TORSDOF 1
ENDMDL
MODEL       95
REMARK 921   NORMALIZED FREE ENERGY PREDICTED BY IDOCK:   -2.84 KCAL/MOL
REMARK 922        TOTAL FREE ENERGY PREDICTED BY IDOCK:   -3.20 KCAL/MOL
REMARK 923 INTER-LIGAND FREE ENERGY PREDICTED BY IDOCK:   -2.98 KCAL/MOL
REMARK 924 INTRA-LIGAND FREE ENERGY PREDICTED BY IDOCK:   -0.23 KCAL/MOL
REMARK 927      BINDING AFFINITY PREDICTED BY RF-SCORE:    0.00 PKD
ROOT
HETATM    1  F   UNL     1     -11.822  14.113  66.063  1.00  0.00    -0.343 F  
HETATM    2  C   UNL     1     -11.467  12.817  65.901  1.00  0.00    -0.356 C  
HETATM    3  O   UNL     1     -10.976  12.342  67.132  1.00  0.00    -0.241 OA 
HETATM    4  F   UNL     1     -10.435  12.799  65.024  1.00  0.00    -0.287 F  
ENDROOT
BRANCH   3   5
HETATM    5  C   UNL     1     -12.004  12.409  68.114  1.00  0.00    -0.214 C  
HETATM    6  C   UNL     1     -11.591  13.226  69.352  1.00  0.00    -0.305 C  
HETATM    7  F   UNL     1     -12.284  11.122  68.469  1.00  0.00    -0.366 F  
HETATM    8  F   UNL     1     -12.357  14.341  69.472  1.00  0.00    -0.346 F  
HETATM    9  F   UNL     1     -10.300  13.633  69.311  1.00  0.00    -0.160 F  
HETATM   10  F   UNL     1     -11.747  12.518  70.495  1.00  0.00    -0.357 F  
ENDBRANCH   3   5
TORSDOF 1
ENDMDL
MODEL       96
REMARK 921   NORMALIZED FREE ENERGY PREDICTED BY IDOCK:   -2.84 KCAL/MOL
REMARK 922        TOTAL FREE ENERGY PREDICTED BY IDOCK:   -3.20 KCAL/MOL
REMARK 923 INTER-LIGAND FREE ENERGY PREDICTED BY IDOCK:   -3.07 KCAL/MOL
REMARK 924 INTRA-LIGAND FREE ENERGY PREDICTED BY IDOCK:   -0.13 KCAL/MOL
REMARK 927      BINDING AFFINITY PREDICTED BY RF-SCORE:    0.00 PKD
ROOT
HETATM    1  F   UNL     1     -12.125  14.352  65.139  1.00  0.00    -0.357 F  
HETATM    2  C   UNL     1     -10.817  14.102  65.379  1.00  0.00    -0.337 C  
HETATM    3  O   UNL     1     -10.108  15.309  65.233  1.00  0.00    -0.350 OA 
HETATM    4  F   UNL     1     -10.392  13.266  64.402  1.00  0.00    -0.377 F  
ENDROOT
BRANCH   3   5
HETATM    5  C   UNL     1     -10.570  16.253  66.192  1.00  0.00    -0.267 C  
HETATM    6  C   UNL     1      -9.572  17.403  66.424  1.00  0.00    -0.276 C  
HETATM    7  F   UNL     1     -10.772  15.562  67.350  1.00  0.00    -0.275 F  
HETATM    8  F   UNL     1     -10.099  18.589  66.024  1.00  0.00    -0.348 F  
HETATM    9  F   UNL     1      -8.409  17.238  65.751  1.00  0.00    -0.240 F  
HETATM   10  F   UNL     1      -9.257  17.537  67.733  1.00  0.00    -0.241 F  
ENDBRANCH   3   5
TORSDOF 1
ENDMDL
MODEL       97
REMARK 921   NORMALIZED FREE ENERGY PREDICTED BY IDOCK:   -2.83 KCAL/MOL
REMARK 922        TOTAL FREE ENERGY PREDICTED BY IDOCK:   -3.19 KCAL/MOL
REMARK 923 INTER-LIGAND FREE ENERGY PREDICTED BY IDOCK:   -3.16 KCAL/MOL
REMARK 924 INTRA-LIGAND FREE ENERGY PREDICTED BY IDOCK:   -0.04 KCAL/MOL
REMARK 927      BINDING AFFINITY PREDICTED BY RF-SCORE:    0.00 PKD
ROOT
HETATM    1  F   UNL     1     -10.572  16.616  67.653  1.00  0.00    -0.296 F  
HETATM    2  C   UNL     1      -9.874  16.112  68.697  1.00  0.00    -0.226 C  
HETATM    3  O   UNL     1     -10.759  15.960  69.781  1.00  0.00    -0.270 OA 
HETATM    4  F   UNL     1      -8.964  17.051  69.051  1.00  0.00    -0.263 F  
ENDROOT
BRANCH   3   5
HETATM    5  C   UNL     1     -11.784  15.036  69.435  1.00  0.00    -0.326 C  
HETATM    6  C   UNL     1     -12.288  14.226  70.645  1.00  0.00    -0.361 C  
HETATM    7  F   UNL     1     -11.251  14.201  68.497  1.00  0.00    -0.236 F  
HETATM    8  F   UNL     1     -13.589  14.510  70.908  1.00  0.00    -0.411 F  
HETATM    9  F   UNL     1     -11.589  14.476  71.777  1.00  0.00    -0.375 F  
HETATM   10  F   UNL     1     -12.216  12.893  70.421  1.00  0.00    -0.393 F  
ENDBRANCH   3   5
TORSDOF 1
ENDMDL
MODEL       98
REMARK 921   NORMALIZED FREE ENERGY PREDICTED BY IDOCK:   -2.81 KCAL/MOL
REMARK 922        TOTAL FREE ENERGY PREDICTED BY IDOCK:   -3.17 KCAL/MOL
REMARK 923 INTER-LIGAND FREE ENERGY PREDICTED BY IDOCK:   -3.14 KCAL/MOL
REMARK 924 INTRA-LIGAND FREE ENERGY PREDICTED BY IDOCK:   -0.03 KCAL/MOL
REMARK 927      BINDING AFFINITY PREDICTED BY RF-SCORE:    0.00 PKD
ROOT
HETATM    1  F   UNL     1     -11.083   9.286  72.126  1.00  0.00    -0.422 F  
HETATM    2  C   UNL     1     -12.109   9.598  71.301  1.00  0.00    -0.371 C  
HETATM    3  O   UNL     1     -11.585  10.296  70.197  1.00  0.00    -0.262 OA 
HETATM    4  F   UNL     1     -12.908  10.458  71.977  1.00  0.00    -0.487 F  
ENDROOT
BRANCH   3   5
HETATM    5  C   UNL     1     -10.676   9.460  69.490  1.00  0.00    -0.222 C  
HETATM    6  C   UNL     1     -10.677   9.728  67.974  1.00  0.00    -0.247 C  
HETATM    7  F   UNL     1     -11.057   8.175  69.743  1.00  0.00    -0.243 F  
HETATM    8  F   UNL     1      -9.473  10.207  67.567  1.00  0.00    -0.153 F  
HETATM    9  F   UNL     1     -11.612  10.631  67.597  1.00  0.00    -0.376 F  
HETATM   10  F   UNL     1     -10.908   8.599  67.265  1.00  0.00    -0.358 F  
ENDBRANCH   3   5
TORSDOF 1
ENDMDL
MODEL       99
REMARK 921   NORMALIZED FREE ENERGY PREDICTED BY IDOCK:   -2.81 KCAL/MOL
REMARK 922        TOTAL FREE ENERGY PREDICTED BY IDOCK:   -3.17 KCAL/MOL
REMARK 923 INTER-LIGAND FREE ENERGY PREDICTED BY IDOCK:   -2.92 KCAL/MOL
REMARK 924 INTRA-LIGAND FREE ENERGY PREDICTED BY IDOCK:   -0.24 KCAL/MOL
REMARK 927      BINDING AFFINITY PREDICTED BY RF-SCORE:    0.00 PKD
ROOT
HETATM    1  F   UNL     1     -10.620   8.188  69.168  1.00  0.00    -0.217 F  
HETATM    2  C   UNL     1     -10.367   8.866  68.024  1.00  0.00    -0.219 C  
HETATM    3  O   UNL     1     -11.088  10.074  68.064  1.00  0.00    -0.266 OA 
HETATM    4  F   UNL     1     -10.878   8.128  67.010  1.00  0.00    -0.393 F  
ENDROOT
BRANCH   3   5
HETATM    5  C   UNL     1     -10.641  10.861  69.163  1.00  0.00    -0.220 C  
HETATM    6  C   UNL     1     -11.758  11.144  70.185  1.00  0.00    -0.353 C  
HETATM    7  F   UNL     1     -10.174  12.029  68.637  1.00  0.00    -0.203 F  
HETATM    8  F   UNL     1     -11.478  10.562  71.380  1.00  0.00    -0.356 F  
HETATM    9  F   UNL     1     -12.967  10.680  69.790  1.00  0.00    -0.300 F  
HETATM   10  F   UNL     1     -11.899  12.469  70.418  1.00  0.00    -0.398 F  
ENDBRANCH   3   5
TORSDOF 1
ENDMDL
MODEL      100
REMARK 921   NORMALIZED FREE ENERGY PREDICTED BY IDOCK:   -2.79 KCAL/MOL
REMARK 922        TOTAL FREE ENERGY PREDICTED BY IDOCK:   -3.15 KCAL/MOL
REMARK 923 INTER-LIGAND FREE ENERGY PREDICTED BY IDOCK:   -2.94 KCAL/MOL
REMARK 924 INTRA-LIGAND FREE ENERGY PREDICTED BY IDOCK:   -0.21 KCAL/MOL
REMARK 927      BINDING AFFINITY PREDICTED BY RF-SCORE:    0.00 PKD
ROOT
HETATM    1  F   UNL     1      -8.541  19.727  66.572  1.00  0.00    -0.302 F  
HETATM    2  C   UNL     1      -7.640  18.907  67.162  1.00  0.00    -0.229 C  
HETATM    3  O   UNL     1      -8.315  17.742  67.573  1.00  0.00    -0.222 OA 
HETATM    4  F   UNL     1      -7.209  19.537  68.281  1.00  0.00    -0.292 F  
ENDROOT
BRANCH   3   5
HETATM    5  C   UNL     1      -8.855  17.077  66.438  1.00  0.00    -0.278 C  
HETATM    6  C   UNL     1     -10.382  17.240  66.323  1.00  0.00    -0.322 C  
HETATM    7  F   UNL     1      -8.529  15.759  66.570  1.00  0.00    -0.246 F  
HETATM    8  F   UNL     1     -10.710  17.940  65.206  1.00  0.00    -0.379 F  
HETATM    9  F   UNL     1     -10.925  17.894  67.376  1.00  0.00    -0.365 F  
HETATM   10  F   UNL     1     -11.008  16.044  66.233  1.00  0.00    -0.300 F  
ENDBRANCH   3   5
TORSDOF 1
ENDMDL
MODEL      101
REMARK 921   NORMALIZED FREE ENERGY PREDICTED BY IDOCK:   -2.75 KCAL/MOL
REMARK 922        TOTAL FREE ENERGY PREDICTED BY IDOCK:   -3.11 KCAL/MOL
REMARK 923 INTER-LIGAND FREE ENERGY PREDICTED BY IDOCK:   -2.96 KCAL/MOL
REMARK 924 INTRA-LIGAND FREE ENERGY PREDICTED BY IDOCK:   -0.15 KCAL/MOL
REMARK 927      BINDING AFFINITY PREDICTED BY RF-SCORE:    0.00 PKD
ROOT
HETATM    1  F   UNL     1     -11.882  15.194  66.139  1.00  0.00    -0.252 F  
HETATM    2  C   UNL     1     -12.082  14.581  64.949  1.00  0.00    -0.416 C  
HETATM    3  O   UNL     1     -10.874  13.968  64.566  1.00  0.00    -0.400 OA 
HETATM    4  F   UNL     1     -12.342  15.556  64.045  1.00  0.00    -0.469 F  
ENDROOT
BRANCH   3   5
HETATM    5  C   UNL     1     -10.513  12.982  65.526  1.00  0.00    -0.285 C  
HETATM    6  C   UNL     1      -9.447  13.482  66.519  1.00  0.00    -0.256 C  
HETATM    7  F   UNL     1     -10.041  11.913  64.824  1.00  0.00    -0.260 F  
HETATM    8  F   UNL     1      -9.948  13.533  67.780  1.00  0.00    -0.214 F  
HETATM    9  F   UNL     1      -8.987  14.720  66.224  1.00  0.00    -0.287 F  
HETATM   10  F   UNL     1      -8.373  12.659  66.558  1.00  0.00    -0.120 F  
ENDBRANCH   3   5
TORSDOF 1
ENDMDL
MODEL      102
REMARK 921   NORMALIZED FREE ENERGY PREDICTED BY IDOCK:   -2.75 KCAL/MOL
REMARK 922        TOTAL FREE ENERGY PREDICTED BY IDOCK:   -3.11 KCAL/MOL
REMARK 923 INTER-LIGAND FREE ENERGY PREDICTED BY IDOCK:   -2.86 KCAL/MOL
REMARK 924 INTRA-LIGAND FREE ENERGY PREDICTED BY IDOCK:   -0.24 KCAL/MOL
REMARK 927      BINDING AFFINITY PREDICTED BY RF-SCORE:    0.00 PKD
ROOT
HETATM    1  F   UNL     1     -10.729   8.307  68.483  1.00  0.00    -0.224 F  
HETATM    2  C   UNL     1      -9.854   9.194  69.012  1.00  0.00    -0.174 C  
HETATM    3  O   UNL     1     -10.440   9.752  70.163  1.00  0.00    -0.247 OA 
HETATM    4  F   UNL     1      -9.713  10.193  68.109  1.00  0.00    -0.139 F  
ENDROOT
BRANCH   3   5
HETATM    5  C   UNL     1     -10.680   8.727  71.122  1.00  0.00    -0.248 C  
HETATM    6  C   UNL     1     -12.175   8.557  71.448  1.00  0.00    -0.304 C  
HETATM    7  F   UNL     1      -9.988   9.077  72.243  1.00  0.00    -0.379 F  
HETATM    8  F   UNL     1     -12.619   7.335  71.055  1.00  0.00    -0.357 F  
HETATM    9  F   UNL     1     -12.958   9.479  70.842  1.00  0.00    -0.337 F  
HETATM   10  F   UNL     1     -12.411   8.649  72.778  1.00  0.00    -0.454 F  
ENDBRANCH   3   5
TORSDOF 1
ENDMDL
MODEL      103
REMARK 921   NORMALIZED FREE ENERGY PREDICTED BY IDOCK:   -2.74 KCAL/MOL
REMARK 922        TOTAL FREE ENERGY PREDICTED BY IDOCK:   -3.09 KCAL/MOL
REMARK 923 INTER-LIGAND FREE ENERGY PREDICTED BY IDOCK:   -2.85 KCAL/MOL
REMARK 924 INTRA-LIGAND FREE ENERGY PREDICTED BY IDOCK:   -0.24 KCAL/MOL
REMARK 927      BINDING AFFINITY PREDICTED BY RF-SCORE:    0.00 PKD
ROOT
HETATM    1  F   UNL     1     -10.729  10.829  63.043  1.00  0.00    -0.268 F  
HETATM    2  C   UNL     1     -11.285  11.860  63.721  1.00  0.00    -0.440 C  
HETATM    3  O   UNL     1     -11.147  11.601  65.098  1.00  0.00    -0.291 OA 
HETATM    4  F   UNL     1     -12.610  11.845  63.441  1.00  0.00    -0.620 F  
ENDROOT
BRANCH   3   5
HETATM    5  C   UNL     1      -9.766  11.531  65.435  1.00  0.00    -0.233 C  
HETATM    6  C   UNL     1      -9.333  10.123  65.882  1.00  0.00    -0.175 C  
HETATM    7  F   UNL     1      -9.568  12.428  66.443  1.00  0.00    -0.222 F  
HETATM    8  F   UNL     1      -8.437   9.593  65.010  1.00  0.00    -0.124 F  
HETATM    9  F   UNL     1     -10.367   9.253  65.967  1.00  0.00    -0.353 F  
HETATM   10  F   UNL     1      -8.733  10.144  67.095  1.00  0.00    -0.127 F  
ENDBRANCH   3   5
TORSDOF 1
ENDMDL
MODEL      104
REMARK 921   NORMALIZED FREE ENERGY PREDICTED BY IDOCK:   -2.72 KCAL/MOL
REMARK 922        TOTAL FREE ENERGY PREDICTED BY IDOCK:   -3.08 KCAL/MOL
REMARK 923 INTER-LIGAND FREE ENERGY PREDICTED BY IDOCK:   -2.83 KCAL/MOL
REMARK 924 INTRA-LIGAND FREE ENERGY PREDICTED BY IDOCK:   -0.24 KCAL/MOL
REMARK 927      BINDING AFFINITY PREDICTED BY RF-SCORE:    0.00 PKD
ROOT
HETATM    1  F   UNL     1      -8.782  14.904  66.653  1.00  0.00    -0.254 F  
HETATM    2  C   UNL     1      -9.458  13.747  66.464  1.00  0.00    -0.269 C  
HETATM    3  O   UNL     1     -10.432  13.642  67.475  1.00  0.00    -0.239 OA 
HETATM    4  F   UNL     1      -8.572  12.740  66.654  1.00  0.00    -0.197 F  
ENDROOT
BRANCH   3   5
HETATM    5  C   UNL     1     -11.350  14.724  67.368  1.00  0.00    -0.351 C  
HETATM    6  C   UNL     1     -11.277  15.687  68.567  1.00  0.00    -0.342 C  
HETATM    7  F   UNL     1     -12.593  14.169  67.282  1.00  0.00    -0.353 F  
HETATM    8  F   UNL     1     -10.851  16.915  68.175  1.00  0.00    -0.330 F  
HETATM    9  F   UNL     1     -10.431  15.263  69.535  1.00  0.00    -0.210 F  
HETATM   10  F   UNL     1     -12.488  15.859  69.147  1.00  0.00    -0.290 F  
ENDBRANCH   3   5
TORSDOF 1
ENDMDL
MODEL      105
REMARK 921   NORMALIZED FREE ENERGY PREDICTED BY IDOCK:   -2.71 KCAL/MOL
REMARK 922        TOTAL FREE ENERGY PREDICTED BY IDOCK:   -3.07 KCAL/MOL
REMARK 923 INTER-LIGAND FREE ENERGY PREDICTED BY IDOCK:   -2.83 KCAL/MOL
REMARK 924 INTRA-LIGAND FREE ENERGY PREDICTED BY IDOCK:   -0.23 KCAL/MOL
REMARK 927      BINDING AFFINITY PREDICTED BY RF-SCORE:    0.00 PKD
ROOT
HETATM    1  F   UNL     1     -12.628  13.606  70.198  1.00  0.00    -0.358 F  
HETATM    2  C   UNL     1     -11.788  13.785  69.153  1.00  0.00    -0.354 C  
HETATM    3  O   UNL     1     -11.002  12.624  69.021  1.00  0.00    -0.238 OA 
HETATM    4  F   UNL     1     -10.953  14.797  69.489  1.00  0.00    -0.239 F  
ENDROOT
BRANCH   3   5
HETATM    5  C   UNL     1     -11.841  11.509  68.740  1.00  0.00    -0.330 C  
HETATM    6  C   UNL     1     -11.703  10.383  69.782  1.00  0.00    -0.237 C  
HETATM    7  F   UNL     1     -11.483  11.056  67.505  1.00  0.00    -0.344 F  
HETATM    8  F   UNL     1     -12.866  10.208  70.461  1.00  0.00    -0.361 F  
HETATM    9  F   UNL     1     -10.739  10.627  70.700  1.00  0.00    -0.272 F  
HETATM   10  F   UNL     1     -11.406   9.197  69.201  1.00  0.00    -0.099 F  
ENDBRANCH   3   5
TORSDOF 1
ENDMDL
MODEL      106
REMARK 921   NORMALIZED FREE ENERGY PREDICTED BY IDOCK:   -2.71 KCAL/MOL
REMARK 922        TOTAL FREE ENERGY PREDICTED BY IDOCK:   -3.07 KCAL/MOL
REMARK 923 INTER-LIGAND FREE ENERGY PREDICTED BY IDOCK:   -2.84 KCAL/MOL
REMARK 924 INTRA-LIGAND FREE ENERGY PREDICTED BY IDOCK:   -0.23 KCAL/MOL
REMARK 927      BINDING AFFINITY PREDICTED BY RF-SCORE:    0.00 PKD
ROOT
HETATM    1  F   UNL     1      -6.603  18.268  68.192  1.00  0.00    -0.190 F  
HETATM    2  C   UNL     1      -7.637  19.100  68.458  1.00  0.00    -0.334 C  
HETATM    3  O   UNL     1      -7.592  20.160  67.533  1.00  0.00    -0.275 OA 
HETATM    4  F   UNL     1      -7.411  19.628  69.684  1.00  0.00    -0.373 F  
ENDROOT
BRANCH   3   5
HETATM    5  C   UNL     1      -7.751  19.651  66.214  1.00  0.00    -0.315 C  
HETATM    6  C   UNL     1      -6.588  20.041  65.282  1.00  0.00    -0.294 C  
HETATM    7  F   UNL     1      -8.925  20.157  65.742  1.00  0.00    -0.371 F  
HETATM    8  F   UNL     1      -5.900  18.941  64.881  1.00  0.00    -0.227 F  
HETATM    9  F   UNL     1      -5.698  20.876  65.867  1.00  0.00    -0.218 F  
HETATM   10  F   UNL     1      -7.030  20.656  64.160  1.00  0.00    -0.241 F  
ENDBRANCH   3   5
TORSDOF 1
ENDMDL
MODEL      107
REMARK 921   NORMALIZED FREE ENERGY PREDICTED BY IDOCK:   -2.70 KCAL/MOL
REMARK 922        TOTAL FREE ENERGY PREDICTED BY IDOCK:   -3.05 KCAL/MOL
REMARK 923 INTER-LIGAND FREE ENERGY PREDICTED BY IDOCK:   -2.91 KCAL/MOL
REMARK 924 INTRA-LIGAND FREE ENERGY PREDICTED BY IDOCK:   -0.14 KCAL/MOL
REMARK 927      BINDING AFFINITY PREDICTED BY RF-SCORE:    0.00 PKD
ROOT
HETATM    1  F   UNL     1     -13.997  14.064  70.962  1.00  0.00    -0.273 F  
HETATM    2  C   UNL     1     -13.514  15.291  71.266  1.00  0.00    -0.514 C  
HETATM    3  O   UNL     1     -12.137  15.303  70.974  1.00  0.00    -0.287 OA 
HETATM    4  F   UNL     1     -13.641  15.442  72.606  1.00  0.00    -0.439 F  
ENDROOT
BRANCH   3   5
HETATM    5  C   UNL     1     -11.942  15.073  69.583  1.00  0.00    -0.321 C  
HETATM    6  C   UNL     1     -10.456  15.107  69.178  1.00  0.00    -0.252 C  
HETATM    7  F   UNL     1     -12.633  16.049  68.929  1.00  0.00    -0.108 F  
HETATM    8  F   UNL     1     -10.049  13.891  68.731  1.00  0.00    -0.221 F  
HETATM    9  F   UNL     1      -9.637  15.451  70.199  1.00  0.00    -0.273 F  
HETATM   10  F   UNL     1     -10.231  15.987  68.175  1.00  0.00    -0.227 F  
ENDBRANCH   3   5
TORSDOF 1
ENDMDL
MODEL      108
REMARK 921   NORMALIZED FREE ENERGY PREDICTED BY IDOCK:   -2.68 KCAL/MOL
REMARK 922        TOTAL FREE ENERGY PREDICTED BY IDOCK:   -3.03 KCAL/MOL
REMARK 923 INTER-LIGAND FREE ENERGY PREDICTED BY IDOCK:   -3.73 KCAL/MOL
REMARK 924 INTRA-LIGAND FREE ENERGY PREDICTED BY IDOCK:    0.70 KCAL/MOL
REMARK 927      BINDING AFFINITY PREDICTED BY RF-SCORE:    0.00 PKD
ROOT
HETATM    1  F   UNL     1     -10.916  17.649  67.659  1.00  0.00    -0.364 F  
HETATM    2  C   UNL     1     -10.116  17.888  66.594  1.00  0.00    -0.362 C  
HETATM    3  O   UNL     1     -10.253  19.244  66.241  1.00  0.00    -0.398 OA 
HETATM    4  F   UNL     1     -10.603  17.155  65.565  1.00  0.00    -0.365 F  
ENDROOT
BRANCH   3   5
HETATM    5  C   UNL     1      -9.823  20.064  67.322  1.00  0.00    -0.427 C  
HETATM    6  C   UNL     1      -8.298  20.023  67.530  1.00  0.00    -0.334 C  
HETATM    7  F   UNL     1     -10.464  19.605  68.435  1.00  0.00    -0.494 F  
HETATM    8  F   UNL     1      -7.745  21.241  67.293  1.00  0.00    -0.397 F  
HETATM    9  F   UNL     1      -7.676  19.139  66.715  1.00  0.00    -0.226 F  
HETATM   10  F   UNL     1      -7.974  19.687  68.800  1.00  0.00    -0.368 F  
ENDBRANCH   3   5
TORSDOF 1
ENDMDL
MODEL      109
REMARK 921   NORMALIZED FREE ENERGY PREDICTED BY IDOCK:   -2.65 KCAL/MOL
REMARK 922        TOTAL FREE ENERGY PREDICTED BY IDOCK:   -3.00 KCAL/MOL
REMARK 923 INTER-LIGAND FREE ENERGY PREDICTED BY IDOCK:   -2.78 KCAL/MOL
REMARK 924 INTRA-LIGAND FREE ENERGY PREDICTED BY IDOCK:   -0.23 KCAL/MOL
REMARK 927      BINDING AFFINITY PREDICTED BY RF-SCORE:    0.00 PKD
ROOT
HETATM    1  F   UNL     1     -10.701  12.683  68.804  1.00  0.00    -0.230 F  
HETATM    2  C   UNL     1     -10.760  12.437  67.475  1.00  0.00    -0.228 C  
HETATM    3  O   UNL     1     -11.136  13.630  66.828  1.00  0.00    -0.299 OA 
HETATM    4  F   UNL     1     -11.762  11.545  67.285  1.00  0.00    -0.364 F  
ENDROOT
BRANCH   3   5
HETATM    5  C   UNL     1     -10.150  14.630  67.059  1.00  0.00    -0.249 C  
HETATM    6  C   UNL     1     -10.640  15.740  68.007  1.00  0.00    -0.279 C  
HETATM    7  F   UNL     1      -9.837  15.154  65.840  1.00  0.00    -0.274 F  
HETATM    8  F   UNL     1      -9.920  15.744  69.159  1.00  0.00    -0.189 F  
HETATM    9  F   UNL     1     -11.941  15.605  68.353  1.00  0.00    -0.361 F  
HETATM   10  F   UNL     1     -10.502  16.968  67.455  1.00  0.00    -0.304 F  
ENDBRANCH   3   5
TORSDOF 1
ENDMDL
MODEL      110
REMARK 921   NORMALIZED FREE ENERGY PREDICTED BY IDOCK:   -2.65 KCAL/MOL
REMARK 922        TOTAL FREE ENERGY PREDICTED BY IDOCK:   -3.00 KCAL/MOL
REMARK 923 INTER-LIGAND FREE ENERGY PREDICTED BY IDOCK:   -2.78 KCAL/MOL
REMARK 924 INTRA-LIGAND FREE ENERGY PREDICTED BY IDOCK:   -0.22 KCAL/MOL
REMARK 927      BINDING AFFINITY PREDICTED BY RF-SCORE:    0.00 PKD
ROOT
HETATM    1  F   UNL     1      -9.448   7.167  68.166  1.00  0.00    -0.133 F  
HETATM    2  C   UNL     1     -10.767   7.071  67.878  1.00  0.00    -0.210 C  
HETATM    3  O   UNL     1     -11.332   6.112  68.741  1.00  0.00    -0.344 OA 
HETATM    4  F   UNL     1     -10.860   6.581  66.619  1.00  0.00    -0.345 F  
ENDROOT
BRANCH   3   5
HETATM    5  C   UNL     1     -11.195   6.543  70.090  1.00  0.00    -0.377 C  
HETATM    6  C   UNL     1     -10.488   5.502  70.977  1.00  0.00    -0.244 C  
HETATM    7  F   UNL     1     -12.456   6.779  70.551  1.00  0.00    -0.428 F  
HETATM    8  F   UNL     1      -9.300   5.980  71.430  1.00  0.00    -0.145 F  
HETATM    9  F   UNL     1     -10.229   4.343  70.329  1.00  0.00    -0.297 F  
HETATM   10  F   UNL     1     -11.225   5.191  72.069  1.00  0.00    -0.257 F  
ENDBRANCH   3   5
TORSDOF 1
ENDMDL
MODEL      111
REMARK 921   NORMALIZED FREE ENERGY PREDICTED BY IDOCK:   -2.65 KCAL/MOL
REMARK 922        TOTAL FREE ENERGY PREDICTED BY IDOCK:   -3.00 KCAL/MOL
REMARK 923 INTER-LIGAND FREE ENERGY PREDICTED BY IDOCK:   -2.77 KCAL/MOL
REMARK 924 INTRA-LIGAND FREE ENERGY PREDICTED BY IDOCK:   -0.23 KCAL/MOL
REMARK 927      BINDING AFFINITY PREDICTED BY RF-SCORE:    0.00 PKD
ROOT
HETATM    1  F   UNL     1      -8.617   8.612  69.716  1.00  0.00    -0.120 F  
HETATM    2  C   UNL     1      -9.589   8.307  70.607  1.00  0.00    -0.171 C  
HETATM    3  O   UNL     1     -10.770   8.038  69.889  1.00  0.00    -0.244 OA 
HETATM    4  F   UNL     1      -9.813   9.423  71.341  1.00  0.00    -0.350 F  
ENDROOT
BRANCH   3   5
HETATM    5  C   UNL     1     -10.567   6.914  69.040  1.00  0.00    -0.217 C  
HETATM    6  C   UNL     1     -10.523   7.295  67.549  1.00  0.00    -0.266 C  
HETATM    7  F   UNL     1     -11.601   6.057  69.278  1.00  0.00    -0.469 F  
HETATM    8  F   UNL     1      -9.297   7.042  67.022  1.00  0.00    -0.130 F  
HETATM    9  F   UNL     1     -10.788   8.604  67.329  1.00  0.00    -0.358 F  
HETATM   10  F   UNL     1     -11.415   6.582  66.823  1.00  0.00    -0.446 F  
ENDBRANCH   3   5
TORSDOF 1
ENDMDL
MODEL      112
REMARK 921   NORMALIZED FREE ENERGY PREDICTED BY IDOCK:   -2.64 KCAL/MOL
REMARK 922        TOTAL FREE ENERGY PREDICTED BY IDOCK:   -2.98 KCAL/MOL
REMARK 923 INTER-LIGAND FREE ENERGY PREDICTED BY IDOCK:   -2.84 KCAL/MOL
REMARK 924 INTRA-LIGAND FREE ENERGY PREDICTED BY IDOCK:   -0.14 KCAL/MOL
REMARK 927      BINDING AFFINITY PREDICTED BY RF-SCORE:    0.00 PKD
ROOT
HETATM    1  F   UNL     1     -12.277  11.638  69.594  1.00  0.00    -0.334 F  
HETATM    2  C   UNL     1     -12.216  11.066  70.820  1.00  0.00    -0.380 C  
HETATM    3  O   UNL     1     -12.104   9.674  70.646  1.00  0.00    -0.263 OA 
HETATM    4  F   UNL     1     -13.406  11.302  71.422  1.00  0.00    -0.435 F  
ENDROOT
BRANCH   3   5
HETATM    5  C   UNL     1     -10.901   9.374  69.948  1.00  0.00    -0.236 C  
HETATM    6  C   UNL     1     -10.628   7.861  69.857  1.00  0.00    -0.242 C  
HETATM    7  F   UNL     1      -9.895   9.996  70.626  1.00  0.00    -0.293 F  
HETATM    8  F   UNL     1     -10.667   7.440  68.566  1.00  0.00    -0.212 F  
HETATM    9  F   UNL     1     -11.526   7.118  70.545  1.00  0.00    -0.287 F  
HETATM   10  F   UNL     1      -9.402   7.543  70.335  1.00  0.00    -0.158 F  
ENDBRANCH   3   5
TORSDOF 1
ENDMDL
MODEL      113
REMARK 921   NORMALIZED FREE ENERGY PREDICTED BY IDOCK:   -2.61 KCAL/MOL
REMARK 922        TOTAL FREE ENERGY PREDICTED BY IDOCK:   -2.96 KCAL/MOL
REMARK 923 INTER-LIGAND FREE ENERGY PREDICTED BY IDOCK:   -2.74 KCAL/MOL
REMARK 924 INTRA-LIGAND FREE ENERGY PREDICTED BY IDOCK:   -0.22 KCAL/MOL
REMARK 927      BINDING AFFINITY PREDICTED BY RF-SCORE:    0.00 PKD
ROOT
HETATM    1  F   UNL     1     -11.098  15.263  66.140  1.00  0.00    -0.332 F  
HETATM    2  C   UNL     1      -9.832  14.986  65.750  1.00  0.00    -0.353 C  
HETATM    3  O   UNL     1      -9.218  14.231  66.768  1.00  0.00    -0.248 OA 
HETATM    4  F   UNL     1      -9.177  16.169  65.677  1.00  0.00    -0.335 F  
ENDROOT
BRANCH   3   5
HETATM    5  C   UNL     1      -9.916  13.003  66.939  1.00  0.00    -0.243 C  
HETATM    6  C   UNL     1     -10.754  12.970  68.231  1.00  0.00    -0.245 C  
HETATM    7  F   UNL     1      -8.971  12.021  66.964  1.00  0.00    -0.171 F  
HETATM    8  F   UNL     1     -12.079  12.886  67.946  1.00  0.00    -0.374 F  
HETATM    9  F   UNL     1     -10.582  14.070  69.001  1.00  0.00    -0.232 F  
HETATM   10  F   UNL     1     -10.450  11.898  68.998  1.00  0.00    -0.212 F  
ENDBRANCH   3   5
TORSDOF 1
ENDMDL
MODEL      114
REMARK 921   NORMALIZED FREE ENERGY PREDICTED BY IDOCK:   -2.61 KCAL/MOL
REMARK 922        TOTAL FREE ENERGY PREDICTED BY IDOCK:   -2.96 KCAL/MOL
REMARK 923 INTER-LIGAND FREE ENERGY PREDICTED BY IDOCK:   -2.71 KCAL/MOL
REMARK 924 INTRA-LIGAND FREE ENERGY PREDICTED BY IDOCK:   -0.24 KCAL/MOL
REMARK 927      BINDING AFFINITY PREDICTED BY RF-SCORE:    0.00 PKD
ROOT
HETATM    1  F   UNL     1      -9.954  10.550  69.719  1.00  0.00    -0.243 F  
HETATM    2  C   UNL     1      -9.626   9.391  69.103  1.00  0.00    -0.163 C  
HETATM    3  O   UNL     1      -9.790   8.344  70.030  1.00  0.00    -0.179 OA 
HETATM    4  F   UNL     1      -8.306   9.463  68.809  1.00  0.00    -0.109 F  
ENDROOT
BRANCH   3   5
HETATM    5  C   UNL     1     -11.153   8.271  70.432  1.00  0.00    -0.235 C  
HETATM    6  C   UNL     1     -11.354   8.625  71.918  1.00  0.00    -0.347 C  
HETATM    7  F   UNL     1     -11.559   6.992  70.192  1.00  0.00    -0.312 F  
HETATM    8  F   UNL     1     -12.095   9.755  72.049  1.00  0.00    -0.440 F  
HETATM    9  F   UNL     1     -10.189   8.834  72.574  1.00  0.00    -0.366 F  
HETATM   10  F   UNL     1     -12.013   7.646  72.581  1.00  0.00    -0.322 F  
ENDBRANCH   3   5
TORSDOF 1
ENDMDL
MODEL      115
REMARK 921   NORMALIZED FREE ENERGY PREDICTED BY IDOCK:   -2.60 KCAL/MOL
REMARK 922        TOTAL FREE ENERGY PREDICTED BY IDOCK:   -2.95 KCAL/MOL
REMARK 923 INTER-LIGAND FREE ENERGY PREDICTED BY IDOCK:   -2.73 KCAL/MOL
REMARK 924 INTRA-LIGAND FREE ENERGY PREDICTED BY IDOCK:   -0.21 KCAL/MOL
REMARK 927      BINDING AFFINITY PREDICTED BY RF-SCORE:    0.00 PKD
ROOT
HETATM    1  F   UNL     1     -10.064  10.743  62.860  1.00  0.00    -0.340 F  
HETATM    2  C   UNL     1      -9.148  10.136  63.650  1.00  0.00    -0.260 C  
HETATM    3  O   UNL     1      -9.164  10.773  64.906  1.00  0.00    -0.197 OA 
HETATM    4  F   UNL     1      -7.935  10.371  63.097  1.00  0.00    -0.145 F  
ENDROOT
BRANCH   3   5
HETATM    5  C   UNL     1     -10.447  10.621  65.502  1.00  0.00    -0.176 C  
HETATM    6  C   UNL     1     -11.065  11.964  65.935  1.00  0.00    -0.316 C  
HETATM    7  F   UNL     1     -10.277   9.809  66.584  1.00  0.00    -0.257 F  
HETATM    8  F   UNL     1     -12.191  12.229  65.224  1.00  0.00    -0.456 F  
HETATM    9  F   UNL     1     -10.228  13.012  65.759  1.00  0.00    -0.269 F  
HETATM   10  F   UNL     1     -11.420  11.954  67.241  1.00  0.00    -0.319 F  
ENDBRANCH   3   5
TORSDOF 1
ENDMDL
MODEL      116
REMARK 921   NORMALIZED FREE ENERGY PREDICTED BY IDOCK:   -2.59 KCAL/MOL
REMARK 922        TOTAL FREE ENERGY PREDICTED BY IDOCK:   -2.94 KCAL/MOL
REMARK 923 INTER-LIGAND FREE ENERGY PREDICTED BY IDOCK:   -2.70 KCAL/MOL
REMARK 924 INTRA-LIGAND FREE ENERGY PREDICTED BY IDOCK:   -0.24 KCAL/MOL
REMARK 927      BINDING AFFINITY PREDICTED BY RF-SCORE:    0.00 PKD
ROOT
HETATM    1  F   UNL     1     -10.298   6.331  72.280  1.00  0.00    -0.196 F  
HETATM    2  C   UNL     1     -10.767   7.229  73.177  1.00  0.00    -0.365 C  
HETATM    3  O   UNL     1     -10.765   8.497  72.567  1.00  0.00    -0.332 OA 
HETATM    4  F   UNL     1      -9.872   7.272  74.193  1.00  0.00    -0.301 F  
ENDROOT
BRANCH   3   5
HETATM    5  C   UNL     1     -11.637   8.487  71.442  1.00  0.00    -0.289 C  
HETATM    6  C   UNL     1     -10.886   8.647  70.107  1.00  0.00    -0.233 C  
HETATM    7  F   UNL     1     -12.510   9.518  71.619  1.00  0.00    -0.357 F  
HETATM    8  F   UNL     1     -11.012   7.531  69.344  1.00  0.00    -0.236 F  
HETATM    9  F   UNL     1      -9.561   8.870  70.268  1.00  0.00    -0.161 F  
HETATM   10  F   UNL     1     -11.375   9.677  69.377  1.00  0.00    -0.226 F  
ENDBRANCH   3   5
TORSDOF 1
ENDMDL
MODEL      117
REMARK 921   NORMALIZED FREE ENERGY PREDICTED BY IDOCK:   -2.57 KCAL/MOL
REMARK 922        TOTAL FREE ENERGY PREDICTED BY IDOCK:   -2.92 KCAL/MOL
REMARK 923 INTER-LIGAND FREE ENERGY PREDICTED BY IDOCK:   -2.68 KCAL/MOL
REMARK 924 INTRA-LIGAND FREE ENERGY PREDICTED BY IDOCK:   -0.24 KCAL/MOL
REMARK 927      BINDING AFFINITY PREDICTED BY RF-SCORE:    0.00 PKD
ROOT
HETATM    1  F   UNL     1     -11.445   5.846  70.338  1.00  0.00    -0.390 F  
HETATM    2  C   UNL     1     -12.040   6.901  70.941  1.00  0.00    -0.373 C  
HETATM    3  O   UNL     1     -12.063   6.655  72.327  1.00  0.00    -0.272 OA 
HETATM    4  F   UNL     1     -13.325   6.923  70.517  1.00  0.00    -0.208 F  
ENDROOT
BRANCH   3   5
HETATM    5  C   UNL     1     -10.730   6.548  72.816  1.00  0.00    -0.240 C  
HETATM    6  C   UNL     1     -10.372   5.117  73.258  1.00  0.00    -0.204 C  
HETATM    7  F   UNL     1     -10.635   7.406  73.871  1.00  0.00    -0.400 F  
HETATM    8  F   UNL     1      -9.390   4.601  72.474  1.00  0.00    -0.135 F  
HETATM    9  F   UNL     1     -11.421   4.265  73.193  1.00  0.00    -0.301 F  
HETATM   10  F   UNL     1      -9.913   5.086  74.530  1.00  0.00    -0.157 F  
ENDBRANCH   3   5
TORSDOF 1
ENDMDL
MODEL      118
REMARK 921   NORMALIZED FREE ENERGY PREDICTED BY IDOCK:   -2.57 KCAL/MOL
REMARK 922        TOTAL FREE ENERGY PREDICTED BY IDOCK:   -2.91 KCAL/MOL
REMARK 923 INTER-LIGAND FREE ENERGY PREDICTED BY IDOCK:   -2.67 KCAL/MOL
REMARK 924 INTRA-LIGAND FREE ENERGY PREDICTED BY IDOCK:   -0.24 KCAL/MOL
REMARK 927      BINDING AFFINITY PREDICTED BY RF-SCORE:    0.00 PKD
ROOT
HETATM    1  F   UNL     1      -8.749   7.431  69.235  1.00  0.00    -0.133 F  
HETATM    2  C   UNL     1      -9.262   8.674  69.081  1.00  0.00    -0.152 C  
HETATM    3  O   UNL     1     -10.661   8.588  69.217  1.00  0.00    -0.213 OA 
HETATM    4  F   UNL     1      -9.006   9.049  67.806  1.00  0.00    -0.126 F  
ENDROOT
BRANCH   3   5
HETATM    5  C   UNL     1     -10.987   8.124  70.522  1.00  0.00    -0.243 C  
HETATM    6  C   UNL     1     -11.638   6.728  70.511  1.00  0.00    -0.372 C  
HETATM    7  F   UNL     1     -11.843   9.041  71.056  1.00  0.00    -0.297 F  
HETATM    8  F   UNL     1     -10.845   5.820  71.137  1.00  0.00    -0.290 F  
HETATM    9  F   UNL     1     -11.868   6.261  69.262  1.00  0.00    -0.445 F  
HETATM   10  F   UNL     1     -12.825   6.724  71.161  1.00  0.00    -0.399 F  
ENDBRANCH   3   5
TORSDOF 1
ENDMDL
MODEL      119
REMARK 921   NORMALIZED FREE ENERGY PREDICTED BY IDOCK:   -2.55 KCAL/MOL
REMARK 922        TOTAL FREE ENERGY PREDICTED BY IDOCK:   -2.89 KCAL/MOL
REMARK 923 INTER-LIGAND FREE ENERGY PREDICTED BY IDOCK:   -2.75 KCAL/MOL
REMARK 924 INTRA-LIGAND FREE ENERGY PREDICTED BY IDOCK:   -0.14 KCAL/MOL
REMARK 927      BINDING AFFINITY PREDICTED BY RF-SCORE:    0.00 PKD
ROOT
HETATM    1  F   UNL     1     -13.009   6.117  72.203  1.00  0.00    -0.334 F  
HETATM    2  C   UNL     1     -11.661   6.049  72.295  1.00  0.00    -0.307 C  
HETATM    3  O   UNL     1     -11.156   5.673  71.036  1.00  0.00    -0.233 OA 
HETATM    4  F   UNL     1     -11.377   5.045  73.158  1.00  0.00    -0.311 F  
ENDROOT
BRANCH   3   5
HETATM    5  C   UNL     1     -11.493   6.662  70.071  1.00  0.00    -0.375 C  
HETATM    6  C   UNL     1     -10.646   6.556  68.790  1.00  0.00    -0.243 C  
HETATM    7  F   UNL     1     -11.295   7.871  70.670  1.00  0.00    -0.264 F  
HETATM    8  F   UNL     1     -11.422   6.240  67.721  1.00  0.00    -0.391 F  
HETATM    9  F   UNL     1      -9.679   5.613  68.871  1.00  0.00    -0.134 F  
HETATM   10  F   UNL     1     -10.033   7.727  68.496  1.00  0.00    -0.162 F  
ENDBRANCH   3   5
TORSDOF 1
ENDMDL
MODEL      120
REMARK 921   NORMALIZED FREE ENERGY PREDICTED BY IDOCK:   -2.54 KCAL/MOL
REMARK 922        TOTAL FREE ENERGY PREDICTED BY IDOCK:   -2.88 KCAL/MOL
REMARK 923 INTER-LIGAND FREE ENERGY PREDICTED BY IDOCK:   -3.67 KCAL/MOL
REMARK 924 INTRA-LIGAND FREE ENERGY PREDICTED BY IDOCK:    0.79 KCAL/MOL
REMARK 927      BINDING AFFINITY PREDICTED BY RF-SCORE:    0.00 PKD
ROOT
HETATM    1  F   UNL     1      -9.842  12.136  66.231  1.00  0.00    -0.215 F  
HETATM    2  C   UNL     1     -10.845  11.738  65.414  1.00  0.00    -0.295 C  
HETATM    3  O   UNL     1     -12.056  12.224  65.942  1.00  0.00    -0.609 OA 
HETATM    4  F   UNL     1     -10.891  10.386  65.480  1.00  0.00    -0.211 F  
ENDROOT
BRANCH   3   5
HETATM    5  C   UNL     1     -12.031  13.646  65.966  1.00  0.00    -0.413 C  
HETATM    6  C   UNL     1     -11.812  14.260  64.570  1.00  0.00    -0.442 C  
HETATM    7  F   UNL     1     -11.016  14.001  66.803  1.00  0.00    -0.286 F  
HETATM    8  F   UNL     1     -12.899  14.975  64.181  1.00  0.00    -0.375 F  
HETATM    9  F   UNL     1     -11.583  13.332  63.613  1.00  0.00    -0.434 F  
HETATM   10  F   UNL     1     -10.760  15.111  64.557  1.00  0.00    -0.388 F  
ENDBRANCH   3   5
TORSDOF 1
ENDMDL
MODEL      121
REMARK 921   NORMALIZED FREE ENERGY PREDICTED BY IDOCK:   -2.53 KCAL/MOL
REMARK 922        TOTAL FREE ENERGY PREDICTED BY IDOCK:   -2.87 KCAL/MOL
REMARK 923 INTER-LIGAND FREE ENERGY PREDICTED BY IDOCK:   -2.63 KCAL/MOL
REMARK 924 INTRA-LIGAND FREE ENERGY PREDICTED BY IDOCK:   -0.24 KCAL/MOL
REMARK 927      BINDING AFFINITY PREDICTED BY RF-SCORE:    0.00 PKD
ROOT
HETATM    1  F   UNL     1     -11.871   7.049  72.652  1.00  0.00    -0.266 F  
HETATM    2  C   UNL     1     -10.601   7.386  72.977  1.00  0.00    -0.343 C  
HETATM    3  O   UNL     1      -9.730   6.651  72.151  1.00  0.00    -0.155 OA 
HETATM    4  F   UNL     1     -10.397   6.967  74.248  1.00  0.00    -0.374 F  
ENDROOT
BRANCH   3   5
HETATM    5  C   UNL     1      -9.955   6.999  70.789  1.00  0.00    -0.190 C  
HETATM    6  C   UNL     1     -10.484   5.819  69.953  1.00  0.00    -0.290 C  
HETATM    7  F   UNL     1      -8.758   7.429  70.297  1.00  0.00    -0.138 F  
HETATM    8  F   UNL     1     -11.741   6.069  69.505  1.00  0.00    -0.470 F  
HETATM    9  F   UNL     1     -10.533   4.658  70.648  1.00  0.00    -0.271 F  
HETATM   10  F   UNL     1      -9.717   5.595  68.861  1.00  0.00    -0.134 F  
ENDBRANCH   3   5
TORSDOF 1
ENDMDL
MODEL      122
REMARK 921   NORMALIZED FREE ENERGY PREDICTED BY IDOCK:   -2.51 KCAL/MOL
REMARK 922        TOTAL FREE ENERGY PREDICTED BY IDOCK:   -2.84 KCAL/MOL
REMARK 923 INTER-LIGAND FREE ENERGY PREDICTED BY IDOCK:   -3.60 KCAL/MOL
REMARK 924 INTRA-LIGAND FREE ENERGY PREDICTED BY IDOCK:    0.76 KCAL/MOL
REMARK 927      BINDING AFFINITY PREDICTED BY RF-SCORE:    0.00 PKD
ROOT
HETATM    1  F   UNL     1      -9.611  20.432  66.727  1.00  0.00    -0.480 F  
HETATM    2  C   UNL     1     -10.407  19.480  66.185  1.00  0.00    -0.520 C  
HETATM    3  O   UNL     1      -9.584  18.438  65.719  1.00  0.00    -0.463 OA 
HETATM    4  F   UNL     1     -11.002  20.036  65.104  1.00  0.00    -0.559 F  
ENDROOT
BRANCH   3   5
HETATM    5  C   UNL     1      -8.874  17.864  66.810  1.00  0.00    -0.258 C  
HETATM    6  C   UNL     1      -9.807  17.245  67.867  1.00  0.00    -0.283 C  
HETATM    7  F   UNL     1      -8.136  18.869  67.362  1.00  0.00    -0.257 F  
HETATM    8  F   UNL     1      -9.627  15.901  67.942  1.00  0.00    -0.209 F  
HETATM    9  F   UNL     1     -11.117  17.457  67.605  1.00  0.00    -0.324 F  
HETATM   10  F   UNL     1      -9.564  17.741  69.102  1.00  0.00    -0.254 F  
ENDBRANCH   3   5
TORSDOF 1
ENDMDL
MODEL      123
REMARK 921   NORMALIZED FREE ENERGY PREDICTED BY IDOCK:   -2.50 KCAL/MOL
REMARK 922        TOTAL FREE ENERGY PREDICTED BY IDOCK:   -2.84 KCAL/MOL
REMARK 923 INTER-LIGAND FREE ENERGY PREDICTED BY IDOCK:   -2.65 KCAL/MOL
REMARK 924 INTRA-LIGAND FREE ENERGY PREDICTED BY IDOCK:   -0.19 KCAL/MOL
REMARK 927      BINDING AFFINITY PREDICTED BY RF-SCORE:    0.00 PKD
ROOT
HETATM    1  F   UNL     1     -10.550  15.090  67.062  1.00  0.00    -0.271 F  
HETATM    2  C   UNL     1     -10.373  15.079  68.404  1.00  0.00    -0.231 C  
HETATM    3  O   UNL     1      -9.458  16.097  68.731  1.00  0.00    -0.210 OA 
HETATM    4  F   UNL     1      -9.786  13.898  68.712  1.00  0.00    -0.217 F  
ENDROOT
BRANCH   3   5
HETATM    5  C   UNL     1      -9.995  17.361  68.358  1.00  0.00    -0.329 C  
HETATM    6  C   UNL     1      -8.987  18.231  67.585  1.00  0.00    -0.266 C  
HETATM    7  F   UNL     1     -10.365  17.981  69.514  1.00  0.00    -0.313 F  
HETATM    8  F   UNL     1      -9.412  18.450  66.314  1.00  0.00    -0.298 F  
HETATM    9  F   UNL     1      -7.758  17.670  67.502  1.00  0.00    -0.190 F  
HETATM   10  F   UNL     1      -8.829  19.446  68.160  1.00  0.00    -0.326 F  
ENDBRANCH   3   5
TORSDOF 1
ENDMDL
MODEL      124
REMARK 921   NORMALIZED FREE ENERGY PREDICTED BY IDOCK:   -2.50 KCAL/MOL
REMARK 922        TOTAL FREE ENERGY PREDICTED BY IDOCK:   -2.84 KCAL/MOL
REMARK 923 INTER-LIGAND FREE ENERGY PREDICTED BY IDOCK:   -2.61 KCAL/MOL
REMARK 924 INTRA-LIGAND FREE ENERGY PREDICTED BY IDOCK:   -0.23 KCAL/MOL
REMARK 927      BINDING AFFINITY PREDICTED BY RF-SCORE:    0.00 PKD
ROOT
HETATM    1  F   UNL     1     -11.221   9.198  72.091  1.00  0.00    -0.421 F  
HETATM    2  C   UNL     1     -11.983   9.851  71.183  1.00  0.00    -0.384 C  
HETATM    3  O   UNL     1     -11.153  10.233  70.112  1.00  0.00    -0.276 OA 
HETATM    4  F   UNL     1     -12.416  10.987  71.780  1.00  0.00    -0.418 F  
ENDROOT
BRANCH   3   5
HETATM    5  C   UNL     1     -10.607   9.074  69.493  1.00  0.00    -0.225 C  
HETATM    6  C   UNL     1      -9.101   8.907  69.765  1.00  0.00    -0.150 C  
HETATM    7  F   UNL     1     -10.835   9.207  68.155  1.00  0.00    -0.263 F  
HETATM    8  F   UNL     1      -8.862   7.786  70.492  1.00  0.00    -0.138 F  
HETATM    9  F   UNL     1      -8.569   9.946  70.450  1.00  0.00    -0.212 F  
HETATM   10  F   UNL     1      -8.395   8.786  68.616  1.00  0.00    -0.120 F  
ENDBRANCH   3   5
TORSDOF 1
ENDMDL
MODEL      125
REMARK 921   NORMALIZED FREE ENERGY PREDICTED BY IDOCK:   -2.46 KCAL/MOL
REMARK 922        TOTAL FREE ENERGY PREDICTED BY IDOCK:   -2.79 KCAL/MOL
REMARK 923 INTER-LIGAND FREE ENERGY PREDICTED BY IDOCK:   -2.56 KCAL/MOL
REMARK 924 INTRA-LIGAND FREE ENERGY PREDICTED BY IDOCK:   -0.24 KCAL/MOL
REMARK 927      BINDING AFFINITY PREDICTED BY RF-SCORE:    0.00 PKD
ROOT
HETATM    1  F   UNL     1      -9.824   6.752  68.325  1.00  0.00    -0.138 F  
HETATM    2  C   UNL     1     -10.002   8.077  68.117  1.00  0.00    -0.185 C  
HETATM    3  O   UNL     1     -10.907   8.553  69.085  1.00  0.00    -0.159 OA 
HETATM    4  F   UNL     1     -10.602   8.208  66.910  1.00  0.00    -0.365 F  
ENDROOT
BRANCH   3   5
HETATM    5  C   UNL     1     -10.355   8.370  70.384  1.00  0.00    -0.205 C  
HETATM    6  C   UNL     1     -11.234   7.479  71.283  1.00  0.00    -0.251 C  
HETATM    7  F   UNL     1     -10.229   9.613  70.930  1.00  0.00    -0.327 F  
HETATM    8  F   UNL     1     -10.588   6.328  71.601  1.00  0.00    -0.232 F  
HETATM    9  F   UNL     1     -12.404   7.131  70.700  1.00  0.00    -0.350 F  
HETATM   10  F   UNL     1     -11.539   8.092  72.451  1.00  0.00    -0.343 F  
ENDBRANCH   3   5
TORSDOF 1
ENDMDL
MODEL      126
REMARK 921   NORMALIZED FREE ENERGY PREDICTED BY IDOCK:   -2.45 KCAL/MOL
REMARK 922        TOTAL FREE ENERGY PREDICTED BY IDOCK:   -2.78 KCAL/MOL
REMARK 923 INTER-LIGAND FREE ENERGY PREDICTED BY IDOCK:   -2.65 KCAL/MOL
REMARK 924 INTRA-LIGAND FREE ENERGY PREDICTED BY IDOCK:   -0.14 KCAL/MOL
REMARK 927      BINDING AFFINITY PREDICTED BY RF-SCORE:    0.00 PKD
ROOT
HETATM    1  F   UNL     1      -8.964   4.288  72.250  1.00  0.00    -0.114 F  
HETATM    2  C   UNL     1      -9.357   5.242  73.125  1.00  0.00    -0.135 C  
HETATM    3  O   UNL     1      -9.997   6.264  72.398  1.00  0.00    -0.172 OA 
HETATM    4  F   UNL     1      -8.231   5.774  73.658  1.00  0.00    -0.110 F  
ENDROOT
BRANCH   3   5
HETATM    5  C   UNL     1     -11.152   5.739  71.753  1.00  0.00    -0.238 C  
HETATM    6  C   UNL     1     -11.779   6.732  70.756  1.00  0.00    -0.386 C  
HETATM    7  F   UNL     1     -12.042   5.435  72.740  1.00  0.00    -0.350 F  
HETATM    8  F   UNL     1     -11.702   6.255  69.487  1.00  0.00    -0.490 F  
HETATM    9  F   UNL     1     -11.174   7.942  70.764  1.00  0.00    -0.250 F  
HETATM   10  F   UNL     1     -13.090   6.942  71.016  1.00  0.00    -0.406 F  
ENDBRANCH   3   5
TORSDOF 1
ENDMDL
MODEL      127
REMARK 921   NORMALIZED FREE ENERGY PREDICTED BY IDOCK:   -2.43 KCAL/MOL
REMARK 922        TOTAL FREE ENERGY PREDICTED BY IDOCK:   -2.77 KCAL/MOL
REMARK 923 INTER-LIGAND FREE ENERGY PREDICTED BY IDOCK:   -2.58 KCAL/MOL
REMARK 924 INTRA-LIGAND FREE ENERGY PREDICTED BY IDOCK:   -0.19 KCAL/MOL
REMARK 927      BINDING AFFINITY PREDICTED BY RF-SCORE:    0.00 PKD
ROOT
HETATM    1  F   UNL     1      -8.366  17.175  67.792  1.00  0.00    -0.191 F  
HETATM    2  C   UNL     1      -8.251  17.512  66.487  1.00  0.00    -0.276 C  
HETATM    3  O   UNL     1      -8.018  18.899  66.414  1.00  0.00    -0.269 OA 
HETATM    4  F   UNL     1      -9.455  17.277  65.913  1.00  0.00    -0.253 F  
ENDROOT
BRANCH   3   5
HETATM    5  C   UNL     1      -6.796  19.214  67.072  1.00  0.00    -0.198 C  
HETATM    6  C   UNL     1      -7.012  19.829  68.467  1.00  0.00    -0.310 C  
HETATM    7  F   UNL     1      -6.137  20.093  66.264  1.00  0.00    -0.173 F  
HETATM    8  F   UNL     1      -6.522  19.013  69.436  1.00  0.00    -0.281 F  
HETATM    9  F   UNL     1      -8.317  20.046  68.753  1.00  0.00    -0.277 F  
HETATM   10  F   UNL     1      -6.375  21.016  68.595  1.00  0.00    -0.351 F  
ENDBRANCH   3   5
TORSDOF 1
ENDMDL
MODEL      128
REMARK 921   NORMALIZED FREE ENERGY PREDICTED BY IDOCK:   -2.42 KCAL/MOL
REMARK 922        TOTAL FREE ENERGY PREDICTED BY IDOCK:   -2.76 KCAL/MOL
REMARK 923 INTER-LIGAND FREE ENERGY PREDICTED BY IDOCK:   -2.61 KCAL/MOL
REMARK 924 INTRA-LIGAND FREE ENERGY PREDICTED BY IDOCK:   -0.15 KCAL/MOL
REMARK 927      BINDING AFFINITY PREDICTED BY RF-SCORE:    0.00 PKD
ROOT
HETATM    1  F   UNL     1     -12.230   7.144  71.798  1.00  0.00    -0.310 F  
HETATM    2  C   UNL     1     -11.491   8.121  72.372  1.00  0.00    -0.397 C  
HETATM    3  O   UNL     1     -10.440   8.446  71.493  1.00  0.00    -0.210 OA 
HETATM    4  F   UNL     1     -10.932   7.589  73.485  1.00  0.00    -0.424 F  
ENDROOT
BRANCH   3   5
HETATM    5  C   UNL     1     -10.975   8.943  70.272  1.00  0.00    -0.241 C  
HETATM    6  C   UNL     1     -10.078   8.631  69.059  1.00  0.00    -0.199 C  
HETATM    7  F   UNL     1     -11.107  10.291  70.427  1.00  0.00    -0.298 F  
HETATM    8  F   UNL     1     -10.710   7.796  68.194  1.00  0.00    -0.240 F  
HETATM    9  F   UNL     1      -8.911   8.038  69.403  1.00  0.00    -0.143 F  
HETATM   10  F   UNL     1      -9.766   9.750  68.365  1.00  0.00    -0.144 F  
ENDBRANCH   3   5
TORSDOF 1
ENDMDL
MODEL      129
REMARK 921   NORMALIZED FREE ENERGY PREDICTED BY IDOCK:   -2.42 KCAL/MOL
REMARK 922        TOTAL FREE ENERGY PREDICTED BY IDOCK:   -2.75 KCAL/MOL
REMARK 923 INTER-LIGAND FREE ENERGY PREDICTED BY IDOCK:   -2.63 KCAL/MOL
REMARK 924 INTRA-LIGAND FREE ENERGY PREDICTED BY IDOCK:   -0.13 KCAL/MOL
REMARK 927      BINDING AFFINITY PREDICTED BY RF-SCORE:    0.00 PKD
ROOT
HETATM    1  F   UNL     1     -10.019   8.703  68.892  1.00  0.00    -0.170 F  
HETATM    2  C   UNL     1      -9.982   9.049  67.585  1.00  0.00    -0.201 C  
HETATM    3  O   UNL     1     -10.962  10.038  67.368  1.00  0.00    -0.283 OA 
HETATM    4  F   UNL     1     -10.354   7.955  66.878  1.00  0.00    -0.308 F  
ENDROOT
BRANCH   3   5
HETATM    5  C   UNL     1     -10.660  11.188  68.149  1.00  0.00    -0.193 C  
HETATM    6  C   UNL     1     -11.364  12.457  67.634  1.00  0.00    -0.312 C  
HETATM    7  F   UNL     1      -9.306  11.346  68.099  1.00  0.00    -0.155 F  
HETATM    8  F   UNL     1     -12.254  12.921  68.549  1.00  0.00    -0.342 F  
HETATM    9  F   UNL     1     -12.047  12.254  66.483  1.00  0.00    -0.427 F  
HETATM   10  F   UNL     1     -10.484  13.459  67.401  1.00  0.00    -0.237 F  
ENDBRANCH   3   5
TORSDOF 1
ENDMDL
MODEL      130
REMARK 921   NORMALIZED FREE ENERGY PREDICTED BY IDOCK:   -2.40 KCAL/MOL
REMARK 922        TOTAL FREE ENERGY PREDICTED BY IDOCK:   -2.74 KCAL/MOL
REMARK 923 INTER-LIGAND FREE ENERGY PREDICTED BY IDOCK:   -2.60 KCAL/MOL
REMARK 924 INTRA-LIGAND FREE ENERGY PREDICTED BY IDOCK:   -0.14 KCAL/MOL
REMARK 927      BINDING AFFINITY PREDICTED BY RF-SCORE:    0.00 PKD
ROOT
HETATM    1  F   UNL     1      -7.610  13.083  66.981  1.00  0.00    -0.143 F  
HETATM    2  C   UNL     1      -8.927  12.854  67.195  1.00  0.00    -0.219 C  
HETATM    3  O   UNL     1      -9.579  14.099  67.268  1.00  0.00    -0.222 OA 
HETATM    4  F   UNL     1      -9.032  12.274  68.414  1.00  0.00    -0.180 F  
ENDROOT
BRANCH   3   5
HETATM    5  C   UNL     1      -9.435  14.788  66.031  1.00  0.00    -0.264 C  
HETATM    6  C   UNL     1      -9.744  16.292  66.148  1.00  0.00    -0.329 C  
HETATM    7  F   UNL     1     -10.297  14.196  65.156  1.00  0.00    -0.326 F  
HETATM    8  F   UNL     1      -8.634  17.034  65.898  1.00  0.00    -0.291 F  
HETATM    9  F   UNL     1     -10.190  16.647  67.376  1.00  0.00    -0.258 F  
HETATM   10  F   UNL     1     -10.684  16.682  65.257  1.00  0.00    -0.366 F  
ENDBRANCH   3   5
TORSDOF 1
ENDMDL
MODEL      131
REMARK 921   NORMALIZED FREE ENERGY PREDICTED BY IDOCK:   -2.39 KCAL/MOL
REMARK 922        TOTAL FREE ENERGY PREDICTED BY IDOCK:   -2.72 KCAL/MOL
REMARK 923 INTER-LIGAND FREE ENERGY PREDICTED BY IDOCK:   -2.58 KCAL/MOL
REMARK 924 INTRA-LIGAND FREE ENERGY PREDICTED BY IDOCK:   -0.14 KCAL/MOL
REMARK 927      BINDING AFFINITY PREDICTED BY RF-SCORE:    0.00 PKD
ROOT
HETATM    1  F   UNL     1     -12.273  12.333  68.878  1.00  0.00    -0.312 F  
HETATM    2  C   UNL     1     -11.797  11.545  69.870  1.00  0.00    -0.355 C  
HETATM    3  O   UNL     1     -11.538  10.271  69.328  1.00  0.00    -0.206 OA 
HETATM    4  F   UNL     1     -12.797  11.401  70.771  1.00  0.00    -0.382 F  
ENDROOT
BRANCH   3   5
HETATM    5  C   UNL     1     -10.542  10.375  68.317  1.00  0.00    -0.212 C  
HETATM    6  C   UNL     1     -10.168   9.012  67.708  1.00  0.00    -0.230 C  
HETATM    7  F   UNL     1      -9.451  10.945  68.906  1.00  0.00    -0.172 F  
HETATM    8  F   UNL     1     -10.511   8.958  66.395  1.00  0.00    -0.348 F  
HETATM    9  F   UNL     1     -10.780   7.972  68.321  1.00  0.00    -0.234 F  
HETATM   10  F   UNL     1      -8.836   8.782  67.774  1.00  0.00    -0.132 F  
ENDBRANCH   3   5
TORSDOF 1
ENDMDL
MODEL      132
REMARK 921   NORMALIZED FREE ENERGY PREDICTED BY IDOCK:   -2.39 KCAL/MOL
REMARK 922        TOTAL FREE ENERGY PREDICTED BY IDOCK:   -2.72 KCAL/MOL
REMARK 923 INTER-LIGAND FREE ENERGY PREDICTED BY IDOCK:   -2.63 KCAL/MOL
REMARK 924 INTRA-LIGAND FREE ENERGY PREDICTED BY IDOCK:   -0.09 KCAL/MOL
REMARK 927      BINDING AFFINITY PREDICTED BY RF-SCORE:    0.00 PKD
ROOT
HETATM    1  F   UNL     1      -9.529   9.474  66.663  1.00  0.00    -0.168 F  
HETATM    2  C   UNL     1      -8.619  10.265  66.049  1.00  0.00    -0.145 C  
HETATM    3  O   UNL     1      -9.103  10.570  64.763  1.00  0.00    -0.187 OA 
HETATM    4  F   UNL     1      -7.497   9.523  65.890  1.00  0.00    -0.094 F  
ENDROOT
BRANCH   3   5
HETATM    5  C   UNL     1     -10.326  11.289  64.871  1.00  0.00    -0.304 C  
HETATM    6  C   UNL     1     -10.604  12.176  63.643  1.00  0.00    -0.461 C  
HETATM    7  F   UNL     1     -10.226  12.056  65.994  1.00  0.00    -0.226 F  
HETATM    8  F   UNL     1     -11.713  11.753  62.982  1.00  0.00    -0.401 F  
HETATM    9  F   UNL     1      -9.587  12.180  62.750  1.00  0.00    -0.256 F  
HETATM   10  F   UNL     1     -10.827  13.464  63.995  1.00  0.00    -0.383 F  
ENDBRANCH   3   5
TORSDOF 1
ENDMDL
MODEL      133
REMARK 921   NORMALIZED FREE ENERGY PREDICTED BY IDOCK:   -2.36 KCAL/MOL
REMARK 922        TOTAL FREE ENERGY PREDICTED BY IDOCK:   -2.69 KCAL/MOL
REMARK 923 INTER-LIGAND FREE ENERGY PREDICTED BY IDOCK:   -2.53 KCAL/MOL
REMARK 924 INTRA-LIGAND FREE ENERGY PREDICTED BY IDOCK:   -0.16 KCAL/MOL
REMARK 927      BINDING AFFINITY PREDICTED BY RF-SCORE:    0.00 PKD
ROOT
HETATM    1  F   UNL     1     -12.042  12.119  68.818  1.00  0.00    -0.337 F  
HETATM    2  C   UNL     1     -12.303  12.711  70.006  1.00  0.00    -0.094 C  
HETATM    3  O   UNL     1     -11.410  13.788  70.163  1.00  0.00    -0.123 OA 
HETATM    4  F   UNL     1     -12.010  11.804  70.969  1.00  0.00    -0.407 F  
ENDROOT
BRANCH   3   5
HETATM    5  C   UNL     1     -11.625  14.741  69.128  1.00  0.00    -0.303 C  
HETATM    6  C   UNL     1     -10.317  15.389  68.636  1.00  0.00    -0.234 C  
HETATM    7  F   UNL     1     -12.458  15.689  69.641  1.00  0.00    -0.359 F  
HETATM    8  F   UNL     1     -10.075  15.064  67.339  1.00  0.00    -0.225 F  
HETATM    9  F   UNL     1      -9.234  15.005  69.351  1.00  0.00    -0.198 F  
HETATM   10  F   UNL     1     -10.374  16.740  68.696  1.00  0.00    -0.246 F  
ENDBRANCH   3   5
TORSDOF 1
ENDMDL
MODEL      134
REMARK 921   NORMALIZED FREE ENERGY PREDICTED BY IDOCK:   -2.33 KCAL/MOL
REMARK 922        TOTAL FREE ENERGY PREDICTED BY IDOCK:   -2.66 KCAL/MOL
REMARK 923 INTER-LIGAND FREE ENERGY PREDICTED BY IDOCK:   -2.63 KCAL/MOL
REMARK 924 INTRA-LIGAND FREE ENERGY PREDICTED BY IDOCK:   -0.02 KCAL/MOL
REMARK 927      BINDING AFFINITY PREDICTED BY RF-SCORE:    0.00 PKD
ROOT
HETATM    1  F   UNL     1     -13.331  13.479  70.064  1.00  0.00     0.172 F  
HETATM    2  C   UNL     1     -13.459  13.717  71.389  1.00  0.00    -0.226 C  
HETATM    3  O   UNL     1     -12.426  14.592  71.776  1.00  0.00    -0.320 OA 
HETATM    4  F   UNL     1     -13.245  12.539  72.022  1.00  0.00    -0.517 F  
ENDROOT
BRANCH   3   5
HETATM    5  C   UNL     1     -12.560  15.826  71.081  1.00  0.00    -0.431 C  
HETATM    6  C   UNL     1     -11.708  15.882  69.799  1.00  0.00    -0.318 C  
HETATM    7  F   UNL     1     -12.172  16.804  71.949  1.00  0.00    -0.284 F  
HETATM    8  F   UNL     1     -12.497  15.970  68.698  1.00  0.00    -0.135 F  
HETATM    9  F   UNL     1     -10.921  14.792  69.639  1.00  0.00    -0.251 F  
HETATM   10  F   UNL     1     -10.894  16.964  69.785  1.00  0.00    -0.322 F  
ENDBRANCH   3   5
TORSDOF 1
ENDMDL
MODEL      135
REMARK 921   NORMALIZED FREE ENERGY PREDICTED BY IDOCK:   -2.32 KCAL/MOL
REMARK 922        TOTAL FREE ENERGY PREDICTED BY IDOCK:   -2.65 KCAL/MOL
REMARK 923 INTER-LIGAND FREE ENERGY PREDICTED BY IDOCK:   -3.64 KCAL/MOL
REMARK 924 INTRA-LIGAND FREE ENERGY PREDICTED BY IDOCK:    0.99 KCAL/MOL
REMARK 927      BINDING AFFINITY PREDICTED BY RF-SCORE:    0.00 PKD
ROOT
HETATM    1  F   UNL     1      -7.278  20.668  67.954  1.00  0.00    -0.323 F  
HETATM    2  C   UNL     1      -7.697  20.232  66.743  1.00  0.00    -0.290 C  
HETATM    3  O   UNL     1      -8.010  18.864  66.858  1.00  0.00    -0.243 OA 
HETATM    4  F   UNL     1      -6.640  20.332  65.903  1.00  0.00    -0.213 F  
ENDROOT
BRANCH   3   5
HETATM    5  C   UNL     1      -9.071  18.693  67.791  1.00  0.00    -0.285 C  
HETATM    6  C   UNL     1     -10.225  19.688  67.569  1.00  0.00    -0.432 C  
HETATM    7  F   UNL     1      -8.528  18.867  69.029  1.00  0.00    -0.349 F  
HETATM    8  F   UNL     1     -11.361  19.038  67.208  1.00  0.00    -0.431 F  
HETATM    9  F   UNL     1      -9.961  20.596  66.600  1.00  0.00    -0.562 F  
HETATM   10  F   UNL     1     -10.511  20.382  68.695  1.00  0.00    -0.516 F  
ENDBRANCH   3   5
TORSDOF 1
ENDMDL
MODEL      136
REMARK 921   NORMALIZED FREE ENERGY PREDICTED BY IDOCK:   -2.32 KCAL/MOL
REMARK 922        TOTAL FREE ENERGY PREDICTED BY IDOCK:   -2.64 KCAL/MOL
REMARK 923 INTER-LIGAND FREE ENERGY PREDICTED BY IDOCK:   -3.53 KCAL/MOL
REMARK 924 INTRA-LIGAND FREE ENERGY PREDICTED BY IDOCK:    0.88 KCAL/MOL
REMARK 927      BINDING AFFINITY PREDICTED BY RF-SCORE:    0.00 PKD
ROOT
HETATM    1  F   UNL     1     -12.438  14.691  66.023  1.00  0.00    -0.329 F  
HETATM    2  C   UNL     1     -12.111  14.438  64.734  1.00  0.00    -0.452 C  
HETATM    3  O   UNL     1     -10.709  14.354  64.648  1.00  0.00    -0.405 OA 
HETATM    4  F   UNL     1     -12.493  15.519  64.013  1.00  0.00    -0.453 F  
ENDROOT
BRANCH   3   5
HETATM    5  C   UNL     1     -10.245  13.275  65.451  1.00  0.00    -0.293 C  
HETATM    6  C   UNL     1     -10.976  11.953  65.152  1.00  0.00    -0.312 C  
HETATM    7  F   UNL     1     -10.446  13.644  66.748  1.00  0.00    -0.261 F  
HETATM    8  F   UNL     1     -10.119  11.032  64.640  1.00  0.00    -0.272 F  
HETATM    9  F   UNL     1     -11.984  12.096  64.261  1.00  0.00    -0.409 F  
HETATM   10  F   UNL     1     -11.510  11.411  66.271  1.00  0.00    -0.340 F  
ENDBRANCH   3   5
TORSDOF 1
ENDMDL
MODEL      137
REMARK 921   NORMALIZED FREE ENERGY PREDICTED BY IDOCK:   -2.31 KCAL/MOL
REMARK 922        TOTAL FREE ENERGY PREDICTED BY IDOCK:   -2.63 KCAL/MOL
REMARK 923 INTER-LIGAND FREE ENERGY PREDICTED BY IDOCK:   -2.39 KCAL/MOL
REMARK 924 INTRA-LIGAND FREE ENERGY PREDICTED BY IDOCK:   -0.24 KCAL/MOL
REMARK 927      BINDING AFFINITY PREDICTED BY RF-SCORE:    0.00 PKD
ROOT
HETATM    1  F   UNL     1     -12.740   6.373  72.039  1.00  0.00    -0.385 F  
HETATM    2  C   UNL     1     -12.216   7.016  70.970  1.00  0.00    -0.374 C  
HETATM    3  O   UNL     1     -10.833   6.755  70.939  1.00  0.00    -0.234 OA 
HETATM    4  F   UNL     1     -12.368   8.343  71.196  1.00  0.00    -0.298 F  
ENDROOT
BRANCH   3   5
HETATM    5  C   UNL     1     -10.614   5.358  70.777  1.00  0.00    -0.223 C  
HETATM    6  C   UNL     1      -9.950   4.714  72.008  1.00  0.00    -0.189 C  
HETATM    7  F   UNL     1      -9.815   5.216  69.681  1.00  0.00    -0.198 F  
HETATM    8  F   UNL     1     -10.784   3.814  72.591  1.00  0.00    -0.236 F  
HETATM    9  F   UNL     1      -9.611   5.615  72.959  1.00  0.00    -0.149 F  
HETATM   10  F   UNL     1      -8.822   4.044  71.676  1.00  0.00    -0.106 F  
ENDBRANCH   3   5
TORSDOF 1
ENDMDL
MODEL      138
REMARK 921   NORMALIZED FREE ENERGY PREDICTED BY IDOCK:   -2.29 KCAL/MOL
REMARK 922        TOTAL FREE ENERGY PREDICTED BY IDOCK:   -2.62 KCAL/MOL
REMARK 923 INTER-LIGAND FREE ENERGY PREDICTED BY IDOCK:   -2.47 KCAL/MOL
REMARK 924 INTRA-LIGAND FREE ENERGY PREDICTED BY IDOCK:   -0.14 KCAL/MOL
REMARK 927      BINDING AFFINITY PREDICTED BY RF-SCORE:    0.00 PKD
ROOT
HETATM    1  F   UNL     1     -11.609   5.927  70.045  1.00  0.00    -0.432 F  
HETATM    2  C   UNL     1     -11.673   6.783  71.090  1.00  0.00    -0.345 C  
HETATM    3  O   UNL     1     -10.417   7.405  71.222  1.00  0.00    -0.208 OA 
HETATM    4  F   UNL     1     -11.868   6.033  72.201  1.00  0.00    -0.338 F  
ENDROOT
BRANCH   3   5
HETATM    5  C   UNL     1     -10.127   8.150  70.046  1.00  0.00    -0.196 C  
HETATM    6  C   UNL     1      -8.968   9.146  70.243  1.00  0.00    -0.217 C  
HETATM    7  F   UNL     1     -11.271   8.816  69.717  1.00  0.00    -0.229 F  
HETATM    8  F   UNL     1      -7.908   8.814  69.462  1.00  0.00    -0.082 F  
HETATM    9  F   UNL     1      -8.522   9.192  71.520  1.00  0.00    -0.218 F  
HETATM   10  F   UNL     1      -9.327  10.406  69.902  1.00  0.00    -0.207 F  
ENDBRANCH   3   5
TORSDOF 1
ENDMDL
MODEL      139
REMARK 921   NORMALIZED FREE ENERGY PREDICTED BY IDOCK:   -2.29 KCAL/MOL
REMARK 922        TOTAL FREE ENERGY PREDICTED BY IDOCK:   -2.61 KCAL/MOL
REMARK 923 INTER-LIGAND FREE ENERGY PREDICTED BY IDOCK:   -2.51 KCAL/MOL
REMARK 924 INTRA-LIGAND FREE ENERGY PREDICTED BY IDOCK:   -0.11 KCAL/MOL
REMARK 927      BINDING AFFINITY PREDICTED BY RF-SCORE:    0.00 PKD
ROOT
HETATM    1  F   UNL     1     -10.359   5.816  68.450  1.00  0.00    -0.180 F  
HETATM    2  C   UNL     1     -10.345   7.046  67.885  1.00  0.00    -0.199 C  
HETATM    3  O   UNL     1     -10.655   7.988  68.884  1.00  0.00    -0.210 OA 
HETATM    4  F   UNL     1     -11.353   7.074  66.981  1.00  0.00    -0.443 F  
ENDROOT
BRANCH   3   5
HETATM    5  C   UNL     1      -9.662   7.949  69.902  1.00  0.00    -0.176 C  
HETATM    6  C   UNL     1      -9.574   9.264  70.698  1.00  0.00    -0.273 C  
HETATM    7  F   UNL     1      -8.477   7.694  69.278  1.00  0.00    -0.130 F  
HETATM    8  F   UNL     1      -9.925   9.068  71.996  1.00  0.00    -0.374 F  
HETATM    9  F   UNL     1     -10.381  10.234  70.210  1.00  0.00    -0.312 F  
HETATM   10  F   UNL     1      -8.315   9.762  70.705  1.00  0.00    -0.212 F  
ENDBRANCH   3   5
TORSDOF 1
ENDMDL
MODEL      140
REMARK 921   NORMALIZED FREE ENERGY PREDICTED BY IDOCK:   -2.27 KCAL/MOL
REMARK 922        TOTAL FREE ENERGY PREDICTED BY IDOCK:   -2.59 KCAL/MOL
REMARK 923 INTER-LIGAND FREE ENERGY PREDICTED BY IDOCK:   -2.44 KCAL/MOL
REMARK 924 INTRA-LIGAND FREE ENERGY PREDICTED BY IDOCK:   -0.15 KCAL/MOL
REMARK 927      BINDING AFFINITY PREDICTED BY RF-SCORE:    0.00 PKD
ROOT
HETATM    1  F   UNL     1     -10.586   9.524  65.931  1.00  0.00    -0.243 F  
HETATM    2  C   UNL     1      -9.557  10.061  65.235  1.00  0.00    -0.291 C  
HETATM    3  O   UNL     1      -9.657  11.463  65.321  1.00  0.00    -0.224 OA 
HETATM    4  F   UNL     1      -9.744   9.725  63.936  1.00  0.00    -0.314 F  
ENDROOT
BRANCH   3   5
HETATM    5  C   UNL     1      -9.542  11.867  66.681  1.00  0.00    -0.209 C  
HETATM    6  C   UNL     1     -10.389  13.112  67.005  1.00  0.00    -0.249 C  
HETATM    7  F   UNL     1      -8.221  12.126  66.897  1.00  0.00    -0.166 F  
HETATM    8  F   UNL     1     -11.367  12.811  67.898  1.00  0.00    -0.254 F  
HETATM    9  F   UNL     1     -10.995  13.638  65.915  1.00  0.00    -0.282 F  
HETATM   10  F   UNL     1      -9.643  14.096  67.559  1.00  0.00    -0.208 F  
ENDBRANCH   3   5
TORSDOF 1
ENDMDL
MODEL      141
REMARK 921   NORMALIZED FREE ENERGY PREDICTED BY IDOCK:   -2.24 KCAL/MOL
REMARK 922        TOTAL FREE ENERGY PREDICTED BY IDOCK:   -2.57 KCAL/MOL
REMARK 923 INTER-LIGAND FREE ENERGY PREDICTED BY IDOCK:   -2.34 KCAL/MOL
REMARK 924 INTRA-LIGAND FREE ENERGY PREDICTED BY IDOCK:   -0.22 KCAL/MOL
REMARK 927      BINDING AFFINITY PREDICTED BY RF-SCORE:    0.00 PKD
ROOT
HETATM    1  F   UNL     1     -11.429  12.645  68.559  1.00  0.00    -0.260 F  
HETATM    2  C   UNL     1     -11.390  12.373  67.234  1.00  0.00    -0.323 C  
HETATM    3  O   UNL     1     -10.319  11.490  67.002  1.00  0.00    -0.209 OA 
HETATM    4  F   UNL     1     -11.097  13.535  66.604  1.00  0.00    -0.286 F  
ENDROOT
BRANCH   3   5
HETATM    5  C   UNL     1     -10.540  10.274  67.705  1.00  0.00    -0.250 C  
HETATM    6  C   UNL     1      -9.600  10.106  68.913  1.00  0.00    -0.184 C  
HETATM    7  F   UNL     1     -10.342   9.266  66.809  1.00  0.00    -0.281 F  
HETATM    8  F   UNL     1     -10.303  10.101  70.076  1.00  0.00    -0.257 F  
HETATM    9  F   UNL     1      -8.680  11.094  69.009  1.00  0.00    -0.159 F  
HETATM   10  F   UNL     1      -8.921   8.936  68.862  1.00  0.00    -0.133 F  
ENDBRANCH   3   5
TORSDOF 1
ENDMDL
MODEL      142
REMARK 921   NORMALIZED FREE ENERGY PREDICTED BY IDOCK:   -2.23 KCAL/MOL
REMARK 922        TOTAL FREE ENERGY PREDICTED BY IDOCK:   -2.55 KCAL/MOL
REMARK 923 INTER-LIGAND FREE ENERGY PREDICTED BY IDOCK:   -2.34 KCAL/MOL
REMARK 924 INTRA-LIGAND FREE ENERGY PREDICTED BY IDOCK:   -0.21 KCAL/MOL
REMARK 927      BINDING AFFINITY PREDICTED BY RF-SCORE:    0.00 PKD
ROOT
HETATM    1  F   UNL     1     -11.593  14.109  66.065  1.00  0.00    -0.325 F  
HETATM    2  C   UNL     1     -11.579  12.843  65.588  1.00  0.00    -0.361 C  
HETATM    3  O   UNL     1     -10.364  12.245  65.973  1.00  0.00    -0.235 OA 
HETATM    4  F   UNL     1     -11.571  12.932  64.237  1.00  0.00    -0.342 F  
ENDROOT
BRANCH   3   5
HETATM    5  C   UNL     1     -10.285  12.193  67.393  1.00  0.00    -0.198 C  
HETATM    6  C   UNL     1      -8.973  12.787  67.938  1.00  0.00    -0.186 C  
HETATM    7  F   UNL     1     -10.388  10.878  67.739  1.00  0.00    -0.186 F  
HETATM    8  F   UNL     1      -9.218  13.897  68.682  1.00  0.00    -0.192 F  
HETATM    9  F   UNL     1      -8.109  13.147  66.961  1.00  0.00    -0.172 F  
HETATM   10  F   UNL     1      -8.323  11.913  68.741  1.00  0.00    -0.145 F  
ENDBRANCH   3   5
TORSDOF 1
ENDMDL
MODEL      143
REMARK 921   NORMALIZED FREE ENERGY PREDICTED BY IDOCK:   -2.20 KCAL/MOL
REMARK 922        TOTAL FREE ENERGY PREDICTED BY IDOCK:   -2.52 KCAL/MOL
REMARK 923 INTER-LIGAND FREE ENERGY PREDICTED BY IDOCK:   -2.28 KCAL/MOL
REMARK 924 INTRA-LIGAND FREE ENERGY PREDICTED BY IDOCK:   -0.24 KCAL/MOL
REMARK 927      BINDING AFFINITY PREDICTED BY RF-SCORE:    0.00 PKD
ROOT
HETATM    1  F   UNL     1      -9.127  13.071  68.826  1.00  0.00    -0.123 F  
HETATM    2  C   UNL     1      -8.420  14.168  68.467  1.00  0.00    -0.157 C  
HETATM    3  O   UNL     1      -9.334  15.189  68.142  1.00  0.00    -0.187 OA 
HETATM    4  F   UNL     1      -7.753  13.851  67.332  1.00  0.00    -0.149 F  
ENDROOT
BRANCH   3   5
HETATM    5  C   UNL     1     -10.117  15.510  69.286  1.00  0.00    -0.256 C  
HETATM    6  C   UNL     1     -11.596  15.112  69.126  1.00  0.00    -0.323 C  
HETATM    7  F   UNL     1     -10.007  16.858  69.464  1.00  0.00    -0.229 F  
HETATM    8  F   UNL     1     -11.937  14.149  70.020  1.00  0.00    -0.309 F  
HETATM    9  F   UNL     1     -11.884  14.631  67.894  1.00  0.00    -0.335 F  
HETATM   10  F   UNL     1     -12.424  16.160  69.345  1.00  0.00    -0.212 F  
ENDBRANCH   3   5
TORSDOF 1
ENDMDL
MODEL      144
REMARK 921   NORMALIZED FREE ENERGY PREDICTED BY IDOCK:   -2.19 KCAL/MOL
REMARK 922        TOTAL FREE ENERGY PREDICTED BY IDOCK:   -2.51 KCAL/MOL
REMARK 923 INTER-LIGAND FREE ENERGY PREDICTED BY IDOCK:   -2.26 KCAL/MOL
REMARK 924 INTRA-LIGAND FREE ENERGY PREDICTED BY IDOCK:   -0.24 KCAL/MOL
REMARK 927      BINDING AFFINITY PREDICTED BY RF-SCORE:    0.00 PKD
ROOT
HETATM    1  F   UNL     1      -9.311  13.803  68.681  1.00  0.00    -0.198 F  
HETATM    2  C   UNL     1      -8.044  14.182  68.395  1.00  0.00    -0.144 C  
HETATM    3  O   UNL     1      -8.086  15.497  67.891  1.00  0.00    -0.133 OA 
HETATM    4  F   UNL     1      -7.611  13.382  67.392  1.00  0.00    -0.139 F  
ENDROOT
BRANCH   3   5
HETATM    5  C   UNL     1      -8.606  16.372  68.884  1.00  0.00    -0.250 C  
HETATM    6  C   UNL     1      -9.926  17.040  68.456  1.00  0.00    -0.293 C  
HETATM    7  F   UNL     1      -7.649  17.318  69.107  1.00  0.00    -0.246 F  
HETATM    8  F   UNL     1     -10.950  16.644  69.255  1.00  0.00    -0.290 F  
HETATM    9  F   UNL     1     -10.279  16.746  67.183  1.00  0.00    -0.268 F  
HETATM   10  F   UNL     1      -9.858  18.389  68.547  1.00  0.00    -0.303 F  
ENDBRANCH   3   5
TORSDOF 1
ENDMDL
MODEL      145
REMARK 921   NORMALIZED FREE ENERGY PREDICTED BY IDOCK:   -2.17 KCAL/MOL
REMARK 922        TOTAL FREE ENERGY PREDICTED BY IDOCK:   -2.49 KCAL/MOL
REMARK 923 INTER-LIGAND FREE ENERGY PREDICTED BY IDOCK:   -2.35 KCAL/MOL
REMARK 924 INTRA-LIGAND FREE ENERGY PREDICTED BY IDOCK:   -0.14 KCAL/MOL
REMARK 927      BINDING AFFINITY PREDICTED BY RF-SCORE:    0.00 PKD
ROOT
HETATM    1  F   UNL     1      -9.354  14.697  66.701  1.00  0.00    -0.227 F  
HETATM    2  C   UNL     1      -8.670  13.546  66.896  1.00  0.00    -0.145 C  
HETATM    3  O   UNL     1      -9.255  12.870  67.984  1.00  0.00    -0.199 OA 
HETATM    4  F   UNL     1      -7.415  13.893  67.267  1.00  0.00    -0.174 F  
ENDROOT
BRANCH   3   5
HETATM    5  C   UNL     1     -10.605  12.546  67.675  1.00  0.00    -0.217 C  
HETATM    6  C   UNL     1     -11.209  11.521  68.654  1.00  0.00    -0.248 C  
HETATM    7  F   UNL     1     -10.603  12.044  66.408  1.00  0.00    -0.246 F  
HETATM    8  F   UNL     1     -12.229  12.072  69.362  1.00  0.00    -0.312 F  
HETATM    9  F   UNL     1     -10.310  11.052  69.550  1.00  0.00    -0.234 F  
HETATM   10  F   UNL     1     -11.719  10.448  68.004  1.00  0.00    -0.347 F  
ENDBRANCH   3   5
TORSDOF 1
ENDMDL
MODEL      146
REMARK 921   NORMALIZED FREE ENERGY PREDICTED BY IDOCK:   -2.17 KCAL/MOL
REMARK 922        TOTAL FREE ENERGY PREDICTED BY IDOCK:   -2.49 KCAL/MOL
REMARK 923 INTER-LIGAND FREE ENERGY PREDICTED BY IDOCK:   -2.25 KCAL/MOL
REMARK 924 INTRA-LIGAND FREE ENERGY PREDICTED BY IDOCK:   -0.24 KCAL/MOL
REMARK 927      BINDING AFFINITY PREDICTED BY RF-SCORE:    0.00 PKD
ROOT
HETATM    1  F   UNL     1      -7.787  16.216  69.071  1.00  0.00    -0.176 F  
HETATM    2  C   UNL     1      -7.278  15.252  68.269  1.00  0.00    -0.117 C  
HETATM    3  O   UNL     1      -8.350  14.485  67.776  1.00  0.00    -0.148 OA 
HETATM    4  F   UNL     1      -6.532  14.440  69.056  1.00  0.00    -0.083 F  
ENDROOT
BRANCH   3   5
HETATM    5  C   UNL     1      -9.211  15.310  66.999  1.00  0.00    -0.218 C  
HETATM    6  C   UNL     1     -10.644  15.369  67.560  1.00  0.00    -0.283 C  
HETATM    7  F   UNL     1      -9.217  14.785  65.740  1.00  0.00    -0.308 F  
HETATM    8  F   UNL     1     -10.949  16.626  67.973  1.00  0.00    -0.334 F  
HETATM    9  F   UNL     1     -10.832  14.546  68.618  1.00  0.00    -0.225 F  
HETATM   10  F   UNL     1     -11.562  15.030  66.626  1.00  0.00    -0.353 F  
ENDBRANCH   3   5
TORSDOF 1
ENDMDL
MODEL      147
REMARK 921   NORMALIZED FREE ENERGY PREDICTED BY IDOCK:   -2.16 KCAL/MOL
REMARK 922        TOTAL FREE ENERGY PREDICTED BY IDOCK:   -2.48 KCAL/MOL
REMARK 923 INTER-LIGAND FREE ENERGY PREDICTED BY IDOCK:   -2.34 KCAL/MOL
REMARK 924 INTRA-LIGAND FREE ENERGY PREDICTED BY IDOCK:   -0.15 KCAL/MOL
REMARK 927      BINDING AFFINITY PREDICTED BY RF-SCORE:    0.00 PKD
ROOT
HETATM    1  F   UNL     1      -7.398  15.408  69.908  1.00  0.00    -0.194 F  
HETATM    2  C   UNL     1      -6.753  16.530  69.513  1.00  0.00    -0.198 C  
HETATM    3  O   UNL     1      -6.948  16.680  68.127  1.00  0.00    -0.145 OA 
HETATM    4  F   UNL     1      -5.431  16.313  69.710  1.00  0.00    -0.120 F  
ENDROOT
BRANCH   3   5
HETATM    5  C   UNL     1      -8.336  16.837  67.854  1.00  0.00    -0.195 C  
HETATM    6  C   UNL     1      -8.609  17.314  66.415  1.00  0.00    -0.259 C  
HETATM    7  F   UNL     1      -8.806  17.749  68.752  1.00  0.00    -0.283 F  
HETATM    8  F   UNL     1      -9.284  16.369  65.712  1.00  0.00    -0.330 F  
HETATM    9  F   UNL     1      -7.478  17.590  65.726  1.00  0.00    -0.324 F  
HETATM   10  F   UNL     1      -9.369  18.434  66.395  1.00  0.00    -0.289 F  
ENDBRANCH   3   5
TORSDOF 1
ENDMDL
MODEL      148
REMARK 921   NORMALIZED FREE ENERGY PREDICTED BY IDOCK:   -2.15 KCAL/MOL
REMARK 922        TOTAL FREE ENERGY PREDICTED BY IDOCK:   -2.46 KCAL/MOL
REMARK 923 INTER-LIGAND FREE ENERGY PREDICTED BY IDOCK:   -2.38 KCAL/MOL
REMARK 924 INTRA-LIGAND FREE ENERGY PREDICTED BY IDOCK:   -0.08 KCAL/MOL
REMARK 927      BINDING AFFINITY PREDICTED BY RF-SCORE:    0.00 PKD
ROOT
HETATM    1  F   UNL     1      -9.660   2.856  65.674  1.00  0.00    -0.137 F  
HETATM    2  C   UNL     1      -9.915   4.016  65.026  1.00  0.00    -0.201 C  
HETATM    3  O   UNL     1     -10.771   4.788  65.834  1.00  0.00    -0.318 OA 
HETATM    4  F   UNL     1     -10.602   3.696  63.904  1.00  0.00    -0.205 F  
ENDROOT
BRANCH   3   5
HETATM    5  C   UNL     1     -10.124   5.090  67.064  1.00  0.00    -0.214 C  
HETATM    6  C   UNL     1     -10.635   6.397  67.700  1.00  0.00    -0.274 C  
HETATM    7  F   UNL     1      -8.793   5.189  66.787  1.00  0.00    -0.113 F  
HETATM    8  F   UNL     1     -11.253   6.149  68.883  1.00  0.00    -0.367 F  
HETATM    9  F   UNL     1     -11.522   7.054  66.917  1.00  0.00    -0.416 F  
HETATM   10  F   UNL     1      -9.623   7.257  67.960  1.00  0.00    -0.138 F  
ENDBRANCH   3   5
TORSDOF 1
ENDMDL
MODEL      149
REMARK 921   NORMALIZED FREE ENERGY PREDICTED BY IDOCK:   -2.08 KCAL/MOL
REMARK 922        TOTAL FREE ENERGY PREDICTED BY IDOCK:   -2.40 KCAL/MOL
REMARK 923 INTER-LIGAND FREE ENERGY PREDICTED BY IDOCK:   -2.24 KCAL/MOL
REMARK 924 INTRA-LIGAND FREE ENERGY PREDICTED BY IDOCK:   -0.15 KCAL/MOL
REMARK 927      BINDING AFFINITY PREDICTED BY RF-SCORE:    0.00 PKD
ROOT
HETATM    1  F   UNL     1      -8.841  12.918  66.606  1.00  0.00    -0.213 F  
HETATM    2  C   UNL     1      -8.553  11.854  67.391  1.00  0.00    -0.164 C  
HETATM    3  O   UNL     1      -9.203  12.035  68.627  1.00  0.00    -0.147 OA 
HETATM    4  F   UNL     1      -7.220  11.891  67.630  1.00  0.00    -0.084 F  
ENDROOT
BRANCH   3   5
HETATM    5  C   UNL     1     -10.610  12.079  68.425  1.00  0.00    -0.217 C  
HETATM    6  C   UNL     1     -11.166  13.515  68.416  1.00  0.00    -0.278 C  
HETATM    7  F   UNL     1     -11.170  11.362  69.441  1.00  0.00    -0.251 F  
HETATM    8  F   UNL     1     -11.677  13.828  67.197  1.00  0.00    -0.325 F  
HETATM    9  F   UNL     1     -10.228  14.447  68.705  1.00  0.00    -0.219 F  
HETATM   10  F   UNL     1     -12.168  13.670  69.312  1.00  0.00    -0.346 F  
ENDBRANCH   3   5
TORSDOF 1
ENDMDL
MODEL      150
REMARK 921   NORMALIZED FREE ENERGY PREDICTED BY IDOCK:   -2.08 KCAL/MOL
REMARK 922        TOTAL FREE ENERGY PREDICTED BY IDOCK:   -2.39 KCAL/MOL
REMARK 923 INTER-LIGAND FREE ENERGY PREDICTED BY IDOCK:   -2.21 KCAL/MOL
REMARK 924 INTRA-LIGAND FREE ENERGY PREDICTED BY IDOCK:   -0.18 KCAL/MOL
REMARK 927      BINDING AFFINITY PREDICTED BY RF-SCORE:    0.00 PKD
ROOT
HETATM    1  F   UNL     1      -8.551   8.928  69.006  1.00  0.00    -0.128 F  
HETATM    2  C   UNL     1      -8.471   8.481  67.732  1.00  0.00    -0.130 C  
HETATM    3  O   UNL     1      -9.156   7.254  67.656  1.00  0.00    -0.125 OA 
HETATM    4  F   UNL     1      -7.164   8.227  67.486  1.00  0.00    -0.080 F  
ENDROOT
BRANCH   3   5
HETATM    5  C   UNL     1     -10.528   7.451  67.980  1.00  0.00    -0.199 C  
HETATM    6  C   UNL     1     -10.872   6.998  69.411  1.00  0.00    -0.227 C  
HETATM    7  F   UNL     1     -11.247   6.734  67.071  1.00  0.00    -0.435 F  
HETATM    8  F   UNL     1     -11.254   8.054  70.174  1.00  0.00    -0.260 F  
HETATM    9  F   UNL     1      -9.832   6.406  70.044  1.00  0.00    -0.168 F  
HETATM   10  F   UNL     1     -11.897   6.114  69.424  1.00  0.00    -0.458 F  
ENDBRANCH   3   5
TORSDOF 1
ENDMDL
MODEL      151
REMARK 921   NORMALIZED FREE ENERGY PREDICTED BY IDOCK:   -2.07 KCAL/MOL
REMARK 922        TOTAL FREE ENERGY PREDICTED BY IDOCK:   -2.39 KCAL/MOL
REMARK 923 INTER-LIGAND FREE ENERGY PREDICTED BY IDOCK:   -2.24 KCAL/MOL
REMARK 924 INTRA-LIGAND FREE ENERGY PREDICTED BY IDOCK:   -0.14 KCAL/MOL
REMARK 927      BINDING AFFINITY PREDICTED BY RF-SCORE:    0.00 PKD
ROOT
HETATM    1  F   UNL     1     -11.410  15.905  66.691  1.00  0.00    -0.197 F  
HETATM    2  C   UNL     1     -10.330  15.136  66.420  1.00  0.00    -0.286 C  
HETATM    3  O   UNL     1      -9.176  15.869  66.759  1.00  0.00    -0.212 OA 
HETATM    4  F   UNL     1     -10.307  14.951  65.079  1.00  0.00    -0.361 F  
ENDROOT
BRANCH   3   5
HETATM    5  C   UNL     1      -9.187  16.158  68.152  1.00  0.00    -0.193 C  
HETATM    6  C   UNL     1      -7.822  16.652  68.667  1.00  0.00    -0.234 C  
HETATM    7  F   UNL     1      -9.540  15.003  68.785  1.00  0.00    -0.190 F  
HETATM    8  F   UNL     1      -7.906  17.935  69.104  1.00  0.00    -0.239 F  
HETATM    9  F   UNL     1      -6.855  16.617  67.721  1.00  0.00    -0.127 F  
HETATM   10  F   UNL     1      -7.382  15.912  69.711  1.00  0.00    -0.206 F  
ENDBRANCH   3   5
TORSDOF 1
ENDMDL
MODEL      152
REMARK 921   NORMALIZED FREE ENERGY PREDICTED BY IDOCK:   -2.07 KCAL/MOL
REMARK 922        TOTAL FREE ENERGY PREDICTED BY IDOCK:   -2.39 KCAL/MOL
REMARK 923 INTER-LIGAND FREE ENERGY PREDICTED BY IDOCK:   -2.15 KCAL/MOL
REMARK 924 INTRA-LIGAND FREE ENERGY PREDICTED BY IDOCK:   -0.24 KCAL/MOL
REMARK 927      BINDING AFFINITY PREDICTED BY RF-SCORE:    0.00 PKD
ROOT
HETATM    1  F   UNL     1     -10.108   9.056  70.293  1.00  0.00    -0.178 F  
HETATM    2  C   UNL     1      -8.921   8.452  70.055  1.00  0.00    -0.138 C  
HETATM    3  O   UNL     1      -8.929   7.983  68.727  1.00  0.00    -0.141 OA 
HETATM    4  F   UNL     1      -8.865   7.367  70.863  1.00  0.00    -0.141 F  
ENDROOT
BRANCH   3   5
HETATM    5  C   UNL     1      -9.062   9.082  67.834  1.00  0.00    -0.135 C  
HETATM    6  C   UNL     1     -10.316   8.977  66.945  1.00  0.00    -0.254 C  
HETATM    7  F   UNL     1      -7.937   9.094  67.064  1.00  0.00    -0.099 F  
HETATM    8  F   UNL     1     -11.186   9.984  67.217  1.00  0.00    -0.333 F  
HETATM    9  F   UNL     1     -10.988   7.815  67.114  1.00  0.00    -0.384 F  
HETATM   10  F   UNL     1     -10.008   9.070  65.631  1.00  0.00    -0.347 F  
ENDBRANCH   3   5
TORSDOF 1
ENDMDL
MODEL      153
REMARK 921   NORMALIZED FREE ENERGY PREDICTED BY IDOCK:   -2.07 KCAL/MOL
REMARK 922        TOTAL FREE ENERGY PREDICTED BY IDOCK:   -2.39 KCAL/MOL
REMARK 923 INTER-LIGAND FREE ENERGY PREDICTED BY IDOCK:   -2.14 KCAL/MOL
REMARK 924 INTRA-LIGAND FREE ENERGY PREDICTED BY IDOCK:   -0.24 KCAL/MOL
REMARK 927      BINDING AFFINITY PREDICTED BY RF-SCORE:    0.00 PKD
ROOT
HETATM    1  F   UNL     1      -9.478  10.962  67.223  1.00  0.00    -0.159 F  
HETATM    2  C   UNL     1      -9.329  10.096  66.194  1.00  0.00    -0.172 C  
HETATM    3  O   UNL     1      -9.298   8.791  66.723  1.00  0.00    -0.157 OA 
HETATM    4  F   UNL     1      -8.113  10.337  65.650  1.00  0.00    -0.130 F  
ENDROOT
BRANCH   3   5
HETATM    5  C   UNL     1     -10.532   8.511  67.375  1.00  0.00    -0.280 C  
HETATM    6  C   UNL     1     -10.362   8.256  68.884  1.00  0.00    -0.215 C  
HETATM    7  F   UNL     1     -11.049   7.406  66.765  1.00  0.00    -0.428 F  
HETATM    8  F   UNL     1     -10.993   9.217  69.609  1.00  0.00    -0.232 F  
HETATM    9  F   UNL     1      -9.068   8.247  69.277  1.00  0.00    -0.146 F  
HETATM   10  F   UNL     1     -10.898   7.071  69.256  1.00  0.00    -0.225 F  
ENDBRANCH   3   5
TORSDOF 1
ENDMDL
MODEL      154
REMARK 921   NORMALIZED FREE ENERGY PREDICTED BY IDOCK:   -2.07 KCAL/MOL
REMARK 922        TOTAL FREE ENERGY PREDICTED BY IDOCK:   -2.38 KCAL/MOL
REMARK 923 INTER-LIGAND FREE ENERGY PREDICTED BY IDOCK:   -2.15 KCAL/MOL
REMARK 924 INTRA-LIGAND FREE ENERGY PREDICTED BY IDOCK:   -0.23 KCAL/MOL
REMARK 927      BINDING AFFINITY PREDICTED BY RF-SCORE:    0.00 PKD
ROOT
HETATM    1  F   UNL     1     -11.691   6.022  69.483  1.00  0.00    -0.470 F  
HETATM    2  C   UNL     1     -11.644   6.828  70.569  1.00  0.00    -0.372 C  
HETATM    3  O   UNL     1     -10.297   7.162  70.806  1.00  0.00    -0.205 OA 
HETATM    4  F   UNL     1     -12.065   6.090  71.624  1.00  0.00    -0.332 F  
ENDROOT
BRANCH   3   5
HETATM    5  C   UNL     1      -9.779   7.878  69.691  1.00  0.00    -0.173 C  
HETATM    6  C   UNL     1      -8.759   7.058  68.879  1.00  0.00    -0.131 C  
HETATM    7  F   UNL     1      -9.191   9.002  70.191  1.00  0.00    -0.150 F  
HETATM    8  F   UNL     1      -9.223   6.811  67.627  1.00  0.00    -0.121 F  
HETATM    9  F   UNL     1      -8.476   5.859  69.442  1.00  0.00    -0.108 F  
HETATM   10  F   UNL     1      -7.585   7.716  68.739  1.00  0.00    -0.091 F  
ENDBRANCH   3   5
TORSDOF 1
ENDMDL
MODEL      155
REMARK 921   NORMALIZED FREE ENERGY PREDICTED BY IDOCK:   -2.07 KCAL/MOL
REMARK 922        TOTAL FREE ENERGY PREDICTED BY IDOCK:   -2.38 KCAL/MOL
REMARK 923 INTER-LIGAND FREE ENERGY PREDICTED BY IDOCK:   -2.15 KCAL/MOL
REMARK 924 INTRA-LIGAND FREE ENERGY PREDICTED BY IDOCK:   -0.23 KCAL/MOL
REMARK 927      BINDING AFFINITY PREDICTED BY RF-SCORE:    0.00 PKD
ROOT
HETATM    1  F   UNL     1      -8.833   9.899  67.272  1.00  0.00    -0.129 F  
HETATM    2  C   UNL     1      -9.586   9.249  68.190  1.00  0.00    -0.143 C  
HETATM    3  O   UNL     1     -10.256  10.214  68.966  1.00  0.00    -0.184 OA 
HETATM    4  F   UNL     1      -8.728   8.599  69.012  1.00  0.00    -0.127 F  
ENDROOT
BRANCH   3   5
HETATM    5  C   UNL     1     -11.120  10.980  68.134  1.00  0.00    -0.270 C  
HETATM    6  C   UNL     1     -10.637  12.430  67.950  1.00  0.00    -0.213 C  
HETATM    7  F   UNL     1     -12.346  10.962  68.730  1.00  0.00    -0.359 F  
HETATM    8  F   UNL     1     -10.310  12.671  66.654  1.00  0.00    -0.230 F  
HETATM    9  F   UNL     1      -9.546  12.723  68.695  1.00  0.00    -0.206 F  
HETATM   10  F   UNL     1     -11.596  13.324  68.284  1.00  0.00    -0.286 F  
ENDBRANCH   3   5
TORSDOF 1
ENDMDL
MODEL      156
REMARK 921   NORMALIZED FREE ENERGY PREDICTED BY IDOCK:   -2.05 KCAL/MOL
REMARK 922        TOTAL FREE ENERGY PREDICTED BY IDOCK:   -2.36 KCAL/MOL
REMARK 923 INTER-LIGAND FREE ENERGY PREDICTED BY IDOCK:   -2.91 KCAL/MOL
REMARK 924 INTRA-LIGAND FREE ENERGY PREDICTED BY IDOCK:    0.55 KCAL/MOL
REMARK 927      BINDING AFFINITY PREDICTED BY RF-SCORE:    0.00 PKD
ROOT
HETATM    1  F   UNL     1     -10.025  13.715  66.833  1.00  0.00    -0.239 F  
HETATM    2  C   UNL     1     -10.859  14.544  66.163  1.00  0.00    -0.317 C  
HETATM    3  O   UNL     1     -11.273  15.556  67.050  1.00  0.00    -0.285 OA 
HETATM    4  F   UNL     1     -11.957  13.820  65.840  1.00  0.00    -0.336 F  
ENDROOT
BRANCH   3   5
HETATM    5  C   UNL     1     -10.143  16.305  67.481  1.00  0.00    -0.258 C  
HETATM    6  C   UNL     1      -9.917  17.578  66.643  1.00  0.00    -0.314 C  
HETATM    7  F   UNL     1      -9.066  15.475  67.378  1.00  0.00    -0.187 F  
HETATM    8  F   UNL     1     -10.078  18.692  67.403  1.00  0.00    -0.315 F  
HETATM    9  F   UNL     1     -10.772  17.682  65.599  1.00  0.00    -0.395 F  
HETATM   10  F   UNL     1      -8.663  17.628  66.136  1.00  0.00    -0.265 F  
ENDBRANCH   3   5
TORSDOF 1
ENDMDL
MODEL      157
REMARK 921   NORMALIZED FREE ENERGY PREDICTED BY IDOCK:   -2.02 KCAL/MOL
REMARK 922        TOTAL FREE ENERGY PREDICTED BY IDOCK:   -2.34 KCAL/MOL
REMARK 923 INTER-LIGAND FREE ENERGY PREDICTED BY IDOCK:   -2.20 KCAL/MOL
REMARK 924 INTRA-LIGAND FREE ENERGY PREDICTED BY IDOCK:   -0.14 KCAL/MOL
REMARK 927      BINDING AFFINITY PREDICTED BY RF-SCORE:    0.00 PKD
ROOT
HETATM    1  F   UNL     1     -11.233   4.821  65.686  1.00  0.00    -0.322 F  
HETATM    2  C   UNL     1     -10.520   5.649  66.484  1.00  0.00    -0.249 C  
HETATM    3  O   UNL     1     -10.264   4.974  67.694  1.00  0.00    -0.163 OA 
HETATM    4  F   UNL     1     -11.321   6.701  66.774  1.00  0.00    -0.477 F  
ENDROOT
BRANCH   3   5
HETATM    5  C   UNL     1      -9.485   3.812  67.437  1.00  0.00    -0.196 C  
HETATM    6  C   UNL     1      -9.219   2.982  68.707  1.00  0.00    -0.166 C  
HETATM    7  F   UNL     1      -8.308   4.246  66.902  1.00  0.00    -0.100 F  
HETATM    8  F   UNL     1      -9.810   1.762  68.618  1.00  0.00    -0.227 F  
HETATM    9  F   UNL     1      -9.689   3.570  69.831  1.00  0.00    -0.247 F  
HETATM   10  F   UNL     1      -7.897   2.764  68.895  1.00  0.00    -0.050 F  
ENDBRANCH   3   5
TORSDOF 1
ENDMDL
MODEL      158
REMARK 921   NORMALIZED FREE ENERGY PREDICTED BY IDOCK:   -2.00 KCAL/MOL
REMARK 922        TOTAL FREE ENERGY PREDICTED BY IDOCK:   -2.31 KCAL/MOL
REMARK 923 INTER-LIGAND FREE ENERGY PREDICTED BY IDOCK:   -2.10 KCAL/MOL
REMARK 924 INTRA-LIGAND FREE ENERGY PREDICTED BY IDOCK:   -0.21 KCAL/MOL
REMARK 927      BINDING AFFINITY PREDICTED BY RF-SCORE:    0.00 PKD
ROOT
HETATM    1  F   UNL     1      -9.442  11.182  67.035  1.00  0.00    -0.173 F  
HETATM    2  C   UNL     1     -10.439  10.770  66.218  1.00  0.00    -0.226 C  
HETATM    3  O   UNL     1     -10.177   9.436  65.850  1.00  0.00    -0.259 OA 
HETATM    4  F   UNL     1     -10.358  11.519  65.092  1.00  0.00    -0.271 F  
ENDROOT
BRANCH   3   5
HETATM    5  C   UNL     1     -10.176   8.612  67.010  1.00  0.00    -0.290 C  
HETATM    6  C   UNL     1      -8.758   8.184  67.433  1.00  0.00    -0.124 C  
HETATM    7  F   UNL     1     -10.930   7.517  66.708  1.00  0.00    -0.429 F  
HETATM    8  F   UNL     1      -8.438   8.703  68.647  1.00  0.00    -0.123 F  
HETATM    9  F   UNL     1      -7.802   8.586  66.564  1.00  0.00    -0.090 F  
HETATM   10  F   UNL     1      -8.653   6.839  67.544  1.00  0.00    -0.119 F  
ENDBRANCH   3   5
TORSDOF 1
ENDMDL
MODEL      159
REMARK 921   NORMALIZED FREE ENERGY PREDICTED BY IDOCK:   -1.99 KCAL/MOL
REMARK 922        TOTAL FREE ENERGY PREDICTED BY IDOCK:   -2.30 KCAL/MOL
REMARK 923 INTER-LIGAND FREE ENERGY PREDICTED BY IDOCK:   -2.17 KCAL/MOL
REMARK 924 INTRA-LIGAND FREE ENERGY PREDICTED BY IDOCK:   -0.14 KCAL/MOL
REMARK 927      BINDING AFFINITY PREDICTED BY RF-SCORE:    0.00 PKD
ROOT
HETATM    1  F   UNL     1      -8.019   8.849  65.901  1.00  0.00    -0.098 F  
HETATM    2  C   UNL     1      -9.191   9.458  66.192  1.00  0.00    -0.190 C  
HETATM    3  O   UNL     1     -10.152   8.459  66.442  1.00  0.00    -0.265 OA 
HETATM    4  F   UNL     1      -9.579  10.117  65.075  1.00  0.00    -0.256 F  
ENDROOT
BRANCH   3   5
HETATM    5  C   UNL     1      -9.755   7.685  67.567  1.00  0.00    -0.156 C  
HETATM    6  C   UNL     1     -10.704   6.503  67.841  1.00  0.00    -0.287 C  
HETATM    7  F   UNL     1      -9.737   8.533  68.634  1.00  0.00    -0.154 F  
HETATM    8  F   UNL     1     -10.063   5.318  67.670  1.00  0.00    -0.160 F  
HETATM    9  F   UNL     1     -11.784   6.492  67.025  1.00  0.00    -0.292 F  
HETATM   10  F   UNL     1     -11.167   6.517  69.112  1.00  0.00    -0.307 F  
ENDBRANCH   3   5
TORSDOF 1
ENDMDL
MODEL      160
REMARK 921   NORMALIZED FREE ENERGY PREDICTED BY IDOCK:   -1.99 KCAL/MOL
REMARK 922        TOTAL FREE ENERGY PREDICTED BY IDOCK:   -2.29 KCAL/MOL
REMARK 923 INTER-LIGAND FREE ENERGY PREDICTED BY IDOCK:   -2.16 KCAL/MOL
REMARK 924 INTRA-LIGAND FREE ENERGY PREDICTED BY IDOCK:   -0.14 KCAL/MOL
REMARK 927      BINDING AFFINITY PREDICTED BY RF-SCORE:    0.00 PKD
ROOT
HETATM    1  F   UNL     1      -9.120   7.050  68.844  1.00  0.00    -0.135 F  
HETATM    2  C   UNL     1      -9.368   7.716  67.692  1.00  0.00    -0.142 C  
HETATM    3  O   UNL     1      -9.311   6.790  66.632  1.00  0.00    -0.156 OA 
HETATM    4  F   UNL     1      -8.348   8.589  67.516  1.00  0.00    -0.121 F  
ENDROOT
BRANCH   3   5
HETATM    5  C   UNL     1     -10.319   5.801  66.808  1.00  0.00    -0.256 C  
HETATM    6  C   UNL     1     -10.178   4.628  65.820  1.00  0.00    -0.258 C  
HETATM    7  F   UNL     1     -11.515   6.431  66.627  1.00  0.00    -0.391 F  
HETATM    8  F   UNL     1      -9.902   3.473  66.478  1.00  0.00    -0.197 F  
HETATM    9  F   UNL     1      -9.191   4.815  64.913  1.00  0.00    -0.151 F  
HETATM   10  F   UNL     1     -11.321   4.419  65.125  1.00  0.00    -0.354 F  
ENDBRANCH   3   5
TORSDOF 1
ENDMDL
MODEL      161
REMARK 921   NORMALIZED FREE ENERGY PREDICTED BY IDOCK:   -1.95 KCAL/MOL
REMARK 922        TOTAL FREE ENERGY PREDICTED BY IDOCK:   -2.25 KCAL/MOL
REMARK 923 INTER-LIGAND FREE ENERGY PREDICTED BY IDOCK:   -2.11 KCAL/MOL
REMARK 924 INTRA-LIGAND FREE ENERGY PREDICTED BY IDOCK:   -0.14 KCAL/MOL
REMARK 927      BINDING AFFINITY PREDICTED BY RF-SCORE:    0.00 PKD
ROOT
HETATM    1  F   UNL     1      -8.984   9.158  67.291  1.00  0.00    -0.121 F  
HETATM    2  C   UNL     1      -8.566   9.188  68.578  1.00  0.00    -0.129 C  
HETATM    3  O   UNL     1      -9.490   8.462  69.354  1.00  0.00    -0.157 OA 
HETATM    4  F   UNL     1      -8.631  10.479  68.982  1.00  0.00    -0.125 F  
ENDROOT
BRANCH   3   5
HETATM    5  C   UNL     1      -9.518   7.107  68.919  1.00  0.00    -0.142 C  
HETATM    6  C   UNL     1     -10.853   6.408  69.236  1.00  0.00    -0.327 C  
HETATM    7  F   UNL     1      -8.491   6.475  69.556  1.00  0.00    -0.123 F  
HETATM    8  F   UNL     1     -11.502   6.064  68.093  1.00  0.00    -0.345 F  
HETATM    9  F   UNL     1     -11.698   7.182  69.955  1.00  0.00    -0.275 F  
HETATM   10  F   UNL     1     -10.667   5.266  69.938  1.00  0.00    -0.364 F  
ENDBRANCH   3   5
TORSDOF 1
ENDMDL
MODEL      162
REMARK 921   NORMALIZED FREE ENERGY PREDICTED BY IDOCK:   -1.94 KCAL/MOL
REMARK 922        TOTAL FREE ENERGY PREDICTED BY IDOCK:   -2.25 KCAL/MOL
REMARK 923 INTER-LIGAND FREE ENERGY PREDICTED BY IDOCK:   -2.15 KCAL/MOL
REMARK 924 INTRA-LIGAND FREE ENERGY PREDICTED BY IDOCK:   -0.09 KCAL/MOL
REMARK 927      BINDING AFFINITY PREDICTED BY RF-SCORE:    0.00 PKD
ROOT
HETATM    1  F   UNL     1      -9.451  10.128  64.987  1.00  0.00    -0.227 F  
HETATM    2  C   UNL     1      -9.809  11.246  65.660  1.00  0.00    -0.234 C  
HETATM    3  O   UNL     1     -10.604  10.861  66.756  1.00  0.00    -0.244 OA 
HETATM    4  F   UNL     1     -10.596  11.969  64.828  1.00  0.00    -0.285 F  
ENDROOT
BRANCH   3   5
HETATM    5  C   UNL     1      -9.844  10.033  67.629  1.00  0.00    -0.162 C  
HETATM    6  C   UNL     1     -10.354  10.075  69.081  1.00  0.00    -0.216 C  
HETATM    7  F   UNL     1      -8.558  10.481  67.566  1.00  0.00    -0.120 F  
HETATM    8  F   UNL     1     -10.827   8.860  69.463  1.00  0.00    -0.231 F  
HETATM    9  F   UNL     1     -11.355  10.967  69.265  1.00  0.00    -0.225 F  
HETATM   10  F   UNL     1      -9.368  10.401  69.949  1.00  0.00    -0.207 F  
ENDBRANCH   3   5
TORSDOF 1
ENDMDL
MODEL      163
REMARK 921   NORMALIZED FREE ENERGY PREDICTED BY IDOCK:   -1.93 KCAL/MOL
REMARK 922        TOTAL FREE ENERGY PREDICTED BY IDOCK:   -2.23 KCAL/MOL
REMARK 923 INTER-LIGAND FREE ENERGY PREDICTED BY IDOCK:   -3.05 KCAL/MOL
REMARK 924 INTRA-LIGAND FREE ENERGY PREDICTED BY IDOCK:    0.82 KCAL/MOL
REMARK 927      BINDING AFFINITY PREDICTED BY RF-SCORE:    0.00 PKD
ROOT
HETATM    1  F   UNL     1     -10.528  18.420  68.848  1.00  0.00    -0.359 F  
HETATM    2  C   UNL     1     -10.393  17.381  67.991  1.00  0.00    -0.362 C  
HETATM    3  O   UNL     1     -10.434  17.891  66.679  1.00  0.00    -0.354 OA 
HETATM    4  F   UNL     1     -11.485  16.597  68.151  1.00  0.00    -0.329 F  
ENDROOT
BRANCH   3   5
HETATM    5  C   UNL     1      -9.345  18.784  66.480  1.00  0.00    -0.336 C  
HETATM    6  C   UNL     1      -7.981  18.134  66.773  1.00  0.00    -0.240 C  
HETATM    7  F   UNL     1      -9.554  19.842  67.315  1.00  0.00    -0.372 F  
HETATM    8  F   UNL     1      -7.228  18.061  65.645  1.00  0.00    -0.304 F  
HETATM    9  F   UNL     1      -8.088  16.877  67.262  1.00  0.00    -0.177 F  
HETATM   10  F   UNL     1      -7.268  18.850  67.674  1.00  0.00    -0.216 F  
ENDBRANCH   3   5
TORSDOF 1
ENDMDL
MODEL      164
REMARK 921   NORMALIZED FREE ENERGY PREDICTED BY IDOCK:   -1.92 KCAL/MOL
REMARK 922        TOTAL FREE ENERGY PREDICTED BY IDOCK:   -2.23 KCAL/MOL
REMARK 923 INTER-LIGAND FREE ENERGY PREDICTED BY IDOCK:   -2.05 KCAL/MOL
REMARK 924 INTRA-LIGAND FREE ENERGY PREDICTED BY IDOCK:   -0.18 KCAL/MOL
REMARK 927      BINDING AFFINITY PREDICTED BY RF-SCORE:    0.00 PKD
ROOT
HETATM    1  F   UNL     1     -10.942  10.934  65.590  1.00  0.00    -0.275 F  
HETATM    2  C   UNL     1     -10.383  12.137  65.856  1.00  0.00    -0.255 C  
HETATM    3  O   UNL     1     -10.118  12.199  67.237  1.00  0.00    -0.201 OA 
HETATM    4  F   UNL     1     -11.323  13.074  65.587  1.00  0.00    -0.303 F  
ENDROOT
BRANCH   3   5
HETATM    5  C   UNL     1      -9.187  11.182  67.591  1.00  0.00    -0.151 C  
HETATM    6  C   UNL     1      -9.858   9.972  68.268  1.00  0.00    -0.146 C  
HETATM    7  F   UNL     1      -8.287  11.758  68.436  1.00  0.00    -0.134 F  
HETATM    8  F   UNL     1      -9.731   8.858  67.502  1.00  0.00    -0.167 F  
HETATM    9  F   UNL     1     -11.180  10.155  68.489  1.00  0.00    -0.265 F  
HETATM   10  F   UNL     1      -9.291   9.691  69.465  1.00  0.00    -0.153 F  
ENDBRANCH   3   5
TORSDOF 1
ENDMDL
MODEL      165
REMARK 921   NORMALIZED FREE ENERGY PREDICTED BY IDOCK:   -1.91 KCAL/MOL
REMARK 922        TOTAL FREE ENERGY PREDICTED BY IDOCK:   -2.22 KCAL/MOL
REMARK 923 INTER-LIGAND FREE ENERGY PREDICTED BY IDOCK:   -2.07 KCAL/MOL
REMARK 924 INTRA-LIGAND FREE ENERGY PREDICTED BY IDOCK:   -0.15 KCAL/MOL
REMARK 927      BINDING AFFINITY PREDICTED BY RF-SCORE:    0.00 PKD
ROOT
HETATM    1  F   UNL     1     -11.067  12.214  68.794  1.00  0.00    -0.221 F  
HETATM    2  C   UNL     1     -10.911  11.899  67.488  1.00  0.00    -0.247 C  
HETATM    3  O   UNL     1      -9.912  12.735  66.954  1.00  0.00    -0.224 OA 
HETATM    4  F   UNL     1     -12.073  12.214  66.867  1.00  0.00    -0.390 F  
ENDROOT
BRANCH   3   5
HETATM    5  C   UNL     1      -8.681  12.497  67.625  1.00  0.00    -0.177 C  
HETATM    6  C   UNL     1      -7.800  13.757  67.716  1.00  0.00    -0.172 C  
HETATM    7  F   UNL     1      -8.039  11.521  66.922  1.00  0.00    -0.139 F  
HETATM    8  F   UNL     1      -7.635  14.139  69.008  1.00  0.00    -0.121 F  
HETATM    9  F   UNL     1      -8.319  14.815  67.051  1.00  0.00    -0.195 F  
HETATM   10  F   UNL     1      -6.563  13.540  67.211  1.00  0.00    -0.182 F  
ENDBRANCH   3   5
TORSDOF 1
ENDMDL
MODEL      166
REMARK 921   NORMALIZED FREE ENERGY PREDICTED BY IDOCK:   -1.91 KCAL/MOL
REMARK 922        TOTAL FREE ENERGY PREDICTED BY IDOCK:   -2.22 KCAL/MOL
REMARK 923 INTER-LIGAND FREE ENERGY PREDICTED BY IDOCK:   -2.07 KCAL/MOL
REMARK 924 INTRA-LIGAND FREE ENERGY PREDICTED BY IDOCK:   -0.15 KCAL/MOL
REMARK 927      BINDING AFFINITY PREDICTED BY RF-SCORE:    0.00 PKD
ROOT
HETATM    1  F   UNL     1     -11.328   5.853  69.388  1.00  0.00    -0.444 F  
HETATM    2  C   UNL     1     -11.561   6.961  70.129  1.00  0.00    -0.289 C  
HETATM    3  O   UNL     1     -10.601   7.007  71.158  1.00  0.00    -0.215 OA 
HETATM    4  F   UNL     1     -12.770   6.795  70.715  1.00  0.00    -0.418 F  
ENDROOT
BRANCH   3   5
HETATM    5  C   UNL     1      -9.299   7.106  70.594  1.00  0.00    -0.158 C  
HETATM    6  C   UNL     1      -8.226   7.471  71.636  1.00  0.00    -0.103 C  
HETATM    7  F   UNL     1      -9.368   8.068  69.630  1.00  0.00    -0.153 F  
HETATM    8  F   UNL     1      -7.332   6.459  71.784  1.00  0.00    -0.081 F  
HETATM    9  F   UNL     1      -8.742   7.727  72.860  1.00  0.00    -0.148 F  
HETATM   10  F   UNL     1      -7.520   8.565  71.267  1.00  0.00    -0.064 F  
ENDBRANCH   3   5
TORSDOF 1
ENDMDL
MODEL      167
REMARK 921   NORMALIZED FREE ENERGY PREDICTED BY IDOCK:   -1.91 KCAL/MOL
REMARK 922        TOTAL FREE ENERGY PREDICTED BY IDOCK:   -2.22 KCAL/MOL
REMARK 923 INTER-LIGAND FREE ENERGY PREDICTED BY IDOCK:   -3.01 KCAL/MOL
REMARK 924 INTRA-LIGAND FREE ENERGY PREDICTED BY IDOCK:    0.79 KCAL/MOL
REMARK 927      BINDING AFFINITY PREDICTED BY RF-SCORE:    0.00 PKD
ROOT
HETATM    1  F   UNL     1     -12.096  13.457  71.103  1.00  0.00    -0.405 F  
HETATM    2  C   UNL     1     -12.048  14.806  71.198  1.00  0.00    -0.332 C  
HETATM    3  O   UNL     1     -10.755  15.223  70.829  1.00  0.00    -0.276 OA 
HETATM    4  F   UNL     1     -12.211  15.113  72.506  1.00  0.00    -0.369 F  
ENDROOT
BRANCH   3   5
HETATM    5  C   UNL     1     -10.501  14.857  69.478  1.00  0.00    -0.201 C  
HETATM    6  C   UNL     1     -11.526  15.456  68.497  1.00  0.00    -0.350 C  
HETATM    7  F   UNL     1     -10.544  13.495  69.432  1.00  0.00    -0.164 F  
HETATM    8  F   UNL     1     -10.927  16.330  67.647  1.00  0.00    -0.318 F  
HETATM    9  F   UNL     1     -12.524  16.126  69.118  1.00  0.00    -0.214 F  
HETATM   10  F   UNL     1     -12.105  14.501  67.732  1.00  0.00    -0.381 F  
ENDBRANCH   3   5
TORSDOF 1
ENDMDL
MODEL      168
REMARK 921   NORMALIZED FREE ENERGY PREDICTED BY IDOCK:   -1.86 KCAL/MOL
REMARK 922        TOTAL FREE ENERGY PREDICTED BY IDOCK:   -2.16 KCAL/MOL
REMARK 923 INTER-LIGAND FREE ENERGY PREDICTED BY IDOCK:   -1.94 KCAL/MOL
REMARK 924 INTRA-LIGAND FREE ENERGY PREDICTED BY IDOCK:   -0.22 KCAL/MOL
REMARK 927      BINDING AFFINITY PREDICTED BY RF-SCORE:    0.00 PKD
ROOT
HETATM    1  F   UNL     1      -7.453  15.536  69.714  1.00  0.00    -0.200 F  
HETATM    2  C   UNL     1      -6.768  16.328  68.857  1.00  0.00    -0.156 C  
HETATM    3  O   UNL     1      -7.097  15.939  67.545  1.00  0.00    -0.144 OA 
HETATM    4  F   UNL     1      -5.453  16.057  69.038  1.00  0.00    -0.108 F  
ENDROOT
BRANCH   3   5
HETATM    5  C   UNL     1      -8.489  16.133  67.324  1.00  0.00    -0.180 C  
HETATM    6  C   UNL     1      -9.200  14.853  66.848  1.00  0.00    -0.246 C  
HETATM    7  F   UNL     1      -8.598  17.113  66.382  1.00  0.00    -0.238 F  
HETATM    8  F   UNL     1     -10.108  14.434  67.767  1.00  0.00    -0.219 F  
HETATM    9  F   UNL     1      -8.349  13.823  66.633  1.00  0.00    -0.142 F  
HETATM   10  F   UNL     1      -9.877  15.056  65.693  1.00  0.00    -0.307 F  
ENDBRANCH   3   5
TORSDOF 1
ENDMDL
MODEL      169
REMARK 921   NORMALIZED FREE ENERGY PREDICTED BY IDOCK:   -1.86 KCAL/MOL
REMARK 922        TOTAL FREE ENERGY PREDICTED BY IDOCK:   -2.16 KCAL/MOL
REMARK 923 INTER-LIGAND FREE ENERGY PREDICTED BY IDOCK:   -2.80 KCAL/MOL
REMARK 924 INTRA-LIGAND FREE ENERGY PREDICTED BY IDOCK:    0.64 KCAL/MOL
REMARK 927      BINDING AFFINITY PREDICTED BY RF-SCORE:    0.00 PKD
ROOT
HETATM    1  F   UNL     1     -11.438   5.803  70.293  1.00  0.00    -0.384 F  
HETATM    2  C   UNL     1     -11.928   6.811  71.052  1.00  0.00    -0.379 C  
HETATM    3  O   UNL     1     -11.769   6.455  72.405  1.00  0.00    -0.287 OA 
HETATM    4  F   UNL     1     -13.258   6.874  70.808  1.00  0.00    -0.360 F  
ENDROOT
BRANCH   3   5
HETATM    5  C   UNL     1     -10.386   6.300  72.699  1.00  0.00    -0.199 C  
HETATM    6  C   UNL     1      -9.688   7.641  72.998  1.00  0.00    -0.244 C  
HETATM    7  F   UNL     1      -9.822   5.707  71.609  1.00  0.00    -0.178 F  
HETATM    8  F   UNL     1      -9.249   7.681  74.282  1.00  0.00    -0.284 F  
HETATM    9  F   UNL     1     -10.499   8.710  72.822  1.00  0.00    -0.360 F  
HETATM   10  F   UNL     1      -8.606   7.829  72.208  1.00  0.00    -0.123 F  
ENDBRANCH   3   5
TORSDOF 1
ENDMDL
MODEL      170
REMARK 921   NORMALIZED FREE ENERGY PREDICTED BY IDOCK:   -1.85 KCAL/MOL
REMARK 922        TOTAL FREE ENERGY PREDICTED BY IDOCK:   -2.16 KCAL/MOL
REMARK 923 INTER-LIGAND FREE ENERGY PREDICTED BY IDOCK:   -1.91 KCAL/MOL
REMARK 924 INTRA-LIGAND FREE ENERGY PREDICTED BY IDOCK:   -0.24 KCAL/MOL
REMARK 927      BINDING AFFINITY PREDICTED BY RF-SCORE:    0.00 PKD
ROOT
HETATM    1  F   UNL     1      -8.011  13.965  69.097  1.00  0.00    -0.087 F  
HETATM    2  C   UNL     1      -6.760  13.958  68.583  1.00  0.00    -0.098 C  
HETATM    3  O   UNL     1      -6.822  14.481  67.278  1.00  0.00    -0.252 OA 
HETATM    4  F   UNL     1      -6.387  12.660  68.478  1.00  0.00    -0.059 F  
ENDROOT
BRANCH   3   5
HETATM    5  C   UNL     1      -7.283  15.826  67.323  1.00  0.00    -0.219 C  
HETATM    6  C   UNL     1      -8.643  16.013  66.625  1.00  0.00    -0.281 C  
HETATM    7  F   UNL     1      -6.329  16.583  66.710  1.00  0.00    -0.202 F  
HETATM    8  F   UNL     1      -9.597  16.384  67.517  1.00  0.00    -0.221 F  
HETATM    9  F   UNL     1      -9.084  14.887  66.016  1.00  0.00    -0.309 F  
HETATM   10  F   UNL     1      -8.592  16.981  65.680  1.00  0.00    -0.186 F  
ENDBRANCH   3   5
TORSDOF 1
ENDMDL
MODEL      171
REMARK 921   NORMALIZED FREE ENERGY PREDICTED BY IDOCK:   -1.85 KCAL/MOL
REMARK 922        TOTAL FREE ENERGY PREDICTED BY IDOCK:   -2.15 KCAL/MOL
REMARK 923 INTER-LIGAND FREE ENERGY PREDICTED BY IDOCK:   -2.01 KCAL/MOL
REMARK 924 INTRA-LIGAND FREE ENERGY PREDICTED BY IDOCK:   -0.14 KCAL/MOL
REMARK 927      BINDING AFFINITY PREDICTED BY RF-SCORE:    0.00 PKD
ROOT
HETATM    1  F   UNL     1     -10.056  11.082  65.015  1.00  0.00    -0.274 F  
HETATM    2  C   UNL     1     -10.239  10.834  66.333  1.00  0.00    -0.240 C  
HETATM    3  O   UNL     1     -10.331   9.440  66.505  1.00  0.00    -0.251 OA 
HETATM    4  F   UNL     1     -11.441  11.360  66.667  1.00  0.00    -0.362 F  
ENDROOT
BRANCH   3   5
HETATM    5  C   UNL     1      -9.114   8.826  66.095  1.00  0.00    -0.202 C  
HETATM    6  C   UNL     1      -8.969   7.385  66.618  1.00  0.00    -0.146 C  
HETATM    7  F   UNL     1      -8.106   9.607  66.576  1.00  0.00    -0.114 F  
HETATM    8  F   UNL     1      -8.958   6.497  65.591  1.00  0.00    -0.163 F  
HETATM    9  F   UNL     1      -9.974   7.020  67.448  1.00  0.00    -0.157 F  
HETATM   10  F   UNL     1      -7.811   7.213  67.297  1.00  0.00    -0.102 F  
ENDBRANCH   3   5
TORSDOF 1
ENDMDL
MODEL      172
REMARK 921   NORMALIZED FREE ENERGY PREDICTED BY IDOCK:   -1.78 KCAL/MOL
REMARK 922        TOTAL FREE ENERGY PREDICTED BY IDOCK:   -2.08 KCAL/MOL
REMARK 923 INTER-LIGAND FREE ENERGY PREDICTED BY IDOCK:   -1.85 KCAL/MOL
REMARK 924 INTRA-LIGAND FREE ENERGY PREDICTED BY IDOCK:   -0.23 KCAL/MOL
REMARK 927      BINDING AFFINITY PREDICTED BY RF-SCORE:    0.00 PKD
ROOT
HETATM    1  F   UNL     1      -9.567   5.280  68.725  1.00  0.00    -0.134 F  
HETATM    2  C   UNL     1     -10.464   6.087  69.339  1.00  0.00    -0.267 C  
HETATM    3  O   UNL     1     -10.770   5.524  70.592  1.00  0.00    -0.269 OA 
HETATM    4  F   UNL     1     -11.595   6.053  68.596  1.00  0.00    -0.343 F  
ENDROOT
BRANCH   3   5
HETATM    5  C   UNL     1      -9.594   5.467  71.391  1.00  0.00    -0.154 C  
HETATM    6  C   UNL     1      -9.103   4.026  71.623  1.00  0.00    -0.123 C  
HETATM    7  F   UNL     1      -9.905   6.058  72.580  1.00  0.00    -0.165 F  
HETATM    8  F   UNL     1      -7.888   3.831  71.048  1.00  0.00    -0.056 F  
HETATM    9  F   UNL     1      -9.939   3.093  71.112  1.00  0.00    -0.241 F  
HETATM   10  F   UNL     1      -8.960   3.752  72.941  1.00  0.00    -0.094 F  
ENDBRANCH   3   5
TORSDOF 1
ENDMDL
MODEL      173
REMARK 921   NORMALIZED FREE ENERGY PREDICTED BY IDOCK:   -1.77 KCAL/MOL
REMARK 922        TOTAL FREE ENERGY PREDICTED BY IDOCK:   -2.07 KCAL/MOL
REMARK 923 INTER-LIGAND FREE ENERGY PREDICTED BY IDOCK:   -1.82 KCAL/MOL
REMARK 924 INTRA-LIGAND FREE ENERGY PREDICTED BY IDOCK:   -0.24 KCAL/MOL
REMARK 927      BINDING AFFINITY PREDICTED BY RF-SCORE:    0.00 PKD
ROOT
HETATM    1  F   UNL     1      -9.352   8.159  69.590  1.00  0.00    -0.155 F  
HETATM    2  C   UNL     1      -8.139   7.839  69.082  1.00  0.00    -0.125 C  
HETATM    3  O   UNL     1      -8.241   6.573  68.474  1.00  0.00    -0.119 OA 
HETATM    4  F   UNL     1      -7.294   7.714  70.133  1.00  0.00    -0.069 F  
ENDROOT
BRANCH   3   5
HETATM    5  C   UNL     1      -9.177   6.630  67.405  1.00  0.00    -0.122 C  
HETATM    6  C   UNL     1     -10.394   5.714  67.631  1.00  0.00    -0.212 C  
HETATM    7  F   UNL     1      -8.504   6.253  66.281  1.00  0.00    -0.115 F  
HETATM    8  F   UNL     1     -11.533   6.444  67.751  1.00  0.00    -0.394 F  
HETATM    9  F   UNL     1     -10.287   4.958  68.748  1.00  0.00    -0.240 F  
HETATM   10  F   UNL     1     -10.582   4.865  66.594  1.00  0.00    -0.274 F  
ENDBRANCH   3   5
TORSDOF 1
ENDMDL
MODEL      174
REMARK 921   NORMALIZED FREE ENERGY PREDICTED BY IDOCK:   -1.76 KCAL/MOL
REMARK 922        TOTAL FREE ENERGY PREDICTED BY IDOCK:   -2.05 KCAL/MOL
REMARK 923 INTER-LIGAND FREE ENERGY PREDICTED BY IDOCK:   -1.83 KCAL/MOL
REMARK 924 INTRA-LIGAND FREE ENERGY PREDICTED BY IDOCK:   -0.23 KCAL/MOL
REMARK 927      BINDING AFFINITY PREDICTED BY RF-SCORE:    0.00 PKD
ROOT
HETATM    1  F   UNL     1      -8.891   9.388  69.375  1.00  0.00    -0.131 F  
HETATM    2  C   UNL     1      -8.118   8.983  68.341  1.00  0.00    -0.108 C  
HETATM    3  O   UNL     1      -8.790   9.299  67.145  1.00  0.00    -0.126 OA 
HETATM    4  F   UNL     1      -8.042   7.633  68.412  1.00  0.00    -0.116 F  
ENDROOT
BRANCH   3   5
HETATM    5  C   UNL     1      -8.965  10.709  67.053  1.00  0.00    -0.137 C  
HETATM    6  C   UNL     1     -10.429  11.141  67.256  1.00  0.00    -0.226 C  
HETATM    7  F   UNL     1      -8.533  11.072  65.812  1.00  0.00    -0.165 F  
HETATM    8  F   UNL     1     -10.559  11.893  68.379  1.00  0.00    -0.188 F  
HETATM    9  F   UNL     1     -11.278  10.094  67.378  1.00  0.00    -0.356 F  
HETATM   10  F   UNL     1     -10.876  11.896  66.226  1.00  0.00    -0.275 F  
ENDBRANCH   3   5
TORSDOF 1
ENDMDL
MODEL      175
REMARK 921   NORMALIZED FREE ENERGY PREDICTED BY IDOCK:   -1.74 KCAL/MOL
REMARK 922        TOTAL FREE ENERGY PREDICTED BY IDOCK:   -2.03 KCAL/MOL
REMARK 923 INTER-LIGAND FREE ENERGY PREDICTED BY IDOCK:   -1.89 KCAL/MOL
REMARK 924 INTRA-LIGAND FREE ENERGY PREDICTED BY IDOCK:   -0.15 KCAL/MOL
REMARK 927      BINDING AFFINITY PREDICTED BY RF-SCORE:    0.00 PKD
ROOT
HETATM    1  F   UNL     1      -6.773   9.718  68.011  1.00  0.00    -0.060 F  
HETATM    2  C   UNL     1      -7.177   8.862  68.978  1.00  0.00    -0.072 C  
HETATM    3  O   UNL     1      -8.578   8.747  68.900  1.00  0.00    -0.133 OA 
HETATM    4  F   UNL     1      -6.888   9.446  70.165  1.00  0.00    -0.044 F  
ENDROOT
BRANCH   3   5
HETATM    5  C   UNL     1      -8.944   8.206  67.636  1.00  0.00    -0.132 C  
HETATM    6  C   UNL     1     -10.344   8.657  67.179  1.00  0.00    -0.299 C  
HETATM    7  F   UNL     1      -8.905   6.850  67.770  1.00  0.00    -0.120 F  
HETATM    8  F   UNL     1     -10.263   9.416  66.055  1.00  0.00    -0.355 F  
HETATM    9  F   UNL     1     -10.993   9.393  68.110  1.00  0.00    -0.264 F  
HETATM   10  F   UNL     1     -11.138   7.602  66.882  1.00  0.00    -0.408 F  
ENDBRANCH   3   5
TORSDOF 1
ENDMDL
MODEL      176
REMARK 921   NORMALIZED FREE ENERGY PREDICTED BY IDOCK:   -1.73 KCAL/MOL
REMARK 922        TOTAL FREE ENERGY PREDICTED BY IDOCK:   -2.03 KCAL/MOL
REMARK 923 INTER-LIGAND FREE ENERGY PREDICTED BY IDOCK:   -1.82 KCAL/MOL
REMARK 924 INTRA-LIGAND FREE ENERGY PREDICTED BY IDOCK:   -0.21 KCAL/MOL
REMARK 927      BINDING AFFINITY PREDICTED BY RF-SCORE:    0.00 PKD
ROOT
HETATM    1  F   UNL     1      -7.603  10.784  68.362  1.00  0.00    -0.086 F  
HETATM    2  C   UNL     1      -8.105  11.405  67.270  1.00  0.00    -0.148 C  
HETATM    3  O   UNL     1      -8.774  10.443  66.490  1.00  0.00    -0.133 OA 
HETATM    4  F   UNL     1      -7.047  11.841  66.546  1.00  0.00    -0.119 F  
ENDROOT
BRANCH   3   5
HETATM    5  C   UNL     1      -9.856   9.894  67.234  1.00  0.00    -0.182 C  
HETATM    6  C   UNL     1      -9.831   8.355  67.273  1.00  0.00    -0.203 C  
HETATM    7  F   UNL     1     -11.000  10.332  66.634  1.00  0.00    -0.262 F  
HETATM    8  F   UNL     1      -9.638   7.907  68.541  1.00  0.00    -0.146 F  
HETATM    9  F   UNL     1      -8.848   7.822  66.510  1.00  0.00    -0.125 F  
HETATM   10  F   UNL     1     -10.999   7.822  66.844  1.00  0.00    -0.411 F  
ENDBRANCH   3   5
TORSDOF 1
ENDMDL
MODEL      177
REMARK 921   NORMALIZED FREE ENERGY PREDICTED BY IDOCK:   -1.73 KCAL/MOL
REMARK 922        TOTAL FREE ENERGY PREDICTED BY IDOCK:   -2.02 KCAL/MOL
REMARK 923 INTER-LIGAND FREE ENERGY PREDICTED BY IDOCK:   -2.74 KCAL/MOL
REMARK 924 INTRA-LIGAND FREE ENERGY PREDICTED BY IDOCK:    0.71 KCAL/MOL
REMARK 927      BINDING AFFINITY PREDICTED BY RF-SCORE:    0.00 PKD
ROOT
HETATM    1  F   UNL     1     -11.203  15.915  65.685  1.00  0.00    -0.271 F  
HETATM    2  C   UNL     1     -10.611  14.809  66.193  1.00  0.00    -0.311 C  
HETATM    3  O   UNL     1      -9.652  15.223  67.137  1.00  0.00    -0.212 OA 
HETATM    4  F   UNL     1      -9.942  14.220  65.174  1.00  0.00    -0.364 F  
ENDROOT
BRANCH   3   5
HETATM    5  C   UNL     1     -10.296  15.918  68.199  1.00  0.00    -0.256 C  
HETATM    6  C   UNL     1     -11.173  14.996  69.067  1.00  0.00    -0.268 C  
HETATM    7  F   UNL     1     -11.059  16.888  67.620  1.00  0.00    -0.310 F  
HETATM    8  F   UNL     1     -10.688  14.920  70.334  1.00  0.00    -0.246 F  
HETATM    9  F   UNL     1     -11.243  13.731  68.592  1.00  0.00    -0.248 F  
HETATM   10  F   UNL     1     -12.442  15.455  69.161  1.00  0.00    -0.250 F  
ENDBRANCH   3   5
TORSDOF 1
ENDMDL
MODEL      178
REMARK 921   NORMALIZED FREE ENERGY PREDICTED BY IDOCK:   -1.73 KCAL/MOL
REMARK 922        TOTAL FREE ENERGY PREDICTED BY IDOCK:   -2.02 KCAL/MOL
REMARK 923 INTER-LIGAND FREE ENERGY PREDICTED BY IDOCK:   -2.87 KCAL/MOL
REMARK 924 INTRA-LIGAND FREE ENERGY PREDICTED BY IDOCK:    0.85 KCAL/MOL
REMARK 927      BINDING AFFINITY PREDICTED BY RF-SCORE:    0.00 PKD
ROOT
HETATM    1  F   UNL     1      -9.150  14.619  68.900  1.00  0.00    -0.184 F  
HETATM    2  C   UNL     1     -10.356  14.325  68.360  1.00  0.00    -0.247 C  
HETATM    3  O   UNL     1     -11.102  15.517  68.284  1.00  0.00    -0.292 OA 
HETATM    4  F   UNL     1     -10.990  13.510  69.236  1.00  0.00    -0.260 F  
ENDROOT
BRANCH   3   5
HETATM    5  C   UNL     1     -10.439  16.442  67.431  1.00  0.00    -0.309 C  
HETATM    6  C   UNL     1     -10.118  15.850  66.046  1.00  0.00    -0.337 C  
HETATM    7  F   UNL     1      -9.289  16.801  68.069  1.00  0.00    -0.216 F  
HETATM    8  F   UNL     1     -10.803  16.501  65.071  1.00  0.00    -0.403 F  
HETATM    9  F   UNL     1     -10.434  14.538  65.945  1.00  0.00    -0.275 F  
HETATM   10  F   UNL     1      -8.804  15.965  65.744  1.00  0.00    -0.349 F  
ENDBRANCH   3   5
TORSDOF 1
ENDMDL
MODEL      179
REMARK 921   NORMALIZED FREE ENERGY PREDICTED BY IDOCK:   -1.67 KCAL/MOL
REMARK 922        TOTAL FREE ENERGY PREDICTED BY IDOCK:   -1.97 KCAL/MOL
REMARK 923 INTER-LIGAND FREE ENERGY PREDICTED BY IDOCK:   -2.63 KCAL/MOL
REMARK 924 INTRA-LIGAND FREE ENERGY PREDICTED BY IDOCK:    0.66 KCAL/MOL
REMARK 927      BINDING AFFINITY PREDICTED BY RF-SCORE:    0.00 PKD
ROOT
HETATM    1  F   UNL     1     -11.692   5.285  72.558  1.00  0.00    -0.298 F  
HETATM    2  C   UNL     1     -10.541   5.404  71.857  1.00  0.00    -0.226 C  
HETATM    3  O   UNL     1     -10.873   5.547  70.496  1.00  0.00    -0.269 OA 
HETATM    4  F   UNL     1      -9.879   4.230  71.987  1.00  0.00    -0.195 F  
ENDROOT
BRANCH   3   5
HETATM    5  C   UNL     1     -11.639   6.732  70.312  1.00  0.00    -0.362 C  
HETATM    6  C   UNL     1     -10.772   8.005  70.309  1.00  0.00    -0.239 C  
HETATM    7  F   UNL     1     -12.537   6.775  71.337  1.00  0.00    -0.370 F  
HETATM    8  F   UNL     1     -10.815   8.616  69.097  1.00  0.00    -0.230 F  
HETATM    9  F   UNL     1      -9.470   7.759  70.584  1.00  0.00    -0.160 F  
HETATM   10  F   UNL     1     -11.205   8.909  71.219  1.00  0.00    -0.280 F  
ENDBRANCH   3   5
TORSDOF 1
ENDMDL
MODEL      180
REMARK 921   NORMALIZED FREE ENERGY PREDICTED BY IDOCK:   -1.63 KCAL/MOL
REMARK 922        TOTAL FREE ENERGY PREDICTED BY IDOCK:   -1.92 KCAL/MOL
REMARK 923 INTER-LIGAND FREE ENERGY PREDICTED BY IDOCK:   -1.70 KCAL/MOL
REMARK 924 INTRA-LIGAND FREE ENERGY PREDICTED BY IDOCK:   -0.23 KCAL/MOL
REMARK 927      BINDING AFFINITY PREDICTED BY RF-SCORE:    0.00 PKD
ROOT
HETATM    1  F   UNL     1      -7.355  12.148  67.363  1.00  0.00    -0.110 F  
HETATM    2  C   UNL     1      -7.129  11.351  68.433  1.00  0.00    -0.079 C  
HETATM    3  O   UNL     1      -8.375  10.915  68.922  1.00  0.00    -0.145 OA 
HETATM    4  F   UNL     1      -6.572  12.129  69.392  1.00  0.00    -0.094 F  
ENDROOT
BRANCH   3   5
HETATM    5  C   UNL     1      -9.040  10.151  67.923  1.00  0.00    -0.131 C  
HETATM    6  C   UNL     1     -10.437  10.703  67.584  1.00  0.00    -0.227 C  
HETATM    7  F   UNL     1      -9.138   8.881  68.408  1.00  0.00    -0.135 F  
HETATM    8  F   UNL     1     -10.485  11.142  66.300  1.00  0.00    -0.268 F  
HETATM    9  F   UNL     1     -10.802  11.740  68.373  1.00  0.00    -0.196 F  
HETATM   10  F   UNL     1     -11.394   9.754  67.709  1.00  0.00    -0.312 F  
ENDBRANCH   3   5
TORSDOF 1
ENDMDL
MODEL      181
REMARK 921   NORMALIZED FREE ENERGY PREDICTED BY IDOCK:   -1.61 KCAL/MOL
REMARK 922        TOTAL FREE ENERGY PREDICTED BY IDOCK:   -1.89 KCAL/MOL
REMARK 923 INTER-LIGAND FREE ENERGY PREDICTED BY IDOCK:   -1.68 KCAL/MOL
REMARK 924 INTRA-LIGAND FREE ENERGY PREDICTED BY IDOCK:   -0.22 KCAL/MOL
REMARK 927      BINDING AFFINITY PREDICTED BY RF-SCORE:    0.00 PKD
ROOT
HETATM    1  F   UNL     1      -8.277   4.025  72.204  1.00  0.00    -0.081 F  
HETATM    2  C   UNL     1      -9.587   3.893  71.893  1.00  0.00    -0.149 C  
HETATM    3  O   UNL     1     -10.313   4.828  72.656  1.00  0.00    -0.185 OA 
HETATM    4  F   UNL     1      -9.965   2.659  72.305  1.00  0.00    -0.191 F  
ENDROOT
BRANCH   3   5
HETATM    5  C   UNL     1      -9.900   6.146  72.315  1.00  0.00    -0.159 C  
HETATM    6  C   UNL     1      -9.040   6.802  73.412  1.00  0.00    -0.131 C  
HETATM    7  F   UNL     1     -11.039   6.868  72.112  1.00  0.00    -0.233 F  
HETATM    8  F   UNL     1      -7.780   7.034  72.963  1.00  0.00    -0.089 F  
HETATM    9  F   UNL     1      -8.932   6.040  74.526  1.00  0.00    -0.122 F  
HETATM   10  F   UNL     1      -9.545   7.997  73.796  1.00  0.00    -0.336 F  
ENDBRANCH   3   5
TORSDOF 1
ENDMDL
MODEL      182
REMARK 921   NORMALIZED FREE ENERGY PREDICTED BY IDOCK:   -1.57 KCAL/MOL
REMARK 922        TOTAL FREE ENERGY PREDICTED BY IDOCK:   -1.86 KCAL/MOL
REMARK 923 INTER-LIGAND FREE ENERGY PREDICTED BY IDOCK:   -1.62 KCAL/MOL
REMARK 924 INTRA-LIGAND FREE ENERGY PREDICTED BY IDOCK:   -0.24 KCAL/MOL
REMARK 927      BINDING AFFINITY PREDICTED BY RF-SCORE:    0.00 PKD
ROOT
HETATM    1  F   UNL     1     -10.971   5.380  70.056  1.00  0.00    -0.381 F  
HETATM    2  C   UNL     1     -10.033   5.753  70.957  1.00  0.00    -0.190 C  
HETATM    3  O   UNL     1      -9.247   4.625  71.260  1.00  0.00    -0.129 OA 
HETATM    4  F   UNL     1     -10.691   6.099  72.089  1.00  0.00    -0.234 F  
ENDROOT
BRANCH   3   5
HETATM    5  C   UNL     1      -8.588   4.173  70.083  1.00  0.00    -0.069 C  
HETATM    6  C   UNL     1      -9.074   2.785  69.625  1.00  0.00    -0.124 C  
HETATM    7  F   UNL     1      -7.256   4.134  70.375  1.00  0.00    -0.039 F  
HETATM    8  F   UNL     1      -9.690   2.862  68.418  1.00  0.00    -0.249 F  
HETATM    9  F   UNL     1      -9.954   2.222  70.486  1.00  0.00    -0.157 F  
HETATM   10  F   UNL     1      -8.046   1.915  69.485  1.00  0.00    -0.047 F  
ENDBRANCH   3   5
TORSDOF 1
ENDMDL
MODEL      183
REMARK 921   NORMALIZED FREE ENERGY PREDICTED BY IDOCK:   -1.55 KCAL/MOL
REMARK 922        TOTAL FREE ENERGY PREDICTED BY IDOCK:   -1.84 KCAL/MOL
REMARK 923 INTER-LIGAND FREE ENERGY PREDICTED BY IDOCK:   -2.62 KCAL/MOL
REMARK 924 INTRA-LIGAND FREE ENERGY PREDICTED BY IDOCK:    0.79 KCAL/MOL
REMARK 927      BINDING AFFINITY PREDICTED BY RF-SCORE:    0.00 PKD
ROOT
HETATM    1  F   UNL     1      -8.968  14.064  68.725  1.00  0.00    -0.180 F  
HETATM    2  C   UNL     1      -8.562  14.890  67.734  1.00  0.00    -0.167 C  
HETATM    3  O   UNL     1      -9.650  15.098  66.865  1.00  0.00    -0.225 OA 
HETATM    4  F   UNL     1      -7.611  14.226  67.034  1.00  0.00    -0.188 F  
ENDROOT
BRANCH   3   5
HETATM    5  C   UNL     1     -10.712  15.729  67.572  1.00  0.00    -0.317 C  
HETATM    6  C   UNL     1     -10.299  17.081  68.181  1.00  0.00    -0.347 C  
HETATM    7  F   UNL     1     -11.091  14.863  68.555  1.00  0.00    -0.234 F  
HETATM    8  F   UNL     1     -10.995  18.100  67.613  1.00  0.00    -0.414 F  
HETATM    9  F   UNL     1      -8.984  17.357  68.016  1.00  0.00    -0.232 F  
HETATM   10  F   UNL     1     -10.550  17.129  69.510  1.00  0.00    -0.316 F  
ENDBRANCH   3   5
TORSDOF 1
ENDMDL
MODEL      184
REMARK 921   NORMALIZED FREE ENERGY PREDICTED BY IDOCK:   -1.51 KCAL/MOL
REMARK 922        TOTAL FREE ENERGY PREDICTED BY IDOCK:   -1.80 KCAL/MOL
REMARK 923 INTER-LIGAND FREE ENERGY PREDICTED BY IDOCK:   -2.36 KCAL/MOL
REMARK 924 INTRA-LIGAND FREE ENERGY PREDICTED BY IDOCK:    0.56 KCAL/MOL
REMARK 927      BINDING AFFINITY PREDICTED BY RF-SCORE:    0.00 PKD
ROOT
HETATM    1  F   UNL     1      -8.363   7.149  69.606  1.00  0.00    -0.124 F  
HETATM    2  C   UNL     1      -9.505   7.851  69.793  1.00  0.00    -0.163 C  
HETATM    3  O   UNL     1     -10.373   7.071  70.580  1.00  0.00    -0.199 OA 
HETATM    4  F   UNL     1     -10.083   7.991  68.576  1.00  0.00    -0.178 F  
ENDROOT
BRANCH   3   5
HETATM    5  C   UNL     1      -9.779   6.829  71.850  1.00  0.00    -0.155 C  
HETATM    6  C   UNL     1     -10.211   7.855  72.914  1.00  0.00    -0.330 C  
HETATM    7  F   UNL     1      -8.429   6.883  71.663  1.00  0.00    -0.115 F  
HETATM    8  F   UNL     1     -10.922   7.255  73.903  1.00  0.00    -0.369 F  
HETATM    9  F   UNL     1     -10.987   8.844  72.411  1.00  0.00    -0.415 F  
HETATM   10  F   UNL     1      -9.146   8.447  73.501  1.00  0.00    -0.308 F  
ENDBRANCH   3   5
TORSDOF 1
ENDMDL
MODEL      185
REMARK 921   NORMALIZED FREE ENERGY PREDICTED BY IDOCK:   -1.51 KCAL/MOL
REMARK 922        TOTAL FREE ENERGY PREDICTED BY IDOCK:   -1.79 KCAL/MOL
REMARK 923 INTER-LIGAND FREE ENERGY PREDICTED BY IDOCK:   -2.17 KCAL/MOL
REMARK 924 INTRA-LIGAND FREE ENERGY PREDICTED BY IDOCK:    0.38 KCAL/MOL
REMARK 927      BINDING AFFINITY PREDICTED BY RF-SCORE:    0.00 PKD
ROOT
HETATM    1  F   UNL     1      -8.648  10.669  63.978  1.00  0.00    -0.174 F  
HETATM    2  C   UNL     1      -8.066  10.194  65.103  1.00  0.00    -0.148 C  
HETATM    3  O   UNL     1      -8.724  10.767  66.209  1.00  0.00    -0.157 OA 
HETATM    4  F   UNL     1      -6.793  10.657  65.111  1.00  0.00    -0.126 F  
ENDROOT
BRANCH   3   5
HETATM    5  C   UNL     1     -10.091  10.373  66.208  1.00  0.00    -0.231 C  
HETATM    6  C   UNL     1     -10.457   9.491  67.416  1.00  0.00    -0.272 C  
HETATM    7  F   UNL     1     -10.296   9.690  65.045  1.00  0.00    -0.263 F  
HETATM    8  F   UNL     1     -11.355  10.118  68.218  1.00  0.00    -0.304 F  
HETATM    9  F   UNL     1      -9.388   9.177  68.185  1.00  0.00    -0.137 F  
HETATM   10  F   UNL     1     -11.024   8.324  67.031  1.00  0.00    -0.358 F  
ENDBRANCH   3   5
TORSDOF 1
ENDMDL
MODEL      186
REMARK 921   NORMALIZED FREE ENERGY PREDICTED BY IDOCK:   -1.50 KCAL/MOL
REMARK 922        TOTAL FREE ENERGY PREDICTED BY IDOCK:   -1.78 KCAL/MOL
REMARK 923 INTER-LIGAND FREE ENERGY PREDICTED BY IDOCK:   -1.57 KCAL/MOL
REMARK 924 INTRA-LIGAND FREE ENERGY PREDICTED BY IDOCK:   -0.21 KCAL/MOL
REMARK 927      BINDING AFFINITY PREDICTED BY RF-SCORE:    0.00 PKD
ROOT
HETATM    1  F   UNL     1      -8.891   8.673  68.585  1.00  0.00    -0.136 F  
HETATM    2  C   UNL     1     -10.195   8.366  68.773  1.00  0.00    -0.207 C  
HETATM    3  O   UNL     1     -10.559   7.404  67.812  1.00  0.00    -0.219 OA 
HETATM    4  F   UNL     1     -10.905   9.488  68.506  1.00  0.00    -0.239 F  
ENDROOT
BRANCH   3   5
HETATM    5  C   UNL     1      -9.787   6.225  68.000  1.00  0.00    -0.125 C  
HETATM    6  C   UNL     1      -8.692   6.054  66.931  1.00  0.00    -0.112 C  
HETATM    7  F   UNL     1     -10.660   5.178  67.954  1.00  0.00    -0.212 F  
HETATM    8  F   UNL     1      -7.456   6.122  67.489  1.00  0.00    -0.076 F  
HETATM    9  F   UNL     1      -8.744   7.000  65.964  1.00  0.00    -0.131 F  
HETATM   10  F   UNL     1      -8.776   4.852  66.314  1.00  0.00    -0.114 F  
ENDBRANCH   3   5
TORSDOF 1
ENDMDL
MODEL      187
REMARK 921   NORMALIZED FREE ENERGY PREDICTED BY IDOCK:   -1.48 KCAL/MOL
REMARK 922        TOTAL FREE ENERGY PREDICTED BY IDOCK:   -1.76 KCAL/MOL
REMARK 923 INTER-LIGAND FREE ENERGY PREDICTED BY IDOCK:   -1.55 KCAL/MOL
REMARK 924 INTRA-LIGAND FREE ENERGY PREDICTED BY IDOCK:   -0.22 KCAL/MOL
REMARK 927      BINDING AFFINITY PREDICTED BY RF-SCORE:    0.00 PKD
ROOT
HETATM    1  F   UNL     1      -7.053   3.870  72.560  1.00  0.00    -0.046 F  
HETATM    2  C   UNL     1      -7.805   4.500  73.492  1.00  0.00    -0.091 C  
HETATM    3  O   UNL     1      -8.727   5.326  72.821  1.00  0.00    -0.119 OA 
HETATM    4  F   UNL     1      -6.971   5.312  74.185  1.00  0.00    -0.072 F  
ENDROOT
BRANCH   3   5
HETATM    5  C   UNL     1      -9.585   4.527  72.014  1.00  0.00    -0.153 C  
HETATM    6  C   UNL     1      -9.610   4.981  70.543  1.00  0.00    -0.185 C  
HETATM    7  F   UNL     1     -10.830   4.623  72.560  1.00  0.00    -0.258 F  
HETATM    8  F   UNL     1      -9.096   4.021  69.732  1.00  0.00    -0.120 F  
HETATM    9  F   UNL     1      -8.897   6.110  70.325  1.00  0.00    -0.139 F  
HETATM   10  F   UNL     1     -10.872   5.220  70.114  1.00  0.00    -0.362 F  
ENDBRANCH   3   5
TORSDOF 1
ENDMDL
MODEL      188
REMARK 921   NORMALIZED FREE ENERGY PREDICTED BY IDOCK:   -1.47 KCAL/MOL
REMARK 922        TOTAL FREE ENERGY PREDICTED BY IDOCK:   -1.75 KCAL/MOL
REMARK 923 INTER-LIGAND FREE ENERGY PREDICTED BY IDOCK:   -1.55 KCAL/MOL
REMARK 924 INTRA-LIGAND FREE ENERGY PREDICTED BY IDOCK:   -0.21 KCAL/MOL
REMARK 927      BINDING AFFINITY PREDICTED BY RF-SCORE:    0.00 PKD
ROOT
HETATM    1  F   UNL     1     -11.283  10.203  66.959  1.00  0.00    -0.281 F  
HETATM    2  C   UNL     1     -10.182   9.457  67.206  1.00  0.00    -0.246 C  
HETATM    3  O   UNL     1      -9.050  10.230  66.882  1.00  0.00    -0.142 OA 
HETATM    4  F   UNL     1     -10.214   8.412  66.345  1.00  0.00    -0.338 F  
ENDROOT
BRANCH   3   5
HETATM    5  C   UNL     1      -9.007  11.386  67.710  1.00  0.00    -0.147 C  
HETATM    6  C   UNL     1      -8.828  12.687  66.906  1.00  0.00    -0.201 C  
HETATM    7  F   UNL     1      -7.960  11.210  68.565  1.00  0.00    -0.111 F  
HETATM    8  F   UNL     1      -9.919  13.486  67.030  1.00  0.00    -0.231 F  
HETATM    9  F   UNL     1      -8.643  12.470  65.583  1.00  0.00     0.288 F  
HETATM   10  F   UNL     1      -7.766  13.404  67.343  1.00  0.00    -0.139 F  
ENDBRANCH   3   5
TORSDOF 1
ENDMDL
MODEL      189
REMARK 921   NORMALIZED FREE ENERGY PREDICTED BY IDOCK:   -1.45 KCAL/MOL
REMARK 922        TOTAL FREE ENERGY PREDICTED BY IDOCK:   -1.73 KCAL/MOL
REMARK 923 INTER-LIGAND FREE ENERGY PREDICTED BY IDOCK:   -1.49 KCAL/MOL
REMARK 924 INTRA-LIGAND FREE ENERGY PREDICTED BY IDOCK:   -0.24 KCAL/MOL
REMARK 927      BINDING AFFINITY PREDICTED BY RF-SCORE:    0.00 PKD
ROOT
HETATM    1  F   UNL     1     -10.913   3.998  63.476  1.00  0.00    -0.247 F  
HETATM    2  C   UNL     1     -10.212   2.854  63.649  1.00  0.00    -0.180 C  
HETATM    3  O   UNL     1      -9.101   3.143  64.465  1.00  0.00    -0.122 OA 
HETATM    4  F   UNL     1      -9.734   2.497  62.433  1.00  0.00    -0.090 F  
ENDROOT
BRANCH   3   5
HETATM    5  C   UNL     1      -9.547   3.596  65.737  1.00  0.00    -0.140 C  
HETATM    6  C   UNL     1      -9.247   5.087  65.976  1.00  0.00    -0.153 C  
HETATM    7  F   UNL     1      -8.908   2.830  66.667  1.00  0.00    -0.114 F  
HETATM    8  F   UNL     1     -10.398   5.800  66.089  1.00  0.00    -0.207 F  
HETATM    9  F   UNL     1      -8.528   5.649  64.977  1.00  0.00    -0.132 F  
HETATM   10  F   UNL     1      -8.553   5.281  67.122  1.00  0.00    -0.108 F  
ENDBRANCH   3   5
TORSDOF 1
ENDMDL
MODEL      190
REMARK 921   NORMALIZED FREE ENERGY PREDICTED BY IDOCK:   -1.43 KCAL/MOL
REMARK 922        TOTAL FREE ENERGY PREDICTED BY IDOCK:   -1.71 KCAL/MOL
REMARK 923 INTER-LIGAND FREE ENERGY PREDICTED BY IDOCK:   -1.57 KCAL/MOL
REMARK 924 INTRA-LIGAND FREE ENERGY PREDICTED BY IDOCK:   -0.14 KCAL/MOL
REMARK 927      BINDING AFFINITY PREDICTED BY RF-SCORE:    0.00 PKD
ROOT
HETATM    1  F   UNL     1     -10.121   4.140  65.662  1.00  0.00    -0.187 F  
HETATM    2  C   UNL     1     -10.206   4.481  66.969  1.00  0.00    -0.074 C  
HETATM    3  O   UNL     1      -9.270   5.503  67.215  1.00  0.00    -0.111 OA 
HETATM    4  F   UNL     1      -9.815   3.398  67.682  1.00  0.00    -0.239 F  
ENDROOT
BRANCH   3   5
HETATM    5  C   UNL     1      -9.592   6.645  66.430  1.00  0.00    -0.096 C  
HETATM    6  C   UNL     1      -8.865   7.917  66.905  1.00  0.00    -0.133 C  
HETATM    7  F   UNL     1     -10.942   6.810  66.521  1.00  0.00    -0.342 F  
HETATM    8  F   UNL     1      -8.004   8.365  65.956  1.00  0.00    -0.090 F  
HETATM    9  F   UNL     1      -8.147   7.725  68.036  1.00  0.00    -0.115 F  
HETATM   10  F   UNL     1      -9.733   8.926  67.154  1.00  0.00    -0.180 F  
ENDBRANCH   3   5
TORSDOF 1
ENDMDL
MODEL      191
REMARK 921   NORMALIZED FREE ENERGY PREDICTED BY IDOCK:   -1.42 KCAL/MOL
REMARK 922        TOTAL FREE ENERGY PREDICTED BY IDOCK:   -1.70 KCAL/MOL
REMARK 923 INTER-LIGAND FREE ENERGY PREDICTED BY IDOCK:   -1.57 KCAL/MOL
REMARK 924 INTRA-LIGAND FREE ENERGY PREDICTED BY IDOCK:   -0.14 KCAL/MOL
REMARK 927      BINDING AFFINITY PREDICTED BY RF-SCORE:    0.00 PKD
ROOT
HETATM    1  F   UNL     1     -10.351   4.159  65.473  1.00  0.00    -0.214 F  
HETATM    2  C   UNL     1      -9.234   3.936  66.204  1.00  0.00    -0.160 C  
HETATM    3  O   UNL     1      -9.203   4.877  67.250  1.00  0.00    -0.117 OA 
HETATM    4  F   UNL     1      -8.179   4.198  65.397  1.00  0.00    -0.101 F  
ENDROOT
BRANCH   3   5
HETATM    5  C   UNL     1     -10.336   4.694  68.091  1.00  0.00     0.162 C  
HETATM    6  C   UNL     1     -10.508   5.833  69.113  1.00  0.00    -0.276 C  
HETATM    7  F   UNL     1     -10.154   3.506  68.734  1.00  0.00    -0.071 F  
HETATM    8  F   UNL     1     -11.655   6.522  68.881  1.00  0.00    -0.338 F  
HETATM    9  F   UNL     1      -9.494   6.729  69.083  1.00  0.00    -0.141 F  
HETATM   10  F   UNL     1     -10.583   5.363  70.380  1.00  0.00    -0.311 F  
ENDBRANCH   3   5
TORSDOF 1
ENDMDL
MODEL      192
REMARK 921   NORMALIZED FREE ENERGY PREDICTED BY IDOCK:   -1.37 KCAL/MOL
REMARK 922        TOTAL FREE ENERGY PREDICTED BY IDOCK:   -1.65 KCAL/MOL
REMARK 923 INTER-LIGAND FREE ENERGY PREDICTED BY IDOCK:   -1.41 KCAL/MOL
REMARK 924 INTRA-LIGAND FREE ENERGY PREDICTED BY IDOCK:   -0.24 KCAL/MOL
REMARK 927      BINDING AFFINITY PREDICTED BY RF-SCORE:    0.00 PKD
ROOT
HETATM    1  F   UNL     1      -8.633   7.201  69.305  1.00  0.00    -0.131 F  
HETATM    2  C   UNL     1      -7.550   6.623  69.874  1.00  0.00    -0.100 C  
HETATM    3  O   UNL     1      -7.860   5.274  70.132  1.00  0.00    -0.077 OA 
HETATM    4  F   UNL     1      -7.366   7.229  71.071  1.00  0.00    -0.069 F  
ENDROOT
BRANCH   3   5
HETATM    5  C   UNL     1      -8.138   4.605  68.908  1.00  0.00    -0.081 C  
HETATM    6  C   UNL     1      -9.618   4.205  68.771  1.00  0.00    -0.140 C  
HETATM    7  F   UNL     1      -7.344   3.496  68.885  1.00  0.00    -0.048 F  
HETATM    8  F   UNL     1     -10.205   4.868  67.741  1.00  0.00    -0.206 F  
HETATM    9  F   UNL     1     -10.344   4.473  69.882  1.00  0.00    -0.311 F  
HETATM   10  F   UNL     1      -9.759   2.883  68.516  1.00  0.00    -0.246 F  
ENDBRANCH   3   5
TORSDOF 1
ENDMDL
MODEL      193
REMARK 921   NORMALIZED FREE ENERGY PREDICTED BY IDOCK:   -1.35 KCAL/MOL
REMARK 922        TOTAL FREE ENERGY PREDICTED BY IDOCK:   -1.62 KCAL/MOL
REMARK 923 INTER-LIGAND FREE ENERGY PREDICTED BY IDOCK:   -1.38 KCAL/MOL
REMARK 924 INTRA-LIGAND FREE ENERGY PREDICTED BY IDOCK:   -0.24 KCAL/MOL
REMARK 927      BINDING AFFINITY PREDICTED BY RF-SCORE:    0.00 PKD
ROOT
HETATM    1  F   UNL     1      -8.409   9.034  64.168  1.00  0.00    -0.143 F  
HETATM    2  C   UNL     1      -7.455   8.215  64.668  1.00  0.00    -0.096 C  
HETATM    3  O   UNL     1      -7.430   8.378  66.067  1.00  0.00    -0.082 OA 
HETATM    4  F   UNL     1      -6.267   8.660  64.192  1.00  0.00    -0.068 F  
ENDROOT
BRANCH   3   5
HETATM    5  C   UNL     1      -8.686   7.994  66.614  1.00  0.00    -0.140 C  
HETATM    6  C   UNL     1      -9.439   9.173  67.260  1.00  0.00    -0.148 C  
HETATM    7  F   UNL     1      -8.425   7.034  67.546  1.00  0.00    -0.119 F  
HETATM    8  F   UNL     1     -10.591   9.435  66.590  1.00  0.00    -0.308 F  
HETATM    9  F   UNL     1      -8.717  10.318  67.273  1.00  0.00    -0.124 F  
HETATM   10  F   UNL     1      -9.783   8.906  68.541  1.00  0.00    -0.151 F  
ENDBRANCH   3   5
TORSDOF 1
ENDMDL
MODEL      194
REMARK 921   NORMALIZED FREE ENERGY PREDICTED BY IDOCK:   -1.29 KCAL/MOL
REMARK 922        TOTAL FREE ENERGY PREDICTED BY IDOCK:   -1.56 KCAL/MOL
REMARK 923 INTER-LIGAND FREE ENERGY PREDICTED BY IDOCK:   -1.42 KCAL/MOL
REMARK 924 INTRA-LIGAND FREE ENERGY PREDICTED BY IDOCK:   -0.14 KCAL/MOL
REMARK 927      BINDING AFFINITY PREDICTED BY RF-SCORE:    0.00 PKD
ROOT
HETATM    1  F   UNL     1     -10.340   6.792  70.936  1.00  0.00    -0.205 F  
HETATM    2  C   UNL     1      -9.783   5.581  70.708  1.00  0.00    -0.177 C  
HETATM    3  O   UNL     1      -9.784   5.354  69.318  1.00  0.00    -0.140 OA 
HETATM    4  F   UNL     1     -10.605   4.660  71.265  1.00  0.00    -0.234 F  
ENDROOT
BRANCH   3   5
HETATM    5  C   UNL     1      -8.992   6.344  68.672  1.00  0.00    -0.125 C  
HETATM    6  C   UNL     1      -8.614   5.955  67.231  1.00  0.00    -0.106 C  
HETATM    7  F   UNL     1      -7.869   6.496  69.430  1.00  0.00    -0.096 F  
HETATM    8  F   UNL     1      -9.174   6.811  66.337  1.00  0.00    -0.155 F  
HETATM    9  F   UNL     1      -9.019   4.708  66.895  1.00  0.00    -0.111 F  
HETATM   10  F   UNL     1      -7.276   6.004  67.033  1.00  0.00    -0.068 F  
ENDBRANCH   3   5
TORSDOF 1
ENDMDL
MODEL      195
REMARK 921   NORMALIZED FREE ENERGY PREDICTED BY IDOCK:   -1.28 KCAL/MOL
REMARK 922        TOTAL FREE ENERGY PREDICTED BY IDOCK:   -1.55 KCAL/MOL
REMARK 923 INTER-LIGAND FREE ENERGY PREDICTED BY IDOCK:   -1.31 KCAL/MOL
REMARK 924 INTRA-LIGAND FREE ENERGY PREDICTED BY IDOCK:   -0.24 KCAL/MOL
REMARK 927      BINDING AFFINITY PREDICTED BY RF-SCORE:    0.00 PKD
ROOT
HETATM    1  F   UNL     1      -9.157  10.168  64.996  1.00  0.00    -0.168 F  
HETATM    2  C   UNL     1      -9.353  11.286  65.732  1.00  0.00    -0.223 C  
HETATM    3  O   UNL     1      -8.861  11.046  67.029  1.00  0.00    -0.139 OA 
HETATM    4  F   UNL     1     -10.692  11.458  65.837  1.00  0.00    -0.292 F  
ENDROOT
BRANCH   3   5
HETATM    5  C   UNL     1      -7.464  10.783  66.970  1.00  0.00    -0.114 C  
HETATM    6  C   UNL     1      -7.105   9.363  67.446  1.00  0.00    -0.086 C  
HETATM    7  F   UNL     1      -6.861  11.714  67.763  1.00  0.00    -0.066 F  
HETATM    8  F   UNL     1      -6.584   8.630  66.428  1.00  0.00    -0.058 F  
HETATM    9  F   UNL     1      -8.170   8.680  67.924  1.00  0.00    -0.110 F  
HETATM   10  F   UNL     1      -6.174   9.385  68.428  1.00  0.00    -0.050 F  
ENDBRANCH   3   5
TORSDOF 1
ENDMDL
MODEL      196
REMARK 921   NORMALIZED FREE ENERGY PREDICTED BY IDOCK:   -1.28 KCAL/MOL
REMARK 922        TOTAL FREE ENERGY PREDICTED BY IDOCK:   -1.55 KCAL/MOL
REMARK 923 INTER-LIGAND FREE ENERGY PREDICTED BY IDOCK:   -1.32 KCAL/MOL
REMARK 924 INTRA-LIGAND FREE ENERGY PREDICTED BY IDOCK:   -0.22 KCAL/MOL
REMARK 927      BINDING AFFINITY PREDICTED BY RF-SCORE:    0.00 PKD
ROOT
HETATM    1  F   UNL     1      -9.737   7.295  70.785  1.00  0.00    -0.170 F  
HETATM    2  C   UNL     1     -10.542   7.576  69.734  1.00  0.00    -0.241 C  
HETATM    3  O   UNL     1      -9.725   7.874  68.627  1.00  0.00    -0.153 OA 
HETATM    4  F   UNL     1     -11.219   8.705  70.049  1.00  0.00    -0.253 F  
ENDROOT
BRANCH   3   5
HETATM    5  C   UNL     1      -8.933   6.739  68.299  1.00  0.00    -0.123 C  
HETATM    6  C   UNL     1      -7.425   7.052  68.278  1.00  0.00    -0.099 C  
HETATM    7  F   UNL     1      -9.345   6.322  67.068  1.00  0.00    -0.118 F  
HETATM    8  F   UNL     1      -6.774   6.362  69.250  1.00  0.00    -0.041 F  
HETATM    9  F   UNL     1      -7.154   8.364  68.473  1.00  0.00    -0.069 F  
HETATM   10  F   UNL     1      -6.856   6.701  67.101  1.00  0.00    -0.058 F  
ENDBRANCH   3   5
TORSDOF 1
ENDMDL
MODEL      197
REMARK 921   NORMALIZED FREE ENERGY PREDICTED BY IDOCK:   -1.28 KCAL/MOL
REMARK 922        TOTAL FREE ENERGY PREDICTED BY IDOCK:   -1.54 KCAL/MOL
REMARK 923 INTER-LIGAND FREE ENERGY PREDICTED BY IDOCK:   -2.66 KCAL/MOL
REMARK 924 INTRA-LIGAND FREE ENERGY PREDICTED BY IDOCK:    1.11 KCAL/MOL
REMARK 927      BINDING AFFINITY PREDICTED BY RF-SCORE:    0.00 PKD
ROOT
HETATM    1  F   UNL     1     -12.296  15.835  73.314  1.00  0.00    -0.424 F  
HETATM    2  C   UNL     1     -13.592  15.718  72.943  1.00  0.00    -0.577 C  
HETATM    3  O   UNL     1     -13.655  15.821  71.541  1.00  0.00    -0.488 OA 
HETATM    4  F   UNL     1     -14.245  16.789  73.454  1.00  0.00    -0.166 F  
ENDROOT
BRANCH   3   5
HETATM    5  C   UNL     1     -12.919  14.757  70.950  1.00  0.00    -0.364 C  
HETATM    6  C   UNL     1     -13.145  13.410  71.662  1.00  0.00    -0.375 C  
HETATM    7  F   UNL     1     -11.605  15.112  71.016  1.00  0.00    -0.290 F  
HETATM    8  F   UNL     1     -13.758  12.523  70.837  1.00  0.00     0.262 F  
HETATM    9  F   UNL     1     -13.914  13.520  72.770  1.00  0.00    -0.593 F  
HETATM   10  F   UNL     1     -11.976  12.844  72.045  1.00  0.00     0.361 F  
ENDBRANCH   3   5
TORSDOF 1
ENDMDL
MODEL      198
REMARK 921   NORMALIZED FREE ENERGY PREDICTED BY IDOCK:   -1.27 KCAL/MOL
REMARK 922        TOTAL FREE ENERGY PREDICTED BY IDOCK:   -1.53 KCAL/MOL
REMARK 923 INTER-LIGAND FREE ENERGY PREDICTED BY IDOCK:   -1.33 KCAL/MOL
REMARK 924 INTRA-LIGAND FREE ENERGY PREDICTED BY IDOCK:   -0.20 KCAL/MOL
REMARK 927      BINDING AFFINITY PREDICTED BY RF-SCORE:    0.00 PKD
ROOT
HETATM    1  F   UNL     1      -7.914   7.549  66.869  1.00  0.00    -0.106 F  
HETATM    2  C   UNL     1      -9.263   7.543  66.759  1.00  0.00    -0.156 C  
HETATM    3  O   UNL     1      -9.651   6.304  66.214  1.00  0.00    -0.153 OA 
HETATM    4  F   UNL     1      -9.587   8.498  65.855  1.00  0.00    -0.277 F  
ENDROOT
BRANCH   3   5
HETATM    5  C   UNL     1      -9.265   5.254  67.093  1.00  0.00    -0.113 C  
HETATM    6  C   UNL     1      -8.035   4.476  66.588  1.00  0.00    -0.102 C  
HETATM    7  F   UNL     1     -10.340   4.422  67.198  1.00  0.00    -0.204 F  
HETATM    8  F   UNL     1      -6.982   4.636  67.431  1.00  0.00    -0.055 F  
HETATM    9  F   UNL     1      -7.625   4.874  65.361  1.00  0.00    -0.079 F  
HETATM   10  F   UNL     1      -8.278   3.147  66.513  1.00  0.00    -0.085 F  
ENDBRANCH   3   5
TORSDOF 1
ENDMDL
MODEL      199
REMARK 921   NORMALIZED FREE ENERGY PREDICTED BY IDOCK:   -1.22 KCAL/MOL
REMARK 922        TOTAL FREE ENERGY PREDICTED BY IDOCK:   -1.49 KCAL/MOL
REMARK 923 INTER-LIGAND FREE ENERGY PREDICTED BY IDOCK:   -1.70 KCAL/MOL
REMARK 924 INTRA-LIGAND FREE ENERGY PREDICTED BY IDOCK:    0.22 KCAL/MOL
REMARK 927      BINDING AFFINITY PREDICTED BY RF-SCORE:    0.00 PKD
ROOT
HETATM    1  F   UNL     1      -8.053   7.680  67.906  1.00  0.00    -0.114 F  
HETATM    2  C   UNL     1      -7.304   8.455  67.088  1.00  0.00    -0.085 C  
HETATM    3  O   UNL     1      -8.015   8.637  65.887  1.00  0.00    -0.099 OA 
HETATM    4  F   UNL     1      -6.188   7.748  66.790  1.00  0.00    -0.043 F  
ENDROOT
BRANCH   3   5
HETATM    5  C   UNL     1      -9.238   9.313  66.154  1.00  0.00    -0.196 C  
HETATM    6  C   UNL     1      -9.437  10.556  65.265  1.00  0.00    -0.229 C  
HETATM    7  F   UNL     1      -9.202   9.674  67.468  1.00  0.00    -0.133 F  
HETATM    8  F   UNL     1     -10.506  10.396  64.443  1.00  0.00    -0.420 F  
HETATM    9  F   UNL     1      -8.367  10.821  64.480  1.00  0.00    -0.166 F  
HETATM   10  F   UNL     1      -9.673  11.666  66.002  1.00  0.00    -0.217 F  
ENDBRANCH   3   5
TORSDOF 1
ENDMDL
MODEL      200
REMARK 921   NORMALIZED FREE ENERGY PREDICTED BY IDOCK:   -1.21 KCAL/MOL
REMARK 922        TOTAL FREE ENERGY PREDICTED BY IDOCK:   -1.48 KCAL/MOL
REMARK 923 INTER-LIGAND FREE ENERGY PREDICTED BY IDOCK:   -1.33 KCAL/MOL
REMARK 924 INTRA-LIGAND FREE ENERGY PREDICTED BY IDOCK:   -0.15 KCAL/MOL
REMARK 927      BINDING AFFINITY PREDICTED BY RF-SCORE:    0.00 PKD
ROOT
HETATM    1  F   UNL     1      -6.003  11.679  66.340  1.00  0.00    -0.145 F  
HETATM    2  C   UNL     1      -7.077  10.995  66.798  1.00  0.00    -0.135 C  
HETATM    3  O   UNL     1      -7.822  11.856  67.626  1.00  0.00    -0.125 OA 
HETATM    4  F   UNL     1      -6.601   9.998  67.582  1.00  0.00    -0.064 F  
ENDROOT
BRANCH   3   5
HETATM    5  C   UNL     1      -8.286  12.966  66.866  1.00  0.00    -0.002 C  
HETATM    6  C   UNL     1      -9.361  13.785  67.605  1.00  0.00    -0.213 C  
HETATM    7  F   UNL     1      -8.793  12.456  65.707  1.00  0.00    -0.022 F  
HETATM    8  F   UNL     1      -8.913  15.039  67.873  1.00  0.00    -0.167 F  
HETATM    9  F   UNL     1      -9.729  13.233  68.784  1.00  0.00    -0.195 F  
HETATM   10  F   UNL     1     -10.484  13.921  66.863  1.00  0.00    -0.266 F  
ENDBRANCH   3   5
TORSDOF 1
ENDMDL
MODEL      201
REMARK 921   NORMALIZED FREE ENERGY PREDICTED BY IDOCK:   -1.15 KCAL/MOL
REMARK 922        TOTAL FREE ENERGY PREDICTED BY IDOCK:   -1.41 KCAL/MOL
REMARK 923 INTER-LIGAND FREE ENERGY PREDICTED BY IDOCK:   -1.17 KCAL/MOL
REMARK 924 INTRA-LIGAND FREE ENERGY PREDICTED BY IDOCK:   -0.24 KCAL/MOL
REMARK 927      BINDING AFFINITY PREDICTED BY RF-SCORE:    0.00 PKD
ROOT
HETATM    1  F   UNL     1      -8.611   4.454  71.762  1.00  0.00    -0.104 F  
HETATM    2  C   UNL     1      -9.817   4.212  71.197  1.00  0.00    -0.174 C  
HETATM    3  O   UNL     1      -9.606   3.886  69.843  1.00  0.00    -0.188 OA 
HETATM    4  F   UNL     1     -10.505   5.378  71.226  1.00  0.00    -0.263 F  
ENDROOT
BRANCH   3   5
HETATM    5  C   UNL     1      -8.821   2.703  69.754  1.00  0.00    -0.083 C  
HETATM    6  C   UNL     1      -7.448   2.949  69.099  1.00  0.00    -0.047 C  
HETATM    7  F   UNL     1      -9.544   1.813  69.016  1.00  0.00    -0.186 F  
HETATM    8  F   UNL     1      -6.443   2.721  69.984  1.00  0.00    -0.026 F  
HETATM    9  F   UNL     1      -7.298   4.214  68.645  1.00  0.00    -0.053 F  
HETATM   10  F   UNL     1      -7.239   2.122  68.048  1.00  0.00    -0.045 F  
ENDBRANCH   3   5
TORSDOF 1
ENDMDL
MODEL      202
REMARK 921   NORMALIZED FREE ENERGY PREDICTED BY IDOCK:   -1.12 KCAL/MOL
REMARK 922        TOTAL FREE ENERGY PREDICTED BY IDOCK:   -1.37 KCAL/MOL
REMARK 923 INTER-LIGAND FREE ENERGY PREDICTED BY IDOCK:   -1.13 KCAL/MOL
REMARK 924 INTRA-LIGAND FREE ENERGY PREDICTED BY IDOCK:   -0.24 KCAL/MOL
REMARK 927      BINDING AFFINITY PREDICTED BY RF-SCORE:    0.00 PKD
ROOT
HETATM    1  F   UNL     1      -8.198  10.943  65.517  1.00  0.00    -0.162 F  
HETATM    2  C   UNL     1      -7.126  10.118  65.471  1.00  0.00    -0.138 C  
HETATM    3  O   UNL     1      -6.430  10.239  66.689  1.00  0.00    -0.069 OA 
HETATM    4  F   UNL     1      -6.312  10.587  64.496  1.00  0.00    -0.133 F  
ENDROOT
BRANCH   3   5
HETATM    5  C   UNL     1      -7.270   9.828  67.762  1.00  0.00    -0.088 C  
HETATM    6  C   UNL     1      -7.550  10.963  68.765  1.00  0.00    -0.121 C  
HETATM    7  F   UNL     1      -6.629   8.797  68.382  1.00  0.00    -0.055 F  
HETATM    8  F   UNL     1      -8.869  11.287  68.771  1.00  0.00    -0.156 F  
HETATM    9  F   UNL     1      -6.863  12.095  68.489  1.00  0.00    -0.065 F  
HETATM   10  F   UNL     1      -7.231  10.603  70.030  1.00  0.00    -0.144 F  
ENDBRANCH   3   5
TORSDOF 1
ENDMDL
MODEL      203
REMARK 921   NORMALIZED FREE ENERGY PREDICTED BY IDOCK:   -1.11 KCAL/MOL
REMARK 922        TOTAL FREE ENERGY PREDICTED BY IDOCK:   -1.37 KCAL/MOL
REMARK 923 INTER-LIGAND FREE ENERGY PREDICTED BY IDOCK:   -2.02 KCAL/MOL
REMARK 924 INTRA-LIGAND FREE ENERGY PREDICTED BY IDOCK:    0.64 KCAL/MOL
REMARK 927      BINDING AFFINITY PREDICTED BY RF-SCORE:    0.00 PKD
ROOT
HETATM    1  F   UNL     1     -10.908   5.777  72.378  1.00  0.00    -0.236 F  
HETATM    2  C   UNL     1     -10.793   7.079  72.729  1.00  0.00    -0.288 C  
HETATM    3  O   UNL     1      -9.635   7.595  72.116  1.00  0.00    -0.151 OA 
HETATM    4  F   UNL     1     -10.585   7.108  74.067  1.00  0.00    -0.399 F  
ENDROOT
BRANCH   3   5
HETATM    5  C   UNL     1      -9.770   7.519  70.702  1.00  0.00    -0.175 C  
HETATM    6  C   UNL     1     -10.600   8.679  70.120  1.00  0.00    -0.225 C  
HETATM    7  F   UNL     1     -10.372   6.326  70.433  1.00  0.00    -0.209 F  
HETATM    8  F   UNL     1      -9.838   9.461  69.313  1.00  0.00    -0.158 F  
HETATM    9  F   UNL     1     -11.126   9.483  71.073  1.00  0.00    -0.316 F  
HETATM   10  F   UNL     1     -11.632   8.228  69.368  1.00  0.00     0.141 F  
ENDBRANCH   3   5
TORSDOF 1
ENDMDL
MODEL      204
REMARK 921   NORMALIZED FREE ENERGY PREDICTED BY IDOCK:   -1.08 KCAL/MOL
REMARK 922        TOTAL FREE ENERGY PREDICTED BY IDOCK:   -1.34 KCAL/MOL
REMARK 923 INTER-LIGAND FREE ENERGY PREDICTED BY IDOCK:   -1.67 KCAL/MOL
REMARK 924 INTRA-LIGAND FREE ENERGY PREDICTED BY IDOCK:    0.33 KCAL/MOL
REMARK 927      BINDING AFFINITY PREDICTED BY RF-SCORE:    0.00 PKD
ROOT
HETATM    1  F   UNL     1      -7.087   3.880  72.594  1.00  0.00    -0.044 F  
HETATM    2  C   UNL     1      -7.614   4.546  73.648  1.00  0.00    -0.082 C  
HETATM    3  O   UNL     1      -8.648   5.373  73.168  1.00  0.00    -0.118 OA 
HETATM    4  F   UNL     1      -6.641   5.357  74.126  1.00  0.00    -0.067 F  
ENDROOT
BRANCH   3   5
HETATM    5  C   UNL     1      -9.668   4.572  72.584  1.00  0.00    -0.144 C  
HETATM    6  C   UNL     1     -11.027   4.730  73.292  1.00  0.00    -0.316 C  
HETATM    7  F   UNL     1      -9.240   3.279  72.666  1.00  0.00    -0.099 F  
HETATM    8  F   UNL     1     -11.944   5.284  72.458  1.00  0.00    -0.275 F  
HETATM    9  F   UNL     1     -10.962   5.517  74.391  1.00  0.00    -0.207 F  
HETATM   10  F   UNL     1     -11.528   3.536  73.687  1.00  0.00    -0.316 F  
ENDBRANCH   3   5
TORSDOF 1
ENDMDL
MODEL      205
REMARK 921   NORMALIZED FREE ENERGY PREDICTED BY IDOCK:   -1.06 KCAL/MOL
REMARK 922        TOTAL FREE ENERGY PREDICTED BY IDOCK:   -1.32 KCAL/MOL
REMARK 923 INTER-LIGAND FREE ENERGY PREDICTED BY IDOCK:   -1.09 KCAL/MOL
REMARK 924 INTRA-LIGAND FREE ENERGY PREDICTED BY IDOCK:   -0.23 KCAL/MOL
REMARK 927      BINDING AFFINITY PREDICTED BY RF-SCORE:    0.00 PKD
ROOT
HETATM    1  F   UNL     1      -7.563   9.123  67.184  1.00  0.00    -0.088 F  
HETATM    2  C   UNL     1      -6.851   9.142  66.033  1.00  0.00    -0.084 C  
HETATM    3  O   UNL     1      -6.879   7.846  65.482  1.00  0.00    -0.054 OA 
HETATM    4  F   UNL     1      -5.567   9.407  66.370  1.00  0.00    -0.047 F  
ENDROOT
BRANCH   3   5
HETATM    5  C   UNL     1      -8.221   7.485  65.177  1.00  0.00    -0.120 C  
HETATM    6  C   UNL     1      -8.772   6.398  66.117  1.00  0.00    -0.146 C  
HETATM    7  F   UNL     1      -8.219   7.039  63.888  1.00  0.00    -0.118 F  
HETATM    8  F   UNL     1      -9.801   6.879  66.862  1.00  0.00    -0.177 F  
HETATM    9  F   UNL     1      -7.844   5.924  66.981  1.00  0.00    -0.096 F  
HETATM   10  F   UNL     1      -9.251   5.336  65.428  1.00  0.00    -0.158 F  
ENDBRANCH   3   5
TORSDOF 1
ENDMDL
MODEL      206
REMARK 921   NORMALIZED FREE ENERGY PREDICTED BY IDOCK:   -1.05 KCAL/MOL
REMARK 922        TOTAL FREE ENERGY PREDICTED BY IDOCK:   -1.31 KCAL/MOL
REMARK 923 INTER-LIGAND FREE ENERGY PREDICTED BY IDOCK:   -1.17 KCAL/MOL
REMARK 924 INTRA-LIGAND FREE ENERGY PREDICTED BY IDOCK:   -0.14 KCAL/MOL
REMARK 927      BINDING AFFINITY PREDICTED BY RF-SCORE:    0.00 PKD
ROOT
HETATM    1  F   UNL     1      -6.926   4.355  73.677  1.00  0.00    -0.056 F  
HETATM    2  C   UNL     1      -8.268   4.525  73.705  1.00  0.00    -0.101 C  
HETATM    3  O   UNL     1      -8.743   4.461  72.381  1.00  0.00    -0.110 OA 
HETATM    4  F   UNL     1      -8.496   5.782  74.152  1.00  0.00    -0.113 F  
ENDROOT
BRANCH   3   5
HETATM    5  C   UNL     1      -8.461   3.178  71.834  1.00  0.00    -0.072 C  
HETATM    6  C   UNL     1      -9.251   2.896  70.542  1.00  0.00    -0.139 C  
HETATM    7  F   UNL     1      -8.785   2.267  72.795  1.00  0.00    -0.064 F  
HETATM    8  F   UNL     1      -8.413   2.769  69.481  1.00  0.00    -0.070 F  
HETATM    9  F   UNL     1     -10.134   3.876  70.237  1.00  0.00    -0.267 F  
HETATM   10  F   UNL     1      -9.953   1.742  70.627  1.00  0.00    -0.174 F  
ENDBRANCH   3   5
TORSDOF 1
ENDMDL
MODEL      207
REMARK 921   NORMALIZED FREE ENERGY PREDICTED BY IDOCK:   -1.02 KCAL/MOL
REMARK 922        TOTAL FREE ENERGY PREDICTED BY IDOCK:   -1.28 KCAL/MOL
REMARK 923 INTER-LIGAND FREE ENERGY PREDICTED BY IDOCK:   -1.13 KCAL/MOL
REMARK 924 INTRA-LIGAND FREE ENERGY PREDICTED BY IDOCK:   -0.15 KCAL/MOL
REMARK 927      BINDING AFFINITY PREDICTED BY RF-SCORE:    0.00 PKD
ROOT
HETATM    1  F   UNL     1      -8.839   8.074  70.937  1.00  0.00    -0.129 F  
HETATM    2  C   UNL     1      -8.716   7.197  69.914  1.00  0.00    -0.142 C  
HETATM    3  O   UNL     1      -8.932   7.896  68.711  1.00  0.00    -0.141 OA 
HETATM    4  F   UNL     1      -9.723   6.300  70.043  1.00  0.00    -0.166 F  
ENDROOT
BRANCH   3   5
HETATM    5  C   UNL     1      -7.941   8.905  68.561  1.00  0.00    -0.104 C  
HETATM    6  C   UNL     1      -7.910   9.501  67.141  1.00  0.00    -0.095 C  
HETATM    7  F   UNL     1      -6.745   8.320  68.854  1.00  0.00    -0.048 F  
HETATM    8  F   UNL     1      -8.256  10.814  67.160  1.00  0.00    -0.117 F  
HETATM    9  F   UNL     1      -8.756   8.879  66.287  1.00  0.00    -0.121 F  
HETATM   10  F   UNL     1      -6.673   9.430  66.595  1.00  0.00    -0.068 F  
ENDBRANCH   3   5
TORSDOF 1
ENDMDL
MODEL      208
REMARK 921   NORMALIZED FREE ENERGY PREDICTED BY IDOCK:   -0.93 KCAL/MOL
REMARK 922        TOTAL FREE ENERGY PREDICTED BY IDOCK:   -1.18 KCAL/MOL
REMARK 923 INTER-LIGAND FREE ENERGY PREDICTED BY IDOCK:   -1.04 KCAL/MOL
REMARK 924 INTRA-LIGAND FREE ENERGY PREDICTED BY IDOCK:   -0.14 KCAL/MOL
REMARK 927      BINDING AFFINITY PREDICTED BY RF-SCORE:    0.00 PKD
ROOT
HETATM    1  F   UNL     1      -7.992   3.269  72.303  1.00  0.00    -0.055 F  
HETATM    2  C   UNL     1      -8.332   4.294  73.118  1.00  0.00    -0.091 C  
HETATM    3  O   UNL     1      -7.897   5.491  72.517  1.00  0.00    -0.101 OA 
HETATM    4  F   UNL     1      -7.622   4.139  74.261  1.00  0.00    -0.070 F  
ENDROOT
BRANCH   3   5
HETATM    5  C   UNL     1      -8.560   5.667  71.270  1.00  0.00    -0.128 C  
HETATM    6  C   UNL     1      -8.188   6.994  70.582  1.00  0.00    -0.119 C  
HETATM    7  F   UNL     1      -9.897   5.630  71.534  1.00  0.00    -0.176 F  
HETATM    8  F   UNL     1      -7.532   6.765  69.415  1.00  0.00    -0.083 F  
HETATM    9  F   UNL     1      -7.388   7.778  71.341  1.00  0.00    -0.062 F  
HETATM   10  F   UNL     1      -9.286   7.725  70.277  1.00  0.00    -0.152 F  
ENDBRANCH   3   5
TORSDOF 1
ENDMDL
MODEL      209
REMARK 921   NORMALIZED FREE ENERGY PREDICTED BY IDOCK:   -0.93 KCAL/MOL
REMARK 922        TOTAL FREE ENERGY PREDICTED BY IDOCK:   -1.17 KCAL/MOL
REMARK 923 INTER-LIGAND FREE ENERGY PREDICTED BY IDOCK:   -0.94 KCAL/MOL
REMARK 924 INTRA-LIGAND FREE ENERGY PREDICTED BY IDOCK:   -0.24 KCAL/MOL
REMARK 927      BINDING AFFINITY PREDICTED BY RF-SCORE:    0.00 PKD
ROOT
HETATM    1  F   UNL     1      -9.336   8.045  70.207  1.00  0.00    -0.155 F  
HETATM    2  C   UNL     1      -8.198   8.587  70.698  1.00  0.00    -0.123 C  
HETATM    3  O   UNL     1      -7.134   8.199  69.860  1.00  0.00    -0.057 OA 
HETATM    4  F   UNL     1      -7.983   8.018  71.908  1.00  0.00    -0.090 F  
ENDROOT
BRANCH   3   5
HETATM    5  C   UNL     1      -7.348   8.710  68.550  1.00  0.00    -0.085 C  
HETATM    6  C   UNL     1      -7.643   7.603  67.521  1.00  0.00    -0.109 C  
HETATM    7  F   UNL     1      -6.213   9.383  68.206  1.00  0.00    -0.050 F  
HETATM    8  F   UNL     1      -8.902   7.726  67.027  1.00  0.00    -0.119 F  
HETATM    9  F   UNL     1      -7.540   6.357  68.040  1.00  0.00    -0.093 F  
HETATM   10  F   UNL     1      -6.800   7.663  66.464  1.00  0.00    -0.056 F  
ENDBRANCH   3   5
TORSDOF 1
ENDMDL
MODEL      210
REMARK 921   NORMALIZED FREE ENERGY PREDICTED BY IDOCK:   -0.91 KCAL/MOL
REMARK 922        TOTAL FREE ENERGY PREDICTED BY IDOCK:   -1.15 KCAL/MOL
REMARK 923 INTER-LIGAND FREE ENERGY PREDICTED BY IDOCK:   -1.73 KCAL/MOL
REMARK 924 INTRA-LIGAND FREE ENERGY PREDICTED BY IDOCK:    0.58 KCAL/MOL
REMARK 927      BINDING AFFINITY PREDICTED BY RF-SCORE:    0.00 PKD
ROOT
HETATM    1  F   UNL     1     -11.072   4.023  63.812  1.00  0.00    -0.257 F  
HETATM    2  C   UNL     1      -9.788   3.612  63.922  1.00  0.00    -0.174 C  
HETATM    3  O   UNL     1      -9.064   4.619  64.588  1.00  0.00    -0.155 OA 
HETATM    4  F   UNL     1      -9.293   3.529  62.663  1.00  0.00    -0.091 F  
ENDROOT
BRANCH   3   5
HETATM    5  C   UNL     1      -9.592   4.802  65.896  1.00  0.00    -0.180 C  
HETATM    6  C   UNL     1      -8.896   3.918  66.948  1.00  0.00    -0.126 C  
HETATM    7  F   UNL     1     -10.918   4.494  65.824  1.00  0.00    -0.323 F  
HETATM    8  F   UNL     1      -8.235   4.680  67.857  1.00  0.00    -0.096 F  
HETATM    9  F   UNL     1      -7.991   3.068  66.409  1.00  0.00    -0.078 F  
HETATM   10  F   UNL     1      -9.784   3.167  67.638  1.00  0.00    -0.254 F  
ENDBRANCH   3   5
TORSDOF 1
ENDMDL
MODEL      211
REMARK 921   NORMALIZED FREE ENERGY PREDICTED BY IDOCK:   -0.90 KCAL/MOL
REMARK 922        TOTAL FREE ENERGY PREDICTED BY IDOCK:   -1.15 KCAL/MOL
REMARK 923 INTER-LIGAND FREE ENERGY PREDICTED BY IDOCK:   -1.90 KCAL/MOL
REMARK 924 INTRA-LIGAND FREE ENERGY PREDICTED BY IDOCK:    0.75 KCAL/MOL
REMARK 927      BINDING AFFINITY PREDICTED BY RF-SCORE:    0.00 PKD
ROOT
HETATM    1  F   UNL     1      -8.967  13.368  68.739  1.00  0.00    -0.145 F  
HETATM    2  C   UNL     1     -10.277  13.043  68.634  1.00  0.00    -0.164 C  
HETATM    3  O   UNL     1     -10.978  13.726  69.646  1.00  0.00    -0.119 OA 
HETATM    4  F   UNL     1     -10.375  11.719  68.903  1.00  0.00    -0.207 F  
ENDROOT
BRANCH   3   5
HETATM    5  C   UNL     1     -10.845  15.130  69.455  1.00  0.00    -0.263 C  
HETATM    6  C   UNL     1     -11.478  15.613  68.137  1.00  0.00    -0.322 C  
HETATM    7  F   UNL     1      -9.508  15.397  69.463  1.00  0.00    -0.221 F  
HETATM    8  F   UNL     1     -12.525  16.444  68.380  1.00  0.00     0.220 F  
HETATM    9  F   UNL     1     -11.943  14.600  67.371  1.00  0.00    -0.383 F  
HETATM   10  F   UNL     1     -10.595  16.308  67.382  1.00  0.00    -0.293 F  
ENDBRANCH   3   5
TORSDOF 1
ENDMDL
MODEL      212
REMARK 921   NORMALIZED FREE ENERGY PREDICTED BY IDOCK:   -0.87 KCAL/MOL
REMARK 922        TOTAL FREE ENERGY PREDICTED BY IDOCK:   -1.11 KCAL/MOL
REMARK 923 INTER-LIGAND FREE ENERGY PREDICTED BY IDOCK:   -0.97 KCAL/MOL
REMARK 924 INTRA-LIGAND FREE ENERGY PREDICTED BY IDOCK:   -0.14 KCAL/MOL
REMARK 927      BINDING AFFINITY PREDICTED BY RF-SCORE:    0.00 PKD
ROOT
HETATM    1  F   UNL     1      -6.137   8.956  67.808  1.00  0.00    -0.047 F  
HETATM    2  C   UNL     1      -5.886   7.792  68.451  1.00  0.00    -0.032 C  
HETATM    3  O   UNL     1      -7.108   7.112  68.614  1.00  0.00    -0.079 OA 
HETATM    4  F   UNL     1      -5.439   8.116  69.688  1.00  0.00    -0.025 F  
ENDROOT
BRANCH   3   5
HETATM    5  C   UNL     1      -7.662   6.812  67.339  1.00  0.00    -0.110 C  
HETATM    6  C   UNL     1      -9.189   6.620  67.383  1.00  0.00    -0.122 C  
HETATM    7  F   UNL     1      -7.054   5.669  66.912  1.00  0.00    -0.063 F  
HETATM    8  F   UNL     1      -9.819   7.583  66.662  1.00  0.00    -0.236 F  
HETATM    9  F   UNL     1      -9.692   6.671  68.639  1.00  0.00    -0.131 F  
HETATM   10  F   UNL     1      -9.561   5.430  66.855  1.00  0.00    -0.123 F  
ENDBRANCH   3   5
TORSDOF 1
ENDMDL
MODEL      213
REMARK 921   NORMALIZED FREE ENERGY PREDICTED BY IDOCK:   -0.75 KCAL/MOL
REMARK 922        TOTAL FREE ENERGY PREDICTED BY IDOCK:   -0.98 KCAL/MOL
REMARK 923 INTER-LIGAND FREE ENERGY PREDICTED BY IDOCK:   -1.32 KCAL/MOL
REMARK 924 INTRA-LIGAND FREE ENERGY PREDICTED BY IDOCK:    0.34 KCAL/MOL
REMARK 927      BINDING AFFINITY PREDICTED BY RF-SCORE:    0.00 PKD
ROOT
HETATM    1  F   UNL     1      -7.387  12.159  67.368  1.00  0.00    -0.110 F  
HETATM    2  C   UNL     1      -7.264  11.370  68.460  1.00  0.00    -0.093 C  
HETATM    3  O   UNL     1      -8.557  11.032  68.903  1.00  0.00    -0.161 OA 
HETATM    4  F   UNL     1      -6.693  12.126  69.428  1.00  0.00    -0.099 F  
ENDROOT
BRANCH   3   5
HETATM    5  C   UNL     1      -9.232  10.297  67.889  1.00  0.00    -0.138 C  
HETATM    6  C   UNL     1      -9.615   8.875  68.340  1.00  0.00    -0.146 C  
HETATM    7  F   UNL     1      -8.386  10.242  66.821  1.00  0.00    -0.120 F  
HETATM    8  F   UNL     1     -10.964   8.727  68.380  1.00  0.00    -0.183 F  
HETATM    9  F   UNL     1      -9.145   8.566  69.571  1.00  0.00    -0.143 F  
HETATM   10  F   UNL     1      -9.143   7.935  67.488  1.00  0.00    -0.130 F  
ENDBRANCH   3   5
TORSDOF 1
ENDMDL
MODEL      214
REMARK 921   NORMALIZED FREE ENERGY PREDICTED BY IDOCK:   -0.74 KCAL/MOL
REMARK 922        TOTAL FREE ENERGY PREDICTED BY IDOCK:   -0.97 KCAL/MOL
REMARK 923 INTER-LIGAND FREE ENERGY PREDICTED BY IDOCK:   -0.77 KCAL/MOL
REMARK 924 INTRA-LIGAND FREE ENERGY PREDICTED BY IDOCK:   -0.20 KCAL/MOL
REMARK 927      BINDING AFFINITY PREDICTED BY RF-SCORE:    0.00 PKD
ROOT
HETATM    1  F   UNL     1      -8.808   2.658  65.679  1.00  0.00    -0.112 F  
HETATM    2  C   UNL     1      -8.103   3.089  66.750  1.00  0.00    -0.081 C  
HETATM    3  O   UNL     1      -7.138   4.008  66.295  1.00  0.00    -0.061 OA 
HETATM    4  F   UNL     1      -7.436   2.016  67.238  1.00  0.00    -0.056 F  
ENDROOT
BRANCH   3   5
HETATM    5  C   UNL     1      -7.786   5.127  65.702  1.00  0.00    -0.087 C  
HETATM    6  C   UNL     1      -7.718   5.106  64.163  1.00  0.00    -0.084 C  
HETATM    7  F   UNL     1      -7.161   6.238  66.186  1.00  0.00    -0.068 F  
HETATM    8  F   UNL     1      -8.960   4.978  63.627  1.00  0.00    -0.143 F  
HETATM    9  F   UNL     1      -6.970   4.087  63.680  1.00  0.00    -0.041 F  
HETATM   10  F   UNL     1      -7.194   6.251  63.669  1.00  0.00    -0.042 F  
ENDBRANCH   3   5
TORSDOF 1
ENDMDL
MODEL      215
REMARK 921   NORMALIZED FREE ENERGY PREDICTED BY IDOCK:   -0.63 KCAL/MOL
REMARK 922        TOTAL FREE ENERGY PREDICTED BY IDOCK:   -0.86 KCAL/MOL
REMARK 923 INTER-LIGAND FREE ENERGY PREDICTED BY IDOCK:   -1.14 KCAL/MOL
REMARK 924 INTRA-LIGAND FREE ENERGY PREDICTED BY IDOCK:    0.27 KCAL/MOL
REMARK 927      BINDING AFFINITY PREDICTED BY RF-SCORE:    0.00 PKD
ROOT
HETATM    1  F   UNL     1      -9.874   3.766  65.724  1.00  0.00    -0.177 F  
HETATM    2  C   UNL     1      -9.524   3.490  67.002  1.00  0.00    -0.176 C  
HETATM    3  O   UNL     1      -8.203   3.934  67.198  1.00  0.00    -0.098 OA 
HETATM    4  F   UNL     1      -9.516   2.141  67.123  1.00  0.00    -0.157 F  
ENDROOT
BRANCH   3   5
HETATM    5  C   UNL     1      -8.139   5.342  67.007  1.00  0.00    -0.101 C  
HETATM    6  C   UNL     1      -7.570   6.083  68.232  1.00  0.00    -0.091 C  
HETATM    7  F   UNL     1      -9.413   5.757  66.754  1.00  0.00    -0.127 F  
HETATM    8  F   UNL     1      -6.391   6.685  67.928  1.00  0.00    -0.038 F  
HETATM    9  F   UNL     1      -7.339   5.265  69.285  1.00  0.00    -0.054 F  
HETATM   10  F   UNL     1      -8.406   7.057  68.661  1.00  0.00    -0.117 F  
ENDBRANCH   3   5
TORSDOF 1
ENDMDL
MODEL      216
REMARK 921   NORMALIZED FREE ENERGY PREDICTED BY IDOCK:   -0.61 KCAL/MOL
REMARK 922        TOTAL FREE ENERGY PREDICTED BY IDOCK:   -0.84 KCAL/MOL
REMARK 923 INTER-LIGAND FREE ENERGY PREDICTED BY IDOCK:   -1.29 KCAL/MOL
REMARK 924 INTRA-LIGAND FREE ENERGY PREDICTED BY IDOCK:    0.45 KCAL/MOL
REMARK 927      BINDING AFFINITY PREDICTED BY RF-SCORE:    0.00 PKD
ROOT
HETATM    1  F   UNL     1      -8.385   9.410  66.277  1.00  0.00    -0.110 F  
HETATM    2  C   UNL     1      -8.295   9.837  67.558  1.00  0.00    -0.114 C  
HETATM    3  O   UNL     1      -9.404   9.333  68.264  1.00  0.00    -0.134 OA 
HETATM    4  F   UNL     1      -8.416  11.186  67.532  1.00  0.00    -0.121 F  
ENDROOT
BRANCH   3   5
HETATM    5  C   UNL     1      -9.368   7.911  68.259  1.00  0.00    -0.143 C  
HETATM    6  C   UNL     1      -9.020   7.320  69.637  1.00  0.00    -0.141 C  
HETATM    7  F   UNL     1      -8.428   7.551  67.339  1.00  0.00    -0.112 F  
HETATM    8  F   UNL     1     -10.061   6.602  70.133  1.00  0.00    -0.179 F  
HETATM    9  F   UNL     1      -8.715   8.265  70.557  1.00  0.00    -0.126 F  
HETATM   10  F   UNL     1      -7.962   6.478  69.569  1.00  0.00    -0.106 F  
ENDBRANCH   3   5
TORSDOF 1
ENDMDL
MODEL      217
REMARK 921   NORMALIZED FREE ENERGY PREDICTED BY IDOCK:    5.35 KCAL/MOL
REMARK 922        TOTAL FREE ENERGY PREDICTED BY IDOCK:    5.47 KCAL/MOL
REMARK 923 INTER-LIGAND FREE ENERGY PREDICTED BY IDOCK:    5.70 KCAL/MOL
REMARK 924 INTRA-LIGAND FREE ENERGY PREDICTED BY IDOCK:   -0.23 KCAL/MOL
REMARK 927      BINDING AFFINITY PREDICTED BY RF-SCORE:    0.00 PKD
ROOT
HETATM    1  F   UNL     1     -13.839  15.774  71.427  1.00  0.00    -0.535 F  
HETATM    2  C   UNL     1     -13.830  15.222  72.663  1.00  0.00    -0.487 C  
HETATM    3  O   UNL     1     -12.519  15.309  73.169  1.00  0.00    -0.374 OA 
HETATM    4  F   UNL     1     -14.114  13.907  72.508  1.00  0.00    -0.549 F  
ENDROOT
BRANCH   3   5
HETATM    5  C   UNL     1     -12.139  16.675  73.282  1.00  0.00    -0.284 C  
HETATM    6  C   UNL     1     -11.048  17.075  72.271  1.00  0.00     1.560 C  
HETATM    7  F   UNL     1     -11.688  16.847  74.557  1.00  0.00    -0.337 F  
HETATM    8  F   UNL     1     -11.519  17.995  71.391  1.00  0.00     1.353 F  
HETATM    9  F   UNL     1     -10.590  16.028  71.545  1.00  0.00     0.101 F  
HETATM   10  F   UNL     1      -9.977  17.631  72.884  1.00  0.00     5.257 F  
ENDBRANCH   3   5
TORSDOF 1
ENDMDL
MODEL      218
REMARK 921   NORMALIZED FREE ENERGY PREDICTED BY IDOCK:   19.23 KCAL/MOL
REMARK 922        TOTAL FREE ENERGY PREDICTED BY IDOCK:   20.16 KCAL/MOL
REMARK 923 INTER-LIGAND FREE ENERGY PREDICTED BY IDOCK:   20.30 KCAL/MOL
REMARK 924 INTRA-LIGAND FREE ENERGY PREDICTED BY IDOCK:   -0.14 KCAL/MOL
REMARK 927      BINDING AFFINITY PREDICTED BY RF-SCORE:    0.00 PKD
ROOT
HETATM    1  F   UNL     1     -13.102  16.676  72.112  1.00  0.00     0.015 F  
HETATM    2  C   UNL     1     -12.972  16.661  73.459  1.00  0.00     0.170 C  
HETATM    3  O   UNL     1     -11.711  17.198  73.780  1.00  0.00    -0.107 OA 
HETATM    4  F   UNL     1     -12.961  15.360  73.837  1.00  0.00    -0.564 F  
ENDROOT
BRANCH   3   5
HETATM    5  C   UNL     1     -11.639  18.548  73.336  1.00  0.00     2.954 C  
HETATM    6  C   UNL     1     -10.192  19.024  73.109  1.00  0.00     3.948 C  
HETATM    7  F   UNL     1     -12.240  19.305  74.297  1.00  0.00     3.088 F  
HETATM    8  F   UNL     1      -9.975  19.306  71.799  1.00  0.00     1.791 F  
HETATM    9  F   UNL     1      -9.269  18.104  73.475  1.00  0.00     6.997 F  
HETATM   10  F   UNL     1      -9.922  20.154  73.803  1.00  0.00     2.010 F  
ENDBRANCH   3   5
TORSDOF 1
ENDMDL
