MODEL        1
REMARK 921   NORMALIZED FREE ENERGY PREDICTED BY IDOCK:   -6.13 KCAL/MOL
REMARK 922        TOTAL FREE ENERGY PREDICTED BY IDOCK:   -8.21 KCAL/MOL
REMARK 923 INTER-LIGAND FREE ENERGY PREDICTED BY IDOCK:   -7.57 KCAL/MOL
REMARK 924 INTRA-LIGAND FREE ENERGY PREDICTED BY IDOCK:   -0.65 KCAL/MOL
REMARK 927      BINDING AFFINITY PREDICTED BY RF-SCORE:    0.00 PKD
ROOT
HETATM    1  C   UNL     1     -12.329  12.098  63.518  1.00  0.00    -0.574 C  
HETATM    2  N   UNL     1     -12.985  12.814  64.599  1.00  0.00    -0.794 NA 
HETATM    3  H   UNL     1     -13.148  12.202  65.399  1.00  0.00     0.000 HD 
ENDROOT
BRANCH   2   4
HETATM    4  C   UNL     1     -12.253  14.021  64.999  1.00  0.00    -0.433 C  
BRANCH   4   5
HETATM    5  C   UNL     1     -12.252  14.083  66.527  1.00  0.00    -0.485 C  
BRANCH   5   6
HETATM    6  C   UNL     1     -11.724  12.809  67.201  1.00  0.00    -0.380 C  
BRANCH   6   7
HETATM    7  N   UNL     1     -11.061  13.124  68.493  1.00  0.00    -0.252 NA 
HETATM    8  C   UNL     1     -11.836  12.855  69.638  1.00  0.00    -0.320 A  
HETATM    9  C   UNL     1     -12.002  11.523  70.052  1.00  0.00    -0.435 A  
HETATM   10  C   UNL     1     -12.668  11.210  71.239  1.00  0.00    -0.531 A  
HETATM   11  C   UNL     1     -13.191  12.228  72.026  1.00  0.00    -0.508 A  
HETATM   12  C   UNL     1     -13.062  13.554  71.619  1.00  0.00    -0.459 A  
HETATM   13  C   UNL     1     -12.384  13.874  70.429  1.00  0.00    -0.433 A  
HETATM   14  C   UNL     1     -12.226  15.312  70.020  1.00  0.00    -0.385 C  
HETATM   15  C   UNL     1     -10.778  15.760  70.127  1.00  0.00    -0.354 C  
HETATM   16  C   UNL     1      -9.760  15.148  69.187  1.00  0.00    -0.232 A  
HETATM   17  C   UNL     1      -8.536  15.855  69.105  1.00  0.00    -0.252 A  
HETATM   18  C   UNL     1      -7.478  15.404  68.323  1.00  0.00    -0.112 A  
HETATM   19  C   UNL     1      -7.618  14.226  67.608  1.00  0.00    -0.191 A  
HETATM   20  C   UNL     1      -8.822  13.521  67.667  1.00  0.00    -0.202 A  
HETATM   21  C   UNL     1      -9.921  13.960  68.443  1.00  0.00    -0.233 A  
ENDBRANCH   6   7
ENDBRANCH   5   6
ENDBRANCH   4   5
ENDBRANCH   2   4
TORSDOF 4
ENDMDL
MODEL        2
REMARK 921   NORMALIZED FREE ENERGY PREDICTED BY IDOCK:   -6.03 KCAL/MOL
REMARK 922        TOTAL FREE ENERGY PREDICTED BY IDOCK:   -8.08 KCAL/MOL
REMARK 923 INTER-LIGAND FREE ENERGY PREDICTED BY IDOCK:   -7.93 KCAL/MOL
REMARK 924 INTRA-LIGAND FREE ENERGY PREDICTED BY IDOCK:   -0.16 KCAL/MOL
REMARK 927      BINDING AFFINITY PREDICTED BY RF-SCORE:    0.00 PKD
ROOT
HETATM    1  C   UNL     1     -14.224  15.187  72.155  1.00  0.00    -0.559 C  
HETATM    2  N   UNL     1     -13.750  15.462  70.808  1.00  0.00    -0.845 NA 
HETATM    3  H   UNL     1     -14.254  16.246  70.395  1.00  0.00     0.000 HD 
ENDROOT
BRANCH   2   4
HETATM    4  C   UNL     1     -12.301  15.679  70.756  1.00  0.00    -0.419 C  
BRANCH   4   5
HETATM    5  C   UNL     1     -11.844  15.437  69.316  1.00  0.00    -0.365 C  
BRANCH   5   6
HETATM    6  C   UNL     1     -10.863  14.267  69.164  1.00  0.00    -0.242 C  
BRANCH   6   7
HETATM    7  N   UNL     1     -11.555  13.053  68.657  1.00  0.00    -0.296 NA 
HETATM    8  C   UNL     1     -11.673  12.005  69.592  1.00  0.00    -0.335 A  
HETATM    9  C   UNL     1     -12.623  12.112  70.621  1.00  0.00    -0.255 A  
HETATM   10  C   UNL     1     -12.855  11.058  71.506  1.00  0.00    -0.555 A  
HETATM   11  C   UNL     1     -12.129   9.880  71.383  1.00  0.00    -0.501 A  
HETATM   12  C   UNL     1     -11.163   9.764  70.386  1.00  0.00    -0.362 A  
HETATM   13  C   UNL     1     -10.932  10.820  69.487  1.00  0.00    -0.317 A  
HETATM   14  C   UNL     1      -9.907  10.667  68.398  1.00  0.00    -0.170 C  
HETATM   15  C   UNL     1     -10.564  10.590  67.030  1.00  0.00    -0.310 C  
HETATM   16  C   UNL     1     -11.272  11.818  66.497  1.00  0.00    -0.380 A  
HETATM   17  C   UNL     1     -11.540  11.786  65.108  1.00  0.00    -0.211 A  
HETATM   18  C   UNL     1     -12.225  12.814  64.468  1.00  0.00    -0.500 A  
HETATM   19  C   UNL     1     -12.665  13.898  65.208  1.00  0.00    -0.485 A  
HETATM   20  C   UNL     1     -12.399  13.954  66.577  1.00  0.00    -0.447 A  
HETATM   21  C   UNL     1     -11.695  12.931  67.255  1.00  0.00    -0.373 A  
ENDBRANCH   6   7
ENDBRANCH   5   6
ENDBRANCH   4   5
ENDBRANCH   2   4
TORSDOF 4
ENDMDL
MODEL        3
REMARK 921   NORMALIZED FREE ENERGY PREDICTED BY IDOCK:   -5.95 KCAL/MOL
REMARK 922        TOTAL FREE ENERGY PREDICTED BY IDOCK:   -7.99 KCAL/MOL
REMARK 923 INTER-LIGAND FREE ENERGY PREDICTED BY IDOCK:   -7.77 KCAL/MOL
REMARK 924 INTRA-LIGAND FREE ENERGY PREDICTED BY IDOCK:   -0.22 KCAL/MOL
REMARK 927      BINDING AFFINITY PREDICTED BY RF-SCORE:    0.00 PKD
ROOT
HETATM    1  C   UNL     1     -12.037  12.141  63.615  1.00  0.00    -0.551 C  
HETATM    2  N   UNL     1     -13.072  12.673  64.485  1.00  0.00    -0.820 NA 
HETATM    3  H   UNL     1     -13.466  11.942  65.076  1.00  0.00     0.000 HD 
ENDROOT
BRANCH   2   4
HETATM    4  C   UNL     1     -12.602  13.806  65.290  1.00  0.00    -0.473 C  
BRANCH   4   5
HETATM    5  C   UNL     1     -12.089  13.254  66.620  1.00  0.00    -0.421 C  
BRANCH   5   6
HETATM    6  C   UNL     1     -12.141  14.265  67.773  1.00  0.00    -0.281 C  
BRANCH   6   7
HETATM    7  N   UNL     1     -11.570  13.685  69.017  1.00  0.00    -0.289 NA 
HETATM    8  C   UNL     1     -10.574  12.709  68.814  1.00  0.00    -0.186 A  
HETATM    9  C   UNL     1      -9.290  13.117  68.420  1.00  0.00    -0.154 A  
HETATM   10  C   UNL     1      -8.240  12.204  68.311  1.00  0.00    -0.168 A  
HETATM   11  C   UNL     1      -8.463  10.860  68.583  1.00  0.00    -0.152 A  
HETATM   12  C   UNL     1      -9.737  10.430  68.948  1.00  0.00    -0.203 A  
HETATM   13  C   UNL     1     -10.795  11.348  69.068  1.00  0.00    -0.265 A  
HETATM   14  C   UNL     1     -12.156  10.873  69.494  1.00  0.00    -0.380 C  
HETATM   15  C   UNL     1     -12.506  11.375  70.885  1.00  0.00    -0.478 C  
HETATM   16  C   UNL     1     -12.716  12.861  71.086  1.00  0.00    -0.366 A  
HETATM   17  C   UNL     1     -13.373  13.204  72.292  1.00  0.00    -0.621 A  
HETATM   18  C   UNL     1     -13.603  14.527  72.653  1.00  0.00    -0.577 A  
HETATM   19  C   UNL     1     -13.174  15.542  71.815  1.00  0.00    -0.567 A  
HETATM   20  C   UNL     1     -12.537  15.224  70.614  1.00  0.00    -0.471 A  
HETATM   21  C   UNL     1     -12.298  13.888  70.213  1.00  0.00    -0.345 A  
ENDBRANCH   6   7
ENDBRANCH   5   6
ENDBRANCH   4   5
ENDBRANCH   2   4
TORSDOF 4
ENDMDL
MODEL        4
REMARK 921   NORMALIZED FREE ENERGY PREDICTED BY IDOCK:   -5.85 KCAL/MOL
REMARK 922        TOTAL FREE ENERGY PREDICTED BY IDOCK:   -7.86 KCAL/MOL
REMARK 923 INTER-LIGAND FREE ENERGY PREDICTED BY IDOCK:   -7.63 KCAL/MOL
REMARK 924 INTRA-LIGAND FREE ENERGY PREDICTED BY IDOCK:   -0.22 KCAL/MOL
REMARK 927      BINDING AFFINITY PREDICTED BY RF-SCORE:    0.00 PKD
ROOT
HETATM    1  C   UNL     1     -10.420  18.941  66.442  1.00  0.00    -0.439 C  
HETATM    2  N   UNL     1     -10.126  18.929  67.865  1.00  0.00    -0.352 NA 
HETATM    3  H   UNL     1     -10.959  19.143  68.414  1.00  0.00     0.000 HD 
ENDROOT
BRANCH   2   4
HETATM    4  C   UNL     1      -9.515  17.669  68.302  1.00  0.00    -0.295 C  
BRANCH   4   5
HETATM    5  C   UNL     1     -10.476  17.000  69.286  1.00  0.00    -0.293 C  
BRANCH   5   6
HETATM    6  C   UNL     1     -10.238  15.494  69.460  1.00  0.00    -0.279 C  
BRANCH   6   7
HETATM    7  N   UNL     1     -11.469  14.721  69.154  1.00  0.00    -0.282 NA 
HETATM    8  C   UNL     1     -12.262  14.401  70.275  1.00  0.00    -0.334 A  
HETATM    9  C   UNL     1     -13.045  15.406  70.865  1.00  0.00    -0.528 A  
HETATM   10  C   UNL     1     -13.929  15.120  71.907  1.00  0.00    -0.629 A  
HETATM   11  C   UNL     1     -14.034  13.819  72.385  1.00  0.00    -0.651 A  
HETATM   12  C   UNL     1     -13.246  12.813  71.832  1.00  0.00    -0.511 A  
HETATM   13  C   UNL     1     -12.361  13.096  70.776  1.00  0.00    -0.404 A  
HETATM   14  C   UNL     1     -11.540  11.992  70.170  1.00  0.00    -0.228 C  
HETATM   15  C   UNL     1     -11.998  11.677  68.755  1.00  0.00    -0.326 C  
HETATM   16  C   UNL     1     -11.795  12.724  67.679  1.00  0.00    -0.396 A  
HETATM   17  C   UNL     1     -11.914  12.236  66.356  1.00  0.00    -0.286 A  
HETATM   18  C   UNL     1     -11.801  13.074  65.251  1.00  0.00    -0.413 A  
HETATM   19  C   UNL     1     -11.573  14.425  65.447  1.00  0.00    -0.347 A  
HETATM   20  C   UNL     1     -11.440  14.923  66.744  1.00  0.00    -0.304 A  
HETATM   21  C   UNL     1     -11.538  14.095  67.888  1.00  0.00    -0.338 A  
ENDBRANCH   6   7
ENDBRANCH   5   6
ENDBRANCH   4   5
ENDBRANCH   2   4
TORSDOF 4
ENDMDL
MODEL        5
REMARK 921   NORMALIZED FREE ENERGY PREDICTED BY IDOCK:   -5.83 KCAL/MOL
REMARK 922        TOTAL FREE ENERGY PREDICTED BY IDOCK:   -7.84 KCAL/MOL
REMARK 923 INTER-LIGAND FREE ENERGY PREDICTED BY IDOCK:   -7.61 KCAL/MOL
REMARK 924 INTRA-LIGAND FREE ENERGY PREDICTED BY IDOCK:   -0.22 KCAL/MOL
REMARK 927      BINDING AFFINITY PREDICTED BY RF-SCORE:    0.00 PKD
ROOT
HETATM    1  C   UNL     1     -10.186  11.898  63.467  1.00  0.00    -0.457 C  
HETATM    2  N   UNL     1     -11.568  12.151  63.095  1.00  0.00    -0.713 NA 
HETATM    3  H   UNL     1     -12.133  11.306  63.186  1.00  0.00     0.000 HD 
ENDROOT
BRANCH   2   4
HETATM    4  C   UNL     1     -12.158  13.264  63.847  1.00  0.00    -0.468 C  
BRANCH   4   5
HETATM    5  C   UNL     1     -12.226  12.851  65.318  1.00  0.00    -0.524 C  
BRANCH   5   6
HETATM    6  C   UNL     1     -12.513  14.013  66.277  1.00  0.00    -0.400 C  
BRANCH   6   7
HETATM    7  N   UNL     1     -11.513  14.058  67.376  1.00  0.00    -0.329 NA 
HETATM    8  C   UNL     1     -11.837  13.277  68.504  1.00  0.00    -0.349 A  
HETATM    9  C   UNL     1     -11.689  11.883  68.433  1.00  0.00    -0.387 A  
HETATM   10  C   UNL     1     -11.891  11.074  69.552  1.00  0.00    -0.404 A  
HETATM   11  C   UNL     1     -12.257  11.649  70.762  1.00  0.00    -0.443 A  
HETATM   12  C   UNL     1     -12.435  13.028  70.847  1.00  0.00    -0.396 A  
HETATM   13  C   UNL     1     -12.224  13.848  69.724  1.00  0.00    -0.388 A  
HETATM   14  C   UNL     1     -12.391  15.337  69.840  1.00  0.00    -0.323 C  
HETATM   15  C   UNL     1     -11.055  16.052  69.724  1.00  0.00    -0.337 C  
HETATM   16  C   UNL     1     -10.326  16.012  68.397  1.00  0.00    -0.251 A  
HETATM   17  C   UNL     1      -9.295  16.973  68.264  1.00  0.00    -0.255 A  
HETATM   18  C   UNL     1      -8.498  17.042  67.127  1.00  0.00    -0.222 A  
HETATM   19  C   UNL     1      -8.710  16.143  66.095  1.00  0.00    -0.358 A  
HETATM   20  C   UNL     1      -9.731  15.197  66.202  1.00  0.00    -0.338 A  
HETATM   21  C   UNL     1     -10.566  15.109  67.341  1.00  0.00    -0.271 A  
ENDBRANCH   6   7
ENDBRANCH   5   6
ENDBRANCH   4   5
ENDBRANCH   2   4
TORSDOF 4
ENDMDL
MODEL        6
REMARK 921   NORMALIZED FREE ENERGY PREDICTED BY IDOCK:   -5.82 KCAL/MOL
REMARK 922        TOTAL FREE ENERGY PREDICTED BY IDOCK:   -7.83 KCAL/MOL
REMARK 923 INTER-LIGAND FREE ENERGY PREDICTED BY IDOCK:   -7.22 KCAL/MOL
REMARK 924 INTRA-LIGAND FREE ENERGY PREDICTED BY IDOCK:   -0.61 KCAL/MOL
REMARK 927      BINDING AFFINITY PREDICTED BY RF-SCORE:    0.00 PKD
ROOT
HETATM    1  C   UNL     1     -13.751  15.510  72.335  1.00  0.00    -0.559 C  
HETATM    2  N   UNL     1     -13.040  15.896  71.128  1.00  0.00    -0.581 NA 
HETATM    3  H   UNL     1     -13.393  16.780  70.761  1.00  0.00     0.000 HD 
ENDROOT
BRANCH   2   4
HETATM    4  C   UNL     1     -11.587  15.948  71.323  1.00  0.00    -0.452 C  
BRANCH   4   5
HETATM    5  C   UNL     1     -10.924  15.732  69.962  1.00  0.00    -0.344 C  
BRANCH   5   6
HETATM    6  C   UNL     1     -11.903  15.767  68.781  1.00  0.00    -0.309 C  
BRANCH   6   7
HETATM    7  N   UNL     1     -11.176  15.816  67.486  1.00  0.00    -0.271 NA 
HETATM    8  C   UNL     1     -11.170  14.606  66.763  1.00  0.00    -0.344 A  
HETATM    9  C   UNL     1     -12.336  14.208  66.089  1.00  0.00    -0.463 A  
HETATM   10  C   UNL     1     -12.351  13.077  65.272  1.00  0.00    -0.537 A  
HETATM   11  C   UNL     1     -11.199  12.316  65.126  1.00  0.00    -0.369 A  
HETATM   12  C   UNL     1     -10.039  12.677  65.807  1.00  0.00    -0.284 A  
HETATM   13  C   UNL     1     -10.017  13.822  66.625  1.00  0.00    -0.279 A  
HETATM   14  C   UNL     1      -8.749  14.216  67.329  1.00  0.00    -0.229 C  
HETATM   15  C   UNL     1      -8.168  15.493  66.746  1.00  0.00    -0.277 C  
HETATM   16  C   UNL     1      -8.936  16.786  66.929  1.00  0.00    -0.244 A  
HETATM   17  C   UNL     1      -8.181  17.958  66.681  1.00  0.00    -0.284 A  
HETATM   18  C   UNL     1      -8.747  19.226  66.759  1.00  0.00    -0.334 A  
HETATM   19  C   UNL     1     -10.087  19.351  67.082  1.00  0.00    -0.490 A  
HETATM   20  C   UNL     1     -10.845  18.208  67.343  1.00  0.00    -0.258 A  
HETATM   21  C   UNL     1     -10.296  16.905  67.283  1.00  0.00    -0.309 A  
ENDBRANCH   6   7
ENDBRANCH   5   6
ENDBRANCH   4   5
ENDBRANCH   2   4
TORSDOF 4
ENDMDL
MODEL        7
REMARK 921   NORMALIZED FREE ENERGY PREDICTED BY IDOCK:   -5.81 KCAL/MOL
REMARK 922        TOTAL FREE ENERGY PREDICTED BY IDOCK:   -7.81 KCAL/MOL
REMARK 923 INTER-LIGAND FREE ENERGY PREDICTED BY IDOCK:   -7.46 KCAL/MOL
REMARK 924 INTRA-LIGAND FREE ENERGY PREDICTED BY IDOCK:   -0.36 KCAL/MOL
REMARK 927      BINDING AFFINITY PREDICTED BY RF-SCORE:    0.00 PKD
ROOT
HETATM    1  C   UNL     1     -12.416  13.765  65.505  1.00  0.00    -0.512 C  
HETATM    2  N   UNL     1     -12.209  12.360  65.812  1.00  0.00    -0.638 NA 
HETATM    3  H   UNL     1     -12.747  11.764  65.183  1.00  0.00     0.000 HD 
ENDROOT
BRANCH   2   4
HETATM    4  C   UNL     1     -10.791  11.987  65.808  1.00  0.00    -0.287 C  
BRANCH   4   5
HETATM    5  C   UNL     1     -10.512  11.193  67.085  1.00  0.00    -0.270 C  
BRANCH   5   6
HETATM    6  C   UNL     1     -11.740  11.017  67.988  1.00  0.00    -0.179 C  
BRANCH   6   7
HETATM    7  N   UNL     1     -11.429  11.396  69.391  1.00  0.00    -0.282 NA 
HETATM    8  C   UNL     1     -10.980  10.336  70.205  1.00  0.00    -0.314 A  
HETATM    9  C   UNL     1      -9.667   9.863  70.046  1.00  0.00    -0.274 A  
HETATM   10  C   UNL     1      -9.138   8.892  70.897  1.00  0.00    -0.283 A  
HETATM   11  C   UNL     1      -9.921   8.368  71.918  1.00  0.00    -0.331 A  
HETATM   12  C   UNL     1     -11.235   8.803  72.075  1.00  0.00    -0.443 A  
HETATM   13  C   UNL     1     -11.769   9.788  71.225  1.00  0.00    -0.472 A  
HETATM   14  C   UNL     1     -13.178  10.269  71.428  1.00  0.00    -0.464 C  
HETATM   15  C   UNL     1     -13.205  11.702  71.931  1.00  0.00    -0.475 C  
HETATM   16  C   UNL     1     -12.725  12.802  71.007  1.00  0.00    -0.331 A  
HETATM   17  C   UNL     1     -13.105  14.108  71.401  1.00  0.00    -0.428 A  
HETATM   18  C   UNL     1     -12.707  15.235  70.689  1.00  0.00    -0.470 A  
HETATM   19  C   UNL     1     -11.912  15.081  69.566  1.00  0.00    -0.346 A  
HETATM   20  C   UNL     1     -11.538  13.800  69.155  1.00  0.00    -0.363 A  
HETATM   21  C   UNL     1     -11.935  12.634  69.850  1.00  0.00    -0.295 A  
ENDBRANCH   6   7
ENDBRANCH   5   6
ENDBRANCH   4   5
ENDBRANCH   2   4
TORSDOF 4
ENDMDL
MODEL        8
REMARK 921   NORMALIZED FREE ENERGY PREDICTED BY IDOCK:   -5.76 KCAL/MOL
REMARK 922        TOTAL FREE ENERGY PREDICTED BY IDOCK:   -7.75 KCAL/MOL
REMARK 923 INTER-LIGAND FREE ENERGY PREDICTED BY IDOCK:   -7.33 KCAL/MOL
REMARK 924 INTRA-LIGAND FREE ENERGY PREDICTED BY IDOCK:   -0.42 KCAL/MOL
REMARK 927      BINDING AFFINITY PREDICTED BY RF-SCORE:    0.00 PKD
ROOT
HETATM    1  C   UNL     1     -11.817  12.761  63.461  1.00  0.00    -0.546 C  
HETATM    2  N   UNL     1     -12.301  14.102  63.747  1.00  0.00    -1.027 NA 
HETATM    3  H   UNL     1     -13.319  14.119  63.809  1.00  0.00     0.000 HD 
ENDROOT
BRANCH   2   4
HETATM    4  C   UNL     1     -11.689  14.675  64.950  1.00  0.00    -0.403 C  
BRANCH   4   5
HETATM    5  C   UNL     1     -12.124  13.827  66.146  1.00  0.00    -0.477 C  
BRANCH   5   6
HETATM    6  C   UNL     1     -11.915  14.512  67.503  1.00  0.00    -0.325 C  
BRANCH   6   7
HETATM    7  N   UNL     1     -11.212  13.612  68.454  1.00  0.00    -0.261 NA 
HETATM    8  C   UNL     1     -10.054  12.995  67.939  1.00  0.00    -0.235 A  
HETATM    9  C   UNL     1      -8.882  13.754  67.797  1.00  0.00    -0.188 A  
HETATM   10  C   UNL     1      -7.681  13.167  67.396  1.00  0.00    -0.151 A  
HETATM   11  C   UNL     1      -7.637  11.807  67.117  1.00  0.00    -0.155 A  
HETATM   12  C   UNL     1      -8.796  11.041  67.225  1.00  0.00    -0.135 A  
HETATM   13  C   UNL     1     -10.005  11.627  67.638  1.00  0.00    -0.201 A  
HETATM   14  C   UNL     1     -11.239  10.780  67.779  1.00  0.00    -0.385 C  
HETATM   15  C   UNL     1     -11.641  10.629  69.237  1.00  0.00    -0.346 C  
HETATM   16  C   UNL     1     -12.124  11.854  69.985  1.00  0.00    -0.366 A  
HETATM   17  C   UNL     1     -12.801  11.573  71.196  1.00  0.00    -0.414 A  
HETATM   18  C   UNL     1     -13.269  12.585  72.027  1.00  0.00    -0.524 A  
HETATM   19  C   UNL     1     -13.064  13.907  71.667  1.00  0.00    -0.446 A  
HETATM   20  C   UNL     1     -12.410  14.203  70.470  1.00  0.00    -0.434 A  
HETATM   21  C   UNL     1     -11.933  13.197  69.598  1.00  0.00    -0.306 A  
ENDBRANCH   6   7
ENDBRANCH   5   6
ENDBRANCH   4   5
ENDBRANCH   2   4
TORSDOF 4
ENDMDL
MODEL        9
REMARK 921   NORMALIZED FREE ENERGY PREDICTED BY IDOCK:   -5.75 KCAL/MOL
REMARK 922        TOTAL FREE ENERGY PREDICTED BY IDOCK:   -7.74 KCAL/MOL
REMARK 923 INTER-LIGAND FREE ENERGY PREDICTED BY IDOCK:   -7.59 KCAL/MOL
REMARK 924 INTRA-LIGAND FREE ENERGY PREDICTED BY IDOCK:   -0.15 KCAL/MOL
REMARK 927      BINDING AFFINITY PREDICTED BY RF-SCORE:    0.00 PKD
ROOT
HETATM    1  C   UNL     1     -13.939   8.780  72.167  1.00  0.00    -0.460 C  
HETATM    2  N   UNL     1     -13.609   9.390  70.890  1.00  0.00    -0.574 NA 
HETATM    3  H   UNL     1     -14.309  10.082  70.622  1.00  0.00     0.000 HD 
ENDROOT
BRANCH   2   4
HETATM    4  C   UNL     1     -12.261   9.968  70.875  1.00  0.00    -0.346 C  
BRANCH   4   5
HETATM    5  C   UNL     1     -12.120  10.791  69.593  1.00  0.00    -0.361 C  
BRANCH   5   6
HETATM    6  C   UNL     1     -11.113  11.943  69.702  1.00  0.00    -0.037 C  
BRANCH   6   7
HETATM    7  N   UNL     1     -11.766  13.251  69.437  1.00  0.00    -0.308 NA 
HETATM    8  C   UNL     1     -11.562  13.763  68.140  1.00  0.00    -0.335 A  
HETATM    9  C   UNL     1     -12.265  13.198  67.064  1.00  0.00    -0.271 A  
HETATM   10  C   UNL     1     -12.182  13.737  65.779  1.00  0.00    -0.495 A  
HETATM   11  C   UNL     1     -11.380  14.848  65.548  1.00  0.00    -0.339 A  
HETATM   12  C   UNL     1     -10.653  15.407  66.595  1.00  0.00    -0.306 A  
HETATM   13  C   UNL     1     -10.741  14.872  67.893  1.00  0.00    -0.265 A  
HETATM   14  C   UNL     1      -9.973  15.506  69.019  1.00  0.00    -0.233 C  
HETATM   15  C   UNL     1     -10.905  16.189  70.006  1.00  0.00    -0.349 C  
HETATM   16  C   UNL     1     -11.841  15.329  70.831  1.00  0.00    -0.387 A  
HETATM   17  C   UNL     1     -12.406  15.984  71.952  1.00  0.00    -0.516 A  
HETATM   18  C   UNL     1     -13.321  15.353  72.787  1.00  0.00    -0.617 A  
HETATM   19  C   UNL     1     -13.698  14.048  72.515  1.00  0.00    -0.651 A  
HETATM   20  C   UNL     1     -13.142  13.382  71.422  1.00  0.00    -0.373 A  
HETATM   21  C   UNL     1     -12.200  13.992  70.560  1.00  0.00    -0.365 A  
ENDBRANCH   6   7
ENDBRANCH   5   6
ENDBRANCH   4   5
ENDBRANCH   2   4
TORSDOF 4
ENDMDL
MODEL       10
REMARK 921   NORMALIZED FREE ENERGY PREDICTED BY IDOCK:   -5.70 KCAL/MOL
REMARK 922        TOTAL FREE ENERGY PREDICTED BY IDOCK:   -7.68 KCAL/MOL
REMARK 923 INTER-LIGAND FREE ENERGY PREDICTED BY IDOCK:   -6.88 KCAL/MOL
REMARK 924 INTRA-LIGAND FREE ENERGY PREDICTED BY IDOCK:   -0.80 KCAL/MOL
REMARK 927      BINDING AFFINITY PREDICTED BY RF-SCORE:    0.00 PKD
ROOT
HETATM    1  C   UNL     1      -7.997  12.219  67.954  1.00  0.00    -0.152 C  
HETATM    2  N   UNL     1      -7.760  13.161  66.873  1.00  0.00    -0.373 NA 
HETATM    3  H   UNL     1      -8.340  12.944  66.063  1.00  0.00     0.000 HD 
ENDROOT
BRANCH   2   4
HETATM    4  C   UNL     1      -7.939  14.555  67.292  1.00  0.00    -0.191 C  
BRANCH   4   5
HETATM    5  C   UNL     1      -8.760  14.554  68.583  1.00  0.00    -0.172 C  
BRANCH   5   6
HETATM    6  C   UNL     1      -9.949  15.523  68.564  1.00  0.00    -0.208 C  
BRANCH   6   7
HETATM    7  N   UNL     1     -11.231  14.793  68.386  1.00  0.00    -0.271 NA 
HETATM    8  C   UNL     1     -11.935  14.533  69.578  1.00  0.00    -0.319 A  
HETATM    9  C   UNL     1     -12.625  15.582  70.206  1.00  0.00    -0.362 A  
HETATM   10  C   UNL     1     -13.426  15.356  71.327  1.00  0.00    -0.598 A  
HETATM   11  C   UNL     1     -13.540  14.072  71.846  1.00  0.00    -0.520 A  
HETATM   12  C   UNL     1     -12.842  13.022  71.254  1.00  0.00    -0.370 A  
HETATM   13  C   UNL     1     -12.041  13.244  70.120  1.00  0.00    -0.403 A  
HETATM   14  C   UNL     1     -11.319  12.094  69.475  1.00  0.00    -0.277 C  
HETATM   15  C   UNL     1     -11.910  11.766  68.114  1.00  0.00    -0.324 C  
HETATM   16  C   UNL     1     -11.760  12.778  66.997  1.00  0.00    -0.440 A  
HETATM   17  C   UNL     1     -12.011  12.265  65.702  1.00  0.00    -0.373 A  
HETATM   18  C   UNL     1     -11.962  13.072  64.570  1.00  0.00    -0.450 A  
HETATM   19  C   UNL     1     -11.666  14.418  64.710  1.00  0.00    -0.420 A  
HETATM   20  C   UNL     1     -11.402  14.939  65.977  1.00  0.00    -0.306 A  
HETATM   21  C   UNL     1     -11.433  14.142  67.146  1.00  0.00    -0.353 A  
ENDBRANCH   6   7
ENDBRANCH   5   6
ENDBRANCH   4   5
ENDBRANCH   2   4
TORSDOF 4
ENDMDL
MODEL       11
REMARK 921   NORMALIZED FREE ENERGY PREDICTED BY IDOCK:   -5.68 KCAL/MOL
REMARK 922        TOTAL FREE ENERGY PREDICTED BY IDOCK:   -7.66 KCAL/MOL
REMARK 923 INTER-LIGAND FREE ENERGY PREDICTED BY IDOCK:   -7.11 KCAL/MOL
REMARK 924 INTRA-LIGAND FREE ENERGY PREDICTED BY IDOCK:   -0.55 KCAL/MOL
REMARK 927      BINDING AFFINITY PREDICTED BY RF-SCORE:    0.00 PKD
ROOT
HETATM    1  C   UNL     1     -14.309  15.015  72.010  1.00  0.00    -0.573 C  
HETATM    2  N   UNL     1     -13.679  15.570  70.824  1.00  0.00    -0.859 NA 
HETATM    3  H   UNL     1     -14.139  16.433  70.534  1.00  0.00     0.000 HD 
ENDROOT
BRANCH   2   4
HETATM    4  C   UNL     1     -12.237  15.773  70.996  1.00  0.00    -0.418 C  
BRANCH   4   5
HETATM    5  C   UNL     1     -11.580  15.654  69.620  1.00  0.00    -0.364 C  
BRANCH   5   6
HETATM    6  C   UNL     1     -10.053  15.511  69.671  1.00  0.00    -0.293 C  
BRANCH   6   7
HETATM    7  N   UNL     1      -9.428  16.005  68.417  1.00  0.00    -0.203 NA 
HETATM    8  C   UNL     1      -8.712  17.212  68.547  1.00  0.00    -0.261 A  
HETATM    9  C   UNL     1      -7.451  17.194  69.163  1.00  0.00    -0.147 A  
HETATM   10  C   UNL     1      -6.655  18.339  69.220  1.00  0.00    -0.245 A  
HETATM   11  C   UNL     1      -7.115  19.528  68.670  1.00  0.00    -0.373 A  
HETATM   12  C   UNL     1      -8.376  19.574  68.078  1.00  0.00    -0.355 A  
HETATM   13  C   UNL     1      -9.177  18.421  68.011  1.00  0.00    -0.307 A  
HETATM   14  C   UNL     1     -10.522  18.480  67.341  1.00  0.00    -0.455 C  
HETATM   15  C   UNL     1     -10.526  17.694  66.041  1.00  0.00    -0.278 C  
HETATM   16  C   UNL     1     -10.376  16.188  66.106  1.00  0.00    -0.350 A  
HETATM   17  C   UNL     1     -10.739  15.509  64.918  1.00  0.00    -0.415 A  
HETATM   18  C   UNL     1     -10.617  14.130  64.793  1.00  0.00    -0.439 A  
HETATM   19  C   UNL     1     -10.121  13.395  65.857  1.00  0.00    -0.300 A  
HETATM   20  C   UNL     1      -9.769  14.045  67.041  1.00  0.00    -0.256 A  
HETATM   21  C   UNL     1      -9.892  15.445  67.204  1.00  0.00    -0.221 A  
ENDBRANCH   6   7
ENDBRANCH   5   6
ENDBRANCH   4   5
ENDBRANCH   2   4
TORSDOF 4
ENDMDL
MODEL       12
REMARK 921   NORMALIZED FREE ENERGY PREDICTED BY IDOCK:   -5.56 KCAL/MOL
REMARK 922        TOTAL FREE ENERGY PREDICTED BY IDOCK:   -7.51 KCAL/MOL
REMARK 923 INTER-LIGAND FREE ENERGY PREDICTED BY IDOCK:   -6.95 KCAL/MOL
REMARK 924 INTRA-LIGAND FREE ENERGY PREDICTED BY IDOCK:   -0.56 KCAL/MOL
REMARK 927      BINDING AFFINITY PREDICTED BY RF-SCORE:    0.00 PKD
ROOT
HETATM    1  C   UNL     1     -14.188  15.170  71.775  1.00  0.00    -0.578 C  
HETATM    2  N   UNL     1     -13.521  15.685  70.591  1.00  0.00    -0.800 NA 
HETATM    3  H   UNL     1     -13.704  16.681  70.470  1.00  0.00     0.000 HD 
ENDROOT
BRANCH   2   4
HETATM    4  C   UNL     1     -12.081  15.409  70.592  1.00  0.00    -0.369 C  
BRANCH   4   5
HETATM    5  C   UNL     1     -11.610  15.370  69.138  1.00  0.00    -0.354 C  
BRANCH   5   6
HETATM    6  C   UNL     1     -10.253  14.682  68.942  1.00  0.00    -0.241 C  
BRANCH   6   7
HETATM    7  N   UNL     1      -9.838  14.716  67.516  1.00  0.00    -0.218 NA 
HETATM    8  C   UNL     1      -8.780  15.602  67.227  1.00  0.00    -0.194 A  
HETATM    9  C   UNL     1      -7.472  15.246  67.594  1.00  0.00    -0.197 A  
HETATM   10  C   UNL     1      -6.378  16.035  67.236  1.00  0.00    -0.181 A  
HETATM   11  C   UNL     1      -6.577  17.204  66.512  1.00  0.00    -0.277 A  
HETATM   12  C   UNL     1      -7.869  17.589  66.161  1.00  0.00    -0.281 A  
HETATM   13  C   UNL     1      -8.973  16.792  66.512  1.00  0.00    -0.304 A  
HETATM   14  C   UNL     1     -10.358  17.206  66.099  1.00  0.00    -0.327 C  
HETATM   15  C   UNL     1     -10.922  16.269  65.043  1.00  0.00    -0.311 C  
HETATM   16  C   UNL     1     -11.225  14.837  65.434  1.00  0.00    -0.347 A  
HETATM   17  C   UNL     1     -12.058  14.144  64.525  1.00  0.00    -0.489 A  
HETATM   18  C   UNL     1     -12.396  12.807  64.710  1.00  0.00    -0.540 A  
HETATM   19  C   UNL     1     -11.899  12.130  65.811  1.00  0.00    -0.342 A  
HETATM   20  C   UNL     1     -11.086  12.800  66.726  1.00  0.00    -0.314 A  
HETATM   21  C   UNL     1     -10.734  14.162  66.572  1.00  0.00    -0.289 A  
ENDBRANCH   6   7
ENDBRANCH   5   6
ENDBRANCH   4   5
ENDBRANCH   2   4
TORSDOF 4
ENDMDL
MODEL       13
REMARK 921   NORMALIZED FREE ENERGY PREDICTED BY IDOCK:   -5.56 KCAL/MOL
REMARK 922        TOTAL FREE ENERGY PREDICTED BY IDOCK:   -7.51 KCAL/MOL
REMARK 923 INTER-LIGAND FREE ENERGY PREDICTED BY IDOCK:   -6.87 KCAL/MOL
REMARK 924 INTRA-LIGAND FREE ENERGY PREDICTED BY IDOCK:   -0.63 KCAL/MOL
REMARK 927      BINDING AFFINITY PREDICTED BY RF-SCORE:    0.00 PKD
ROOT
HETATM    1  C   UNL     1      -7.044  17.566  67.974  1.00  0.00    -0.201 C  
HETATM    2  N   UNL     1      -8.072  16.949  68.796  1.00  0.00    -0.253 NA 
HETATM    3  H   UNL     1      -8.976  16.963  68.324  1.00  0.00     0.000 HD 
ENDROOT
BRANCH   2   4
HETATM    4  C   UNL     1      -7.715  15.590  69.215  1.00  0.00    -0.223 C  
BRANCH   4   5
HETATM    5  C   UNL     1      -8.988  14.743  69.189  1.00  0.00    -0.078 C  
BRANCH   5   6
HETATM    6  C   UNL     1     -10.283  15.566  69.210  1.00  0.00    -0.252 C  
BRANCH   6   7
HETATM    7  N   UNL     1     -11.466  14.708  68.939  1.00  0.00    -0.281 NA 
HETATM    8  C   UNL     1     -12.195  14.326  70.084  1.00  0.00    -0.345 A  
HETATM    9  C   UNL     1     -13.027  15.268  70.709  1.00  0.00    -0.492 A  
HETATM   10  C   UNL     1     -13.851  14.912  71.778  1.00  0.00    -0.556 A  
HETATM   11  C   UNL     1     -13.847  13.605  72.247  1.00  0.00    -0.689 A  
HETATM   12  C   UNL     1     -13.009  12.661  71.658  1.00  0.00    -0.400 A  
HETATM   13  C   UNL     1     -12.183  13.013  70.575  1.00  0.00    -0.392 A  
HETATM   14  C   UNL     1     -11.308  11.975  69.931  1.00  0.00    -0.144 C  
HETATM   15  C   UNL     1     -11.791  11.638  68.531  1.00  0.00    -0.357 C  
HETATM   16  C   UNL     1     -11.700  12.703  67.458  1.00  0.00    -0.429 A  
HETATM   17  C   UNL     1     -11.829  12.218  66.135  1.00  0.00    -0.398 A  
HETATM   18  C   UNL     1     -11.815  13.069  65.035  1.00  0.00    -0.401 A  
HETATM   19  C   UNL     1     -11.677  14.432  65.235  1.00  0.00    -0.364 A  
HETATM   20  C   UNL     1     -11.535  14.929  66.532  1.00  0.00    -0.286 A  
HETATM   21  C   UNL     1     -11.533  14.088  67.670  1.00  0.00    -0.334 A  
ENDBRANCH   6   7
ENDBRANCH   5   6
ENDBRANCH   4   5
ENDBRANCH   2   4
TORSDOF 4
ENDMDL
MODEL       14
REMARK 921   NORMALIZED FREE ENERGY PREDICTED BY IDOCK:   -5.49 KCAL/MOL
REMARK 922        TOTAL FREE ENERGY PREDICTED BY IDOCK:   -7.42 KCAL/MOL
REMARK 923 INTER-LIGAND FREE ENERGY PREDICTED BY IDOCK:   -6.71 KCAL/MOL
REMARK 924 INTRA-LIGAND FREE ENERGY PREDICTED BY IDOCK:   -0.71 KCAL/MOL
REMARK 927      BINDING AFFINITY PREDICTED BY RF-SCORE:    0.00 PKD
ROOT
HETATM    1  C   UNL     1     -10.615  17.779  67.864  1.00  0.00    -0.382 C  
HETATM    2  N   UNL     1     -10.752  16.373  67.521  1.00  0.00    -0.320 NA 
HETATM    3  H   UNL     1     -11.184  16.259  66.604  1.00  0.00     0.000 HD 
ENDROOT
BRANCH   2   4
HETATM    4  C   UNL     1      -9.479  15.649  67.599  1.00  0.00    -0.211 C  
BRANCH   4   5
HETATM    5  C   UNL     1      -9.717  14.369  68.402  1.00  0.00    -0.226 C  
BRANCH   5   6
HETATM    6  C   UNL     1     -11.198  14.000  68.558  1.00  0.00    -0.265 C  
BRANCH   6   7
HETATM    7  N   UNL     1     -11.448  12.600  68.128  1.00  0.00    -0.290 NA 
HETATM    8  C   UNL     1     -11.360  11.639  69.157  1.00  0.00    -0.283 A  
HETATM    9  C   UNL     1     -12.408  11.537  70.085  1.00  0.00    -0.323 A  
HETATM   10  C   UNL     1     -12.422  10.533  71.055  1.00  0.00    -0.501 A  
HETATM   11  C   UNL     1     -11.377   9.620  71.119  1.00  0.00    -0.456 A  
HETATM   12  C   UNL     1     -10.314   9.722  70.225  1.00  0.00    -0.348 A  
HETATM   13  C   UNL     1     -10.300  10.725  69.240  1.00  0.00    -0.228 A  
HETATM   14  C   UNL     1      -9.161  10.802  68.263  1.00  0.00    -0.157 C  
HETATM   15  C   UNL     1      -9.611  10.427  66.860  1.00  0.00    -0.207 C  
HETATM   16  C   UNL     1     -10.582  11.343  66.143  1.00  0.00    -0.316 A  
HETATM   17  C   UNL     1     -10.673  11.125  64.748  1.00  0.00    -0.334 A  
HETATM   18  C   UNL     1     -11.551  11.849  63.947  1.00  0.00    -0.515 A  
HETATM   19  C   UNL     1     -12.366  12.806  64.529  1.00  0.00    -0.515 A  
HETATM   20  C   UNL     1     -12.280  13.044  65.901  1.00  0.00    -0.493 A  
HETATM   21  C   UNL     1     -11.390  12.333  66.741  1.00  0.00    -0.339 A  
ENDBRANCH   6   7
ENDBRANCH   5   6
ENDBRANCH   4   5
ENDBRANCH   2   4
TORSDOF 4
ENDMDL
MODEL       15
REMARK 921   NORMALIZED FREE ENERGY PREDICTED BY IDOCK:   -5.48 KCAL/MOL
REMARK 922        TOTAL FREE ENERGY PREDICTED BY IDOCK:   -7.40 KCAL/MOL
REMARK 923 INTER-LIGAND FREE ENERGY PREDICTED BY IDOCK:   -7.21 KCAL/MOL
REMARK 924 INTRA-LIGAND FREE ENERGY PREDICTED BY IDOCK:   -0.19 KCAL/MOL
REMARK 927      BINDING AFFINITY PREDICTED BY RF-SCORE:    0.00 PKD
ROOT
HETATM    1  C   UNL     1      -9.872  19.622  68.700  1.00  0.00    -0.427 C  
HETATM    2  N   UNL     1     -10.195  18.415  67.957  1.00  0.00    -0.364 NA 
HETATM    3  H   UNL     1     -10.084  18.561  66.953  1.00  0.00     0.000 HD 
ENDROOT
BRANCH   2   4
HETATM    4  C   UNL     1      -9.423  17.253  68.409  1.00  0.00    -0.283 C  
BRANCH   4   5
HETATM    5  C   UNL     1     -10.399  16.260  69.042  1.00  0.00    -0.264 C  
BRANCH   5   6
HETATM    6  C   UNL     1     -10.005  14.791  68.846  1.00  0.00    -0.233 C  
BRANCH   6   7
HETATM    7  N   UNL     1     -11.193  13.955  68.533  1.00  0.00    -0.255 NA 
HETATM    8  C   UNL     1     -11.766  13.300  69.642  1.00  0.00    -0.303 A  
HETATM    9  C   UNL     1     -12.534  14.044  70.552  1.00  0.00    -0.429 A  
HETATM   10  C   UNL     1     -13.211  13.426  71.604  1.00  0.00    -0.449 A  
HETATM   11  C   UNL     1     -13.121  12.049  71.770  1.00  0.00    -0.460 A  
HETATM   12  C   UNL     1     -12.342  11.297  70.894  1.00  0.00    -0.490 A  
HETATM   13  C   UNL     1     -11.665  11.914  69.827  1.00  0.00    -0.403 A  
HETATM   14  C   UNL     1     -10.853  11.084  68.873  1.00  0.00    -0.262 C  
HETATM   15  C   UNL     1     -11.499  11.034  67.498  1.00  0.00    -0.266 C  
HETATM   16  C   UNL     1     -11.565  12.309  66.683  1.00  0.00    -0.438 A  
HETATM   17  C   UNL     1     -11.847  12.115  65.310  1.00  0.00    -0.356 A  
HETATM   18  C   UNL     1     -11.988  13.183  64.430  1.00  0.00    -0.454 A  
HETATM   19  C   UNL     1     -11.856  14.476  64.909  1.00  0.00    -0.417 A  
HETATM   20  C   UNL     1     -11.565  14.687  66.258  1.00  0.00    -0.344 A  
HETATM   21  C   UNL     1     -11.404  13.622  67.175  1.00  0.00    -0.319 A  
ENDBRANCH   6   7
ENDBRANCH   5   6
ENDBRANCH   4   5
ENDBRANCH   2   4
TORSDOF 4
ENDMDL
MODEL       16
REMARK 921   NORMALIZED FREE ENERGY PREDICTED BY IDOCK:   -5.47 KCAL/MOL
REMARK 922        TOTAL FREE ENERGY PREDICTED BY IDOCK:   -7.40 KCAL/MOL
REMARK 923 INTER-LIGAND FREE ENERGY PREDICTED BY IDOCK:   -7.02 KCAL/MOL
REMARK 924 INTRA-LIGAND FREE ENERGY PREDICTED BY IDOCK:   -0.37 KCAL/MOL
REMARK 927      BINDING AFFINITY PREDICTED BY RF-SCORE:    0.00 PKD
ROOT
HETATM    1  C   UNL     1     -10.352   8.166  67.013  1.00  0.00    -0.333 C  
HETATM    2  N   UNL     1     -10.963   9.227  67.797  1.00  0.00    -0.493 NA 
HETATM    3  H   UNL     1     -10.676   9.173  68.774  1.00  0.00     0.000 HD 
ENDROOT
BRANCH   2   4
HETATM    4  C   UNL     1     -10.700  10.559  67.242  1.00  0.00    -0.277 C  
BRANCH   4   5
HETATM    5  C   UNL     1     -10.560  11.534  68.412  1.00  0.00    -0.227 C  
BRANCH   5   6
HETATM    6  C   UNL     1     -11.900  12.041  68.961  1.00  0.00    -0.315 C  
BRANCH   6   7
HETATM    7  N   UNL     1     -12.030  13.510  68.777  1.00  0.00    -0.350 NA 
HETATM    8  C   UNL     1     -11.657  13.983  67.503  1.00  0.00    -0.367 A  
HETATM    9  C   UNL     1     -12.523  13.775  66.418  1.00  0.00    -0.404 A  
HETATM   10  C   UNL     1     -12.254  14.317  65.160  1.00  0.00    -0.422 A  
HETATM   11  C   UNL     1     -11.102  15.068  64.965  1.00  0.00    -0.421 A  
HETATM   12  C   UNL     1     -10.216  15.264  66.021  1.00  0.00    -0.335 A  
HETATM   13  C   UNL     1     -10.488  14.728  67.293  1.00  0.00    -0.264 A  
HETATM   14  C   UNL     1      -9.537  14.974  68.430  1.00  0.00    -0.212 C  
HETATM   15  C   UNL     1     -10.150  15.894  69.472  1.00  0.00    -0.277 C  
HETATM   16  C   UNL     1     -11.333  15.392  70.275  1.00  0.00    -0.332 A  
HETATM   17  C   UNL     1     -11.614  16.144  71.440  1.00  0.00    -0.495 A  
HETATM   18  C   UNL     1     -12.694  15.846  72.265  1.00  0.00    -0.515 A  
HETATM   19  C   UNL     1     -13.524  14.787  71.937  1.00  0.00    -0.465 A  
HETATM   20  C   UNL     1     -13.255  14.025  70.799  1.00  0.00    -0.172 A  
HETATM   21  C   UNL     1     -12.158  14.296  69.947  1.00  0.00    -0.347 A  
ENDBRANCH   6   7
ENDBRANCH   5   6
ENDBRANCH   4   5
ENDBRANCH   2   4
TORSDOF 4
ENDMDL
MODEL       17
REMARK 921   NORMALIZED FREE ENERGY PREDICTED BY IDOCK:   -5.46 KCAL/MOL
REMARK 922        TOTAL FREE ENERGY PREDICTED BY IDOCK:   -7.39 KCAL/MOL
REMARK 923 INTER-LIGAND FREE ENERGY PREDICTED BY IDOCK:   -6.80 KCAL/MOL
REMARK 924 INTRA-LIGAND FREE ENERGY PREDICTED BY IDOCK:   -0.59 KCAL/MOL
REMARK 927      BINDING AFFINITY PREDICTED BY RF-SCORE:    0.00 PKD
ROOT
HETATM    1  C   UNL     1      -6.753  14.136  67.745  1.00  0.00    -0.177 C  
HETATM    2  N   UNL     1      -6.636  12.875  67.033  1.00  0.00    -0.463 NA 
HETATM    3  H   UNL     1      -5.692  12.497  67.109  1.00  0.00     0.000 HD 
ENDROOT
BRANCH   2   4
HETATM    4  C   UNL     1      -7.634  11.891  67.465  1.00  0.00    -0.140 C  
BRANCH   4   5
HETATM    5  C   UNL     1      -8.732  12.639  68.223  1.00  0.00    -0.169 C  
BRANCH   5   6
HETATM    6  C   UNL     1     -10.078  11.904  68.256  1.00  0.00    -0.203 C  
BRANCH   6   7
HETATM    7  N   UNL     1     -11.208  12.849  68.065  1.00  0.00    -0.252 NA 
HETATM    8  C   UNL     1     -11.421  13.258  66.733  1.00  0.00    -0.350 A  
HETATM    9  C   UNL     1     -12.022  12.364  65.833  1.00  0.00    -0.434 A  
HETATM   10  C   UNL     1     -12.353  12.755  64.535  1.00  0.00    -0.515 A  
HETATM   11  C   UNL     1     -12.076  14.049  64.111  1.00  0.00    -0.456 A  
HETATM   12  C   UNL     1     -11.454  14.943  64.980  1.00  0.00    -0.379 A  
HETATM   13  C   UNL     1     -11.127  14.556  66.292  1.00  0.00    -0.332 A  
HETATM   14  C   UNL     1     -10.485  15.542  67.227  1.00  0.00    -0.279 C  
HETATM   15  C   UNL     1     -11.435  15.943  68.343  1.00  0.00    -0.348 C  
HETATM   16  C   UNL     1     -11.835  14.897  69.363  1.00  0.00    -0.356 A  
HETATM   17  C   UNL     1     -12.418  15.419  70.543  1.00  0.00    -0.468 A  
HETATM   18  C   UNL     1     -12.883  14.592  71.560  1.00  0.00    -0.404 A  
HETATM   19  C   UNL     1     -12.781  13.219  71.417  1.00  0.00    -0.401 A  
HETATM   20  C   UNL     1     -12.197  12.686  70.267  1.00  0.00    -0.347 A  
HETATM   21  C   UNL     1     -11.704  13.499  69.219  1.00  0.00    -0.330 A  
ENDBRANCH   6   7
ENDBRANCH   5   6
ENDBRANCH   4   5
ENDBRANCH   2   4
TORSDOF 4
ENDMDL
MODEL       18
REMARK 921   NORMALIZED FREE ENERGY PREDICTED BY IDOCK:   -5.36 KCAL/MOL
REMARK 922        TOTAL FREE ENERGY PREDICTED BY IDOCK:   -7.26 KCAL/MOL
REMARK 923 INTER-LIGAND FREE ENERGY PREDICTED BY IDOCK:   -6.89 KCAL/MOL
REMARK 924 INTRA-LIGAND FREE ENERGY PREDICTED BY IDOCK:   -0.37 KCAL/MOL
REMARK 927      BINDING AFFINITY PREDICTED BY RF-SCORE:    0.00 PKD
ROOT
HETATM    1  C   UNL     1     -10.305   7.137  67.399  1.00  0.00    -0.254 C  
HETATM    2  N   UNL     1     -10.958   8.405  67.121  1.00  0.00    -0.374 NA 
HETATM    3  H   UNL     1     -11.429   8.765  67.951  1.00  0.00     0.000 HD 
ENDROOT
BRANCH   2   4
HETATM    4  C   UNL     1     -10.038   9.401  66.563  1.00  0.00    -0.262 C  
BRANCH   4   5
HETATM    5  C   UNL     1     -10.316  10.736  67.256  1.00  0.00    -0.262 C  
BRANCH   5   6
HETATM    6  C   UNL     1     -11.606  10.747  68.087  1.00  0.00    -0.197 C  
BRANCH   6   7
HETATM    7  N   UNL     1     -11.337  11.177  69.484  1.00  0.00    -0.265 NA 
HETATM    8  C   UNL     1     -10.976  10.137  70.365  1.00  0.00    -0.319 A  
HETATM    9  C   UNL     1      -9.683   9.595  70.287  1.00  0.00    -0.314 A  
HETATM   10  C   UNL     1      -9.240   8.642  71.205  1.00  0.00    -0.269 A  
HETATM   11  C   UNL     1     -10.091   8.205  72.212  1.00  0.00    -0.338 A  
HETATM   12  C   UNL     1     -11.387   8.709  72.290  1.00  0.00    -0.411 A  
HETATM   13  C   UNL     1     -11.835   9.677  71.373  1.00  0.00    -0.484 A  
HETATM   14  C   UNL     1     -13.226  10.234  71.490  1.00  0.00    -0.484 C  
HETATM   15  C   UNL     1     -13.202  11.690  71.925  1.00  0.00    -0.475 C  
HETATM   16  C   UNL     1     -12.628  12.720  70.975  1.00  0.00    -0.362 A  
HETATM   17  C   UNL     1     -12.959  14.060  71.291  1.00  0.00    -0.418 A  
HETATM   18  C   UNL     1     -12.476  15.131  70.546  1.00  0.00    -0.429 A  
HETATM   19  C   UNL     1     -11.642  14.885  69.469  1.00  0.00    -0.333 A  
HETATM   20  C   UNL     1     -11.315  13.570  69.134  1.00  0.00    -0.333 A  
HETATM   21  C   UNL     1     -11.800  12.459  69.863  1.00  0.00    -0.305 A  
ENDBRANCH   6   7
ENDBRANCH   5   6
ENDBRANCH   4   5
ENDBRANCH   2   4
TORSDOF 4
ENDMDL
MODEL       19
REMARK 921   NORMALIZED FREE ENERGY PREDICTED BY IDOCK:   -5.32 KCAL/MOL
REMARK 922        TOTAL FREE ENERGY PREDICTED BY IDOCK:   -7.21 KCAL/MOL
REMARK 923 INTER-LIGAND FREE ENERGY PREDICTED BY IDOCK:   -6.57 KCAL/MOL
REMARK 924 INTRA-LIGAND FREE ENERGY PREDICTED BY IDOCK:   -0.64 KCAL/MOL
REMARK 927      BINDING AFFINITY PREDICTED BY RF-SCORE:    0.00 PKD
ROOT
HETATM    1  C   UNL     1      -8.354  16.714  66.103  1.00  0.00    -0.270 C  
HETATM    2  N   UNL     1      -9.642  17.317  65.802  1.00  0.00    -0.535 NA 
HETATM    3  H   UNL     1     -10.302  16.619  65.457  1.00  0.00     0.000 HD 
ENDROOT
BRANCH   2   4
HETATM    4  C   UNL     1     -10.199  18.051  66.943  1.00  0.00    -0.362 C  
BRANCH   4   5
HETATM    5  C   UNL     1     -10.953  17.051  67.820  1.00  0.00    -0.199 C  
BRANCH   5   6
HETATM    6  C   UNL     1     -10.546  17.090  69.299  1.00  0.00    -0.276 C  
BRANCH   6   7
HETATM    7  N   UNL     1     -10.406  15.718  69.851  1.00  0.00    -0.310 NA 
HETATM    8  C   UNL     1      -9.474  14.901  69.179  1.00  0.00    -0.158 A  
HETATM    9  C   UNL     1      -8.102  15.119  69.385  1.00  0.00    -0.200 A  
HETATM   10  C   UNL     1      -7.142  14.272  68.830  1.00  0.00    -0.113 A  
HETATM   11  C   UNL     1      -7.540  13.195  68.048  1.00  0.00    -0.144 A  
HETATM   12  C   UNL     1      -8.895  12.977  67.809  1.00  0.00    -0.188 A  
HETATM   13  C   UNL     1      -9.867  13.823  68.373  1.00  0.00    -0.227 A  
HETATM   14  C   UNL     1     -11.326  13.556  68.131  1.00  0.00    -0.319 C  
HETATM   15  C   UNL     1     -12.020  13.093  69.400  1.00  0.00    -0.347 C  
HETATM   16  C   UNL     1     -12.160  14.073  70.547  1.00  0.00    -0.424 A  
HETATM   17  C   UNL     1     -13.106  13.695  71.530  1.00  0.00    -0.431 A  
HETATM   18  C   UNL     1     -13.325  14.460  72.671  1.00  0.00    -0.599 A  
HETATM   19  C   UNL     1     -12.593  15.620  72.859  1.00  0.00    -0.551 A  
HETATM   20  C   UNL     1     -11.665  16.016  71.895  1.00  0.00    -0.594 A  
HETATM   21  C   UNL     1     -11.428  15.267  70.718  1.00  0.00    -0.325 A  
ENDBRANCH   6   7
ENDBRANCH   5   6
ENDBRANCH   4   5
ENDBRANCH   2   4
TORSDOF 4
ENDMDL
MODEL       20
REMARK 921   NORMALIZED FREE ENERGY PREDICTED BY IDOCK:   -5.31 KCAL/MOL
REMARK 922        TOTAL FREE ENERGY PREDICTED BY IDOCK:   -7.20 KCAL/MOL
REMARK 923 INTER-LIGAND FREE ENERGY PREDICTED BY IDOCK:   -6.63 KCAL/MOL
REMARK 924 INTRA-LIGAND FREE ENERGY PREDICTED BY IDOCK:   -0.57 KCAL/MOL
REMARK 927      BINDING AFFINITY PREDICTED BY RF-SCORE:    0.00 PKD
ROOT
HETATM    1  C   UNL     1      -7.567  10.199  65.429  1.00  0.00    -0.144 C  
HETATM    2  N   UNL     1      -8.003  11.441  66.044  1.00  0.00    -0.369 NA 
HETATM    3  H   UNL     1      -9.019  11.523  66.026  1.00  0.00     0.000 HD 
ENDROOT
BRANCH   2   4
HETATM    4  C   UNL     1      -7.485  11.606  67.406  1.00  0.00    -0.135 C  
BRANCH   4   5
HETATM    5  C   UNL     1      -8.633  12.100  68.287  1.00  0.00    -0.175 C  
BRANCH   5   6
HETATM    6  C   UNL     1      -9.857  11.176  68.289  1.00  0.00    -0.189 C  
BRANCH   6   7
HETATM    7  N   UNL     1     -11.119  11.962  68.299  1.00  0.00    -0.221 NA 
HETATM    8  C   UNL     1     -11.319  12.777  67.166  1.00  0.00    -0.314 A  
HETATM    9  C   UNL     1     -11.705  12.179  65.956  1.00  0.00    -0.388 A  
HETATM   10  C   UNL     1     -12.021  12.949  64.835  1.00  0.00    -0.437 A  
HETATM   11  C   UNL     1     -11.943  14.334  64.905  1.00  0.00    -0.430 A  
HETATM   12  C   UNL     1     -11.535  14.946  66.089  1.00  0.00    -0.272 A  
HETATM   13  C   UNL     1     -11.225  14.174  67.223  1.00  0.00    -0.330 A  
HETATM   14  C   UNL     1     -10.816  14.851  68.501  1.00  0.00    -0.249 C  
HETATM   15  C   UNL     1     -11.884  14.699  69.571  1.00  0.00    -0.374 C  
HETATM   16  C   UNL     1     -12.160  13.318  70.128  1.00  0.00    -0.403 A  
HETATM   17  C   UNL     1     -12.892  13.308  71.340  1.00  0.00    -0.411 A  
HETATM   18  C   UNL     1     -13.269  12.122  71.961  1.00  0.00    -0.496 A  
HETATM   19  C   UNL     1     -12.927  10.914  71.378  1.00  0.00    -0.527 A  
HETATM   20  C   UNL     1     -12.194  10.903  70.190  1.00  0.00    -0.423 A  
HETATM   21  C   UNL     1     -11.785  12.092  69.540  1.00  0.00    -0.342 A  
ENDBRANCH   6   7
ENDBRANCH   5   6
ENDBRANCH   4   5
ENDBRANCH   2   4
TORSDOF 4
ENDMDL
MODEL       21
REMARK 921   NORMALIZED FREE ENERGY PREDICTED BY IDOCK:   -5.31 KCAL/MOL
REMARK 922        TOTAL FREE ENERGY PREDICTED BY IDOCK:   -7.20 KCAL/MOL
REMARK 923 INTER-LIGAND FREE ENERGY PREDICTED BY IDOCK:   -6.54 KCAL/MOL
REMARK 924 INTRA-LIGAND FREE ENERGY PREDICTED BY IDOCK:   -0.66 KCAL/MOL
REMARK 927      BINDING AFFINITY PREDICTED BY RF-SCORE:    0.00 PKD
ROOT
HETATM    1  C   UNL     1     -12.552   9.594  71.590  1.00  0.00    -0.402 C  
HETATM    2  N   UNL     1     -12.872  10.189  70.304  1.00  0.00    -0.572 NA 
HETATM    3  H   UNL     1     -13.771  10.669  70.335  1.00  0.00     0.000 HD 
ENDROOT
BRANCH   2   4
HETATM    4  C   UNL     1     -11.814  11.083  69.820  1.00  0.00    -0.347 C  
BRANCH   4   5
HETATM    5  C   UNL     1     -11.412  10.617  68.420  1.00  0.00    -0.330 C  
BRANCH   5   6
HETATM    6  C   UNL     1      -9.961  10.949  68.047  1.00  0.00    -0.171 C  
BRANCH   6   7
HETATM    7  N   UNL     1      -9.881  12.231  67.300  1.00  0.00    -0.203 NA 
HETATM    8  C   UNL     1      -9.377  13.319  68.042  1.00  0.00    -0.218 A  
HETATM    9  C   UNL     1      -7.999  13.388  68.300  1.00  0.00    -0.147 A  
HETATM   10  C   UNL     1      -7.435  14.496  68.935  1.00  0.00    -0.133 A  
HETATM   11  C   UNL     1      -8.246  15.551  69.334  1.00  0.00    -0.247 A  
HETATM   12  C   UNL     1      -9.620  15.489  69.111  1.00  0.00    -0.253 A  
HETATM   13  C   UNL     1     -10.191  14.379  68.464  1.00  0.00    -0.243 A  
HETATM   14  C   UNL     1     -11.671  14.342  68.205  1.00  0.00    -0.385 C  
HETATM   15  C   UNL     1     -11.974  14.463  66.720  1.00  0.00    -0.423 C  
HETATM   16  C   UNL     1     -11.558  13.333  65.802  1.00  0.00    -0.368 A  
HETATM   17  C   UNL     1     -12.175  13.353  64.529  1.00  0.00    -0.450 A  
HETATM   18  C   UNL     1     -11.870  12.413  63.550  1.00  0.00    -0.605 A  
HETATM   19  C   UNL     1     -10.932  11.432  63.822  1.00  0.00    -0.448 A  
HETATM   20  C   UNL     1     -10.323  11.388  65.077  1.00  0.00    -0.342 A  
HETATM   21  C   UNL     1     -10.620  12.321  66.097  1.00  0.00    -0.249 A  
ENDBRANCH   6   7
ENDBRANCH   5   6
ENDBRANCH   4   5
ENDBRANCH   2   4
TORSDOF 4
ENDMDL
MODEL       22
REMARK 921   NORMALIZED FREE ENERGY PREDICTED BY IDOCK:   -5.30 KCAL/MOL
REMARK 922        TOTAL FREE ENERGY PREDICTED BY IDOCK:   -7.19 KCAL/MOL
REMARK 923 INTER-LIGAND FREE ENERGY PREDICTED BY IDOCK:   -6.47 KCAL/MOL
REMARK 924 INTRA-LIGAND FREE ENERGY PREDICTED BY IDOCK:   -0.72 KCAL/MOL
REMARK 927      BINDING AFFINITY PREDICTED BY RF-SCORE:    0.00 PKD
ROOT
HETATM    1  C   UNL     1      -8.004  20.624  67.176  1.00  0.00    -0.266 C  
HETATM    2  N   UNL     1      -9.242  20.364  66.460  1.00  0.00    -0.604 NA 
HETATM    3  H   UNL     1      -9.126  19.602  65.791  1.00  0.00     0.000 HD 
ENDROOT
BRANCH   2   4
HETATM    4  C   UNL     1     -10.370  20.107  67.361  1.00  0.00    -0.348 C  
BRANCH   4   5
HETATM    5  C   UNL     1     -10.624  18.599  67.376  1.00  0.00    -0.490 C  
BRANCH   5   6
HETATM    6  C   UNL     1     -10.539  17.941  65.993  1.00  0.00    -0.234 C  
BRANCH   6   7
HETATM    7  N   UNL     1      -9.941  16.584  66.082  1.00  0.00    -0.325 NA 
HETATM    8  C   UNL     1     -10.849  15.522  65.894  1.00  0.00    -0.313 A  
HETATM    9  C   UNL     1     -11.301  15.233  64.597  1.00  0.00    -0.364 A  
HETATM   10  C   UNL     1     -12.113  14.127  64.342  1.00  0.00    -0.486 A  
HETATM   11  C   UNL     1     -12.498  13.297  65.387  1.00  0.00    -0.543 A  
HETATM   12  C   UNL     1     -12.083  13.582  66.686  1.00  0.00    -0.447 A  
HETATM   13  C   UNL     1     -11.257  14.690  66.946  1.00  0.00    -0.345 A  
HETATM   14  C   UNL     1     -10.792  14.966  68.348  1.00  0.00    -0.252 C  
HETATM   15  C   UNL     1      -9.300  14.721  68.494  1.00  0.00    -0.199 C  
HETATM   16  C   UNL     1      -8.341  15.634  67.758  1.00  0.00    -0.157 A  
HETATM   17  C   UNL     1      -7.003  15.570  68.214  1.00  0.00    -0.118 A  
HETATM   18  C   UNL     1      -5.987  16.310  67.616  1.00  0.00    -0.170 A  
HETATM   19  C   UNL     1      -6.289  17.128  66.540  1.00  0.00    -0.253 A  
HETATM   20  C   UNL     1      -7.605  17.213  66.085  1.00  0.00    -0.304 A  
HETATM   21  C   UNL     1      -8.662  16.483  66.678  1.00  0.00    -0.251 A  
ENDBRANCH   6   7
ENDBRANCH   5   6
ENDBRANCH   4   5
ENDBRANCH   2   4
TORSDOF 4
ENDMDL
MODEL       23
REMARK 921   NORMALIZED FREE ENERGY PREDICTED BY IDOCK:   -5.28 KCAL/MOL
REMARK 922        TOTAL FREE ENERGY PREDICTED BY IDOCK:   -7.16 KCAL/MOL
REMARK 923 INTER-LIGAND FREE ENERGY PREDICTED BY IDOCK:   -6.48 KCAL/MOL
REMARK 924 INTRA-LIGAND FREE ENERGY PREDICTED BY IDOCK:   -0.68 KCAL/MOL
REMARK 927      BINDING AFFINITY PREDICTED BY RF-SCORE:    0.00 PKD
ROOT
HETATM    1  C   UNL     1     -12.468  12.467  63.635  1.00  0.00    -0.470 C  
HETATM    2  N   UNL     1     -12.174  13.857  63.941  1.00  0.00    -0.798 NA 
HETATM    3  H   UNL     1     -13.003  14.341  64.285  1.00  0.00     0.000 HD 
ENDROOT
BRANCH   2   4
HETATM    4  C   UNL     1     -11.053  14.002  64.875  1.00  0.00    -0.375 C  
BRANCH   4   5
HETATM    5  C   UNL     1     -11.624  14.426  66.229  1.00  0.00    -0.377 C  
BRANCH   5   6
HETATM    6  C   UNL     1     -11.668  13.295  67.266  1.00  0.00    -0.377 C  
BRANCH   6   7
HETATM    7  N   UNL     1     -10.835  13.625  68.451  1.00  0.00    -0.248 NA 
HETATM    8  C   UNL     1     -11.546  14.158  69.546  1.00  0.00    -0.295 A  
HETATM    9  C   UNL     1     -12.324  13.298  70.337  1.00  0.00    -0.365 A  
HETATM   10  C   UNL     1     -12.960  13.753  71.494  1.00  0.00    -0.444 A  
HETATM   11  C   UNL     1     -12.835  15.084  71.871  1.00  0.00    -0.414 A  
HETATM   12  C   UNL     1     -12.090  15.959  71.085  1.00  0.00    -0.464 A  
HETATM   13  C   UNL     1     -11.441  15.503  69.924  1.00  0.00    -0.338 A  
HETATM   14  C   UNL     1     -10.615  16.454  69.104  1.00  0.00    -0.308 C  
HETATM   15  C   UNL     1      -9.135  16.125  69.201  1.00  0.00    -0.243 C  
HETATM   16  C   UNL     1      -8.642  14.825  68.599  1.00  0.00    -0.169 A  
HETATM   17  C   UNL     1      -7.240  14.757  68.416  1.00  0.00    -0.114 A  
HETATM   18  C   UNL     1      -6.619  13.617  67.917  1.00  0.00    -0.158 A  
HETATM   19  C   UNL     1      -7.389  12.512  67.595  1.00  0.00    -0.134 A  
HETATM   20  C   UNL     1      -8.775  12.564  67.757  1.00  0.00    -0.178 A  
HETATM   21  C   UNL     1      -9.437  13.713  68.251  1.00  0.00    -0.213 A  
ENDBRANCH   6   7
ENDBRANCH   5   6
ENDBRANCH   4   5
ENDBRANCH   2   4
TORSDOF 4
ENDMDL
MODEL       24
REMARK 921   NORMALIZED FREE ENERGY PREDICTED BY IDOCK:   -5.26 KCAL/MOL
REMARK 922        TOTAL FREE ENERGY PREDICTED BY IDOCK:   -7.13 KCAL/MOL
REMARK 923 INTER-LIGAND FREE ENERGY PREDICTED BY IDOCK:   -6.72 KCAL/MOL
REMARK 924 INTRA-LIGAND FREE ENERGY PREDICTED BY IDOCK:   -0.42 KCAL/MOL
REMARK 927      BINDING AFFINITY PREDICTED BY RF-SCORE:    0.00 PKD
ROOT
HETATM    1  C   UNL     1     -14.395  14.672  71.922  1.00  0.00    -0.571 C  
HETATM    2  N   UNL     1     -13.766  15.394  70.829  1.00  0.00    -0.845 NA 
HETATM    3  H   UNL     1     -14.323  16.204  70.555  1.00  0.00     0.000 HD 
ENDROOT
BRANCH   2   4
HETATM    4  C   UNL     1     -12.385  15.782  71.132  1.00  0.00    -0.427 C  
BRANCH   4   5
HETATM    5  C   UNL     1     -11.492  15.250  70.011  1.00  0.00    -0.317 C  
BRANCH   5   6
HETATM    6  C   UNL     1     -11.726  15.928  68.655  1.00  0.00    -0.322 C  
BRANCH   6   7
HETATM    7  N   UNL     1     -10.453  16.068  67.901  1.00  0.00    -0.283 NA 
HETATM    8  C   UNL     1      -9.739  14.867  67.715  1.00  0.00    -0.212 A  
HETATM    9  C   UNL     1     -10.196  13.942  66.764  1.00  0.00    -0.268 A  
HETATM   10  C   UNL     1      -9.468  12.789  66.464  1.00  0.00    -0.253 A  
HETATM   11  C   UNL     1      -8.271  12.538  67.124  1.00  0.00    -0.168 A  
HETATM   12  C   UNL     1      -7.814  13.430  68.091  1.00  0.00    -0.145 A  
HETATM   13  C   UNL     1      -8.540  14.597  68.389  1.00  0.00    -0.169 A  
HETATM   14  C   UNL     1      -8.017  15.564  69.414  1.00  0.00    -0.229 C  
HETATM   15  C   UNL     1      -7.570  16.864  68.767  1.00  0.00    -0.243 C  
HETATM   16  C   UNL     1      -8.618  17.755  68.133  1.00  0.00    -0.262 A  
HETATM   17  C   UNL     1      -8.186  19.079  67.876  1.00  0.00    -0.311 A  
HETATM   18  C   UNL     1      -9.010  20.013  67.256  1.00  0.00    -0.440 A  
HETATM   19  C   UNL     1     -10.287  19.640  66.871  1.00  0.00    -0.583 A  
HETATM   20  C   UNL     1     -10.734  18.343  67.127  1.00  0.00    -0.366 A  
HETATM   21  C   UNL     1      -9.926  17.374  67.767  1.00  0.00    -0.301 A  
ENDBRANCH   6   7
ENDBRANCH   5   6
ENDBRANCH   4   5
ENDBRANCH   2   4
TORSDOF 4
ENDMDL
MODEL       25
REMARK 921   NORMALIZED FREE ENERGY PREDICTED BY IDOCK:   -5.25 KCAL/MOL
REMARK 922        TOTAL FREE ENERGY PREDICTED BY IDOCK:   -7.12 KCAL/MOL
REMARK 923 INTER-LIGAND FREE ENERGY PREDICTED BY IDOCK:   -6.56 KCAL/MOL
REMARK 924 INTRA-LIGAND FREE ENERGY PREDICTED BY IDOCK:   -0.56 KCAL/MOL
REMARK 927      BINDING AFFINITY PREDICTED BY RF-SCORE:    0.00 PKD
ROOT
HETATM    1  C   UNL     1     -12.380  14.807  64.289  1.00  0.00    -0.320 C  
HETATM    2  N   UNL     1     -12.319  13.936  63.127  1.00  0.00    -1.106 NA 
HETATM    3  H   UNL     1     -11.689  14.313  62.419  1.00  0.00     0.000 HD 
ENDROOT
BRANCH   2   4
HETATM    4  C   UNL     1     -11.957  12.558  63.476  1.00  0.00    -0.543 C  
BRANCH   4   5
HETATM    5  C   UNL     1     -11.625  12.525  64.969  1.00  0.00    -0.392 C  
BRANCH   5   6
HETATM    6  C   UNL     1     -10.128  12.382  65.270  1.00  0.00    -0.265 C  
BRANCH   6   7
HETATM    7  N   UNL     1      -9.815  12.832  66.651  1.00  0.00    -0.244 NA 
HETATM    8  C   UNL     1      -9.646  11.793  67.588  1.00  0.00    -0.183 A  
HETATM    9  C   UNL     1      -8.459  11.043  67.569  1.00  0.00    -0.127 A  
HETATM   10  C   UNL     1      -8.195  10.078  68.541  1.00  0.00    -0.108 A  
HETATM   11  C   UNL     1      -9.123   9.838  69.547  1.00  0.00    -0.227 A  
HETATM   12  C   UNL     1     -10.319  10.552  69.568  1.00  0.00    -0.251 A  
HETATM   13  C   UNL     1     -10.585  11.532  68.595  1.00  0.00    -0.236 A  
HETATM   14  C   UNL     1     -11.867  12.316  68.651  1.00  0.00    -0.354 C  
HETATM   15  C   UNL     1     -11.610  13.768  69.017  1.00  0.00    -0.356 C  
HETATM   16  C   UNL     1     -10.858  14.640  68.033  1.00  0.00    -0.260 A  
HETATM   17  C   UNL     1     -10.968  16.030  68.277  1.00  0.00    -0.335 A  
HETATM   18  C   UNL     1     -10.302  16.968  67.495  1.00  0.00    -0.329 A  
HETATM   19  C   UNL     1      -9.502  16.534  66.451  1.00  0.00    -0.314 A  
HETATM   20  C   UNL     1      -9.392  15.168  66.187  1.00  0.00    -0.346 A  
HETATM   21  C   UNL     1     -10.066  14.190  66.956  1.00  0.00    -0.261 A  
ENDBRANCH   6   7
ENDBRANCH   5   6
ENDBRANCH   4   5
ENDBRANCH   2   4
TORSDOF 4
ENDMDL
MODEL       26
REMARK 921   NORMALIZED FREE ENERGY PREDICTED BY IDOCK:   -5.22 KCAL/MOL
REMARK 922        TOTAL FREE ENERGY PREDICTED BY IDOCK:   -7.09 KCAL/MOL
REMARK 923 INTER-LIGAND FREE ENERGY PREDICTED BY IDOCK:   -6.41 KCAL/MOL
REMARK 924 INTRA-LIGAND FREE ENERGY PREDICTED BY IDOCK:   -0.68 KCAL/MOL
REMARK 927      BINDING AFFINITY PREDICTED BY RF-SCORE:    0.00 PKD
ROOT
HETATM    1  C   UNL     1      -6.110  11.711  67.404  1.00  0.00    -0.097 C  
HETATM    2  N   UNL     1      -6.690  12.977  66.986  1.00  0.00    -0.442 NA 
HETATM    3  H   UNL     1      -7.152  12.887  66.081  1.00  0.00     0.000 HD 
ENDROOT
BRANCH   2   4
HETATM    4  C   UNL     1      -7.600  13.537  67.991  1.00  0.00    -0.143 C  
BRANCH   4   5
HETATM    5  C   UNL     1      -8.668  14.347  67.255  1.00  0.00    -0.228 C  
BRANCH   5   6
HETATM    6  C   UNL     1      -9.993  14.467  68.018  1.00  0.00    -0.225 C  
BRANCH   6   7
HETATM    7  N   UNL     1     -10.922  13.366  67.653  1.00  0.00    -0.254 NA 
HETATM    8  C   UNL     1     -11.137  12.411  68.667  1.00  0.00    -0.257 A  
HETATM    9  C   UNL     1     -11.965  12.742  69.751  1.00  0.00    -0.362 A  
HETATM   10  C   UNL     1     -12.297  11.799  70.725  1.00  0.00    -0.433 A  
HETATM   11  C   UNL     1     -11.795  10.507  70.634  1.00  0.00    -0.458 A  
HETATM   12  C   UNL     1     -10.950  10.165  69.581  1.00  0.00    -0.305 A  
HETATM   13  C   UNL     1     -10.620  11.110  68.593  1.00  0.00    -0.222 A  
HETATM   14  C   UNL     1      -9.732  10.716  67.446  1.00  0.00    -0.192 C  
HETATM   15  C   UNL     1     -10.505  10.676  66.139  1.00  0.00    -0.260 C  
HETATM   16  C   UNL     1     -11.037  11.977  65.572  1.00  0.00    -0.361 A  
HETATM   17  C   UNL     1     -11.422  11.911  64.212  1.00  0.00    -0.423 A  
HETATM   18  C   UNL     1     -11.974  13.003  63.551  1.00  0.00    -0.615 A  
HETATM   19  C   UNL     1     -12.159  14.190  64.242  1.00  0.00    -0.471 A  
HETATM   20  C   UNL     1     -11.773  14.277  65.580  1.00  0.00    -0.358 A  
HETATM   21  C   UNL     1     -11.198  13.188  66.277  1.00  0.00    -0.301 A  
ENDBRANCH   6   7
ENDBRANCH   5   6
ENDBRANCH   4   5
ENDBRANCH   2   4
TORSDOF 4
ENDMDL
MODEL       27
REMARK 921   NORMALIZED FREE ENERGY PREDICTED BY IDOCK:   -5.19 KCAL/MOL
REMARK 922        TOTAL FREE ENERGY PREDICTED BY IDOCK:   -7.05 KCAL/MOL
REMARK 923 INTER-LIGAND FREE ENERGY PREDICTED BY IDOCK:   -6.47 KCAL/MOL
REMARK 924 INTRA-LIGAND FREE ENERGY PREDICTED BY IDOCK:   -0.57 KCAL/MOL
REMARK 927      BINDING AFFINITY PREDICTED BY RF-SCORE:    0.00 PKD
ROOT
HETATM    1  C   UNL     1     -13.270   9.789  71.945  1.00  0.00    -0.449 C  
HETATM    2  N   UNL     1     -12.838   9.947  70.566  1.00  0.00    -0.558 NA 
HETATM    3  H   UNL     1     -13.622   9.844  69.922  1.00  0.00     0.000 HD 
ENDROOT
BRANCH   2   4
HETATM    4  C   UNL     1     -12.132  11.213  70.339  1.00  0.00    -0.385 C  
BRANCH   4   5
HETATM    5  C   UNL     1     -11.863  11.336  68.839  1.00  0.00    -0.413 C  
BRANCH   5   6
HETATM    6  C   UNL     1     -10.373  11.376  68.476  1.00  0.00    -0.205 C  
BRANCH   6   7
HETATM    7  N   UNL     1     -10.100  12.415  67.449  1.00  0.00    -0.201 NA 
HETATM    8  C   UNL     1      -9.889  13.712  67.960  1.00  0.00    -0.244 A  
HETATM    9  C   UNL     1      -8.665  14.009  68.580  1.00  0.00    -0.103 A  
HETATM   10  C   UNL     1      -8.363  15.304  69.005  1.00  0.00    -0.215 A  
HETATM   11  C   UNL     1      -9.290  16.323  68.826  1.00  0.00    -0.235 A  
HETATM   12  C   UNL     1     -10.521  16.043  68.238  1.00  0.00    -0.269 A  
HETATM   13  C   UNL     1     -10.826  14.742  67.800  1.00  0.00    -0.278 A  
HETATM   14  C   UNL     1     -12.147  14.463  67.140  1.00  0.00    -0.367 C  
HETATM   15  C   UNL     1     -11.970  14.151  65.663  1.00  0.00    -0.401 C  
HETATM   16  C   UNL     1     -11.253  12.875  65.274  1.00  0.00    -0.319 A  
HETATM   17  C   UNL     1     -11.437  12.484  63.926  1.00  0.00    -0.507 A  
HETATM   18  C   UNL     1     -10.812  11.362  63.394  1.00  0.00    -0.375 A  
HETATM   19  C   UNL     1      -9.978  10.606  64.200  1.00  0.00    -0.406 A  
HETATM   20  C   UNL     1      -9.793  10.967  65.536  1.00  0.00    -0.292 A  
HETATM   21  C   UNL     1     -10.425  12.096  66.110  1.00  0.00    -0.248 A  
ENDBRANCH   6   7
ENDBRANCH   5   6
ENDBRANCH   4   5
ENDBRANCH   2   4
TORSDOF 4
ENDMDL
MODEL       28
REMARK 921   NORMALIZED FREE ENERGY PREDICTED BY IDOCK:   -5.18 KCAL/MOL
REMARK 922        TOTAL FREE ENERGY PREDICTED BY IDOCK:   -7.03 KCAL/MOL
REMARK 923 INTER-LIGAND FREE ENERGY PREDICTED BY IDOCK:   -6.27 KCAL/MOL
REMARK 924 INTRA-LIGAND FREE ENERGY PREDICTED BY IDOCK:   -0.77 KCAL/MOL
REMARK 927      BINDING AFFINITY PREDICTED BY RF-SCORE:    0.00 PKD
ROOT
HETATM    1  C   UNL     1      -6.726  12.756  67.439  1.00  0.00    -0.134 C  
HETATM    2  N   UNL     1      -6.616  14.148  67.037  1.00  0.00    -0.249 NA 
HETATM    3  H   UNL     1      -7.485  14.477  66.615  1.00  0.00     0.000 HD 
ENDROOT
BRANCH   2   4
HETATM    4  C   UNL     1      -6.202  15.021  68.141  1.00  0.00    -0.136 C  
BRANCH   4   5
HETATM    5  C   UNL     1      -7.177  16.198  68.198  1.00  0.00    -0.140 C  
BRANCH   5   6
HETATM    6  C   UNL     1      -8.356  15.981  69.156  1.00  0.00    -0.244 C  
BRANCH   6   7
HETATM    7  N   UNL     1      -9.654  16.166  68.456  1.00  0.00    -0.208 NA 
HETATM    8  C   UNL     1     -10.331  14.971  68.139  1.00  0.00    -0.239 A  
HETATM    9  C   UNL     1     -10.988  14.267  69.161  1.00  0.00    -0.286 A  
HETATM   10  C   UNL     1     -11.763  13.139  68.883  1.00  0.00    -0.368 A  
HETATM   11  C   UNL     1     -11.883  12.690  67.575  1.00  0.00    -0.396 A  
HETATM   12  C   UNL     1     -11.218  13.358  66.549  1.00  0.00    -0.327 A  
HETATM   13  C   UNL     1     -10.443  14.499  66.823  1.00  0.00    -0.270 A  
HETATM   14  C   UNL     1      -9.757  15.227  65.701  1.00  0.00    -0.360 C  
HETATM   15  C   UNL     1     -10.388  16.587  65.459  1.00  0.00    -0.307 C  
HETATM   16  C   UNL     1     -10.251  17.650  66.530  1.00  0.00    -0.355 A  
HETATM   17  C   UNL     1     -10.544  18.964  66.094  1.00  0.00    -0.476 A  
HETATM   18  C   UNL     1     -10.512  20.050  66.962  1.00  0.00    -0.513 A  
HETATM   19  C   UNL     1     -10.191  19.844  68.293  1.00  0.00    -0.562 A  
HETATM   20  C   UNL     1      -9.886  18.556  68.739  1.00  0.00    -0.411 A  
HETATM   21  C   UNL     1      -9.898  17.433  67.878  1.00  0.00    -0.287 A  
ENDBRANCH   6   7
ENDBRANCH   5   6
ENDBRANCH   4   5
ENDBRANCH   2   4
TORSDOF 4
ENDMDL
MODEL       29
REMARK 921   NORMALIZED FREE ENERGY PREDICTED BY IDOCK:   -5.17 KCAL/MOL
REMARK 922        TOTAL FREE ENERGY PREDICTED BY IDOCK:   -7.03 KCAL/MOL
REMARK 923 INTER-LIGAND FREE ENERGY PREDICTED BY IDOCK:   -6.85 KCAL/MOL
REMARK 924 INTRA-LIGAND FREE ENERGY PREDICTED BY IDOCK:   -0.18 KCAL/MOL
REMARK 927      BINDING AFFINITY PREDICTED BY RF-SCORE:    0.00 PKD
ROOT
HETATM    1  C   UNL     1     -11.037   7.600  70.596  1.00  0.00    -0.257 C  
HETATM    2  N   UNL     1     -11.143   9.050  70.581  1.00  0.00    -0.254 NA 
HETATM    3  H   UNL     1     -11.324   9.414  71.516  1.00  0.00     0.000 HD 
ENDROOT
BRANCH   2   4
HETATM    4  C   UNL     1      -9.970   9.693  69.981  1.00  0.00    -0.247 C  
BRANCH   4   5
HETATM    5  C   UNL     1     -10.425  10.398  68.702  1.00  0.00    -0.216 C  
BRANCH   5   6
HETATM    6  C   UNL     1     -10.044  11.883  68.641  1.00  0.00    -0.177 C  
BRANCH   6   7
HETATM    7  N   UNL     1     -11.242  12.733  68.418  1.00  0.00    -0.258 NA 
HETATM    8  C   UNL     1     -11.411  13.182  67.092  1.00  0.00    -0.316 A  
HETATM    9  C   UNL     1     -11.874  12.281  66.120  1.00  0.00    -0.398 A  
HETATM   10  C   UNL     1     -12.161  12.701  64.821  1.00  0.00    -0.528 A  
HETATM   11  C   UNL     1     -11.978  14.032  64.468  1.00  0.00    -0.470 A  
HETATM   12  C   UNL     1     -11.493  14.936  65.411  1.00  0.00    -0.320 A  
HETATM   13  C   UNL     1     -11.211  14.520  66.724  1.00  0.00    -0.336 A  
HETATM   14  C   UNL     1     -10.718  15.515  67.737  1.00  0.00    -0.297 C  
HETATM   15  C   UNL     1     -11.765  15.778  68.806  1.00  0.00    -0.387 C  
HETATM   16  C   UNL     1     -12.128  14.655  69.755  1.00  0.00    -0.371 A  
HETATM   17  C   UNL     1     -12.826  15.069  70.915  1.00  0.00    -0.451 A  
HETATM   18  C   UNL     1     -13.273  14.159  71.867  1.00  0.00    -0.468 A  
HETATM   19  C   UNL     1     -13.039  12.808  71.675  1.00  0.00    -0.428 A  
HETATM   20  C   UNL     1     -12.342  12.382  70.544  1.00  0.00    -0.346 A  
HETATM   21  C   UNL     1     -11.863  13.283  69.563  1.00  0.00    -0.327 A  
ENDBRANCH   6   7
ENDBRANCH   5   6
ENDBRANCH   4   5
ENDBRANCH   2   4
TORSDOF 4
ENDMDL
MODEL       30
REMARK 921   NORMALIZED FREE ENERGY PREDICTED BY IDOCK:   -5.17 KCAL/MOL
REMARK 922        TOTAL FREE ENERGY PREDICTED BY IDOCK:   -7.03 KCAL/MOL
REMARK 923 INTER-LIGAND FREE ENERGY PREDICTED BY IDOCK:   -6.30 KCAL/MOL
REMARK 924 INTRA-LIGAND FREE ENERGY PREDICTED BY IDOCK:   -0.72 KCAL/MOL
REMARK 927      BINDING AFFINITY PREDICTED BY RF-SCORE:    0.00 PKD
ROOT
HETATM    1  C   UNL     1     -12.485  11.121  71.167  1.00  0.00    -0.393 C  
HETATM    2  N   UNL     1     -12.043  12.312  70.461  1.00  0.00    -0.474 NA 
HETATM    3  H   UNL     1     -12.298  12.269  69.474  1.00  0.00     0.000 HD 
ENDROOT
BRANCH   2   4
HETATM    4  C   UNL     1     -12.534  13.547  71.080  1.00  0.00    -0.369 C  
BRANCH   4   5
HETATM    5  C   UNL     1     -11.735  14.713  70.495  1.00  0.00    -0.345 C  
BRANCH   5   6
HETATM    6  C   UNL     1     -12.344  15.305  69.218  1.00  0.00    -0.093 C  
BRANCH   6   7
HETATM    7  N   UNL     1     -11.333  15.385  68.131  1.00  0.00    -0.338 NA 
HETATM    8  C   UNL     1     -11.327  14.288  67.246  1.00  0.00    -0.334 A  
HETATM    9  C   UNL     1     -12.345  14.181  66.285  1.00  0.00    -0.451 A  
HETATM   10  C   UNL     1     -12.325  13.176  65.317  1.00  0.00    -0.532 A  
HETATM   11  C   UNL     1     -11.288  12.251  65.302  1.00  0.00    -0.384 A  
HETATM   12  C   UNL     1     -10.283  12.324  66.264  1.00  0.00    -0.251 A  
HETATM   13  C   UNL     1     -10.294  13.340  67.236  1.00  0.00    -0.247 A  
HETATM   14  C   UNL     1      -9.186  13.423  68.247  1.00  0.00    -0.198 C  
HETATM   15  C   UNL     1      -8.311  14.642  68.009  1.00  0.00    -0.146 C  
HETATM   16  C   UNL     1      -8.912  16.016  68.224  1.00  0.00    -0.183 A  
HETATM   17  C   UNL     1      -7.964  17.062  68.329  1.00  0.00    -0.222 A  
HETATM   18  C   UNL     1      -8.349  18.390  68.482  1.00  0.00    -0.344 A  
HETATM   19  C   UNL     1      -9.697  18.703  68.527  1.00  0.00    -0.409 A  
HETATM   20  C   UNL     1     -10.647  17.684  68.439  1.00  0.00    -0.318 A  
HETATM   21  C   UNL     1     -10.287  16.323  68.294  1.00  0.00    -0.272 A  
ENDBRANCH   6   7
ENDBRANCH   5   6
ENDBRANCH   4   5
ENDBRANCH   2   4
TORSDOF 4
ENDMDL
MODEL       31
REMARK 921   NORMALIZED FREE ENERGY PREDICTED BY IDOCK:   -5.15 KCAL/MOL
REMARK 922        TOTAL FREE ENERGY PREDICTED BY IDOCK:   -7.00 KCAL/MOL
REMARK 923 INTER-LIGAND FREE ENERGY PREDICTED BY IDOCK:   -6.18 KCAL/MOL
REMARK 924 INTRA-LIGAND FREE ENERGY PREDICTED BY IDOCK:   -0.81 KCAL/MOL
REMARK 927      BINDING AFFINITY PREDICTED BY RF-SCORE:    0.00 PKD
ROOT
HETATM    1  C   UNL     1     -11.896  15.477  69.507  1.00  0.00    -0.372 C  
HETATM    2  N   UNL     1     -12.396  14.353  68.732  1.00  0.00    -0.585 NA 
HETATM    3  H   UNL     1     -12.092  14.414  67.760  1.00  0.00     0.000 HD 
ENDROOT
BRANCH   2   4
HETATM    4  C   UNL     1     -12.033  13.059  69.319  1.00  0.00    -0.278 C  
BRANCH   4   5
HETATM    5  C   UNL     1     -11.301  12.249  68.249  1.00  0.00    -0.339 C  
BRANCH   5   6
HETATM    6  C   UNL     1      -9.831  12.647  68.063  1.00  0.00    -0.218 C  
BRANCH   6   7
HETATM    7  N   UNL     1      -9.572  13.099  66.671  1.00  0.00    -0.255 NA 
HETATM    8  C   UNL     1      -9.632  14.494  66.480  1.00  0.00    -0.293 A  
HETATM    9  C   UNL     1      -8.568  15.291  66.933  1.00  0.00    -0.289 A  
HETATM   10  C   UNL     1      -8.527  16.662  66.673  1.00  0.00    -0.294 A  
HETATM   11  C   UNL     1      -9.560  17.261  65.963  1.00  0.00    -0.165 A  
HETATM   12  C   UNL     1     -10.638  16.493  65.529  1.00  0.00    -0.310 A  
HETATM   13  C   UNL     1     -10.679  15.110  65.781  1.00  0.00    -0.359 A  
HETATM   14  C   UNL     1     -11.835  14.290  65.279  1.00  0.00    -0.374 C  
HETATM   15  C   UNL     1     -11.402  13.352  64.164  1.00  0.00    -0.398 C  
HETATM   16  C   UNL     1     -10.454  12.220  64.499  1.00  0.00    -0.339 A  
HETATM   17  C   UNL     1     -10.382  11.204  63.516  1.00  0.00    -0.446 A  
HETATM   18  C   UNL     1      -9.526  10.115  63.645  1.00  0.00    -0.320 A  
HETATM   19  C   UNL     1      -8.713  10.022  64.763  1.00  0.00    -0.206 A  
HETATM   20  C   UNL     1      -8.780  11.007  65.750  1.00  0.00    -0.179 A  
HETATM   21  C   UNL     1      -9.648  12.120  65.653  1.00  0.00    -0.165 A  
ENDBRANCH   6   7
ENDBRANCH   5   6
ENDBRANCH   4   5
ENDBRANCH   2   4
TORSDOF 4
ENDMDL
MODEL       32
REMARK 921   NORMALIZED FREE ENERGY PREDICTED BY IDOCK:   -5.11 KCAL/MOL
REMARK 922        TOTAL FREE ENERGY PREDICTED BY IDOCK:   -6.96 KCAL/MOL
REMARK 923 INTER-LIGAND FREE ENERGY PREDICTED BY IDOCK:   -6.26 KCAL/MOL
REMARK 924 INTRA-LIGAND FREE ENERGY PREDICTED BY IDOCK:   -0.70 KCAL/MOL
REMARK 927      BINDING AFFINITY PREDICTED BY RF-SCORE:    0.00 PKD
ROOT
HETATM    1  C   UNL     1     -12.113  15.850  71.603  1.00  0.00    -0.484 C  
HETATM    2  N   UNL     1     -11.427  14.668  71.109  1.00  0.00    -0.524 NA 
HETATM    3  H   UNL     1     -10.819  14.270  71.824  1.00  0.00     0.000 HD 
ENDROOT
BRANCH   2   4
HETATM    4  C   UNL     1     -12.353  13.660  70.582  1.00  0.00    -0.368 C  
BRANCH   4   5
HETATM    5  C   UNL     1     -11.757  13.108  69.287  1.00  0.00    -0.376 C  
BRANCH   5   6
HETATM    6  C   UNL     1     -11.981  14.009  68.065  1.00  0.00    -0.350 C  
BRANCH   6   7
HETATM    7  N   UNL     1     -10.832  13.931  67.125  1.00  0.00    -0.282 NA 
HETATM    8  C   UNL     1     -11.063  13.152  65.973  1.00  0.00    -0.280 A  
HETATM    9  C   UNL     1     -11.863  13.676  64.945  1.00  0.00    -0.398 A  
HETATM   10  C   UNL     1     -12.033  12.994  63.739  1.00  0.00    -0.585 A  
HETATM   11  C   UNL     1     -11.412  11.766  63.547  1.00  0.00    -0.489 A  
HETATM   12  C   UNL     1     -10.636  11.216  64.565  1.00  0.00    -0.397 A  
HETATM   13  C   UNL     1     -10.455  11.904  65.778  1.00  0.00    -0.295 A  
HETATM   14  C   UNL     1      -9.589  11.312  66.854  1.00  0.00    -0.210 C  
HETATM   15  C   UNL     1      -8.308  12.109  67.033  1.00  0.00    -0.173 C  
HETATM   16  C   UNL     1      -8.404  13.520  67.576  1.00  0.00    -0.185 A  
HETATM   17  C   UNL     1      -7.179  14.055  68.041  1.00  0.00    -0.146 A  
HETATM   18  C   UNL     1      -7.082  15.354  68.528  1.00  0.00    -0.114 A  
HETATM   19  C   UNL     1      -8.213  16.153  68.555  1.00  0.00    -0.186 A  
HETATM   20  C   UNL     1      -9.433  15.638  68.113  1.00  0.00    -0.195 A  
HETATM   21  C   UNL     1      -9.566  14.318  67.623  1.00  0.00    -0.219 A  
ENDBRANCH   6   7
ENDBRANCH   5   6
ENDBRANCH   4   5
ENDBRANCH   2   4
TORSDOF 4
ENDMDL
MODEL       33
REMARK 921   NORMALIZED FREE ENERGY PREDICTED BY IDOCK:   -5.02 KCAL/MOL
REMARK 922        TOTAL FREE ENERGY PREDICTED BY IDOCK:   -6.84 KCAL/MOL
REMARK 923 INTER-LIGAND FREE ENERGY PREDICTED BY IDOCK:   -6.21 KCAL/MOL
REMARK 924 INTRA-LIGAND FREE ENERGY PREDICTED BY IDOCK:   -0.63 KCAL/MOL
REMARK 927      BINDING AFFINITY PREDICTED BY RF-SCORE:    0.00 PKD
ROOT
HETATM    1  C   UNL     1     -10.347   4.838  66.255  1.00  0.00    -0.291 C  
HETATM    2  N   UNL     1     -11.087   6.066  66.495  1.00  0.00    -0.761 NA 
HETATM    3  H   UNL     1     -12.078   5.944  66.284  1.00  0.00     0.000 HD 
ENDROOT
BRANCH   2   4
HETATM    4  C   UNL     1     -10.896   6.581  67.854  1.00  0.00    -0.304 C  
BRANCH   4   5
HETATM    5  C   UNL     1     -10.434   8.035  67.744  1.00  0.00    -0.280 C  
BRANCH   5   6
HETATM    6  C   UNL     1      -9.210   8.365  68.607  1.00  0.00    -0.143 C  
BRANCH   6   7
HETATM    7  N   UNL     1      -9.579   9.254  69.739  1.00  0.00    -0.179 NA 
HETATM    8  C   UNL     1      -9.545   8.642  71.008  1.00  0.00    -0.209 A  
HETATM    9  C   UNL     1      -8.302   8.394  71.613  1.00  0.00    -0.202 A  
HETATM   10  C   UNL     1      -8.215   7.891  72.912  1.00  0.00    -0.195 A  
HETATM   11  C   UNL     1      -9.375   7.616  73.625  1.00  0.00    -0.344 A  
HETATM   12  C   UNL     1     -10.618   7.828  73.033  1.00  0.00    -0.441 A  
HETATM   13  C   UNL     1     -10.710   8.344  71.728  1.00  0.00    -0.355 A  
HETATM   14  C   UNL     1     -12.059   8.597  71.115  1.00  0.00    -0.297 C  
HETATM   15  C   UNL     1     -12.323  10.085  70.956  1.00  0.00    -0.458 C  
HETATM   16  C   UNL     1     -11.480  10.867  69.971  1.00  0.00    -0.411 A  
HETATM   17  C   UNL     1     -12.006  12.135  69.624  1.00  0.00    -0.351 A  
HETATM   18  C   UNL     1     -11.335  13.000  68.767  1.00  0.00    -0.332 A  
HETATM   19  C   UNL     1     -10.112  12.618  68.240  1.00  0.00    -0.233 A  
HETATM   20  C   UNL     1      -9.583  11.366  68.560  1.00  0.00    -0.190 A  
HETATM   21  C   UNL     1     -10.247  10.459  69.419  1.00  0.00    -0.234 A  
ENDBRANCH   6   7
ENDBRANCH   5   6
ENDBRANCH   4   5
ENDBRANCH   2   4
TORSDOF 4
ENDMDL
MODEL       34
REMARK 921   NORMALIZED FREE ENERGY PREDICTED BY IDOCK:   -4.97 KCAL/MOL
REMARK 922        TOTAL FREE ENERGY PREDICTED BY IDOCK:   -6.77 KCAL/MOL
REMARK 923 INTER-LIGAND FREE ENERGY PREDICTED BY IDOCK:   -6.72 KCAL/MOL
REMARK 924 INTRA-LIGAND FREE ENERGY PREDICTED BY IDOCK:   -0.06 KCAL/MOL
REMARK 927      BINDING AFFINITY PREDICTED BY RF-SCORE:    0.00 PKD
ROOT
HETATM    1  C   UNL     1     -10.688  15.730  64.711  1.00  0.00    -0.256 C  
HETATM    2  N   UNL     1     -10.288  14.376  65.055  1.00  0.00    -0.424 NA 
HETATM    3  H   UNL     1      -9.372  14.153  64.664  1.00  0.00     0.000 HD 
ENDROOT
BRANCH   2   4
HETATM    4  C   UNL     1     -10.317  14.131  66.501  1.00  0.00    -0.284 C  
BRANCH   4   5
HETATM    5  C   UNL     1     -10.644  12.653  66.719  1.00  0.00    -0.254 C  
BRANCH   5   6
HETATM    6  C   UNL     1     -11.842  12.411  67.646  1.00  0.00    -0.295 C  
BRANCH   6   7
HETATM    7  N   UNL     1     -11.416  12.370  69.069  1.00  0.00    -0.280 NA 
HETATM    8  C   UNL     1     -10.745  11.192  69.453  1.00  0.00    -0.175 A  
HETATM    9  C   UNL     1      -9.411  11.005  69.053  1.00  0.00    -0.123 A  
HETATM   10  C   UNL     1      -8.668   9.910  69.496  1.00  0.00    -0.200 A  
HETATM   11  C   UNL     1      -9.252   8.974  70.339  1.00  0.00    -0.243 A  
HETATM   12  C   UNL     1     -10.582   9.126  70.725  1.00  0.00    -0.324 A  
HETATM   13  C   UNL     1     -11.332  10.232  70.289  1.00  0.00    -0.398 A  
HETATM   14  C   UNL     1     -12.757  10.397  70.740  1.00  0.00    -0.460 C  
HETATM   15  C   UNL     1     -12.902  11.576  71.688  1.00  0.00    -0.475 C  
HETATM   16  C   UNL     1     -12.676  12.972  71.148  1.00  0.00    -0.372 A  
HETATM   17  C   UNL     1     -13.166  14.010  71.976  1.00  0.00    -0.499 A  
HETATM   18  C   UNL     1     -13.000  15.351  71.650  1.00  0.00    -0.513 A  
HETATM   19  C   UNL     1     -12.331  15.687  70.485  1.00  0.00    -0.443 A  
HETATM   20  C   UNL     1     -11.851  14.678  69.648  1.00  0.00    -0.367 A  
HETATM   21  C   UNL     1     -12.015  13.304  69.946  1.00  0.00    -0.330 A  
ENDBRANCH   6   7
ENDBRANCH   5   6
ENDBRANCH   4   5
ENDBRANCH   2   4
TORSDOF 4
ENDMDL
MODEL       35
REMARK 921   NORMALIZED FREE ENERGY PREDICTED BY IDOCK:   -4.96 KCAL/MOL
REMARK 922        TOTAL FREE ENERGY PREDICTED BY IDOCK:   -6.76 KCAL/MOL
REMARK 923 INTER-LIGAND FREE ENERGY PREDICTED BY IDOCK:   -6.56 KCAL/MOL
REMARK 924 INTRA-LIGAND FREE ENERGY PREDICTED BY IDOCK:   -0.21 KCAL/MOL
REMARK 927      BINDING AFFINITY PREDICTED BY RF-SCORE:    0.00 PKD
ROOT
HETATM    1  C   UNL     1     -10.368  17.295  68.791  1.00  0.00    -0.358 C  
HETATM    2  N   UNL     1     -10.985  15.995  68.584  1.00  0.00    -0.303 NA 
HETATM    3  H   UNL     1     -10.284  15.255  68.561  1.00  0.00     0.000 HD 
ENDROOT
BRANCH   2   4
HETATM    4  C   UNL     1     -12.027  15.704  69.574  1.00  0.00    -0.345 C  
BRANCH   4   5
HETATM    5  C   UNL     1     -12.221  14.187  69.617  1.00  0.00    -0.376 C  
BRANCH   5   6
HETATM    6  C   UNL     1     -10.956  13.389  69.276  1.00  0.00    -0.109 C  
BRANCH   6   7
HETATM    7  N   UNL     1     -11.297  12.018  68.817  1.00  0.00    -0.253 NA 
HETATM    8  C   UNL     1     -11.468  11.073  69.849  1.00  0.00    -0.320 A  
HETATM    9  C   UNL     1     -12.645  11.104  70.614  1.00  0.00    -0.408 A  
HETATM   10  C   UNL     1     -12.913  10.127  71.573  1.00  0.00    -0.547 A  
HETATM   11  C   UNL     1     -11.998   9.104  71.791  1.00  0.00    -0.449 A  
HETATM   12  C   UNL     1     -10.812   9.070  71.062  1.00  0.00    -0.345 A  
HETATM   13  C   UNL     1     -10.542  10.048  70.088  1.00  0.00    -0.350 A  
HETATM   14  C   UNL     1      -9.272   9.979  69.288  1.00  0.00    -0.212 C  
HETATM   15  C   UNL     1      -9.552   9.631  67.836  1.00  0.00    -0.159 C  
HETATM   16  C   UNL     1     -10.299  10.636  66.983  1.00  0.00    -0.280 A  
HETATM   17  C   UNL     1     -10.210  10.404  65.589  1.00  0.00    -0.308 A  
HETATM   18  C   UNL     1     -10.875  11.205  64.667  1.00  0.00    -0.295 A  
HETATM   19  C   UNL     1     -11.652  12.258  65.121  1.00  0.00    -0.402 A  
HETATM   20  C   UNL     1     -11.741  12.510  66.491  1.00  0.00    -0.454 A  
HETATM   21  C   UNL     1     -11.068  11.721  67.453  1.00  0.00    -0.282 A  
ENDBRANCH   6   7
ENDBRANCH   5   6
ENDBRANCH   4   5
ENDBRANCH   2   4
TORSDOF 4
ENDMDL
MODEL       36
REMARK 921   NORMALIZED FREE ENERGY PREDICTED BY IDOCK:   -4.94 KCAL/MOL
REMARK 922        TOTAL FREE ENERGY PREDICTED BY IDOCK:   -6.74 KCAL/MOL
REMARK 923 INTER-LIGAND FREE ENERGY PREDICTED BY IDOCK:   -6.22 KCAL/MOL
REMARK 924 INTRA-LIGAND FREE ENERGY PREDICTED BY IDOCK:   -0.52 KCAL/MOL
REMARK 927      BINDING AFFINITY PREDICTED BY RF-SCORE:    0.00 PKD
ROOT
HETATM    1  C   UNL     1     -11.931  12.286  63.395  1.00  0.00    -0.494 C  
HETATM    2  N   UNL     1     -12.998  12.578  64.338  1.00  0.00    -0.785 NA 
HETATM    3  H   UNL     1     -13.358  11.722  64.761  1.00  0.00     0.000 HD 
ENDROOT
BRANCH   2   4
HETATM    4  C   UNL     1     -12.592  13.543  65.365  1.00  0.00    -0.483 C  
BRANCH   4   5
HETATM    5  C   UNL     1     -11.887  12.771  66.481  1.00  0.00    -0.471 C  
BRANCH   5   6
HETATM    6  C   UNL     1     -11.858  13.510  67.825  1.00  0.00    -0.362 C  
BRANCH   6   7
HETATM    7  N   UNL     1     -10.796  12.965  68.711  1.00  0.00    -0.253 NA 
HETATM    8  C   UNL     1      -9.489  13.398  68.404  1.00  0.00    -0.176 A  
HETATM    9  C   UNL     1      -9.104  14.702  68.750  1.00  0.00    -0.178 A  
HETATM   10  C   UNL     1      -7.792  15.144  68.568  1.00  0.00    -0.135 A  
HETATM   11  C   UNL     1      -6.845  14.286  68.023  1.00  0.00    -0.150 A  
HETATM   12  C   UNL     1      -7.214  12.997  67.647  1.00  0.00    -0.151 A  
HETATM   13  C   UNL     1      -8.532  12.545  67.837  1.00  0.00    -0.171 A  
HETATM   14  C   UNL     1      -8.906  11.140  67.455  1.00  0.00    -0.139 C  
HETATM   15  C   UNL     1      -9.196  10.293  68.683  1.00  0.00    -0.159 C  
HETATM   16  C   UNL     1     -10.412  10.628  69.521  1.00  0.00    -0.236 A  
HETATM   17  C   UNL     1     -10.808   9.604  70.416  1.00  0.00    -0.353 A  
HETATM   18  C   UNL     1     -11.878   9.767  71.290  1.00  0.00    -0.481 A  
HETATM   19  C   UNL     1     -12.573  10.964  71.295  1.00  0.00    -0.526 A  
HETATM   20  C   UNL     1     -12.206  11.980  70.411  1.00  0.00    -0.379 A  
HETATM   21  C   UNL     1     -11.131  11.841  69.501  1.00  0.00    -0.133 A  
ENDBRANCH   6   7
ENDBRANCH   5   6
ENDBRANCH   4   5
ENDBRANCH   2   4
TORSDOF 4
ENDMDL
MODEL       37
REMARK 921   NORMALIZED FREE ENERGY PREDICTED BY IDOCK:   -4.91 KCAL/MOL
REMARK 922        TOTAL FREE ENERGY PREDICTED BY IDOCK:   -6.71 KCAL/MOL
REMARK 923 INTER-LIGAND FREE ENERGY PREDICTED BY IDOCK:   -6.32 KCAL/MOL
REMARK 924 INTRA-LIGAND FREE ENERGY PREDICTED BY IDOCK:   -0.39 KCAL/MOL
REMARK 927      BINDING AFFINITY PREDICTED BY RF-SCORE:    0.00 PKD
ROOT
HETATM    1  C   UNL     1     -10.600  17.093  65.254  1.00  0.00    -0.043 C  
HETATM    2  N   UNL     1     -11.175  16.270  64.203  1.00  0.00    -1.283 NA 
HETATM    3  H   UNL     1     -10.475  16.030  63.501  1.00  0.00     0.000 HD 
ENDROOT
BRANCH   2   4
HETATM    4  C   UNL     1     -11.831  15.067  64.727  1.00  0.00    -0.341 C  
BRANCH   4   5
HETATM    5  C   UNL     1     -10.887  14.423  65.743  1.00  0.00    -0.308 C  
BRANCH   5   6
HETATM    6  C   UNL     1     -11.605  13.751  66.920  1.00  0.00    -0.370 C  
BRANCH   6   7
HETATM    7  N   UNL     1     -10.779  13.808  68.154  1.00  0.00    -0.242 NA 
HETATM    8  C   UNL     1     -11.434  14.343  69.281  1.00  0.00    -0.285 A  
HETATM    9  C   UNL     1     -12.380  13.556  69.957  1.00  0.00    -0.315 A  
HETATM   10  C   UNL     1     -12.977  13.995  71.140  1.00  0.00    -0.402 A  
HETATM   11  C   UNL     1     -12.644  15.239  71.661  1.00  0.00    -0.446 A  
HETATM   12  C   UNL     1     -11.728  16.047  70.991  1.00  0.00    -0.458 A  
HETATM   13  C   UNL     1     -11.118  15.605  69.804  1.00  0.00    -0.315 A  
HETATM   14  C   UNL     1     -10.108  16.476  69.110  1.00  0.00    -0.287 C  
HETATM   15  C   UNL     1      -8.711  15.886  69.207  1.00  0.00    -0.250 C  
HETATM   16  C   UNL     1      -8.422  14.588  68.482  1.00  0.00    -0.166 A  
HETATM   17  C   UNL     1      -7.046  14.296  68.326  1.00  0.00    -0.111 A  
HETATM   18  C   UNL     1      -6.607  13.122  67.723  1.00  0.00    -0.151 A  
HETATM   19  C   UNL     1      -7.540  12.206  67.267  1.00  0.00    -0.156 A  
HETATM   20  C   UNL     1      -8.902  12.482  67.400  1.00  0.00    -0.187 A  
HETATM   21  C   UNL     1      -9.380  13.672  67.997  1.00  0.00    -0.208 A  
ENDBRANCH   6   7
ENDBRANCH   5   6
ENDBRANCH   4   5
ENDBRANCH   2   4
TORSDOF 4
ENDMDL
MODEL       38
REMARK 921   NORMALIZED FREE ENERGY PREDICTED BY IDOCK:   -4.91 KCAL/MOL
REMARK 922        TOTAL FREE ENERGY PREDICTED BY IDOCK:   -6.70 KCAL/MOL
REMARK 923 INTER-LIGAND FREE ENERGY PREDICTED BY IDOCK:   -6.03 KCAL/MOL
REMARK 924 INTRA-LIGAND FREE ENERGY PREDICTED BY IDOCK:   -0.68 KCAL/MOL
REMARK 927      BINDING AFFINITY PREDICTED BY RF-SCORE:    0.00 PKD
ROOT
HETATM    1  C   UNL     1     -12.366  12.591  63.457  1.00  0.00    -0.525 C  
HETATM    2  N   UNL     1     -11.278  11.627  63.440  1.00  0.00    -0.701 NA 
HETATM    3  H   UNL     1     -10.533  11.926  62.811  1.00  0.00     0.000 HD 
ENDROOT
BRANCH   2   4
HETATM    4  C   UNL     1     -10.757  11.344  64.781  1.00  0.00    -0.298 C  
BRANCH   4   5
HETATM    5  C   UNL     1     -11.196  12.482  65.703  1.00  0.00    -0.352 C  
BRANCH   5   6
HETATM    6  C   UNL     1     -10.031  13.274  66.312  1.00  0.00    -0.291 C  
BRANCH   6   7
HETATM    7  N   UNL     1      -9.947  13.057  67.779  1.00  0.00    -0.221 NA 
HETATM    8  C   UNL     1      -9.205  11.923  68.169  1.00  0.00    -0.187 A  
HETATM    9  C   UNL     1      -7.804  11.967  68.099  1.00  0.00    -0.145 A  
HETATM   10  C   UNL     1      -7.020  10.914  68.574  1.00  0.00    -0.072 A  
HETATM   11  C   UNL     1      -7.630   9.790  69.117  1.00  0.00    -0.085 A  
HETATM   12  C   UNL     1      -9.020   9.715  69.171  1.00  0.00    -0.154 A  
HETATM   13  C   UNL     1      -9.813  10.777  68.702  1.00  0.00    -0.187 A  
HETATM   14  C   UNL     1     -11.310  10.693  68.795  1.00  0.00    -0.339 C  
HETATM   15  C   UNL     1     -11.856  11.677  69.817  1.00  0.00    -0.428 C  
HETATM   16  C   UNL     1     -11.733  13.159  69.531  1.00  0.00    -0.382 A  
HETATM   17  C   UNL     1     -12.560  13.982  70.332  1.00  0.00    -0.374 A  
HETATM   18  C   UNL     1     -12.536  15.369  70.230  1.00  0.00    -0.413 A  
HETATM   19  C   UNL     1     -11.676  15.967  69.324  1.00  0.00    -0.360 A  
HETATM   20  C   UNL     1     -10.862  15.171  68.515  1.00  0.00    -0.247 A  
HETATM   21  C   UNL     1     -10.872  13.758  68.587  1.00  0.00    -0.263 A  
ENDBRANCH   6   7
ENDBRANCH   5   6
ENDBRANCH   4   5
ENDBRANCH   2   4
TORSDOF 4
ENDMDL
MODEL       39
REMARK 921   NORMALIZED FREE ENERGY PREDICTED BY IDOCK:   -4.86 KCAL/MOL
REMARK 922        TOTAL FREE ENERGY PREDICTED BY IDOCK:   -6.65 KCAL/MOL
REMARK 923 INTER-LIGAND FREE ENERGY PREDICTED BY IDOCK:   -6.11 KCAL/MOL
REMARK 924 INTRA-LIGAND FREE ENERGY PREDICTED BY IDOCK:   -0.53 KCAL/MOL
REMARK 927      BINDING AFFINITY PREDICTED BY RF-SCORE:    0.00 PKD
ROOT
HETATM    1  C   UNL     1     -13.319   9.429  71.539  1.00  0.00    -0.386 C  
HETATM    2  N   UNL     1     -12.685   9.796  70.283  1.00  0.00    -0.467 NA 
HETATM    3  H   UNL     1     -13.312   9.637  69.495  1.00  0.00     0.000 HD 
ENDROOT
BRANCH   2   4
HETATM    4  C   UNL     1     -12.183  11.174  70.289  1.00  0.00    -0.352 C  
BRANCH   4   5
HETATM    5  C   UNL     1     -11.910  11.579  68.839  1.00  0.00    -0.406 C  
BRANCH   5   6
HETATM    6  C   UNL     1     -10.813  12.640  68.686  1.00  0.00    -0.249 C  
BRANCH   6   7
HETATM    7  N   UNL     1     -10.264  12.646  67.305  1.00  0.00    -0.223 NA 
HETATM    8  C   UNL     1     -10.586  13.788  66.545  1.00  0.00    -0.279 A  
HETATM    9  C   UNL     1      -9.919  14.995  66.811  1.00  0.00    -0.254 A  
HETATM   10  C   UNL     1     -10.121  16.125  66.017  1.00  0.00    -0.372 A  
HETATM   11  C   UNL     1     -11.006  16.069  64.948  1.00  0.00    -0.399 A  
HETATM   12  C   UNL     1     -11.699  14.890  64.684  1.00  0.00    -0.406 A  
HETATM   13  C   UNL     1     -11.492  13.746  65.476  1.00  0.00    -0.319 A  
HETATM   14  C   UNL     1     -12.224  12.472  65.158  1.00  0.00    -0.509 C  
HETATM   15  C   UNL     1     -11.276  11.407  64.633  1.00  0.00    -0.220 C  
HETATM   16  C   UNL     1     -10.234  10.838  65.574  1.00  0.00    -0.330 A  
HETATM   17  C   UNL     1      -9.641   9.631  65.132  1.00  0.00    -0.324 A  
HETATM   18  C   UNL     1      -8.634   8.999  65.855  1.00  0.00    -0.172 A  
HETATM   19  C   UNL     1      -8.191   9.568  67.038  1.00  0.00    -0.113 A  
HETATM   20  C   UNL     1      -8.773  10.751  67.496  1.00  0.00    -0.125 A  
HETATM   21  C   UNL     1      -9.807  11.411  66.790  1.00  0.00    -0.206 A  
ENDBRANCH   6   7
ENDBRANCH   5   6
ENDBRANCH   4   5
ENDBRANCH   2   4
TORSDOF 4
ENDMDL
MODEL       40
REMARK 921   NORMALIZED FREE ENERGY PREDICTED BY IDOCK:   -4.84 KCAL/MOL
REMARK 922        TOTAL FREE ENERGY PREDICTED BY IDOCK:   -6.61 KCAL/MOL
REMARK 923 INTER-LIGAND FREE ENERGY PREDICTED BY IDOCK:   -6.01 KCAL/MOL
REMARK 924 INTRA-LIGAND FREE ENERGY PREDICTED BY IDOCK:   -0.60 KCAL/MOL
REMARK 927      BINDING AFFINITY PREDICTED BY RF-SCORE:    0.00 PKD
ROOT
HETATM    1  C   UNL     1     -12.127  15.810  71.508  1.00  0.00    -0.454 C  
HETATM    2  N   UNL     1     -13.067  15.207  70.579  1.00  0.00    -0.646 NA 
HETATM    3  H   UNL     1     -13.258  15.830  69.794  1.00  0.00     0.000 HD 
ENDROOT
BRANCH   2   4
HETATM    4  C   UNL     1     -12.629  13.888  70.112  1.00  0.00    -0.224 C  
BRANCH   4   5
HETATM    5  C   UNL     1     -11.492  14.100  69.111  1.00  0.00    -0.338 C  
BRANCH   5   6
HETATM    6  C   UNL     1     -11.966  14.295  67.665  1.00  0.00    -0.365 C  
BRANCH   6   7
HETATM    7  N   UNL     1     -10.815  14.321  66.725  1.00  0.00    -0.295 NA 
HETATM    8  C   UNL     1     -10.592  13.116  66.027  1.00  0.00    -0.281 A  
HETATM    9  C   UNL     1     -11.446  12.775  64.966  1.00  0.00    -0.356 A  
HETATM   10  C   UNL     1     -11.206  11.651  64.175  1.00  0.00    -0.421 A  
HETATM   11  C   UNL     1     -10.110  10.841  64.441  1.00  0.00    -0.419 A  
HETATM   12  C   UNL     1      -9.266  11.146  65.507  1.00  0.00    -0.236 A  
HETATM   13  C   UNL     1      -9.499  12.283  66.301  1.00  0.00    -0.234 A  
HETATM   14  C   UNL     1      -8.562  12.616  67.428  1.00  0.00    -0.189 C  
HETATM   15  C   UNL     1      -7.759  13.870  67.125  1.00  0.00     0.005 C  
HETATM   16  C   UNL     1      -8.490  15.195  67.045  1.00  0.00    -0.259 A  
HETATM   17  C   UNL     1      -7.652  16.333  67.114  1.00  0.00    -0.230 A  
HETATM   18  C   UNL     1      -8.158  17.625  67.009  1.00  0.00    -0.243 A  
HETATM   19  C   UNL     1      -9.518  17.807  66.824  1.00  0.00    -0.289 A  
HETATM   20  C   UNL     1     -10.362  16.697  66.766  1.00  0.00    -0.295 A  
HETATM   21  C   UNL     1      -9.880  15.371  66.882  1.00  0.00    -0.244 A  
ENDBRANCH   6   7
ENDBRANCH   5   6
ENDBRANCH   4   5
ENDBRANCH   2   4
TORSDOF 4
ENDMDL
MODEL       41
REMARK 921   NORMALIZED FREE ENERGY PREDICTED BY IDOCK:   -4.82 KCAL/MOL
REMARK 922        TOTAL FREE ENERGY PREDICTED BY IDOCK:   -6.59 KCAL/MOL
REMARK 923 INTER-LIGAND FREE ENERGY PREDICTED BY IDOCK:   -6.01 KCAL/MOL
REMARK 924 INTRA-LIGAND FREE ENERGY PREDICTED BY IDOCK:   -0.57 KCAL/MOL
REMARK 927      BINDING AFFINITY PREDICTED BY RF-SCORE:    0.00 PKD
ROOT
HETATM    1  C   UNL     1      -6.650   8.438  73.335  1.00  0.00    -0.103 C  
HETATM    2  N   UNL     1      -7.728   8.494  74.309  1.00  0.00    -0.390 NA 
HETATM    3  H   UNL     1      -7.979   9.460  74.523  1.00  0.00     0.000 HD 
ENDROOT
BRANCH   2   4
HETATM    4  C   UNL     1      -8.904   7.724  73.891  1.00  0.00    -0.272 C  
BRANCH   4   5
HETATM    5  C   UNL     1      -9.354   8.258  72.531  1.00  0.00    -0.350 C  
BRANCH   5   6
HETATM    6  C   UNL     1     -10.306   7.319  71.778  1.00  0.00    -0.196 C  
BRANCH   6   7
HETATM    7  N   UNL     1     -10.997   8.033  70.672  1.00  0.00    -0.242 NA 
HETATM    8  C   UNL     1     -10.602   7.640  69.377  1.00  0.00    -0.215 A  
HETATM    9  C   UNL     1     -11.060   6.415  68.867  1.00  0.00    -0.420 A  
HETATM   10  C   UNL     1     -10.789   6.030  67.553  1.00  0.00    -0.393 A  
HETATM   11  C   UNL     1     -10.043   6.863  66.729  1.00  0.00    -0.264 A  
HETATM   12  C   UNL     1      -9.556   8.071  67.225  1.00  0.00    -0.210 A  
HETATM   13  C   UNL     1      -9.834   8.467  68.545  1.00  0.00    -0.186 A  
HETATM   14  C   UNL     1      -9.328   9.787  69.055  1.00  0.00    -0.161 C  
HETATM   15  C   UNL     1     -10.469  10.766  69.277  1.00  0.00    -0.243 C  
HETATM   16  C   UNL     1     -11.471  10.473  70.374  1.00  0.00    -0.427 A  
HETATM   17  C   UNL     1     -12.273  11.578  70.748  1.00  0.00    -0.463 A  
HETATM   18  C   UNL     1     -13.273  11.468  71.708  1.00  0.00    -0.456 A  
HETATM   19  C   UNL     1     -13.499  10.243  72.314  1.00  0.00    -0.240 A  
HETATM   20  C   UNL     1     -12.710   9.145  71.968  1.00  0.00    -0.473 A  
HETATM   21  C   UNL     1     -11.677   9.227  71.004  1.00  0.00    -0.311 A  
ENDBRANCH   6   7
ENDBRANCH   5   6
ENDBRANCH   4   5
ENDBRANCH   2   4
TORSDOF 4
ENDMDL
MODEL       42
REMARK 921   NORMALIZED FREE ENERGY PREDICTED BY IDOCK:   -4.81 KCAL/MOL
REMARK 922        TOTAL FREE ENERGY PREDICTED BY IDOCK:   -6.58 KCAL/MOL
REMARK 923 INTER-LIGAND FREE ENERGY PREDICTED BY IDOCK:   -5.87 KCAL/MOL
REMARK 924 INTRA-LIGAND FREE ENERGY PREDICTED BY IDOCK:   -0.71 KCAL/MOL
REMARK 927      BINDING AFFINITY PREDICTED BY RF-SCORE:    0.00 PKD
ROOT
HETATM    1  C   UNL     1      -9.167  15.114  66.189  1.00  0.00    -0.283 C  
HETATM    2  N   UNL     1      -9.693  15.173  67.543  1.00  0.00    -0.205 NA 
HETATM    3  H   UNL     1     -10.712  15.123  67.543  1.00  0.00     0.000 HD 
ENDROOT
BRANCH   2   4
HETATM    4  C   UNL     1      -9.115  14.147  68.416  1.00  0.00    -0.191 C  
BRANCH   4   5
HETATM    5  C   UNL     1      -8.959  12.867  67.594  1.00  0.00    -0.192 C  
BRANCH   5   6
HETATM    6  C   UNL     1      -9.865  11.718  68.055  1.00  0.00    -0.183 C  
BRANCH   6   7
HETATM    7  N   UNL     1     -10.444  10.994  66.894  1.00  0.00    -0.235 NA 
HETATM    8  C   UNL     1     -10.098   9.630  66.813  1.00  0.00    -0.236 A  
HETATM    9  C   UNL     1     -10.715   8.717  67.683  1.00  0.00    -0.206 A  
HETATM   10  C   UNL     1     -10.490   7.344  67.573  1.00  0.00    -0.338 A  
HETATM   11  C   UNL     1      -9.631   6.862  66.593  1.00  0.00    -0.218 A  
HETATM   12  C   UNL     1      -8.988   7.753  65.737  1.00  0.00    -0.109 A  
HETATM   13  C   UNL     1      -9.219   9.136  65.839  1.00  0.00    -0.286 A  
HETATM   14  C   UNL     1      -8.541  10.082  64.888  1.00  0.00    -0.184 C  
HETATM   15  C   UNL     1      -9.539  10.708  63.928  1.00  0.00    -0.356 C  
HETATM   16  C   UNL     1     -10.579  11.659  64.483  1.00  0.00    -0.373 A  
HETATM   17  C   UNL     1     -11.225  12.457  63.510  1.00  0.00    -0.540 A  
HETATM   18  C   UNL     1     -12.238  13.350  63.845  1.00  0.00    -0.478 A  
HETATM   19  C   UNL     1     -12.633  13.459  65.168  1.00  0.00    -0.495 A  
HETATM   20  C   UNL     1     -11.998  12.689  66.144  1.00  0.00    -0.458 A  
HETATM   21  C   UNL     1     -10.957  11.782  65.837  1.00  0.00    -0.304 A  
ENDBRANCH   6   7
ENDBRANCH   5   6
ENDBRANCH   4   5
ENDBRANCH   2   4
TORSDOF 4
ENDMDL
MODEL       43
REMARK 921   NORMALIZED FREE ENERGY PREDICTED BY IDOCK:   -4.80 KCAL/MOL
REMARK 922        TOTAL FREE ENERGY PREDICTED BY IDOCK:   -6.57 KCAL/MOL
REMARK 923 INTER-LIGAND FREE ENERGY PREDICTED BY IDOCK:   -6.25 KCAL/MOL
REMARK 924 INTRA-LIGAND FREE ENERGY PREDICTED BY IDOCK:   -0.32 KCAL/MOL
REMARK 927      BINDING AFFINITY PREDICTED BY RF-SCORE:    0.00 PKD
ROOT
HETATM    1  C   UNL     1      -8.592  16.372  68.023  1.00  0.00    -0.185 C  
HETATM    2  N   UNL     1      -9.974  16.466  68.463  1.00  0.00    -0.230 NA 
HETATM    3  H   UNL     1     -10.136  17.328  68.983  1.00  0.00     0.000 HD 
ENDROOT
BRANCH   2   4
HETATM    4  C   UNL     1     -10.927  16.331  67.356  1.00  0.00    -0.175 C  
BRANCH   4   5
HETATM    5  C   UNL     1     -10.966  14.857  66.949  1.00  0.00    -0.327 C  
BRANCH   5   6
HETATM    6  C   UNL     1     -12.027  14.035  67.693  1.00  0.00    -0.368 C  
BRANCH   6   7
HETATM    7  N   UNL     1     -11.494  13.514  68.979  1.00  0.00    -0.282 NA 
HETATM    8  C   UNL     1     -10.514  12.509  68.849  1.00  0.00    -0.080 A  
HETATM    9  C   UNL     1      -9.214  12.870  68.462  1.00  0.00    -0.062 A  
HETATM   10  C   UNL     1      -8.181  11.932  68.424  1.00  0.00    -0.160 A  
HETATM   11  C   UNL     1      -8.437  10.610  68.763  1.00  0.00    -0.149 A  
HETATM   12  C   UNL     1      -9.726  10.225  69.124  1.00  0.00    -0.229 A  
HETATM   13  C   UNL     1     -10.767  11.169  69.172  1.00  0.00    -0.262 A  
HETATM   14  C   UNL     1     -12.146  10.743  69.593  1.00  0.00    -0.361 C  
HETATM   15  C   UNL     1     -12.514  11.327  70.947  1.00  0.00    -0.493 C  
HETATM   16  C   UNL     1     -12.698  12.826  71.064  1.00  0.00    -0.331 A  
HETATM   17  C   UNL     1     -13.371  13.246  72.235  1.00  0.00    -0.630 A  
HETATM   18  C   UNL     1     -13.582  14.591  72.519  1.00  0.00    -0.586 A  
HETATM   19  C   UNL     1     -13.115  15.551  71.637  1.00  0.00    -0.561 A  
HETATM   20  C   UNL     1     -12.460  15.155  70.469  1.00  0.00    -0.429 A  
HETATM   21  C   UNL     1     -12.241  13.795  70.146  1.00  0.00    -0.356 A  
ENDBRANCH   6   7
ENDBRANCH   5   6
ENDBRANCH   4   5
ENDBRANCH   2   4
TORSDOF 4
ENDMDL
MODEL       44
REMARK 921   NORMALIZED FREE ENERGY PREDICTED BY IDOCK:   -4.80 KCAL/MOL
REMARK 922        TOTAL FREE ENERGY PREDICTED BY IDOCK:   -6.57 KCAL/MOL
REMARK 923 INTER-LIGAND FREE ENERGY PREDICTED BY IDOCK:   -6.33 KCAL/MOL
REMARK 924 INTRA-LIGAND FREE ENERGY PREDICTED BY IDOCK:   -0.24 KCAL/MOL
REMARK 927      BINDING AFFINITY PREDICTED BY RF-SCORE:    0.00 PKD
ROOT
HETATM    1  C   UNL     1     -11.610  15.920  70.285  1.00  0.00    -0.354 C  
HETATM    2  N   UNL     1     -10.975  14.613  70.293  1.00  0.00    -0.473 NA 
HETATM    3  H   UNL     1     -10.418  14.480  71.138  1.00  0.00     0.000 HD 
ENDROOT
BRANCH   2   4
HETATM    4  C   UNL     1     -11.936  13.519  70.118  1.00  0.00    -0.329 C  
BRANCH   4   5
HETATM    5  C   UNL     1     -11.349  12.537  69.103  1.00  0.00    -0.331 C  
BRANCH   5   6
HETATM    6  C   UNL     1     -12.033  12.579  67.731  1.00  0.00    -0.223 C  
BRANCH   6   7
HETATM    7  N   UNL     1     -11.042  12.809  66.647  1.00  0.00    -0.267 NA 
HETATM    8  C   UNL     1     -11.073  14.100  66.081  1.00  0.00    -0.312 A  
HETATM    9  C   UNL     1     -10.527  15.174  66.802  1.00  0.00    -0.283 A  
HETATM   10  C   UNL     1     -10.434  16.450  66.243  1.00  0.00    -0.298 A  
HETATM   11  C   UNL     1     -10.898  16.674  64.953  1.00  0.00    -0.158 A  
HETATM   12  C   UNL     1     -11.468  15.628  64.231  1.00  0.00    -0.199 A  
HETATM   13  C   UNL     1     -11.556  14.339  64.787  1.00  0.00    -0.404 A  
HETATM   14  C   UNL     1     -12.145  13.215  63.983  1.00  0.00    -0.511 C  
HETATM   15  C   UNL     1     -11.084  12.200  63.593  1.00  0.00    -0.528 C  
HETATM   16  C   UNL     1     -10.434  11.376  64.686  1.00  0.00    -0.373 A  
HETATM   17  C   UNL     1      -9.736  10.234  64.225  1.00  0.00    -0.373 A  
HETATM   18  C   UNL     1      -9.045   9.396  65.093  1.00  0.00    -0.280 A  
HETATM   19  C   UNL     1      -9.031   9.686  66.447  1.00  0.00    -0.179 A  
HETATM   20  C   UNL     1      -9.724  10.800  66.922  1.00  0.00    -0.209 A  
HETATM   21  C   UNL     1     -10.447  11.665  66.067  1.00  0.00    -0.251 A  
ENDBRANCH   6   7
ENDBRANCH   5   6
ENDBRANCH   4   5
ENDBRANCH   2   4
TORSDOF 4
ENDMDL
MODEL       45
REMARK 921   NORMALIZED FREE ENERGY PREDICTED BY IDOCK:   -4.80 KCAL/MOL
REMARK 922        TOTAL FREE ENERGY PREDICTED BY IDOCK:   -6.57 KCAL/MOL
REMARK 923 INTER-LIGAND FREE ENERGY PREDICTED BY IDOCK:   -6.07 KCAL/MOL
REMARK 924 INTRA-LIGAND FREE ENERGY PREDICTED BY IDOCK:   -0.50 KCAL/MOL
REMARK 927      BINDING AFFINITY PREDICTED BY RF-SCORE:    0.00 PKD
ROOT
HETATM    1  C   UNL     1      -8.678  15.799  66.485  1.00  0.00    -0.319 C  
HETATM    2  N   UNL     1      -8.592  15.524  67.909  1.00  0.00    -0.154 NA 
HETATM    3  H   UNL     1      -9.514  15.554  68.345  1.00  0.00     0.000 HD 
ENDROOT
BRANCH   2   4
HETATM    4  C   UNL     1      -7.913  14.257  68.198  1.00  0.00    -0.140 C  
BRANCH   4   5
HETATM    5  C   UNL     1      -8.305  13.258  67.108  1.00  0.00    -0.143 C  
BRANCH   5   6
HETATM    6  C   UNL     1      -8.701  11.876  67.644  1.00  0.00    -0.162 C  
BRANCH   6   7
HETATM    7  N   UNL     1     -10.178  11.726  67.694  1.00  0.00    -0.197 NA 
HETATM    8  C   UNL     1     -10.874  12.356  66.643  1.00  0.00    -0.246 A  
HETATM    9  C   UNL     1     -10.861  11.769  65.368  1.00  0.00    -0.347 A  
HETATM   10  C   UNL     1     -11.621  12.292  64.320  1.00  0.00    -0.442 A  
HETATM   11  C   UNL     1     -12.399  13.424  64.530  1.00  0.00    -0.415 A  
HETATM   12  C   UNL     1     -12.404  14.038  65.780  1.00  0.00    -0.506 A  
HETATM   13  C   UNL     1     -11.647  13.508  66.841  1.00  0.00    -0.398 A  
HETATM   14  C   UNL     1     -11.688  14.165  68.192  1.00  0.00    -0.390 C  
HETATM   15  C   UNL     1     -12.404  13.292  69.209  1.00  0.00    -0.054 C  
HETATM   16  C   UNL     1     -11.762  11.982  69.617  1.00  0.00    -0.405 A  
HETATM   17  C   UNL     1     -12.292  11.410  70.798  1.00  0.00    -0.483 A  
HETATM   18  C   UNL     1     -11.847  10.187  71.287  1.00  0.00    -0.448 A  
HETATM   19  C   UNL     1     -10.862   9.500  70.597  1.00  0.00    -0.371 A  
HETATM   20  C   UNL     1     -10.317  10.054  69.436  1.00  0.00    -0.245 A  
HETATM   21  C   UNL     1     -10.740  11.302  68.921  1.00  0.00    -0.207 A  
ENDBRANCH   6   7
ENDBRANCH   5   6
ENDBRANCH   4   5
ENDBRANCH   2   4
TORSDOF 4
ENDMDL
MODEL       46
REMARK 921   NORMALIZED FREE ENERGY PREDICTED BY IDOCK:   -4.79 KCAL/MOL
REMARK 922        TOTAL FREE ENERGY PREDICTED BY IDOCK:   -6.55 KCAL/MOL
REMARK 923 INTER-LIGAND FREE ENERGY PREDICTED BY IDOCK:   -5.97 KCAL/MOL
REMARK 924 INTRA-LIGAND FREE ENERGY PREDICTED BY IDOCK:   -0.58 KCAL/MOL
REMARK 927      BINDING AFFINITY PREDICTED BY RF-SCORE:    0.00 PKD
ROOT
HETATM    1  C   UNL     1     -13.804  15.345  72.348  1.00  0.00    -0.562 C  
HETATM    2  N   UNL     1     -13.164  15.279  71.045  1.00  0.00    -0.531 NA 
HETATM    3  H   UNL     1     -12.395  15.946  70.980  1.00  0.00     0.000 HD 
ENDROOT
BRANCH   2   4
HETATM    4  C   UNL     1     -12.717  13.924  70.706  1.00  0.00    -0.313 C  
BRANCH   4   5
HETATM    5  C   UNL     1     -11.735  14.032  69.539  1.00  0.00    -0.367 C  
BRANCH   5   6
HETATM    6  C   UNL     1     -11.238  12.678  69.017  1.00  0.00    -0.269 C  
BRANCH   6   7
HETATM    7  N   UNL     1     -10.321  12.855  67.861  1.00  0.00    -0.225 NA 
HETATM    8  C   UNL     1      -8.951  12.893  68.192  1.00  0.00    -0.202 A  
HETATM    9  C   UNL     1      -8.296  11.696  68.523  1.00  0.00    -0.140 A  
HETATM   10  C   UNL     1      -6.920  11.661  68.753  1.00  0.00    -0.098 A  
HETATM   11  C   UNL     1      -6.176  12.831  68.666  1.00  0.00    -0.071 A  
HETATM   12  C   UNL     1      -6.811  14.034  68.366  1.00  0.00    -0.099 A  
HETATM   13  C   UNL     1      -8.196  14.072  68.125  1.00  0.00    -0.155 A  
HETATM   14  C   UNL     1      -8.861  15.373  67.772  1.00  0.00    -0.170 C  
HETATM   15  C   UNL     1      -9.331  15.378  66.327  1.00  0.00    -0.351 C  
HETATM   16  C   UNL     1     -10.450  14.440  65.927  1.00  0.00    -0.317 A  
HETATM   17  C   UNL     1     -11.060  14.747  64.687  1.00  0.00    -0.337 A  
HETATM   18  C   UNL     1     -12.073  13.960  64.151  1.00  0.00    -0.464 A  
HETATM   19  C   UNL     1     -12.497  12.837  64.843  1.00  0.00    -0.563 A  
HETATM   20  C   UNL     1     -11.916  12.525  66.074  1.00  0.00    -0.456 A  
HETATM   21  C   UNL     1     -10.892  13.313  66.651  1.00  0.00    -0.281 A  
ENDBRANCH   6   7
ENDBRANCH   5   6
ENDBRANCH   4   5
ENDBRANCH   2   4
TORSDOF 4
ENDMDL
MODEL       47
REMARK 921   NORMALIZED FREE ENERGY PREDICTED BY IDOCK:   -4.78 KCAL/MOL
REMARK 922        TOTAL FREE ENERGY PREDICTED BY IDOCK:   -6.54 KCAL/MOL
REMARK 923 INTER-LIGAND FREE ENERGY PREDICTED BY IDOCK:   -6.61 KCAL/MOL
REMARK 924 INTRA-LIGAND FREE ENERGY PREDICTED BY IDOCK:    0.06 KCAL/MOL
REMARK 927      BINDING AFFINITY PREDICTED BY RF-SCORE:    0.00 PKD
ROOT
HETATM    1  C   UNL     1     -12.276  12.416  63.659  1.00  0.00    -0.557 C  
HETATM    2  N   UNL     1     -12.378  13.835  63.358  1.00  0.00    -1.100 NA 
HETATM    3  H   UNL     1     -13.208  14.032  62.799  1.00  0.00     0.000 HD 
ENDROOT
BRANCH   2   4
HETATM    4  C   UNL     1     -12.343  14.669  64.563  1.00  0.00    -0.398 C  
BRANCH   4   5
HETATM    5  C   UNL     1     -11.043  14.362  65.308  1.00  0.00    -0.344 C  
BRANCH   5   6
HETATM    6  C   UNL     1      -9.920  15.372  65.040  1.00  0.00    -0.080 C  
BRANCH   6   7
HETATM    7  N   UNL     1      -9.342  15.879  66.311  1.00  0.00    -0.293 NA 
HETATM    8  C   UNL     1      -9.422  17.275  66.484  1.00  0.00    -0.269 A  
HETATM    9  C   UNL     1     -10.657  17.851  66.821  1.00  0.00    -0.253 A  
HETATM   10  C   UNL     1     -10.768  19.213  67.109  1.00  0.00    -0.567 A  
HETATM   11  C   UNL     1      -9.642  20.024  67.052  1.00  0.00    -0.542 A  
HETATM   12  C   UNL     1      -8.412  19.478  66.693  1.00  0.00    -0.352 A  
HETATM   13  C   UNL     1      -8.294  18.105  66.411  1.00  0.00    -0.272 A  
HETATM   14  C   UNL     1      -6.954  17.525  66.055  1.00  0.00    -0.296 C  
HETATM   15  C   UNL     1      -6.436  16.616  67.157  1.00  0.00    -0.223 C  
HETATM   16  C   UNL     1      -7.173  15.321  67.433  1.00  0.00    -0.235 A  
HETATM   17  C   UNL     1      -6.446  14.384  68.205  1.00  0.00    -0.115 A  
HETATM   18  C   UNL     1      -6.994  13.164  68.587  1.00  0.00    -0.102 A  
HETATM   19  C   UNL     1      -8.290  12.855  68.208  1.00  0.00    -0.157 A  
HETATM   20  C   UNL     1      -9.018  13.761  67.435  1.00  0.00    -0.224 A  
HETATM   21  C   UNL     1      -8.485  15.005  67.021  1.00  0.00    -0.229 A  
ENDBRANCH   6   7
ENDBRANCH   5   6
ENDBRANCH   4   5
ENDBRANCH   2   4
TORSDOF 4
ENDMDL
MODEL       48
REMARK 921   NORMALIZED FREE ENERGY PREDICTED BY IDOCK:   -4.77 KCAL/MOL
REMARK 922        TOTAL FREE ENERGY PREDICTED BY IDOCK:   -6.54 KCAL/MOL
REMARK 923 INTER-LIGAND FREE ENERGY PREDICTED BY IDOCK:   -6.31 KCAL/MOL
REMARK 924 INTRA-LIGAND FREE ENERGY PREDICTED BY IDOCK:   -0.22 KCAL/MOL
REMARK 927      BINDING AFFINITY PREDICTED BY RF-SCORE:    0.00 PKD
ROOT
HETATM    1  C   UNL     1     -12.902   9.464  71.544  1.00  0.00    -0.362 C  
HETATM    2  N   UNL     1     -11.975   9.106  70.483  1.00  0.00    -0.472 NA 
HETATM    3  H   UNL     1     -12.473   8.864  69.627  1.00  0.00     0.000 HD 
ENDROOT
BRANCH   2   4
HETATM    4  C   UNL     1     -10.974  10.149  70.235  1.00  0.00    -0.317 C  
BRANCH   4   5
HETATM    5  C   UNL     1     -10.445   9.962  68.813  1.00  0.00    -0.234 C  
BRANCH   5   6
HETATM    6  C   UNL     1     -11.402  10.462  67.723  1.00  0.00    -0.128 C  
BRANCH   6   7
HETATM    7  N   UNL     1     -10.745  11.479  66.861  1.00  0.00    -0.250 NA 
HETATM    8  C   UNL     1     -10.915  12.813  67.284  1.00  0.00    -0.262 A  
HETATM    9  C   UNL     1     -10.179  13.278  68.386  1.00  0.00    -0.249 A  
HETATM   10  C   UNL     1     -10.228  14.617  68.777  1.00  0.00    -0.242 A  
HETATM   11  C   UNL     1     -11.026  15.512  68.077  1.00  0.00    -0.311 A  
HETATM   12  C   UNL     1     -11.785  15.066  66.998  1.00  0.00    -0.199 A  
HETATM   13  C   UNL     1     -11.732  13.719  66.594  1.00  0.00    -0.421 A  
HETATM   14  C   UNL     1     -12.533  13.260  65.408  1.00  0.00    -0.543 C  
HETATM   15  C   UNL     1     -11.632  12.904  64.238  1.00  0.00    -0.434 C  
HETATM   16  C   UNL     1     -10.717  11.704  64.367  1.00  0.00    -0.387 A  
HETATM   17  C   UNL     1     -10.186  11.235  63.142  1.00  0.00    -0.367 A  
HETATM   18  C   UNL     1      -9.293  10.170  63.088  1.00  0.00    -0.333 A  
HETATM   19  C   UNL     1      -8.904   9.552  64.265  1.00  0.00    -0.247 A  
HETATM   20  C   UNL     1      -9.426   9.993  65.482  1.00  0.00    -0.296 A  
HETATM   21  C   UNL     1     -10.345  11.065  65.569  1.00  0.00    -0.260 A  
ENDBRANCH   6   7
ENDBRANCH   5   6
ENDBRANCH   4   5
ENDBRANCH   2   4
TORSDOF 4
ENDMDL
MODEL       49
REMARK 921   NORMALIZED FREE ENERGY PREDICTED BY IDOCK:   -4.76 KCAL/MOL
REMARK 922        TOTAL FREE ENERGY PREDICTED BY IDOCK:   -6.52 KCAL/MOL
REMARK 923 INTER-LIGAND FREE ENERGY PREDICTED BY IDOCK:   -5.88 KCAL/MOL
REMARK 924 INTRA-LIGAND FREE ENERGY PREDICTED BY IDOCK:   -0.64 KCAL/MOL
REMARK 927      BINDING AFFINITY PREDICTED BY RF-SCORE:    0.00 PKD
ROOT
HETATM    1  C   UNL     1      -9.518  10.250  62.855  1.00  0.00    -0.301 C  
HETATM    2  N   UNL     1     -10.642  11.146  63.070  1.00  0.00    -0.801 NA 
HETATM    3  H   UNL     1     -11.500  10.623  63.248  1.00  0.00     0.000 HD 
ENDROOT
BRANCH   2   4
HETATM    4  C   UNL     1     -10.388  12.121  64.135  1.00  0.00    -0.354 C  
BRANCH   4   5
HETATM    5  C   UNL     1     -10.654  11.431  65.474  1.00  0.00    -0.328 C  
BRANCH   5   6
HETATM    6  C   UNL     1      -9.398  11.243  66.336  1.00  0.00    -0.192 C  
BRANCH   6   7
HETATM    7  N   UNL     1      -9.568  11.870  67.672  1.00  0.00    -0.182 NA 
HETATM    8  C   UNL     1      -9.796  10.964  68.728  1.00  0.00    -0.196 A  
HETATM    9  C   UNL     1      -8.720  10.211  69.223  1.00  0.00    -0.186 A  
HETATM   10  C   UNL     1      -8.867   9.381  70.336  1.00  0.00    -0.290 A  
HETATM   11  C   UNL     1     -10.101   9.284  70.966  1.00  0.00    -0.373 A  
HETATM   12  C   UNL     1     -11.188  10.002  70.473  1.00  0.00    -0.408 A  
HETATM   13  C   UNL     1     -11.042  10.846  69.358  1.00  0.00    -0.317 A  
HETATM   14  C   UNL     1     -12.217  11.638  68.857  1.00  0.00    -0.112 C  
HETATM   15  C   UNL     1     -12.029  13.124  69.111  1.00  0.00    -0.329 C  
HETATM   16  C   UNL     1     -10.933  13.853  68.361  1.00  0.00    -0.272 A  
HETATM   17  C   UNL     1     -11.048  15.264  68.378  1.00  0.00    -0.289 A  
HETATM   18  C   UNL     1     -10.100  16.085  67.776  1.00  0.00    -0.243 A  
HETATM   19  C   UNL     1      -9.008  15.511  67.147  1.00  0.00    -0.232 A  
HETATM   20  C   UNL     1      -8.885  14.121  67.108  1.00  0.00    -0.241 A  
HETATM   21  C   UNL     1      -9.838  13.259  67.700  1.00  0.00    -0.230 A  
ENDBRANCH   6   7
ENDBRANCH   5   6
ENDBRANCH   4   5
ENDBRANCH   2   4
TORSDOF 4
ENDMDL
MODEL       50
REMARK 921   NORMALIZED FREE ENERGY PREDICTED BY IDOCK:   -4.75 KCAL/MOL
REMARK 922        TOTAL FREE ENERGY PREDICTED BY IDOCK:   -6.50 KCAL/MOL
REMARK 923 INTER-LIGAND FREE ENERGY PREDICTED BY IDOCK:   -5.86 KCAL/MOL
REMARK 924 INTRA-LIGAND FREE ENERGY PREDICTED BY IDOCK:   -0.64 KCAL/MOL
REMARK 927      BINDING AFFINITY PREDICTED BY RF-SCORE:    0.00 PKD
ROOT
HETATM    1  C   UNL     1     -10.542  11.359  63.285  1.00  0.00    -0.305 C  
HETATM    2  N   UNL     1     -11.864  11.933  63.102  1.00  0.00    -0.809 NA 
HETATM    3  H   UNL     1     -12.590  11.225  63.212  1.00  0.00     0.000 HD 
ENDROOT
BRANCH   2   4
HETATM    4  C   UNL     1     -12.107  13.080  63.984  1.00  0.00    -0.450 C  
BRANCH   4   5
HETATM    5  C   UNL     1     -12.130  12.566  65.424  1.00  0.00    -0.494 C  
BRANCH   5   6
HETATM    6  C   UNL     1     -12.407  13.655  66.469  1.00  0.00    -0.361 C  
BRANCH   6   7
HETATM    7  N   UNL     1     -11.336  13.693  67.498  1.00  0.00    -0.294 NA 
HETATM    8  C   UNL     1     -10.422  14.758  67.363  1.00  0.00    -0.256 A  
HETATM    9  C   UNL     1     -10.821  16.051  67.737  1.00  0.00    -0.324 A  
HETATM   10  C   UNL     1      -9.923  17.119  67.725  1.00  0.00    -0.290 A  
HETATM   11  C   UNL     1      -8.609  16.912  67.327  1.00  0.00    -0.212 A  
HETATM   12  C   UNL     1      -8.199  15.642  66.926  1.00  0.00    -0.288 A  
HETATM   13  C   UNL     1      -9.099  14.561  66.944  1.00  0.00    -0.274 A  
HETATM   14  C   UNL     1      -8.633  13.191  66.538  1.00  0.00     0.153 C  
HETATM   15  C   UNL     1      -8.586  12.249  67.729  1.00  0.00    -0.170 C  
HETATM   16  C   UNL     1      -9.890  11.854  68.391  1.00  0.00    -0.201 A  
HETATM   17  C   UNL     1      -9.800  10.725  69.240  1.00  0.00    -0.160 A  
HETATM   18  C   UNL     1     -10.894  10.258  69.960  1.00  0.00    -0.364 A  
HETATM   19  C   UNL     1     -12.108  10.916  69.851  1.00  0.00    -0.428 A  
HETATM   20  C   UNL     1     -12.220  12.023  69.008  1.00  0.00    -0.078 A  
HETATM   21  C   UNL     1     -11.129  12.516  68.254  1.00  0.00    -0.257 A  
ENDBRANCH   6   7
ENDBRANCH   5   6
ENDBRANCH   4   5
ENDBRANCH   2   4
TORSDOF 4
ENDMDL
MODEL       51
REMARK 921   NORMALIZED FREE ENERGY PREDICTED BY IDOCK:   -4.74 KCAL/MOL
REMARK 922        TOTAL FREE ENERGY PREDICTED BY IDOCK:   -6.49 KCAL/MOL
REMARK 923 INTER-LIGAND FREE ENERGY PREDICTED BY IDOCK:   -5.87 KCAL/MOL
REMARK 924 INTRA-LIGAND FREE ENERGY PREDICTED BY IDOCK:   -0.62 KCAL/MOL
REMARK 927      BINDING AFFINITY PREDICTED BY RF-SCORE:    0.00 PKD
ROOT
HETATM    1  C   UNL     1     -10.041   4.625  66.497  1.00  0.00    -0.250 C  
HETATM    2  N   UNL     1     -11.165   5.520  66.278  1.00  0.00    -0.737 NA 
HETATM    3  H   UNL     1     -12.050   5.056  66.484  1.00  0.00     0.000 HD 
ENDROOT
BRANCH   2   4
HETATM    4  C   UNL     1     -11.039   6.774  67.029  1.00  0.00    -0.299 C  
BRANCH   4   5
HETATM    5  C   UNL     1     -10.839   6.418  68.503  1.00  0.00    -0.382 C  
BRANCH   5   6
HETATM    6  C   UNL     1      -9.662   7.148  69.164  1.00  0.00    -0.158 C  
BRANCH   6   7
HETATM    7  N   UNL     1     -10.077   7.782  70.443  1.00  0.00    -0.193 NA 
HETATM    8  C   UNL     1      -9.996   6.944  71.573  1.00  0.00    -0.177 A  
HETATM    9  C   UNL     1      -8.735   6.664  72.125  1.00  0.00    -0.130 A  
HETATM   10  C   UNL     1      -8.607   5.930  73.306  1.00  0.00    -0.118 A  
HETATM   11  C   UNL     1      -9.743   5.453  73.949  1.00  0.00    -0.157 A  
HETATM   12  C   UNL     1     -11.001   5.696  73.403  1.00  0.00    -0.293 A  
HETATM   13  C   UNL     1     -11.135   6.443  72.218  1.00  0.00    -0.302 A  
HETATM   14  C   UNL     1     -12.501   6.722  71.659  1.00  0.00    -0.398 C  
HETATM   15  C   UNL     1     -12.858   8.194  71.783  1.00  0.00    -0.355 C  
HETATM   16  C   UNL     1     -12.072   9.200  70.967  1.00  0.00    -0.324 A  
HETATM   17  C   UNL     1     -12.679  10.475  70.864  1.00  0.00    -0.495 A  
HETATM   18  C   UNL     1     -12.069  11.527  70.189  1.00  0.00    -0.432 A  
HETATM   19  C   UNL     1     -10.829  11.328  69.605  1.00  0.00    -0.155 A  
HETATM   20  C   UNL     1     -10.221  10.074  69.685  1.00  0.00    -0.267 A  
HETATM   21  C   UNL     1     -10.821   8.981  70.354  1.00  0.00    -0.246 A  
ENDBRANCH   6   7
ENDBRANCH   5   6
ENDBRANCH   4   5
ENDBRANCH   2   4
TORSDOF 4
ENDMDL
MODEL       52
REMARK 921   NORMALIZED FREE ENERGY PREDICTED BY IDOCK:   -4.70 KCAL/MOL
REMARK 922        TOTAL FREE ENERGY PREDICTED BY IDOCK:   -6.44 KCAL/MOL
REMARK 923 INTER-LIGAND FREE ENERGY PREDICTED BY IDOCK:   -6.20 KCAL/MOL
REMARK 924 INTRA-LIGAND FREE ENERGY PREDICTED BY IDOCK:   -0.25 KCAL/MOL
REMARK 927      BINDING AFFINITY PREDICTED BY RF-SCORE:    0.00 PKD
ROOT
HETATM    1  C   UNL     1     -10.965   6.219  68.241  1.00  0.00    -0.321 C  
HETATM    2  N   UNL     1     -11.137   7.502  67.580  1.00  0.00    -0.532 NA 
HETATM    3  H   UNL     1     -12.103   7.823  67.648  1.00  0.00     0.000 HD 
ENDROOT
BRANCH   2   4
HETATM    4  C   UNL     1     -10.206   8.521  68.077  1.00  0.00    -0.213 C  
BRANCH   4   5
HETATM    5  C   UNL     1     -10.367   9.767  67.205  1.00  0.00    -0.311 C  
BRANCH   5   6
HETATM    6  C   UNL     1      -9.219  10.775  67.345  1.00  0.00    -0.147 C  
BRANCH   6   7
HETATM    7  N   UNL     1      -9.638  12.128  66.897  1.00  0.00    -0.201 NA 
HETATM    8  C   UNL     1      -9.335  13.171  67.796  1.00  0.00    -0.206 A  
HETATM    9  C   UNL     1      -8.008  13.620  67.896  1.00  0.00    -0.161 A  
HETATM   10  C   UNL     1      -7.673  14.719  68.689  1.00  0.00    -0.130 A  
HETATM   11  C   UNL     1      -8.661  15.381  69.406  1.00  0.00    -0.252 A  
HETATM   12  C   UNL     1      -9.979  14.934  69.342  1.00  0.00    -0.145 A  
HETATM   13  C   UNL     1     -10.323  13.833  68.537  1.00  0.00    -0.244 A  
HETATM   14  C   UNL     1     -11.755  13.382  68.455  1.00  0.00    -0.390 C  
HETATM   15  C   UNL     1     -12.343  13.662  67.082  1.00  0.00    -0.234 C  
HETATM   16  C   UNL     1     -11.800  12.897  65.893  1.00  0.00    -0.476 A  
HETATM   17  C   UNL     1     -12.617  12.947  64.738  1.00  0.00    -0.493 A  
HETATM   18  C   UNL     1     -12.243  12.337  63.546  1.00  0.00    -0.669 A  
HETATM   19  C   UNL     1     -11.034  11.665  63.479  1.00  0.00    -0.485 A  
HETATM   20  C   UNL     1     -10.220  11.594  64.611  1.00  0.00    -0.327 A  
HETATM   21  C   UNL     1     -10.578  12.194  65.841  1.00  0.00    -0.258 A  
ENDBRANCH   6   7
ENDBRANCH   5   6
ENDBRANCH   4   5
ENDBRANCH   2   4
TORSDOF 4
ENDMDL
MODEL       53
REMARK 921   NORMALIZED FREE ENERGY PREDICTED BY IDOCK:   -4.64 KCAL/MOL
REMARK 922        TOTAL FREE ENERGY PREDICTED BY IDOCK:   -6.37 KCAL/MOL
REMARK 923 INTER-LIGAND FREE ENERGY PREDICTED BY IDOCK:   -5.89 KCAL/MOL
REMARK 924 INTRA-LIGAND FREE ENERGY PREDICTED BY IDOCK:   -0.47 KCAL/MOL
REMARK 927      BINDING AFFINITY PREDICTED BY RF-SCORE:    0.00 PKD
ROOT
HETATM    1  C   UNL     1      -6.180  15.301  69.948  1.00  0.00    -0.161 C  
HETATM    2  N   UNL     1      -5.567  15.277  68.630  1.00  0.00    -0.087 NA 
HETATM    3  H   UNL     1      -4.810  14.595  68.589  1.00  0.00     0.000 HD 
ENDROOT
BRANCH   2   4
HETATM    4  C   UNL     1      -6.544  15.046  67.560  1.00  0.00    -0.125 C  
BRANCH   4   5
HETATM    5  C   UNL     1      -7.213  16.383  67.241  1.00  0.00    -0.210 C  
BRANCH   5   6
HETATM    6  C   UNL     1      -8.089  16.355  65.981  1.00  0.00     0.039 C  
BRANCH   6   7
HETATM    7  N   UNL     1      -9.509  16.640  66.310  1.00  0.00    -0.281 NA 
HETATM    8  C   UNL     1      -9.733  17.877  66.948  1.00  0.00    -0.309 A  
HETATM    9  C   UNL     1      -9.677  19.056  66.187  1.00  0.00    -0.333 A  
HETATM   10  C   UNL     1      -9.997  20.295  66.745  1.00  0.00    -0.587 A  
HETATM   11  C   UNL     1     -10.368  20.375  68.081  1.00  0.00    -0.255 A  
HETATM   12  C   UNL     1     -10.403  19.221  68.860  1.00  0.00    -0.177 A  
HETATM   13  C   UNL     1     -10.090  17.970  68.300  1.00  0.00    -0.390 A  
HETATM   14  C   UNL     1     -10.162  16.730  69.147  1.00  0.00    -0.306 C  
HETATM   15  C   UNL     1     -11.314  15.836  68.718  1.00  0.00    -0.362 C  
HETATM   16  C   UNL     1     -11.248  15.173  67.358  1.00  0.00    -0.323 A  
HETATM   17  C   UNL     1     -12.157  14.103  67.181  1.00  0.00    -0.432 A  
HETATM   18  C   UNL     1     -12.258  13.416  65.975  1.00  0.00    -0.491 A  
HETATM   19  C   UNL     1     -11.453  13.792  64.913  1.00  0.00    -0.351 A  
HETATM   20  C   UNL     1     -10.541  14.836  65.072  1.00  0.00    -0.452 A  
HETATM   21  C   UNL     1     -10.406  15.546  66.289  1.00  0.00    -0.302 A  
ENDBRANCH   6   7
ENDBRANCH   5   6
ENDBRANCH   4   5
ENDBRANCH   2   4
TORSDOF 4
ENDMDL
MODEL       54
REMARK 921   NORMALIZED FREE ENERGY PREDICTED BY IDOCK:   -4.63 KCAL/MOL
REMARK 922        TOTAL FREE ENERGY PREDICTED BY IDOCK:   -6.36 KCAL/MOL
REMARK 923 INTER-LIGAND FREE ENERGY PREDICTED BY IDOCK:   -5.88 KCAL/MOL
REMARK 924 INTRA-LIGAND FREE ENERGY PREDICTED BY IDOCK:   -0.48 KCAL/MOL
REMARK 927      BINDING AFFINITY PREDICTED BY RF-SCORE:    0.00 PKD
ROOT
HETATM    1  C   UNL     1     -10.396   4.036  64.711  1.00  0.00    -0.197 C  
HETATM    2  N   UNL     1     -11.130   4.819  65.691  1.00  0.00    -0.926 NA 
HETATM    3  H   UNL     1     -11.850   4.257  66.145  1.00  0.00     0.000 HD 
ENDROOT
BRANCH   2   4
HETATM    4  C   UNL     1     -10.250   5.450  66.680  1.00  0.00    -0.243 C  
BRANCH   4   5
HETATM    5  C   UNL     1     -11.029   6.585  67.344  1.00  0.00    -0.458 C  
BRANCH   5   6
HETATM    6  C   UNL     1     -10.199   7.854  67.581  1.00  0.00    -0.226 C  
BRANCH   6   7
HETATM    7  N   UNL     1     -10.014   8.108  69.033  1.00  0.00    -0.184 NA 
HETATM    8  C   UNL     1      -9.280   7.119  69.719  1.00  0.00    -0.143 A  
HETATM    9  C   UNL     1      -7.886   7.069  69.555  1.00  0.00    -0.119 A  
HETATM   10  C   UNL     1      -7.101   6.182  70.293  1.00  0.00    -0.074 A  
HETATM   11  C   UNL     1      -7.701   5.320  71.202  1.00  0.00    -0.101 A  
HETATM   12  C   UNL     1      -9.085   5.335  71.360  1.00  0.00    -0.167 A  
HETATM   13  C   UNL     1      -9.879   6.233  70.625  1.00  0.00    -0.213 A  
HETATM   14  C   UNL     1     -11.368   6.258  70.829  1.00  0.00    -0.397 C  
HETATM   15  C   UNL     1     -11.809   7.541  71.515  1.00  0.00    -0.324 C  
HETATM   16  C   UNL     1     -11.665   8.849  70.764  1.00  0.00    -0.269 A  
HETATM   17  C   UNL     1     -12.407   9.924  71.309  1.00  0.00    -0.478 A  
HETATM   18  C   UNL     1     -12.351  11.204  70.769  1.00  0.00    -0.504 A  
HETATM   19  C   UNL     1     -11.542  11.440  69.670  1.00  0.00    -0.399 A  
HETATM   20  C   UNL     1     -10.813  10.390  69.110  1.00  0.00    -0.274 A  
HETATM   21  C   UNL     1     -10.858   9.074  69.629  1.00  0.00    -0.186 A  
ENDBRANCH   6   7
ENDBRANCH   5   6
ENDBRANCH   4   5
ENDBRANCH   2   4
TORSDOF 4
ENDMDL
MODEL       55
REMARK 921   NORMALIZED FREE ENERGY PREDICTED BY IDOCK:   -4.63 KCAL/MOL
REMARK 922        TOTAL FREE ENERGY PREDICTED BY IDOCK:   -6.36 KCAL/MOL
REMARK 923 INTER-LIGAND FREE ENERGY PREDICTED BY IDOCK:   -5.91 KCAL/MOL
REMARK 924 INTRA-LIGAND FREE ENERGY PREDICTED BY IDOCK:   -0.45 KCAL/MOL
REMARK 927      BINDING AFFINITY PREDICTED BY RF-SCORE:    0.00 PKD
ROOT
HETATM    1  C   UNL     1     -10.588   6.530  68.108  1.00  0.00    -0.251 C  
HETATM    2  N   UNL     1     -10.784   5.371  68.964  1.00  0.00    -0.155 NA 
HETATM    3  H   UNL     1     -10.002   4.721  68.885  1.00  0.00     0.000 HD 
ENDROOT
BRANCH   2   4
HETATM    4  C   UNL     1     -11.025   5.740  70.362  1.00  0.00    -0.262 C  
BRANCH   4   5
HETATM    5  C   UNL     1     -12.160   6.765  70.387  1.00  0.00    -0.270 C  
BRANCH   5   6
HETATM    6  C   UNL     1     -12.414   7.378  71.770  1.00  0.00    -0.336 C  
BRANCH   6   7
HETATM    7  N   UNL     1     -11.485   8.508  72.033  1.00  0.00    -0.336 NA 
HETATM    8  C   UNL     1     -11.874   9.739  71.466  1.00  0.00    -0.399 A  
HETATM    9  C   UNL     1     -12.919  10.464  72.061  1.00  0.00    -0.499 A  
HETATM   10  C   UNL     1     -13.269  11.736  71.605  1.00  0.00    -0.368 A  
HETATM   11  C   UNL     1     -12.586  12.299  70.535  1.00  0.00    -0.173 A  
HETATM   12  C   UNL     1     -11.564  11.584  69.913  1.00  0.00    -0.387 A  
HETATM   13  C   UNL     1     -11.202  10.306  70.375  1.00  0.00    -0.407 A  
HETATM   14  C   UNL     1     -10.077   9.561  69.712  1.00  0.00    -0.238 C  
HETATM   15  C   UNL     1      -8.871   9.454  70.630  1.00  0.00    -0.275 C  
HETATM   16  C   UNL     1      -8.988   8.612  71.884  1.00  0.00    -0.301 A  
HETATM   17  C   UNL     1      -7.751   8.276  72.485  1.00  0.00    -0.167 A  
HETATM   18  C   UNL     1      -7.682   7.547  73.667  1.00  0.00    -0.144 A  
HETATM   19  C   UNL     1      -8.855   7.141  74.281  1.00  0.00    -0.248 A  
HETATM   20  C   UNL     1     -10.084   7.451  73.697  1.00  0.00    -0.376 A  
HETATM   21  C   UNL     1     -10.187   8.180  72.489  1.00  0.00    -0.313 A  
ENDBRANCH   6   7
ENDBRANCH   5   6
ENDBRANCH   4   5
ENDBRANCH   2   4
TORSDOF 4
ENDMDL
MODEL       56
REMARK 921   NORMALIZED FREE ENERGY PREDICTED BY IDOCK:   -4.62 KCAL/MOL
REMARK 922        TOTAL FREE ENERGY PREDICTED BY IDOCK:   -6.34 KCAL/MOL
REMARK 923 INTER-LIGAND FREE ENERGY PREDICTED BY IDOCK:   -5.42 KCAL/MOL
REMARK 924 INTRA-LIGAND FREE ENERGY PREDICTED BY IDOCK:   -0.92 KCAL/MOL
REMARK 927      BINDING AFFINITY PREDICTED BY RF-SCORE:    0.00 PKD
ROOT
HETATM    1  C   UNL     1      -9.096   9.399  66.629  1.00  0.00    -0.149 C  
HETATM    2  N   UNL     1     -10.178   9.677  67.559  1.00  0.00    -0.205 NA 
HETATM    3  H   UNL     1     -10.702   8.829  67.775  1.00  0.00     0.000 HD 
ENDROOT
BRANCH   2   4
HETATM    4  C   UNL     1      -9.711  10.335  68.783  1.00  0.00    -0.177 C  
BRANCH   4   5
HETATM    5  C   UNL     1     -10.864  11.177  69.331  1.00  0.00    -0.264 C  
BRANCH   5   6
HETATM    6  C   UNL     1     -11.970  11.459  68.306  1.00  0.00    -0.164 C  
BRANCH   6   7
HETATM    7  N   UNL     1     -11.750  12.763  67.628  1.00  0.00    -0.360 NA 
HETATM    8  C   UNL     1     -11.465  12.674  66.250  1.00  0.00    -0.364 A  
HETATM    9  C   UNL     1     -12.508  12.389  65.355  1.00  0.00    -0.181 A  
HETATM   10  C   UNL     1     -12.302  12.397  63.974  1.00  0.00    -0.579 A  
HETATM   11  C   UNL     1     -11.040  12.679  63.467  1.00  0.00    -0.449 A  
HETATM   12  C   UNL     1      -9.985  12.937  64.339  1.00  0.00    -0.159 A  
HETATM   13  C   UNL     1     -10.190  12.939  65.730  1.00  0.00    -0.298 A  
HETATM   14  C   UNL     1      -9.048  13.250  66.656  1.00  0.00    -0.181 C  
HETATM   15  C   UNL     1      -9.245  14.591  67.343  1.00  0.00    -0.202 C  
HETATM   16  C   UNL     1     -10.381  14.737  68.334  1.00  0.00    -0.233 A  
HETATM   17  C   UNL     1     -10.284  15.871  69.176  1.00  0.00    -0.234 A  
HETATM   18  C   UNL     1     -11.268  16.178  70.110  1.00  0.00    -0.374 A  
HETATM   19  C   UNL     1     -12.379  15.358  70.219  1.00  0.00    -0.425 A  
HETATM   20  C   UNL     1     -12.486  14.229  69.406  1.00  0.00    -0.112 A  
HETATM   21  C   UNL     1     -11.497  13.882  68.454  1.00  0.00    -0.311 A  
ENDBRANCH   6   7
ENDBRANCH   5   6
ENDBRANCH   4   5
ENDBRANCH   2   4
TORSDOF 4
ENDMDL
MODEL       57
REMARK 921   NORMALIZED FREE ENERGY PREDICTED BY IDOCK:   -4.61 KCAL/MOL
REMARK 922        TOTAL FREE ENERGY PREDICTED BY IDOCK:   -6.33 KCAL/MOL
REMARK 923 INTER-LIGAND FREE ENERGY PREDICTED BY IDOCK:   -5.74 KCAL/MOL
REMARK 924 INTRA-LIGAND FREE ENERGY PREDICTED BY IDOCK:   -0.59 KCAL/MOL
REMARK 927      BINDING AFFINITY PREDICTED BY RF-SCORE:    0.00 PKD
ROOT
HETATM    1  C   UNL     1     -11.865   6.655  70.647  1.00  0.00    -0.383 C  
HETATM    2  N   UNL     1     -11.311   7.026  69.355  1.00  0.00    -0.512 NA 
HETATM    3  H   UNL     1     -12.045   7.112  68.652  1.00  0.00     0.000 HD 
ENDROOT
BRANCH   2   4
HETATM    4  C   UNL     1     -10.497   8.244  69.421  1.00  0.00    -0.220 C  
BRANCH   4   5
HETATM    5  C   UNL     1     -10.535   8.907  68.044  1.00  0.00    -0.263 C  
BRANCH   5   6
HETATM    6  C   UNL     1     -11.010  10.366  68.069  1.00  0.00    -0.291 C  
BRANCH   6   7
HETATM    7  N   UNL     1     -10.220  11.201  67.128  1.00  0.00    -0.194 NA 
HETATM    8  C   UNL     1     -10.907  11.591  65.960  1.00  0.00    -0.276 A  
HETATM    9  C   UNL     1     -11.873  12.606  66.044  1.00  0.00    -0.492 A  
HETATM   10  C   UNL     1     -12.503  13.104  64.903  1.00  0.00    -0.490 A  
HETATM   11  C   UNL     1     -12.184  12.583  63.655  1.00  0.00    -0.642 A  
HETATM   12  C   UNL     1     -11.249  11.556  63.553  1.00  0.00    -0.412 A  
HETATM   13  C   UNL     1     -10.605  11.058  64.700  1.00  0.00    -0.369 A  
HETATM   14  C   UNL     1      -9.575   9.971  64.569  1.00  0.00    -0.346 C  
HETATM   15  C   UNL     1      -8.182  10.490  64.883  1.00  0.00    -0.117 C  
HETATM   16  C   UNL     1      -7.873  10.920  66.302  1.00  0.00    -0.158 A  
HETATM   17  C   UNL     1      -6.493  11.049  66.589  1.00  0.00    -0.129 A  
HETATM   18  C   UNL     1      -6.038  11.479  67.831  1.00  0.00    -0.048 A  
HETATM   19  C   UNL     1      -6.958  11.799  68.816  1.00  0.00    -0.103 A  
HETATM   20  C   UNL     1      -8.323  11.665  68.555  1.00  0.00    -0.140 A  
HETATM   21  C   UNL     1      -8.817  11.219  67.307  1.00  0.00    -0.150 A  
ENDBRANCH   6   7
ENDBRANCH   5   6
ENDBRANCH   4   5
ENDBRANCH   2   4
TORSDOF 4
ENDMDL
MODEL       58
REMARK 921   NORMALIZED FREE ENERGY PREDICTED BY IDOCK:   -4.60 KCAL/MOL
REMARK 922        TOTAL FREE ENERGY PREDICTED BY IDOCK:   -6.32 KCAL/MOL
REMARK 923 INTER-LIGAND FREE ENERGY PREDICTED BY IDOCK:   -5.49 KCAL/MOL
REMARK 924 INTRA-LIGAND FREE ENERGY PREDICTED BY IDOCK:   -0.83 KCAL/MOL
REMARK 927      BINDING AFFINITY PREDICTED BY RF-SCORE:    0.00 PKD
ROOT
HETATM    1  C   UNL     1      -7.440   5.793  69.764  1.00  0.00    -0.075 C  
HETATM    2  N   UNL     1      -7.363   6.502  71.030  1.00  0.00    -0.082 NA 
HETATM    3  H   UNL     1      -6.706   6.048  71.665  1.00  0.00     0.000 HD 
ENDROOT
BRANCH   2   4
HETATM    4  C   UNL     1      -7.036   7.922  70.859  1.00  0.00    -0.049 C  
BRANCH   4   5
HETATM    5  C   UNL     1      -8.233   8.739  71.346  1.00  0.00    -0.203 C  
BRANCH   5   6
HETATM    6  C   UNL     1      -8.867   9.620  70.262  1.00  0.00    -0.211 C  
BRANCH   6   7
HETATM    7  N   UNL     1     -10.195   9.094  69.853  1.00  0.00    -0.195 NA 
HETATM    8  C   UNL     1     -11.258   9.437  70.712  1.00  0.00    -0.302 A  
HETATM    9  C   UNL     1     -11.770  10.744  70.675  1.00  0.00    -0.442 A  
HETATM   10  C   UNL     1     -12.891  11.106  71.424  1.00  0.00    -0.544 A  
HETATM   11  C   UNL     1     -13.512  10.165  72.235  1.00  0.00    -0.291 A  
HETATM   12  C   UNL     1     -13.003   8.870  72.307  1.00  0.00    -0.479 A  
HETATM   13  C   UNL     1     -11.880   8.499  71.547  1.00  0.00    -0.353 A  
HETATM   14  C   UNL     1     -11.363   7.089  71.613  1.00  0.00    -0.288 C  
HETATM   15  C   UNL     1     -11.602   6.352  70.305  1.00  0.00    -0.451 C  
HETATM   16  C   UNL     1     -10.852   6.808  69.070  1.00  0.00    -0.290 A  
HETATM   17  C   UNL     1     -10.853   5.876  68.005  1.00  0.00    -0.321 A  
HETATM   18  C   UNL     1     -10.250   6.155  66.783  1.00  0.00    -0.264 A  
HETATM   19  C   UNL     1      -9.635   7.382  66.597  1.00  0.00    -0.251 A  
HETATM   20  C   UNL     1      -9.612   8.309  67.640  1.00  0.00    -0.187 A  
HETATM   21  C   UNL     1     -10.206   8.050  68.898  1.00  0.00    -0.209 A  
ENDBRANCH   6   7
ENDBRANCH   5   6
ENDBRANCH   4   5
ENDBRANCH   2   4
TORSDOF 4
ENDMDL
MODEL       59
REMARK 921   NORMALIZED FREE ENERGY PREDICTED BY IDOCK:   -4.59 KCAL/MOL
REMARK 922        TOTAL FREE ENERGY PREDICTED BY IDOCK:   -6.31 KCAL/MOL
REMARK 923 INTER-LIGAND FREE ENERGY PREDICTED BY IDOCK:   -5.86 KCAL/MOL
REMARK 924 INTRA-LIGAND FREE ENERGY PREDICTED BY IDOCK:   -0.45 KCAL/MOL
REMARK 927      BINDING AFFINITY PREDICTED BY RF-SCORE:    0.00 PKD
ROOT
HETATM    1  C   UNL     1      -6.450   9.756  70.661  1.00  0.00    -0.109 C  
HETATM    2  N   UNL     1      -7.790  10.216  70.334  1.00  0.00    -0.428 NA 
HETATM    3  H   UNL     1      -7.844  11.234  70.359  1.00  0.00     0.000 HD 
ENDROOT
BRANCH   2   4
HETATM    4  C   UNL     1      -8.265   9.693  69.050  1.00  0.00    -0.113 C  
BRANCH   4   5
HETATM    5  C   UNL     1      -9.133  10.770  68.398  1.00  0.00    -0.164 C  
BRANCH   5   6
HETATM    6  C   UNL     1      -8.578  11.295  67.068  1.00  0.00    -0.148 C  
BRANCH   6   7
HETATM    7  N   UNL     1      -9.272  12.542  66.653  1.00  0.00    -0.227 NA 
HETATM    8  C   UNL     1      -9.030  13.658  67.480  1.00  0.00    -0.209 A  
HETATM    9  C   UNL     1      -7.796  14.320  67.388  1.00  0.00    -0.207 A  
HETATM   10  C   UNL     1      -7.546  15.492  68.103  1.00  0.00    -0.124 A  
HETATM   11  C   UNL     1      -8.527  16.016  68.935  1.00  0.00    -0.232 A  
HETATM   12  C   UNL     1      -9.749  15.359  69.062  1.00  0.00    -0.239 A  
HETATM   13  C   UNL     1     -10.008  14.182  68.336  1.00  0.00    -0.235 A  
HETATM   14  C   UNL     1     -11.343  13.503  68.461  1.00  0.00    -0.327 C  
HETATM   15  C   UNL     1     -12.146  13.624  67.176  1.00  0.00    -0.404 C  
HETATM   16  C   UNL     1     -11.645  12.906  65.940  1.00  0.00    -0.423 A  
HETATM   17  C   UNL     1     -12.605  12.772  64.908  1.00  0.00    -0.541 A  
HETATM   18  C   UNL     1     -12.295  12.179  63.689  1.00  0.00    -0.673 A  
HETATM   19  C   UNL     1     -11.010  11.710  63.471  1.00  0.00    -0.485 A  
HETATM   20  C   UNL     1     -10.054  11.821  64.481  1.00  0.00    -0.312 A  
HETATM   21  C   UNL     1     -10.340  12.408  65.736  1.00  0.00    -0.263 A  
ENDBRANCH   6   7
ENDBRANCH   5   6
ENDBRANCH   4   5
ENDBRANCH   2   4
TORSDOF 4
ENDMDL
MODEL       60
REMARK 921   NORMALIZED FREE ENERGY PREDICTED BY IDOCK:   -4.57 KCAL/MOL
REMARK 922        TOTAL FREE ENERGY PREDICTED BY IDOCK:   -6.28 KCAL/MOL
REMARK 923 INTER-LIGAND FREE ENERGY PREDICTED BY IDOCK:   -5.80 KCAL/MOL
REMARK 924 INTRA-LIGAND FREE ENERGY PREDICTED BY IDOCK:   -0.48 KCAL/MOL
REMARK 927      BINDING AFFINITY PREDICTED BY RF-SCORE:    0.00 PKD
ROOT
HETATM    1  C   UNL     1     -10.065  16.155  65.501  1.00  0.00    -0.276 C  
HETATM    2  N   UNL     1     -10.396  16.555  66.859  1.00  0.00    -0.299 NA 
HETATM    3  H   UNL     1     -11.403  16.525  67.015  1.00  0.00     0.000 HD 
ENDROOT
BRANCH   2   4
HETATM    4  C   UNL     1      -9.681  15.765  67.867  1.00  0.00    -0.216 C  
BRANCH   4   5
HETATM    5  C   UNL     1      -9.739  14.298  67.440  1.00  0.00    -0.235 C  
BRANCH   5   6
HETATM    6  C   UNL     1     -10.661  13.433  68.309  1.00  0.00    -0.254 C  
BRANCH   6   7
HETATM    7  N   UNL     1     -10.929  12.122  67.663  1.00  0.00    -0.231 NA 
HETATM    8  C   UNL     1     -10.591  10.997  68.443  1.00  0.00    -0.193 A  
HETATM    9  C   UNL     1     -11.423  10.635  69.514  1.00  0.00    -0.360 A  
HETATM   10  C   UNL     1     -11.194   9.470  70.249  1.00  0.00    -0.307 A  
HETATM   11  C   UNL     1     -10.118   8.652  69.929  1.00  0.00    -0.197 A  
HETATM   12  C   UNL     1      -9.264   9.008  68.887  1.00  0.00    -0.140 A  
HETATM   13  C   UNL     1      -9.496  10.176  68.139  1.00  0.00    -0.151 A  
HETATM   14  C   UNL     1      -8.583  10.529  66.999  1.00  0.00    -0.127 C  
HETATM   15  C   UNL     1      -9.291  10.387  65.661  1.00  0.00    -0.244 C  
HETATM   16  C   UNL     1     -10.427  11.336  65.339  1.00  0.00    -0.326 A  
HETATM   17  C   UNL     1     -10.789  11.376  63.972  1.00  0.00    -0.450 A  
HETATM   18  C   UNL     1     -11.843  12.160  63.513  1.00  0.00    -0.597 A  
HETATM   19  C   UNL     1     -12.565  12.919  64.418  1.00  0.00    -0.392 A  
HETATM   20  C   UNL     1     -12.215  12.903  65.769  1.00  0.00    -0.498 A  
HETATM   21  C   UNL     1     -11.141  12.125  66.265  1.00  0.00    -0.310 A  
ENDBRANCH   6   7
ENDBRANCH   5   6
ENDBRANCH   4   5
ENDBRANCH   2   4
TORSDOF 4
ENDMDL
MODEL       61
REMARK 921   NORMALIZED FREE ENERGY PREDICTED BY IDOCK:   -4.56 KCAL/MOL
REMARK 922        TOTAL FREE ENERGY PREDICTED BY IDOCK:   -6.28 KCAL/MOL
REMARK 923 INTER-LIGAND FREE ENERGY PREDICTED BY IDOCK:   -5.83 KCAL/MOL
REMARK 924 INTRA-LIGAND FREE ENERGY PREDICTED BY IDOCK:   -0.45 KCAL/MOL
REMARK 927      BINDING AFFINITY PREDICTED BY RF-SCORE:    0.00 PKD
ROOT
HETATM    1  C   UNL     1     -10.326  18.345  66.420  1.00  0.00    -0.405 C  
HETATM    2  N   UNL     1      -9.985  17.032  65.896  1.00  0.00    -0.521 NA 
HETATM    3  H   UNL     1      -9.770  17.079  64.900  1.00  0.00     0.000 HD 
ENDROOT
BRANCH   2   4
HETATM    4  C   UNL     1      -8.895  16.395  66.643  1.00  0.00    -0.249 C  
BRANCH   4   5
HETATM    5  C   UNL     1      -9.404  15.047  67.155  1.00  0.00    -0.225 C  
BRANCH   5   6
HETATM    6  C   UNL     1      -8.563  13.849  66.695  1.00  0.00     0.068 C  
BRANCH   6   7
HETATM    7  N   UNL     1      -9.380  12.609  66.646  1.00  0.00    -0.235 NA 
HETATM    8  C   UNL     1     -10.411  12.616  65.685  1.00  0.00    -0.273 A  
HETATM    9  C   UNL     1     -10.082  12.448  64.330  1.00  0.00    -0.293 A  
HETATM   10  C   UNL     1     -11.071  12.339  63.351  1.00  0.00    -0.487 A  
HETATM   11  C   UNL     1     -12.410  12.409  63.713  1.00  0.00    -0.625 A  
HETATM   12  C   UNL     1     -12.758  12.603  65.048  1.00  0.00    -0.403 A  
HETATM   13  C   UNL     1     -11.764  12.705  66.038  1.00  0.00    -0.470 A  
HETATM   14  C   UNL     1     -12.157  12.884  67.478  1.00  0.00    -0.251 C  
HETATM   15  C   UNL     1     -11.839  11.642  68.295  1.00  0.00    -0.335 C  
HETATM   16  C   UNL     1     -10.386  11.266  68.504  1.00  0.00    -0.217 A  
HETATM   17  C   UNL     1     -10.165  10.332  69.544  1.00  0.00    -0.261 A  
HETATM   18  C   UNL     1      -8.896   9.846  69.838  1.00  0.00    -0.222 A  
HETATM   19  C   UNL     1      -7.815  10.281  69.090  1.00  0.00    -0.127 A  
HETATM   20  C   UNL     1      -8.011  11.213  68.069  1.00  0.00    -0.117 A  
HETATM   21  C   UNL     1      -9.287  11.735  67.754  1.00  0.00    -0.181 A  
ENDBRANCH   6   7
ENDBRANCH   5   6
ENDBRANCH   4   5
ENDBRANCH   2   4
TORSDOF 4
ENDMDL
MODEL       62
REMARK 921   NORMALIZED FREE ENERGY PREDICTED BY IDOCK:   -4.54 KCAL/MOL
REMARK 922        TOTAL FREE ENERGY PREDICTED BY IDOCK:   -6.25 KCAL/MOL
REMARK 923 INTER-LIGAND FREE ENERGY PREDICTED BY IDOCK:   -6.09 KCAL/MOL
REMARK 924 INTRA-LIGAND FREE ENERGY PREDICTED BY IDOCK:   -0.17 KCAL/MOL
REMARK 927      BINDING AFFINITY PREDICTED BY RF-SCORE:    0.00 PKD
ROOT
HETATM    1  C   UNL     1      -8.288  20.145  67.370  1.00  0.00    -0.338 C  
HETATM    2  N   UNL     1      -9.215  20.302  66.261  1.00  0.00    -0.609 NA 
HETATM    3  H   UNL     1      -8.743  20.168  65.367  1.00  0.00     0.000 HD 
ENDROOT
BRANCH   2   4
HETATM    4  C   UNL     1     -10.385  19.426  66.377  1.00  0.00    -0.483 C  
BRANCH   4   5
HETATM    5  C   UNL     1      -9.897  17.979  66.284  1.00  0.00    -0.310 C  
BRANCH   5   6
HETATM    6  C   UNL     1     -10.837  17.055  65.498  1.00  0.00    -0.069 C  
BRANCH   6   7
HETATM    7  N   UNL     1     -10.969  15.735  66.167  1.00  0.00    -0.232 NA 
HETATM    8  C   UNL     1     -10.639  15.728  67.537  1.00  0.00    -0.309 A  
HETATM    9  C   UNL     1     -11.542  16.280  68.459  1.00  0.00    -0.188 A  
HETATM   10  C   UNL     1     -11.313  16.202  69.834  1.00  0.00    -0.318 A  
HETATM   11  C   UNL     1     -10.167  15.578  70.309  1.00  0.00    -0.139 A  
HETATM   12  C   UNL     1      -9.245  15.048  69.409  1.00  0.00    -0.114 A  
HETATM   13  C   UNL     1      -9.475  15.116  68.024  1.00  0.00    -0.199 A  
HETATM   14  C   UNL     1      -8.485  14.512  67.068  1.00  0.00    -0.222 C  
HETATM   15  C   UNL     1      -9.060  13.284  66.382  1.00  0.00    -0.062 C  
HETATM   16  C   UNL     1     -10.216  13.466  65.420  1.00  0.00    -0.311 A  
HETATM   17  C   UNL     1     -10.455  12.359  64.572  1.00  0.00    -0.352 A  
HETATM   18  C   UNL     1     -11.507  12.344  63.662  1.00  0.00    -0.568 A  
HETATM   19  C   UNL     1     -12.351  13.440  63.584  1.00  0.00    -0.422 A  
HETATM   20  C   UNL     1     -12.123  14.547  64.403  1.00  0.00    -0.492 A  
HETATM   21  C   UNL     1     -11.055  14.597  65.330  1.00  0.00    -0.348 A  
ENDBRANCH   6   7
ENDBRANCH   5   6
ENDBRANCH   4   5
ENDBRANCH   2   4
TORSDOF 4
ENDMDL
MODEL       63
REMARK 921   NORMALIZED FREE ENERGY PREDICTED BY IDOCK:   -4.53 KCAL/MOL
REMARK 922        TOTAL FREE ENERGY PREDICTED BY IDOCK:   -6.23 KCAL/MOL
REMARK 923 INTER-LIGAND FREE ENERGY PREDICTED BY IDOCK:   -5.50 KCAL/MOL
REMARK 924 INTRA-LIGAND FREE ENERGY PREDICTED BY IDOCK:   -0.73 KCAL/MOL
REMARK 927      BINDING AFFINITY PREDICTED BY RF-SCORE:    0.00 PKD
ROOT
HETATM    1  C   UNL     1      -5.591  11.654  67.502  1.00  0.00    -0.070 C  
HETATM    2  N   UNL     1      -6.216  12.833  66.925  1.00  0.00    -0.459 NA 
HETATM    3  H   UNL     1      -6.676  12.609  66.042  1.00  0.00     0.000 HD 
ENDROOT
BRANCH   2   4
HETATM    4  C   UNL     1      -7.143  13.489  67.852  1.00  0.00    -0.140 C  
BRANCH   4   5
HETATM    5  C   UNL     1      -8.474  13.683  67.125  1.00  0.00    -0.186 C  
BRANCH   5   6
HETATM    6  C   UNL     1      -9.695  13.215  67.927  1.00  0.00    -0.221 C  
BRANCH   6   7
HETATM    7  N   UNL     1     -10.293  11.994  67.326  1.00  0.00    -0.210 NA 
HETATM    8  C   UNL     1      -9.895  10.782  67.927  1.00  0.00    -0.167 A  
HETATM    9  C   UNL     1     -10.436  10.429  69.173  1.00  0.00    -0.248 A  
HETATM   10  C   UNL     1     -10.160   9.193  69.760  1.00  0.00    -0.211 A  
HETATM   11  C   UNL     1      -9.325   8.292  69.111  1.00  0.00    -0.151 A  
HETATM   12  C   UNL     1      -8.756   8.634  67.886  1.00  0.00    -0.137 A  
HETATM   13  C   UNL     1      -9.039   9.875  67.288  1.00  0.00    -0.149 A  
HETATM   14  C   UNL     1      -8.442  10.217  65.951  1.00  0.00    -0.146 C  
HETATM   15  C   UNL     1      -9.505  10.255  64.866  1.00  0.00    -0.337 C  
HETATM   16  C   UNL     1     -10.558  11.342  64.923  1.00  0.00    -0.368 A  
HETATM   17  C   UNL     1     -11.278  11.527  63.719  1.00  0.00    -0.456 A  
HETATM   18  C   UNL     1     -12.311  12.453  63.615  1.00  0.00    -0.647 A  
HETATM   19  C   UNL     1     -12.653  13.212  64.721  1.00  0.00    -0.426 A  
HETATM   20  C   UNL     1     -11.946  13.053  65.914  1.00  0.00    -0.491 A  
HETATM   21  C   UNL     1     -10.883  12.129  66.048  1.00  0.00    -0.282 A  
ENDBRANCH   6   7
ENDBRANCH   5   6
ENDBRANCH   4   5
ENDBRANCH   2   4
TORSDOF 4
ENDMDL
MODEL       64
REMARK 921   NORMALIZED FREE ENERGY PREDICTED BY IDOCK:   -4.52 KCAL/MOL
REMARK 922        TOTAL FREE ENERGY PREDICTED BY IDOCK:   -6.22 KCAL/MOL
REMARK 923 INTER-LIGAND FREE ENERGY PREDICTED BY IDOCK:   -6.00 KCAL/MOL
REMARK 924 INTRA-LIGAND FREE ENERGY PREDICTED BY IDOCK:   -0.22 KCAL/MOL
REMARK 927      BINDING AFFINITY PREDICTED BY RF-SCORE:    0.00 PKD
ROOT
HETATM    1  C   UNL     1     -12.550  12.126  63.527  1.00  0.00    -0.506 C  
HETATM    2  N   UNL     1     -12.835  12.980  64.669  1.00  0.00    -0.732 NA 
HETATM    3  H   UNL     1     -13.565  12.576  65.256  1.00  0.00     0.000 HD 
ENDROOT
BRANCH   2   4
HETATM    4  C   UNL     1     -11.635  13.286  65.455  1.00  0.00    -0.326 C  
BRANCH   4   5
HETATM    5  C   UNL     1     -11.860  12.763  66.875  1.00  0.00    -0.440 C  
BRANCH   5   6
HETATM    6  C   UNL     1     -11.161  11.428  67.164  1.00  0.00    -0.296 C  
BRANCH   6   7
HETATM    7  N   UNL     1     -10.402  11.488  68.440  1.00  0.00    -0.195 NA 
HETATM    8  C   UNL     1      -9.099  12.015  68.330  1.00  0.00    -0.190 A  
HETATM    9  C   UNL     1      -8.935  13.400  68.173  1.00  0.00    -0.188 A  
HETATM   10  C   UNL     1      -7.667  13.984  68.168  1.00  0.00    -0.143 A  
HETATM   11  C   UNL     1      -6.539  13.187  68.310  1.00  0.00    -0.097 A  
HETATM   12  C   UNL     1      -6.679  11.807  68.439  1.00  0.00    -0.065 A  
HETATM   13  C   UNL     1      -7.955  11.215  68.454  1.00  0.00    -0.137 A  
HETATM   14  C   UNL     1      -8.090   9.728  68.626  1.00  0.00    -0.105 C  
HETATM   15  C   UNL     1      -8.697   9.382  69.975  1.00  0.00    -0.227 C  
HETATM   16  C   UNL     1     -10.137   9.769  70.241  1.00  0.00    -0.323 A  
HETATM   17  C   UNL     1     -10.726   9.114  71.349  1.00  0.00    -0.414 A  
HETATM   18  C   UNL     1     -12.027   9.389  71.758  1.00  0.00    -0.452 A  
HETATM   19  C   UNL     1     -12.768  10.333  71.069  1.00  0.00    -0.491 A  
HETATM   20  C   UNL     1     -12.209  10.980  69.965  1.00  0.00    -0.418 A  
HETATM   21  C   UNL     1     -10.894  10.714  69.517  1.00  0.00    -0.259 A  
ENDBRANCH   6   7
ENDBRANCH   5   6
ENDBRANCH   4   5
ENDBRANCH   2   4
TORSDOF 4
ENDMDL
MODEL       65
REMARK 921   NORMALIZED FREE ENERGY PREDICTED BY IDOCK:   -4.50 KCAL/MOL
REMARK 922        TOTAL FREE ENERGY PREDICTED BY IDOCK:   -6.19 KCAL/MOL
REMARK 923 INTER-LIGAND FREE ENERGY PREDICTED BY IDOCK:   -5.56 KCAL/MOL
REMARK 924 INTRA-LIGAND FREE ENERGY PREDICTED BY IDOCK:   -0.63 KCAL/MOL
REMARK 927      BINDING AFFINITY PREDICTED BY RF-SCORE:    0.00 PKD
ROOT
HETATM    1  C   UNL     1      -7.517  20.087  65.847  1.00  0.00    -0.304 C  
HETATM    2  N   UNL     1      -8.358  19.413  66.822  1.00  0.00    -0.282 NA 
HETATM    3  H   UNL     1      -8.283  19.854  67.738  1.00  0.00     0.000 HD 
ENDROOT
BRANCH   2   4
HETATM    4  C   UNL     1      -9.757  19.324  66.391  1.00  0.00    -0.374 C  
BRANCH   4   5
HETATM    5  C   UNL     1     -10.407  18.165  67.149  1.00  0.00    -0.391 C  
BRANCH   5   6
HETATM    6  C   UNL     1     -10.012  18.091  68.629  1.00  0.00    -0.390 C  
BRANCH   6   7
HETATM    7  N   UNL     1      -9.619  16.709  69.009  1.00  0.00    -0.261 NA 
HETATM    8  C   UNL     1      -8.326  16.326  68.597  1.00  0.00    -0.220 A  
HETATM    9  C   UNL     1      -7.213  16.828  69.289  1.00  0.00    -0.181 A  
HETATM   10  C   UNL     1      -5.919  16.396  68.992  1.00  0.00    -0.143 A  
HETATM   11  C   UNL     1      -5.718  15.461  67.985  1.00  0.00    -0.146 A  
HETATM   12  C   UNL     1      -6.806  14.971  67.267  1.00  0.00    -0.038 A  
HETATM   13  C   UNL     1      -8.112  15.396  67.570  1.00  0.00    -0.187 A  
HETATM   14  C   UNL     1      -9.279  14.834  66.807  1.00  0.00    -0.282 C  
HETATM   15  C   UNL     1     -10.133  13.936  67.687  1.00  0.00    -0.241 C  
HETATM   16  C   UNL     1     -10.897  14.563  68.835  1.00  0.00    -0.262 A  
HETATM   17  C   UNL     1     -11.922  13.748  69.373  1.00  0.00    -0.397 A  
HETATM   18  C   UNL     1     -12.689  14.154  70.460  1.00  0.00    -0.374 A  
HETATM   19  C   UNL     1     -12.442  15.387  71.040  1.00  0.00    -0.469 A  
HETATM   20  C   UNL     1     -11.444  16.210  70.515  1.00  0.00    -0.363 A  
HETATM   21  C   UNL     1     -10.656  15.831  69.403  1.00  0.00    -0.255 A  
ENDBRANCH   6   7
ENDBRANCH   5   6
ENDBRANCH   4   5
ENDBRANCH   2   4
TORSDOF 4
ENDMDL
MODEL       66
REMARK 921   NORMALIZED FREE ENERGY PREDICTED BY IDOCK:   -4.48 KCAL/MOL
REMARK 922        TOTAL FREE ENERGY PREDICTED BY IDOCK:   -6.17 KCAL/MOL
REMARK 923 INTER-LIGAND FREE ENERGY PREDICTED BY IDOCK:   -6.05 KCAL/MOL
REMARK 924 INTRA-LIGAND FREE ENERGY PREDICTED BY IDOCK:   -0.12 KCAL/MOL
REMARK 927      BINDING AFFINITY PREDICTED BY RF-SCORE:    0.00 PKD
ROOT
HETATM    1  C   UNL     1     -12.183  16.044  72.672  1.00  0.00    -0.522 C  
HETATM    2  N   UNL     1     -13.261  15.654  71.778  1.00  0.00    -0.476 NA 
HETATM    3  H   UNL     1     -13.216  16.174  70.901  1.00  0.00     0.000 HD 
ENDROOT
BRANCH   2   4
HETATM    4  C   UNL     1     -13.294  14.208  71.534  1.00  0.00    -0.351 C  
BRANCH   4   5
HETATM    5  C   UNL     1     -12.084  13.853  70.668  1.00  0.00    -0.417 C  
BRANCH   5   6
HETATM    6  C   UNL     1     -12.394  13.780  69.167  1.00  0.00    -0.101 C  
BRANCH   6   7
HETATM    7  N   UNL     1     -11.212  13.310  68.400  1.00  0.00    -0.263 NA 
HETATM    8  C   UNL     1     -10.560  14.307  67.646  1.00  0.00    -0.253 A  
HETATM    9  C   UNL     1      -9.751  15.244  68.309  1.00  0.00    -0.210 A  
HETATM   10  C   UNL     1      -8.999  16.183  67.602  1.00  0.00    -0.194 A  
HETATM   11  C   UNL     1      -9.053  16.207  66.214  1.00  0.00    -0.373 A  
HETATM   12  C   UNL     1      -9.871  15.304  65.538  1.00  0.00    -0.362 A  
HETATM   13  C   UNL     1     -10.623  14.350  66.246  1.00  0.00    -0.292 A  
HETATM   14  C   UNL     1     -11.476  13.363  65.500  1.00  0.00    -0.324 C  
HETATM   15  C   UNL     1     -10.915  11.955  65.611  1.00  0.00    -0.353 C  
HETATM   16  C   UNL     1     -10.923  11.277  66.966  1.00  0.00    -0.352 A  
HETATM   17  C   UNL     1     -10.723   9.877  66.924  1.00  0.00    -0.195 A  
HETATM   18  C   UNL     1     -10.656   9.109  68.081  1.00  0.00    -0.235 A  
HETATM   19  C   UNL     1     -10.783   9.729  69.313  1.00  0.00    -0.246 A  
HETATM   20  C   UNL     1     -10.994  11.107  69.375  1.00  0.00    -0.298 A  
HETATM   21  C   UNL     1     -11.078  11.914  68.215  1.00  0.00    -0.239 A  
ENDBRANCH   6   7
ENDBRANCH   5   6
ENDBRANCH   4   5
ENDBRANCH   2   4
TORSDOF 4
ENDMDL
MODEL       67
REMARK 921   NORMALIZED FREE ENERGY PREDICTED BY IDOCK:   -4.46 KCAL/MOL
REMARK 922        TOTAL FREE ENERGY PREDICTED BY IDOCK:   -6.15 KCAL/MOL
REMARK 923 INTER-LIGAND FREE ENERGY PREDICTED BY IDOCK:   -5.98 KCAL/MOL
REMARK 924 INTRA-LIGAND FREE ENERGY PREDICTED BY IDOCK:   -0.17 KCAL/MOL
REMARK 927      BINDING AFFINITY PREDICTED BY RF-SCORE:    0.00 PKD
ROOT
HETATM    1  C   UNL     1     -11.818  13.221  68.138  1.00  0.00    -0.353 C  
HETATM    2  N   UNL     1     -12.288  14.424  68.805  1.00  0.00    -0.585 NA 
HETATM    3  H   UNL     1     -13.273  14.595  68.602  1.00  0.00     0.000 HD 
ENDROOT
BRANCH   2   4
HETATM    4  C   UNL     1     -12.043  14.398  70.250  1.00  0.00    -0.331 C  
BRANCH   4   5
HETATM    5  C   UNL     1     -10.733  15.141  70.517  1.00  0.00    -0.184 C  
BRANCH   5   6
HETATM    6  C   UNL     1     -10.726  16.590  70.014  1.00  0.00    -0.221 C  
BRANCH   6   7
HETATM    7  N   UNL     1      -9.721  16.777  68.935  1.00  0.00    -0.254 NA 
HETATM    8  C   UNL     1      -9.979  17.856  68.065  1.00  0.00    -0.333 A  
HETATM    9  C   UNL     1      -9.737  19.165  68.512  1.00  0.00    -0.467 A  
HETATM   10  C   UNL     1      -9.872  20.259  67.656  1.00  0.00    -0.563 A  
HETATM   11  C   UNL     1     -10.265  20.062  66.339  1.00  0.00    -0.598 A  
HETATM   12  C   UNL     1     -10.537  18.774  65.884  1.00  0.00    -0.405 A  
HETATM   13  C   UNL     1     -10.393  17.667  66.739  1.00  0.00    -0.331 A  
HETATM   14  C   UNL     1     -10.661  16.281  66.224  1.00  0.00    -0.256 C  
HETATM   15  C   UNL     1      -9.379  15.471  66.128  1.00  0.00    -0.380 C  
HETATM   16  C   UNL     1      -8.662  15.098  67.409  1.00  0.00    -0.205 A  
HETATM   17  C   UNL     1      -7.701  14.068  67.266  1.00  0.00    -0.120 A  
HETATM   18  C   UNL     1      -6.921  13.637  68.334  1.00  0.00    -0.104 A  
HETATM   19  C   UNL     1      -7.081  14.234  69.573  1.00  0.00    -0.045 A  
HETATM   20  C   UNL     1      -8.033  15.242  69.737  1.00  0.00    -0.039 A  
HETATM   21  C   UNL     1      -8.850  15.694  68.674  1.00  0.00    -0.201 A  
ENDBRANCH   6   7
ENDBRANCH   5   6
ENDBRANCH   4   5
ENDBRANCH   2   4
TORSDOF 4
ENDMDL
MODEL       68
REMARK 921   NORMALIZED FREE ENERGY PREDICTED BY IDOCK:   -4.43 KCAL/MOL
REMARK 922        TOTAL FREE ENERGY PREDICTED BY IDOCK:   -6.11 KCAL/MOL
REMARK 923 INTER-LIGAND FREE ENERGY PREDICTED BY IDOCK:   -5.36 KCAL/MOL
REMARK 924 INTRA-LIGAND FREE ENERGY PREDICTED BY IDOCK:   -0.74 KCAL/MOL
REMARK 927      BINDING AFFINITY PREDICTED BY RF-SCORE:    0.00 PKD
ROOT
HETATM    1  C   UNL     1     -12.145  15.116  64.423  1.00  0.00    -0.300 C  
HETATM    2  N   UNL     1     -11.002  14.220  64.378  1.00  0.00    -0.610 NA 
HETATM    3  H   UNL     1     -10.449  14.288  65.231  1.00  0.00     0.000 HD 
ENDROOT
BRANCH   2   4
HETATM    4  C   UNL     1     -11.388  12.830  64.109  1.00  0.00    -0.390 C  
BRANCH   4   5
HETATM    5  C   UNL     1     -10.996  11.992  65.326  1.00  0.00    -0.356 C  
BRANCH   5   6
HETATM    6  C   UNL     1     -11.881  12.231  66.556  1.00  0.00    -0.306 C  
BRANCH   6   7
HETATM    7  N   UNL     1     -11.057  12.444  67.774  1.00  0.00    -0.233 NA 
HETATM    8  C   UNL     1     -10.878  13.793  68.140  1.00  0.00    -0.246 A  
HETATM    9  C   UNL     1     -11.941  14.483  68.745  1.00  0.00    -0.315 A  
HETATM   10  C   UNL     1     -11.783  15.784  69.224  1.00  0.00    -0.384 A  
HETATM   11  C   UNL     1     -10.556  16.423  69.095  1.00  0.00    -0.308 A  
HETATM   12  C   UNL     1      -9.496  15.766  68.473  1.00  0.00    -0.201 A  
HETATM   13  C   UNL     1      -9.649  14.452  67.997  1.00  0.00    -0.216 A  
HETATM   14  C   UNL     1      -8.486  13.746  67.357  1.00  0.00    -0.209 C  
HETATM   15  C   UNL     1      -7.981  12.611  68.232  1.00  0.00    -0.153 C  
HETATM   16  C   UNL     1      -8.878  11.410  68.449  1.00  0.00    -0.167 A  
HETATM   17  C   UNL     1      -8.218  10.269  68.963  1.00  0.00    -0.139 A  
HETATM   18  C   UNL     1      -8.904   9.096  69.264  1.00  0.00    -0.144 A  
HETATM   19  C   UNL     1     -10.273   9.042  69.061  1.00  0.00    -0.216 A  
HETATM   20  C   UNL     1     -10.939  10.153  68.542  1.00  0.00    -0.278 A  
HETATM   21  C   UNL     1     -10.269  11.355  68.215  1.00  0.00    -0.193 A  
ENDBRANCH   6   7
ENDBRANCH   5   6
ENDBRANCH   4   5
ENDBRANCH   2   4
TORSDOF 4
ENDMDL
MODEL       69
REMARK 921   NORMALIZED FREE ENERGY PREDICTED BY IDOCK:   -4.40 KCAL/MOL
REMARK 922        TOTAL FREE ENERGY PREDICTED BY IDOCK:   -6.07 KCAL/MOL
REMARK 923 INTER-LIGAND FREE ENERGY PREDICTED BY IDOCK:   -5.80 KCAL/MOL
REMARK 924 INTRA-LIGAND FREE ENERGY PREDICTED BY IDOCK:   -0.27 KCAL/MOL
REMARK 927      BINDING AFFINITY PREDICTED BY RF-SCORE:    0.00 PKD
ROOT
HETATM    1  C   UNL     1     -12.817  10.962  71.279  1.00  0.00    -0.433 C  
HETATM    2  N   UNL     1     -13.528   9.712  71.071  1.00  0.00    -0.560 NA 
HETATM    3  H   UNL     1     -13.220   9.253  70.214  1.00  0.00     0.000 HD 
ENDROOT
BRANCH   2   4
HETATM    4  C   UNL     1     -13.422   8.807  72.221  1.00  0.00    -0.420 C  
BRANCH   4   5
HETATM    5  C   UNL     1     -12.203   7.911  72.000  1.00  0.00    -0.357 C  
BRANCH   5   6
HETATM    6  C   UNL     1     -12.269   7.077  70.714  1.00  0.00    -0.295 C  
BRANCH   6   7
HETATM    7  N   UNL     1     -10.916   6.891  70.128  1.00  0.00    -0.265 NA 
HETATM    8  C   UNL     1     -10.456   7.969  69.345  1.00  0.00    -0.220 A  
HETATM    9  C   UNL     1     -10.014   9.138  69.985  1.00  0.00    -0.223 A  
HETATM   10  C   UNL     1      -9.449  10.190  69.263  1.00  0.00    -0.231 A  
HETATM   11  C   UNL     1      -9.328  10.094  67.882  1.00  0.00    -0.151 A  
HETATM   12  C   UNL     1      -9.786   8.955  67.225  1.00  0.00    -0.235 A  
HETATM   13  C   UNL     1     -10.347   7.888  67.949  1.00  0.00    -0.281 A  
HETATM   14  C   UNL     1     -10.808   6.652  67.228  1.00  0.00    -0.456 C  
HETATM   15  C   UNL     1      -9.917   5.463  67.547  1.00  0.00    -0.198 C  
HETATM   16  C   UNL     1      -9.922   4.913  68.958  1.00  0.00    -0.237 A  
HETATM   17  C   UNL     1      -9.358   3.621  69.087  1.00  0.00    -0.244 A  
HETATM   18  C   UNL     1      -9.243   2.989  70.321  1.00  0.00    -0.213 A  
HETATM   19  C   UNL     1      -9.686   3.642  71.459  1.00  0.00    -0.238 A  
HETATM   20  C   UNL     1     -10.257   4.911  71.351  1.00  0.00    -0.257 A  
HETATM   21  C   UNL     1     -10.399   5.575  70.109  1.00  0.00    -0.284 A  
ENDBRANCH   6   7
ENDBRANCH   5   6
ENDBRANCH   4   5
ENDBRANCH   2   4
TORSDOF 4
ENDMDL
MODEL       70
REMARK 921   NORMALIZED FREE ENERGY PREDICTED BY IDOCK:   -4.37 KCAL/MOL
REMARK 922        TOTAL FREE ENERGY PREDICTED BY IDOCK:   -6.04 KCAL/MOL
REMARK 923 INTER-LIGAND FREE ENERGY PREDICTED BY IDOCK:   -5.43 KCAL/MOL
REMARK 924 INTRA-LIGAND FREE ENERGY PREDICTED BY IDOCK:   -0.61 KCAL/MOL
REMARK 927      BINDING AFFINITY PREDICTED BY RF-SCORE:    0.00 PKD
ROOT
HETATM    1  C   UNL     1     -10.046   5.697  66.816  1.00  0.00    -0.197 C  
HETATM    2  N   UNL     1      -9.849   7.010  66.226  1.00  0.00    -0.419 NA 
HETATM    3  H   UNL     1     -10.016   6.990  65.220  1.00  0.00     0.000 HD 
ENDROOT
BRANCH   2   4
HETATM    4  C   UNL     1     -10.660   8.046  66.875  1.00  0.00    -0.254 C  
BRANCH   4   5
HETATM    5  C   UNL     1     -10.042   9.404  66.539  1.00  0.00    -0.332 C  
BRANCH   5   6
HETATM    6  C   UNL     1      -8.780   9.729  67.348  1.00  0.00    -0.132 C  
BRANCH   6   7
HETATM    7  N   UNL     1      -9.094  10.626  68.491  1.00  0.00    -0.152 NA 
HETATM    8  C   UNL     1      -9.542   9.968  69.655  1.00  0.00    -0.226 A  
HETATM    9  C   UNL     1      -8.610   9.285  70.453  1.00  0.00    -0.250 A  
HETATM   10  C   UNL     1      -8.981   8.710  71.669  1.00  0.00    -0.305 A  
HETATM   11  C   UNL     1     -10.298   8.801  72.103  1.00  0.00    -0.378 A  
HETATM   12  C   UNL     1     -11.243   9.450  71.313  1.00  0.00    -0.437 A  
HETATM   13  C   UNL     1     -10.872  10.039  70.090  1.00  0.00    -0.365 A  
HETATM   14  C   UNL     1     -11.898  10.763  69.265  1.00  0.00    -0.359 C  
HETATM   15  C   UNL     1     -11.636  12.259  69.247  1.00  0.00    -0.383 C  
HETATM   16  C   UNL     1     -10.390  12.768  68.551  1.00  0.00    -0.231 A  
HETATM   17  C   UNL     1     -10.398  14.155  68.272  1.00  0.00    -0.245 A  
HETATM   18  C   UNL     1      -9.313  14.791  67.678  1.00  0.00    -0.195 A  
HETATM   19  C   UNL     1      -8.188  14.051  67.355  1.00  0.00    -0.203 A  
HETATM   20  C   UNL     1      -8.166  12.679  67.611  1.00  0.00    -0.174 A  
HETATM   21  C   UNL     1      -9.258  12.001  68.203  1.00  0.00    -0.195 A  
ENDBRANCH   6   7
ENDBRANCH   5   6
ENDBRANCH   4   5
ENDBRANCH   2   4
TORSDOF 4
ENDMDL
MODEL       71
REMARK 921   NORMALIZED FREE ENERGY PREDICTED BY IDOCK:   -4.37 KCAL/MOL
REMARK 922        TOTAL FREE ENERGY PREDICTED BY IDOCK:   -6.04 KCAL/MOL
REMARK 923 INTER-LIGAND FREE ENERGY PREDICTED BY IDOCK:   -5.36 KCAL/MOL
REMARK 924 INTRA-LIGAND FREE ENERGY PREDICTED BY IDOCK:   -0.67 KCAL/MOL
REMARK 927      BINDING AFFINITY PREDICTED BY RF-SCORE:    0.00 PKD
ROOT
HETATM    1  C   UNL     1      -6.329  14.379  70.091  1.00  0.00    -0.158 C  
HETATM    2  N   UNL     1      -7.562  14.018  69.411  1.00  0.00    -0.339 NA 
HETATM    3  H   UNL     1      -8.319  14.653  69.664  1.00  0.00     0.000 HD 
ENDROOT
BRANCH   2   4
HETATM    4  C   UNL     1      -7.400  13.943  67.956  1.00  0.00    -0.141 C  
BRANCH   4   5
HETATM    5  C   UNL     1      -7.929  12.584  67.496  1.00  0.00    -0.175 C  
BRANCH   5   6
HETATM    6  C   UNL     1      -8.915  11.936  68.476  1.00  0.00    -0.115 C  
BRANCH   6   7
HETATM    7  N   UNL     1     -10.070  11.339  67.757  1.00  0.00    -0.177 NA 
HETATM    8  C   UNL     1     -10.038   9.934  67.648  1.00  0.00    -0.197 A  
HETATM    9  C   UNL     1     -10.343   9.155  68.775  1.00  0.00    -0.235 A  
HETATM   10  C   UNL     1     -10.433   7.765  68.694  1.00  0.00    -0.199 A  
HETATM   11  C   UNL     1     -10.205   7.128  67.480  1.00  0.00    -0.272 A  
HETATM   12  C   UNL     1      -9.874   7.881  66.356  1.00  0.00    -0.217 A  
HETATM   13  C   UNL     1      -9.792   9.283  66.431  1.00  0.00    -0.347 A  
HETATM   14  C   UNL     1      -9.463  10.082  65.202  1.00  0.00    -0.331 C  
HETATM   15  C   UNL     1     -10.662  10.890  64.733  1.00  0.00    -0.248 C  
HETATM   16  C   UNL     1     -11.159  12.022  65.608  1.00  0.00    -0.361 A  
HETATM   17  C   UNL     1     -12.027  12.931  64.957  1.00  0.00    -0.445 A  
HETATM   18  C   UNL     1     -12.609  14.001  65.629  1.00  0.00    -0.542 A  
HETATM   19  C   UNL     1     -12.340  14.182  66.975  1.00  0.00    -0.253 A  
HETATM   20  C   UNL     1     -11.477  13.303  67.632  1.00  0.00    -0.360 A  
HETATM   21  C   UNL     1     -10.860  12.213  66.974  1.00  0.00    -0.247 A  
ENDBRANCH   6   7
ENDBRANCH   5   6
ENDBRANCH   4   5
ENDBRANCH   2   4
TORSDOF 4
ENDMDL
MODEL       72
REMARK 921   NORMALIZED FREE ENERGY PREDICTED BY IDOCK:   -4.34 KCAL/MOL
REMARK 922        TOTAL FREE ENERGY PREDICTED BY IDOCK:   -6.00 KCAL/MOL
REMARK 923 INTER-LIGAND FREE ENERGY PREDICTED BY IDOCK:   -5.74 KCAL/MOL
REMARK 924 INTRA-LIGAND FREE ENERGY PREDICTED BY IDOCK:   -0.26 KCAL/MOL
REMARK 927      BINDING AFFINITY PREDICTED BY RF-SCORE:    0.00 PKD
ROOT
HETATM    1  C   UNL     1     -10.399  12.317  63.541  1.00  0.00    -0.410 C  
HETATM    2  N   UNL     1     -10.918  13.058  64.678  1.00  0.00    -0.323 NA 
HETATM    3  H   UNL     1     -10.160  13.397  65.271  1.00  0.00     0.000 HD 
ENDROOT
BRANCH   2   4
HETATM    4  C   UNL     1     -11.804  14.155  64.276  1.00  0.00    -0.397 C  
BRANCH   4   5
HETATM    5  C   UNL     1     -11.099  15.472  64.607  1.00  0.00    -0.373 C  
BRANCH   5   6
HETATM    6  C   UNL     1     -10.054  15.354  65.724  1.00  0.00    -0.363 C  
BRANCH   6   7
HETATM    7  N   UNL     1     -10.377  16.260  66.856  1.00  0.00    -0.296 NA 
HETATM    8  C   UNL     1      -9.942  17.590  66.693  1.00  0.00    -0.314 A  
HETATM    9  C   UNL     1     -10.646  18.436  65.821  1.00  0.00    -0.236 A  
HETATM   10  C   UNL     1     -10.324  19.790  65.706  1.00  0.00    -0.522 A  
HETATM   11  C   UNL     1      -9.281  20.317  66.456  1.00  0.00    -0.392 A  
HETATM   12  C   UNL     1      -8.552  19.489  67.306  1.00  0.00    -0.341 A  
HETATM   13  C   UNL     1      -8.879  18.127  67.432  1.00  0.00    -0.256 A  
HETATM   14  C   UNL     1      -8.102  17.254  68.378  1.00  0.00    -0.259 C  
HETATM   15  C   UNL     1      -8.952  16.834  69.565  1.00  0.00     0.342 C  
HETATM   16  C   UNL     1     -10.128  15.910  69.323  1.00  0.00    -0.249 A  
HETATM   17  C   UNL     1     -10.641  15.294  70.489  1.00  0.00    -0.190 A  
HETATM   18  C   UNL     1     -11.747  14.452  70.450  1.00  0.00    -0.346 A  
HETATM   19  C   UNL     1     -12.373  14.213  69.238  1.00  0.00    -0.206 A  
HETATM   20  C   UNL     1     -11.875  14.802  68.075  1.00  0.00    -0.324 A  
HETATM   21  C   UNL     1     -10.744  15.653  68.080  1.00  0.00    -0.287 A  
ENDBRANCH   6   7
ENDBRANCH   5   6
ENDBRANCH   4   5
ENDBRANCH   2   4
TORSDOF 4
ENDMDL
MODEL       73
REMARK 921   NORMALIZED FREE ENERGY PREDICTED BY IDOCK:   -4.31 KCAL/MOL
REMARK 922        TOTAL FREE ENERGY PREDICTED BY IDOCK:   -5.97 KCAL/MOL
REMARK 923 INTER-LIGAND FREE ENERGY PREDICTED BY IDOCK:   -5.47 KCAL/MOL
REMARK 924 INTRA-LIGAND FREE ENERGY PREDICTED BY IDOCK:   -0.50 KCAL/MOL
REMARK 927      BINDING AFFINITY PREDICTED BY RF-SCORE:    0.00 PKD
ROOT
HETATM    1  C   UNL     1     -10.082   4.604  66.218  1.00  0.00    -0.265 C  
HETATM    2  N   UNL     1     -10.962   5.732  66.477  1.00  0.00    -0.716 NA 
HETATM    3  H   UNL     1     -11.910   5.417  66.682  1.00  0.00     0.000 HD 
ENDROOT
BRANCH   2   4
HETATM    4  C   UNL     1     -10.456   6.608  67.539  1.00  0.00    -0.239 C  
BRANCH   4   5
HETATM    5  C   UNL     1     -11.470   6.590  68.683  1.00  0.00    -0.045 C  
BRANCH   5   6
HETATM    6  C   UNL     1     -10.936   5.965  69.978  1.00  0.00    -0.360 C  
BRANCH   6   7
HETATM    7  N   UNL     1     -10.453   7.011  70.916  1.00  0.00    -0.213 NA 
HETATM    8  C   UNL     1     -11.329   8.101  71.092  1.00  0.00    -0.269 A  
HETATM    9  C   UNL     1     -12.479   7.931  71.880  1.00  0.00    -0.352 A  
HETATM   10  C   UNL     1     -13.321   9.004  72.174  1.00  0.00    -0.510 A  
HETATM   11  C   UNL     1     -13.032  10.267  71.672  1.00  0.00    -0.570 A  
HETATM   12  C   UNL     1     -11.911  10.451  70.866  1.00  0.00    -0.475 A  
HETATM   13  C   UNL     1     -11.054   9.374  70.575  1.00  0.00    -0.330 A  
HETATM   14  C   UNL     1      -9.832   9.596  69.729  1.00  0.00    -0.253 C  
HETATM   15  C   UNL     1      -8.561   9.457  70.549  1.00  0.00    -0.265 C  
HETATM   16  C   UNL     1      -8.203   8.094  71.105  1.00  0.00    -0.123 A  
HETATM   17  C   UNL     1      -6.862   7.971  71.540  1.00  0.00    -0.055 A  
HETATM   18  C   UNL     1      -6.382   6.800  72.119  1.00  0.00    -0.049 A  
HETATM   19  C   UNL     1      -7.239   5.725  72.281  1.00  0.00    -0.089 A  
HETATM   20  C   UNL     1      -8.561   5.823  71.846  1.00  0.00    -0.134 A  
HETATM   21  C   UNL     1      -9.076   6.995  71.243  1.00  0.00    -0.152 A  
ENDBRANCH   6   7
ENDBRANCH   5   6
ENDBRANCH   4   5
ENDBRANCH   2   4
TORSDOF 4
ENDMDL
MODEL       74
REMARK 921   NORMALIZED FREE ENERGY PREDICTED BY IDOCK:   -4.29 KCAL/MOL
REMARK 922        TOTAL FREE ENERGY PREDICTED BY IDOCK:   -5.94 KCAL/MOL
REMARK 923 INTER-LIGAND FREE ENERGY PREDICTED BY IDOCK:   -5.14 KCAL/MOL
REMARK 924 INTRA-LIGAND FREE ENERGY PREDICTED BY IDOCK:   -0.80 KCAL/MOL
REMARK 927      BINDING AFFINITY PREDICTED BY RF-SCORE:    0.00 PKD
ROOT
HETATM    1  C   UNL     1     -12.030  15.344  69.662  1.00  0.00    -0.343 C  
HETATM    2  N   UNL     1     -11.634  14.200  70.467  1.00  0.00    -0.494 NA 
HETATM    3  H   UNL     1     -11.684  14.418  71.463  1.00  0.00     0.000 HD 
ENDROOT
BRANCH   2   4
HETATM    4  C   UNL     1     -12.408  12.995  70.151  1.00  0.00    -0.200 C  
BRANCH   4   5
HETATM    5  C   UNL     1     -11.419  11.876  69.823  1.00  0.00    -0.303 C  
BRANCH   5   6
HETATM    6  C   UNL     1     -11.772  11.085  68.558  1.00  0.00    -0.278 C  
BRANCH   6   7
HETATM    7  N   UNL     1     -10.779  11.329  67.480  1.00  0.00    -0.217 NA 
HETATM    8  C   UNL     1      -9.852  10.286  67.281  1.00  0.00    -0.182 A  
HETATM    9  C   UNL     1     -10.270   9.117  66.625  1.00  0.00    -0.328 A  
HETATM   10  C   UNL     1      -9.367   8.101  66.307  1.00  0.00    -0.259 A  
HETATM   11  C   UNL     1      -8.028   8.235  66.652  1.00  0.00    -0.098 A  
HETATM   12  C   UNL     1      -7.598   9.374  67.328  1.00  0.00    -0.091 A  
HETATM   13  C   UNL     1      -8.503  10.404  67.642  1.00  0.00    -0.114 A  
HETATM   14  C   UNL     1      -8.016  11.641  68.344  1.00  0.00    -0.140 C  
HETATM   15  C   UNL     1      -8.062  12.851  67.426  1.00  0.00    -0.181 C  
HETATM   16  C   UNL     1      -9.413  13.366  66.976  1.00  0.00    -0.247 A  
HETATM   17  C   UNL     1      -9.392  14.673  66.431  1.00  0.00    -0.313 A  
HETATM   18  C   UNL     1     -10.539  15.278  65.928  1.00  0.00    -0.345 A  
HETATM   19  C   UNL     1     -11.737  14.584  65.953  1.00  0.00    -0.345 A  
HETATM   20  C   UNL     1     -11.781  13.300  66.499  1.00  0.00    -0.423 A  
HETATM   21  C   UNL     1     -10.635  12.662  67.029  1.00  0.00    -0.240 A  
ENDBRANCH   6   7
ENDBRANCH   5   6
ENDBRANCH   4   5
ENDBRANCH   2   4
TORSDOF 4
ENDMDL
MODEL       75
REMARK 921   NORMALIZED FREE ENERGY PREDICTED BY IDOCK:   -4.29 KCAL/MOL
REMARK 922        TOTAL FREE ENERGY PREDICTED BY IDOCK:   -5.94 KCAL/MOL
REMARK 923 INTER-LIGAND FREE ENERGY PREDICTED BY IDOCK:   -5.40 KCAL/MOL
REMARK 924 INTRA-LIGAND FREE ENERGY PREDICTED BY IDOCK:   -0.54 KCAL/MOL
REMARK 927      BINDING AFFINITY PREDICTED BY RF-SCORE:    0.00 PKD
ROOT
HETATM    1  C   UNL     1     -10.727   5.528  69.087  1.00  0.00    -0.190 C  
HETATM    2  N   UNL     1     -11.430   6.683  68.551  1.00  0.00    -0.559 NA 
HETATM    3  H   UNL     1     -11.388   7.470  69.199  1.00  0.00     0.000 HD 
ENDROOT
BRANCH   2   4
HETATM    4  C   UNL     1     -10.947   7.067  67.221  1.00  0.00    -0.302 C  
BRANCH   4   5
HETATM    5  C   UNL     1     -10.400   8.492  67.316  1.00  0.00    -0.372 C  
BRANCH   5   6
HETATM    6  C   UNL     1      -9.237   8.647  68.304  1.00  0.00    -0.137 C  
BRANCH   6   7
HETATM    7  N   UNL     1      -9.375   9.894  69.101  1.00  0.00    -0.181 NA 
HETATM    8  C   UNL     1     -10.539   9.964  69.893  1.00  0.00    -0.273 A  
HETATM    9  C   UNL     1     -10.607   9.207  71.073  1.00  0.00    -0.362 A  
HETATM   10  C   UNL     1     -11.688   9.323  71.948  1.00  0.00    -0.420 A  
HETATM   11  C   UNL     1     -12.728  10.194  71.648  1.00  0.00    -0.549 A  
HETATM   12  C   UNL     1     -12.693  10.934  70.468  1.00  0.00    -0.363 A  
HETATM   13  C   UNL     1     -11.601  10.826  69.589  1.00  0.00    -0.388 A  
HETATM   14  C   UNL     1     -11.564  11.655  68.335  1.00  0.00    -0.376 C  
HETATM   15  C   UNL     1     -10.484  12.721  68.411  1.00  0.00    -0.253 C  
HETATM   16  C   UNL     1      -9.034  12.282  68.431  1.00  0.00    -0.141 A  
HETATM   17  C   UNL     1      -8.104  13.311  68.147  1.00  0.00    -0.159 A  
HETATM   18  C   UNL     1      -6.732  13.089  68.170  1.00  0.00    -0.103 A  
HETATM   19  C   UNL     1      -6.256  11.827  68.486  1.00  0.00    -0.051 A  
HETATM   20  C   UNL     1      -7.157  10.796  68.756  1.00  0.00    -0.079 A  
HETATM   21  C   UNL     1      -8.559  10.988  68.729  1.00  0.00    -0.144 A  
ENDBRANCH   6   7
ENDBRANCH   5   6
ENDBRANCH   4   5
ENDBRANCH   2   4
TORSDOF 4
ENDMDL
MODEL       76
REMARK 921   NORMALIZED FREE ENERGY PREDICTED BY IDOCK:   -4.29 KCAL/MOL
REMARK 922        TOTAL FREE ENERGY PREDICTED BY IDOCK:   -5.94 KCAL/MOL
REMARK 923 INTER-LIGAND FREE ENERGY PREDICTED BY IDOCK:   -5.67 KCAL/MOL
REMARK 924 INTRA-LIGAND FREE ENERGY PREDICTED BY IDOCK:   -0.26 KCAL/MOL
REMARK 927      BINDING AFFINITY PREDICTED BY RF-SCORE:    0.00 PKD
ROOT
HETATM    1  C   UNL     1      -8.966   7.359  73.690  1.00  0.00    -0.215 C  
HETATM    2  N   UNL     1      -8.576   6.818  72.399  1.00  0.00    -0.123 NA 
HETATM    3  H   UNL     1      -9.394   6.582  71.838  1.00  0.00     0.000 HD 
ENDROOT
BRANCH   2   4
HETATM    4  C   UNL     1      -7.672   7.710  71.666  1.00  0.00    -0.086 C  
BRANCH   4   5
HETATM    5  C   UNL     1      -8.312   8.014  70.310  1.00  0.00    -0.125 C  
BRANCH   5   6
HETATM    6  C   UNL     1      -8.613   9.501  70.085  1.00  0.00    -0.224 C  
BRANCH   6   7
HETATM    7  N   UNL     1      -9.946   9.687  69.454  1.00  0.00    -0.185 NA 
HETATM    8  C   UNL     1      -9.913   9.973  68.075  1.00  0.00    -0.150 A  
HETATM    9  C   UNL     1      -9.634   8.937  67.169  1.00  0.00    -0.225 A  
HETATM   10  C   UNL     1      -9.696   9.143  65.790  1.00  0.00    -0.299 A  
HETATM   11  C   UNL     1     -10.029  10.397  65.293  1.00  0.00    -0.376 A  
HETATM   12  C   UNL     1     -10.284  11.445  66.175  1.00  0.00    -0.282 A  
HETATM   13  C   UNL     1     -10.231  11.240  67.565  1.00  0.00    -0.217 A  
HETATM   14  C   UNL     1     -10.538  12.374  68.502  1.00  0.00    -0.251 C  
HETATM   15  C   UNL     1     -11.848  12.143  69.236  1.00  0.00    -0.370 C  
HETATM   16  C   UNL     1     -11.929  11.003  70.231  1.00  0.00    -0.452 A  
HETATM   17  C   UNL     1     -13.034  11.071  71.113  1.00  0.00    -0.421 A  
HETATM   18  C   UNL     1     -13.282  10.080  72.057  1.00  0.00    -0.545 A  
HETATM   19  C   UNL     1     -12.430   8.991  72.136  1.00  0.00    -0.450 A  
HETATM   20  C   UNL     1     -11.328   8.913  71.283  1.00  0.00    -0.371 A  
HETATM   21  C   UNL     1     -11.042   9.910  70.320  1.00  0.00    -0.308 A  
ENDBRANCH   6   7
ENDBRANCH   5   6
ENDBRANCH   4   5
ENDBRANCH   2   4
TORSDOF 4
ENDMDL
MODEL       77
REMARK 921   NORMALIZED FREE ENERGY PREDICTED BY IDOCK:   -4.28 KCAL/MOL
REMARK 922        TOTAL FREE ENERGY PREDICTED BY IDOCK:   -5.93 KCAL/MOL
REMARK 923 INTER-LIGAND FREE ENERGY PREDICTED BY IDOCK:   -5.39 KCAL/MOL
REMARK 924 INTRA-LIGAND FREE ENERGY PREDICTED BY IDOCK:   -0.55 KCAL/MOL
REMARK 927      BINDING AFFINITY PREDICTED BY RF-SCORE:    0.00 PKD
ROOT
HETATM    1  C   UNL     1      -8.804   7.884  66.140  1.00  0.00    -0.166 C  
HETATM    2  N   UNL     1      -9.433   6.658  66.604  1.00  0.00    -0.161 NA 
HETATM    3  H   UNL     1      -8.741   6.010  66.979  1.00  0.00     0.000 HD 
ENDROOT
BRANCH   2   4
HETATM    4  C   UNL     1     -10.503   6.909  67.576  1.00  0.00    -0.247 C  
BRANCH   4   5
HETATM    5  C   UNL     1      -9.955   6.592  68.968  1.00  0.00    -0.161 C  
BRANCH   5   6
HETATM    6  C   UNL     1     -10.856   5.665  69.795  1.00  0.00    -0.300 C  
BRANCH   6   7
HETATM    7  N   UNL     1     -10.977   6.148  71.195  1.00  0.00    -0.273 NA 
HETATM    8  C   UNL     1     -11.863   7.229  71.374  1.00  0.00    -0.305 A  
HETATM    9  C   UNL     1     -13.246   6.990  71.342  1.00  0.00    -0.352 A  
HETATM   10  C   UNL     1     -14.164   8.004  71.621  1.00  0.00    -0.549 A  
HETATM   11  C   UNL     1     -13.710   9.281  71.927  1.00  0.00    -0.464 A  
HETATM   12  C   UNL     1     -12.343   9.545  71.938  1.00  0.00    -0.450 A  
HETATM   13  C   UNL     1     -11.414   8.525  71.666  1.00  0.00    -0.365 A  
HETATM   14  C   UNL     1      -9.941   8.820  71.712  1.00  0.00    -0.396 C  
HETATM   15  C   UNL     1      -9.277   8.130  72.892  1.00  0.00    -0.343 C  
HETATM   16  C   UNL     1      -9.202   6.617  72.898  1.00  0.00    -0.147 A  
HETATM   17  C   UNL     1      -8.280   6.078  73.826  1.00  0.00    -0.108 A  
HETATM   18  C   UNL     1      -8.120   4.707  73.992  1.00  0.00    -0.101 A  
HETATM   19  C   UNL     1      -8.889   3.839  73.234  1.00  0.00    -0.091 A  
HETATM   20  C   UNL     1      -9.795   4.352  72.304  1.00  0.00    -0.231 A  
HETATM   21  C   UNL     1      -9.972   5.742  72.104  1.00  0.00    -0.176 A  
ENDBRANCH   6   7
ENDBRANCH   5   6
ENDBRANCH   4   5
ENDBRANCH   2   4
TORSDOF 4
ENDMDL
MODEL       78
REMARK 921   NORMALIZED FREE ENERGY PREDICTED BY IDOCK:   -4.28 KCAL/MOL
REMARK 922        TOTAL FREE ENERGY PREDICTED BY IDOCK:   -5.93 KCAL/MOL
REMARK 923 INTER-LIGAND FREE ENERGY PREDICTED BY IDOCK:   -5.81 KCAL/MOL
REMARK 924 INTRA-LIGAND FREE ENERGY PREDICTED BY IDOCK:   -0.11 KCAL/MOL
REMARK 927      BINDING AFFINITY PREDICTED BY RF-SCORE:    0.00 PKD
ROOT
HETATM    1  C   UNL     1     -11.864   8.640  71.955  1.00  0.00    -0.372 C  
HETATM    2  N   UNL     1     -12.191   9.117  70.622  1.00  0.00    -0.486 NA 
HETATM    3  H   UNL     1     -13.082   8.735  70.304  1.00  0.00     0.000 HD 
ENDROOT
BRANCH   2   4
HETATM    4  C   UNL     1     -12.182  10.581  70.531  1.00  0.00    -0.344 C  
BRANCH   4   5
HETATM    5  C   UNL     1     -11.539  10.963  69.197  1.00  0.00    -0.389 C  
BRANCH   5   6
HETATM    6  C   UNL     1     -11.490  12.475  68.941  1.00  0.00    -0.307 C  
BRANCH   6   7
HETATM    7  N   UNL     1     -10.528  12.803  67.858  1.00  0.00    -0.215 NA 
HETATM    8  C   UNL     1      -9.183  12.904  68.270  1.00  0.00    -0.187 A  
HETATM    9  C   UNL     1      -8.465  11.729  68.547  1.00  0.00    -0.125 A  
HETATM   10  C   UNL     1      -7.104  11.767  68.852  1.00  0.00    -0.114 A  
HETATM   11  C   UNL     1      -6.440  12.986  68.898  1.00  0.00    -0.094 A  
HETATM   12  C   UNL     1      -7.140  14.165  68.653  1.00  0.00    -0.110 A  
HETATM   13  C   UNL     1      -8.510  14.131  68.336  1.00  0.00    -0.170 A  
HETATM   14  C   UNL     1      -9.244  15.410  68.044  1.00  0.00    -0.184 C  
HETATM   15  C   UNL     1      -9.636  15.498  66.578  1.00  0.00    -0.295 C  
HETATM   16  C   UNL     1     -10.665  14.524  66.044  1.00  0.00    -0.306 A  
HETATM   17  C   UNL     1     -11.228  14.888  64.798  1.00  0.00    -0.393 A  
HETATM   18  C   UNL     1     -12.154  14.081  64.146  1.00  0.00    -0.456 A  
HETATM   19  C   UNL     1     -12.534  12.882  64.725  1.00  0.00    -0.517 A  
HETATM   20  C   UNL     1     -11.999  12.511  65.960  1.00  0.00    -0.456 A  
HETATM   21  C   UNL     1     -11.065  13.316  66.654  1.00  0.00    -0.291 A  
ENDBRANCH   6   7
ENDBRANCH   5   6
ENDBRANCH   4   5
ENDBRANCH   2   4
TORSDOF 4
ENDMDL
MODEL       79
REMARK 921   NORMALIZED FREE ENERGY PREDICTED BY IDOCK:   -4.27 KCAL/MOL
REMARK 922        TOTAL FREE ENERGY PREDICTED BY IDOCK:   -5.91 KCAL/MOL
REMARK 923 INTER-LIGAND FREE ENERGY PREDICTED BY IDOCK:   -5.76 KCAL/MOL
REMARK 924 INTRA-LIGAND FREE ENERGY PREDICTED BY IDOCK:   -0.16 KCAL/MOL
REMARK 927      BINDING AFFINITY PREDICTED BY RF-SCORE:    0.00 PKD
ROOT
HETATM    1  C   UNL     1      -7.597  19.628  66.073  1.00  0.00    -0.321 C  
HETATM    2  N   UNL     1      -8.697  18.683  65.972  1.00  0.00    -0.488 NA 
HETATM    3  H   UNL     1      -9.210  18.810  65.099  1.00  0.00     0.000 HD 
ENDROOT
BRANCH   2   4
HETATM    4  C   UNL     1      -8.260  17.292  66.130  1.00  0.00    -0.223 C  
BRANCH   4   5
HETATM    5  C   UNL     1      -8.787  16.785  67.473  1.00  0.00    -0.205 C  
BRANCH   5   6
HETATM    6  C   UNL     1     -10.071  15.953  67.362  1.00  0.00    -0.252 C  
BRANCH   6   7
HETATM    7  N   UNL     1     -10.035  14.789  68.284  1.00  0.00    -0.217 NA 
HETATM    8  C   UNL     1      -9.365  13.655  67.781  1.00  0.00    -0.218 A  
HETATM    9  C   UNL     1      -7.962  13.656  67.733  1.00  0.00    -0.172 A  
HETATM   10  C   UNL     1      -7.248  12.521  67.346  1.00  0.00    -0.146 A  
HETATM   11  C   UNL     1      -7.931  11.366  66.987  1.00  0.00    -0.158 A  
HETATM   12  C   UNL     1      -9.323  11.352  67.001  1.00  0.00    -0.183 A  
HETATM   13  C   UNL     1     -10.046  12.491  67.399  1.00  0.00    -0.211 A  
HETATM   14  C   UNL     1     -11.548  12.450  67.438  1.00  0.00    -0.433 C  
HETATM   15  C   UNL     1     -12.065  12.500  68.866  1.00  0.00    -0.167 C  
HETATM   16  C   UNL     1     -11.855  13.768  69.668  1.00  0.00    -0.393 A  
HETATM   17  C   UNL     1     -12.656  13.867  70.831  1.00  0.00    -0.431 A  
HETATM   18  C   UNL     1     -12.555  14.946  71.703  1.00  0.00    -0.396 A  
HETATM   19  C   UNL     1     -11.641  15.952  71.432  1.00  0.00    -0.529 A  
HETATM   20  C   UNL     1     -10.853  15.878  70.283  1.00  0.00    -0.349 A  
HETATM   21  C   UNL     1     -10.940  14.800  69.371  1.00  0.00    -0.265 A  
ENDBRANCH   6   7
ENDBRANCH   5   6
ENDBRANCH   4   5
ENDBRANCH   2   4
TORSDOF 4
ENDMDL
MODEL       80
REMARK 921   NORMALIZED FREE ENERGY PREDICTED BY IDOCK:   -4.26 KCAL/MOL
REMARK 922        TOTAL FREE ENERGY PREDICTED BY IDOCK:   -5.90 KCAL/MOL
REMARK 923 INTER-LIGAND FREE ENERGY PREDICTED BY IDOCK:   -5.32 KCAL/MOL
REMARK 924 INTRA-LIGAND FREE ENERGY PREDICTED BY IDOCK:   -0.58 KCAL/MOL
REMARK 927      BINDING AFFINITY PREDICTED BY RF-SCORE:    0.00 PKD
ROOT
HETATM    1  C   UNL     1     -10.899   8.104  70.335  1.00  0.00    -0.236 C  
HETATM    2  N   UNL     1     -11.272   9.166  69.416  1.00  0.00    -0.441 NA 
HETATM    3  H   UNL     1     -12.231   9.047  69.089  1.00  0.00     0.000 HD 
ENDROOT
BRANCH   2   4
HETATM    4  C   UNL     1     -11.071  10.501  69.988  1.00  0.00    -0.308 C  
BRANCH   4   5
HETATM    5  C   UNL     1     -10.881  11.482  68.831  1.00  0.00    -0.263 C  
BRANCH   5   6
HETATM    6  C   UNL     1     -10.672  10.806  67.470  1.00  0.00    -0.264 C  
BRANCH   6   7
HETATM    7  N   UNL     1      -9.856  11.659  66.569  1.00  0.00    -0.200 NA 
HETATM    8  C   UNL     1      -8.465  11.598  66.792  1.00  0.00    -0.177 A  
HETATM    9  C   UNL     1      -7.755  10.467  66.358  1.00  0.00    -0.135 A  
HETATM   10  C   UNL     1      -6.364  10.403  66.456  1.00  0.00    -0.083 A  
HETATM   11  C   UNL     1      -5.660  11.469  67.004  1.00  0.00    -0.117 A  
HETATM   12  C   UNL     1      -6.349  12.588  67.466  1.00  0.00    -0.154 A  
HETATM   13  C   UNL     1      -7.750  12.660  67.360  1.00  0.00    -0.161 A  
HETATM   14  C   UNL     1      -8.475  13.888  67.835  1.00  0.00    -0.177 C  
HETATM   15  C   UNL     1      -9.060  14.669  66.670  1.00  0.00    -0.285 C  
HETATM   16  C   UNL     1     -10.183  14.042  65.870  1.00  0.00    -0.332 A  
HETATM   17  C   UNL     1     -10.899  14.948  65.052  1.00  0.00    -0.439 A  
HETATM   18  C   UNL     1     -11.931  14.529  64.219  1.00  0.00    -0.419 A  
HETATM   19  C   UNL     1     -12.267  13.186  64.181  1.00  0.00    -0.465 A  
HETATM   20  C   UNL     1     -11.581  12.279  64.990  1.00  0.00    -0.394 A  
HETATM   21  C   UNL     1     -10.535  12.676  65.857  1.00  0.00    -0.274 A  
ENDBRANCH   6   7
ENDBRANCH   5   6
ENDBRANCH   4   5
ENDBRANCH   2   4
TORSDOF 4
ENDMDL
MODEL       81
REMARK 921   NORMALIZED FREE ENERGY PREDICTED BY IDOCK:   -4.25 KCAL/MOL
REMARK 922        TOTAL FREE ENERGY PREDICTED BY IDOCK:   -5.88 KCAL/MOL
REMARK 923 INTER-LIGAND FREE ENERGY PREDICTED BY IDOCK:   -5.64 KCAL/MOL
REMARK 924 INTRA-LIGAND FREE ENERGY PREDICTED BY IDOCK:   -0.24 KCAL/MOL
REMARK 927      BINDING AFFINITY PREDICTED BY RF-SCORE:    0.00 PKD
ROOT
HETATM    1  C   UNL     1     -12.404  14.610  64.423  1.00  0.00    -0.398 C  
HETATM    2  N   UNL     1     -12.227  13.664  63.334  1.00  0.00    -1.020 NA 
HETATM    3  H   UNL     1     -11.414  13.905  62.767  1.00  0.00     0.000 HD 
ENDROOT
BRANCH   2   4
HETATM    4  C   UNL     1     -12.150  12.276  63.803  1.00  0.00    -0.532 C  
BRANCH   4   5
HETATM    5  C   UNL     1     -11.664  12.298  65.253  1.00  0.00    -0.413 C  
BRANCH   5   6
HETATM    6  C   UNL     1     -10.137  12.301  65.396  1.00  0.00    -0.269 C  
BRANCH   6   7
HETATM    7  N   UNL     1      -9.713  11.572  66.619  1.00  0.00    -0.195 NA 
HETATM    8  C   UNL     1      -8.802  10.519  66.396  1.00  0.00    -0.153 A  
HETATM    9  C   UNL     1      -7.460  10.825  66.119  1.00  0.00    -0.129 A  
HETATM   10  C   UNL     1      -6.497   9.822  65.998  1.00  0.00    -0.080 A  
HETATM   11  C   UNL     1      -6.866   8.491  66.141  1.00  0.00    -0.072 A  
HETATM   12  C   UNL     1      -8.197   8.164  66.388  1.00  0.00    -0.108 A  
HETATM   13  C   UNL     1      -9.169   9.172  66.520  1.00  0.00    -0.221 A  
HETATM   14  C   UNL     1     -10.595   8.804  66.818  1.00  0.00    -0.220 C  
HETATM   15  C   UNL     1     -10.993   9.228  68.222  1.00  0.00    -0.047 C  
HETATM   16  C   UNL     1     -11.075  10.708  68.535  1.00  0.00    -0.318 A  
HETATM   17  C   UNL     1     -11.778  11.019  69.723  1.00  0.00    -0.410 A  
HETATM   18  C   UNL     1     -11.907  12.326  70.179  1.00  0.00    -0.352 A  
HETATM   19  C   UNL     1     -11.325  13.356  69.458  1.00  0.00    -0.248 A  
HETATM   20  C   UNL     1     -10.638  13.070  68.277  1.00  0.00    -0.260 A  
HETATM   21  C   UNL     1     -10.500  11.752  67.780  1.00  0.00    -0.194 A  
ENDBRANCH   6   7
ENDBRANCH   5   6
ENDBRANCH   4   5
ENDBRANCH   2   4
TORSDOF 4
ENDMDL
MODEL       82
REMARK 921   NORMALIZED FREE ENERGY PREDICTED BY IDOCK:   -4.22 KCAL/MOL
REMARK 922        TOTAL FREE ENERGY PREDICTED BY IDOCK:   -5.86 KCAL/MOL
REMARK 923 INTER-LIGAND FREE ENERGY PREDICTED BY IDOCK:   -5.26 KCAL/MOL
REMARK 924 INTRA-LIGAND FREE ENERGY PREDICTED BY IDOCK:   -0.60 KCAL/MOL
REMARK 927      BINDING AFFINITY PREDICTED BY RF-SCORE:    0.00 PKD
ROOT
HETATM    1  C   UNL     1     -13.813   7.839  71.913  1.00  0.00    -0.297 C  
HETATM    2  N   UNL     1     -13.792   9.021  71.068  1.00  0.00    -0.574 NA 
HETATM    3  H   UNL     1     -14.728   9.414  70.964  1.00  0.00     0.000 HD 
ENDROOT
BRANCH   2   4
HETATM    4  C   UNL     1     -12.845  10.035  71.543  1.00  0.00    -0.432 C  
BRANCH   4   5
HETATM    5  C   UNL     1     -11.780  10.224  70.462  1.00  0.00    -0.418 C  
BRANCH   5   6
HETATM    6  C   UNL     1     -10.418   9.616  70.818  1.00  0.00    -0.305 C  
BRANCH   6   7
HETATM    7  N   UNL     1      -9.665   9.237  69.594  1.00  0.00    -0.174 NA 
HETATM    8  C   UNL     1      -8.854  10.257  69.058  1.00  0.00    -0.168 A  
HETATM    9  C   UNL     1      -7.645  10.575  69.698  1.00  0.00    -0.134 A  
HETATM   10  C   UNL     1      -6.755  11.500  69.149  1.00  0.00    -0.108 A  
HETATM   11  C   UNL     1      -7.067  12.132  67.952  1.00  0.00    -0.101 A  
HETATM   12  C   UNL     1      -8.274  11.852  67.316  1.00  0.00    -0.170 A  
HETATM   13  C   UNL     1      -9.170  10.914  67.861  1.00  0.00    -0.152 A  
HETATM   14  C   UNL     1     -10.453  10.600  67.145  1.00  0.00    -0.295 C  
HETATM   15  C   UNL     1     -10.438   9.190  66.578  1.00  0.00    -0.197 C  
HETATM   16  C   UNL     1     -10.428   8.022  67.542  1.00  0.00    -0.331 A  
HETATM   17  C   UNL     1     -10.768   6.777  66.961  1.00  0.00    -0.435 A  
HETATM   18  C   UNL     1     -10.762   5.596  67.697  1.00  0.00    -0.260 A  
HETATM   19  C   UNL     1     -10.409   5.634  69.035  1.00  0.00    -0.314 A  
HETATM   20  C   UNL     1     -10.084   6.855  69.629  1.00  0.00    -0.195 A  
HETATM   21  C   UNL     1     -10.092   8.074  68.911  1.00  0.00    -0.201 A  
ENDBRANCH   6   7
ENDBRANCH   5   6
ENDBRANCH   4   5
ENDBRANCH   2   4
TORSDOF 4
ENDMDL
MODEL       83
REMARK 921   NORMALIZED FREE ENERGY PREDICTED BY IDOCK:   -4.21 KCAL/MOL
REMARK 922        TOTAL FREE ENERGY PREDICTED BY IDOCK:   -5.83 KCAL/MOL
REMARK 923 INTER-LIGAND FREE ENERGY PREDICTED BY IDOCK:   -5.19 KCAL/MOL
REMARK 924 INTRA-LIGAND FREE ENERGY PREDICTED BY IDOCK:   -0.65 KCAL/MOL
REMARK 927      BINDING AFFINITY PREDICTED BY RF-SCORE:    0.00 PKD
ROOT
HETATM    1  C   UNL     1     -14.084   8.659  72.145  1.00  0.00    -0.441 C  
HETATM    2  N   UNL     1     -13.651   9.312  70.921  1.00  0.00    -0.575 NA 
HETATM    3  H   UNL     1     -14.325  10.019  70.624  1.00  0.00     0.000 HD 
ENDROOT
BRANCH   2   4
HETATM    4  C   UNL     1     -12.304   9.882  71.034  1.00  0.00    -0.357 C  
BRANCH   4   5
HETATM    5  C   UNL     1     -11.423   8.859  71.752  1.00  0.00    -0.423 C  
BRANCH   5   6
HETATM    6  C   UNL     1      -9.922   9.042  71.493  1.00  0.00    -0.321 C  
BRANCH   6   7
HETATM    7  N   UNL     1      -9.382   7.926  70.673  1.00  0.00    -0.158 NA 
HETATM    8  C   UNL     1      -9.580   8.062  69.284  1.00  0.00    -0.157 A  
HETATM    9  C   UNL     1      -8.783   8.969  68.567  1.00  0.00    -0.133 A  
HETATM   10  C   UNL     1      -8.863   9.064  67.176  1.00  0.00    -0.130 A  
HETATM   11  C   UNL     1      -9.754   8.257  66.480  1.00  0.00    -0.323 A  
HETATM   12  C   UNL     1     -10.573   7.370  67.175  1.00  0.00    -0.413 A  
HETATM   13  C   UNL     1     -10.489   7.265  68.575  1.00  0.00    -0.215 A  
HETATM   14  C   UNL     1     -11.358   6.281  69.306  1.00  0.00    -0.411 C  
HETATM   15  C   UNL     1     -10.535   5.142  69.885  1.00  0.00    -0.296 C  
HETATM   16  C   UNL     1      -9.558   5.450  71.001  1.00  0.00    -0.224 A  
HETATM   17  C   UNL     1      -9.103   4.315  71.714  1.00  0.00    -0.166 A  
HETATM   18  C   UNL     1      -8.168   4.417  72.739  1.00  0.00    -0.098 A  
HETATM   19  C   UNL     1      -7.660   5.662  73.071  1.00  0.00    -0.100 A  
HETATM   20  C   UNL     1      -8.107   6.794  72.388  1.00  0.00    -0.102 A  
HETATM   21  C   UNL     1      -9.065   6.725  71.350  1.00  0.00    -0.142 A  
ENDBRANCH   6   7
ENDBRANCH   5   6
ENDBRANCH   4   5
ENDBRANCH   2   4
TORSDOF 4
ENDMDL
MODEL       84
REMARK 921   NORMALIZED FREE ENERGY PREDICTED BY IDOCK:   -4.19 KCAL/MOL
REMARK 922        TOTAL FREE ENERGY PREDICTED BY IDOCK:   -5.82 KCAL/MOL
REMARK 923 INTER-LIGAND FREE ENERGY PREDICTED BY IDOCK:   -5.73 KCAL/MOL
REMARK 924 INTRA-LIGAND FREE ENERGY PREDICTED BY IDOCK:   -0.08 KCAL/MOL
REMARK 927      BINDING AFFINITY PREDICTED BY RF-SCORE:    0.00 PKD
ROOT
HETATM    1  C   UNL     1      -8.569  13.274  67.592  1.00  0.00    -0.196 C  
HETATM    2  N   UNL     1      -7.806  13.033  68.805  1.00  0.00    -0.312 NA 
HETATM    3  H   UNL     1      -8.317  13.350  69.629  1.00  0.00     0.000 HD 
ENDROOT
BRANCH   2   4
HETATM    4  C   UNL     1      -7.399  11.631  68.943  1.00  0.00    -0.107 C  
BRANCH   4   5
HETATM    5  C   UNL     1      -8.619  10.757  68.648  1.00  0.00    -0.151 C  
BRANCH   5   6
HETATM    6  C   UNL     1      -8.909   9.709  69.730  1.00  0.00    -0.210 C  
BRANCH   6   7
HETATM    7  N   UNL     1     -10.233   9.069  69.513  1.00  0.00    -0.197 NA 
HETATM    8  C   UNL     1     -11.220   9.415  70.458  1.00  0.00    -0.275 A  
HETATM    9  C   UNL     1     -11.823  10.680  70.383  1.00  0.00    -0.441 A  
HETATM   10  C   UNL     1     -12.880  11.031  71.225  1.00  0.00    -0.528 A  
HETATM   11  C   UNL     1     -13.343  10.122  72.167  1.00  0.00    -0.431 A  
HETATM   12  C   UNL     1     -12.739   8.872  72.277  1.00  0.00    -0.464 A  
HETATM   13  C   UNL     1     -11.681   8.510  71.425  1.00  0.00    -0.346 A  
HETATM   14  C   UNL     1     -11.061   7.145  71.536  1.00  0.00    -0.267 C  
HETATM   15  C   UNL     1     -11.387   6.292  70.321  1.00  0.00    -0.457 C  
HETATM   16  C   UNL     1     -10.808   6.691  68.980  1.00  0.00    -0.324 A  
HETATM   17  C   UNL     1     -10.858   5.678  67.993  1.00  0.00    -0.164 A  
HETATM   18  C   UNL     1     -10.410   5.894  66.694  1.00  0.00    -0.283 A  
HETATM   19  C   UNL     1      -9.907   7.137  66.350  1.00  0.00    -0.116 A  
HETATM   20  C   UNL     1      -9.837   8.146  67.313  1.00  0.00    -0.259 A  
HETATM   21  C   UNL     1     -10.273   7.953  68.645  1.00  0.00    -0.205 A  
ENDBRANCH   6   7
ENDBRANCH   5   6
ENDBRANCH   4   5
ENDBRANCH   2   4
TORSDOF 4
ENDMDL
MODEL       85
REMARK 921   NORMALIZED FREE ENERGY PREDICTED BY IDOCK:   -4.19 KCAL/MOL
REMARK 922        TOTAL FREE ENERGY PREDICTED BY IDOCK:   -5.82 KCAL/MOL
REMARK 923 INTER-LIGAND FREE ENERGY PREDICTED BY IDOCK:   -5.13 KCAL/MOL
REMARK 924 INTRA-LIGAND FREE ENERGY PREDICTED BY IDOCK:   -0.68 KCAL/MOL
REMARK 927      BINDING AFFINITY PREDICTED BY RF-SCORE:    0.00 PKD
ROOT
HETATM    1  C   UNL     1      -8.892   6.978  73.870  1.00  0.00    -0.177 C  
HETATM    2  N   UNL     1      -7.987   6.700  72.767  1.00  0.00    -0.101 NA 
HETATM    3  H   UNL     1      -8.465   6.200  72.017  1.00  0.00     0.000 HD 
ENDROOT
BRANCH   2   4
HETATM    4  C   UNL     1      -7.330   7.909  72.261  1.00  0.00    -0.089 C  
BRANCH   4   5
HETATM    5  C   UNL     1      -7.934   8.232  70.893  1.00  0.00    -0.101 C  
BRANCH   5   6
HETATM    6  C   UNL     1      -8.892   9.430  70.904  1.00  0.00    -0.103 C  
BRANCH   6   7
HETATM    7  N   UNL     1     -10.094   9.160  70.072  1.00  0.00    -0.194 NA 
HETATM    8  C   UNL     1     -11.250   8.811  70.799  1.00  0.00    -0.266 A  
HETATM    9  C   UNL     1     -11.955   9.814  71.483  1.00  0.00    -0.488 A  
HETATM   10  C   UNL     1     -13.163   9.542  72.126  1.00  0.00    -0.539 A  
HETATM   11  C   UNL     1     -13.682   8.254  72.104  1.00  0.00    -0.329 A  
HETATM   12  C   UNL     1     -12.985   7.238  71.454  1.00  0.00    -0.420 A  
HETATM   13  C   UNL     1     -11.772   7.510  70.797  1.00  0.00    -0.281 A  
HETATM   14  C   UNL     1     -11.048   6.409  70.073  1.00  0.00    -0.442 C  
HETATM   15  C   UNL     1     -11.086   6.619  68.569  1.00  0.00    -0.284 C  
HETATM   16  C   UNL     1     -10.339   7.800  67.984  1.00  0.00    -0.263 A  
HETATM   17  C   UNL     1     -10.128   7.728  66.586  1.00  0.00    -0.294 A  
HETATM   18  C   UNL     1      -9.498   8.750  65.885  1.00  0.00    -0.278 A  
HETATM   19  C   UNL     1      -9.069   9.876  66.568  1.00  0.00    -0.179 A  
HETATM   20  C   UNL     1      -9.257   9.960  67.949  1.00  0.00    -0.138 A  
HETATM   21  C   UNL     1      -9.883   8.932  68.693  1.00  0.00    -0.167 A  
ENDBRANCH   6   7
ENDBRANCH   5   6
ENDBRANCH   4   5
ENDBRANCH   2   4
TORSDOF 4
ENDMDL
MODEL       86
REMARK 921   NORMALIZED FREE ENERGY PREDICTED BY IDOCK:   -4.13 KCAL/MOL
REMARK 922        TOTAL FREE ENERGY PREDICTED BY IDOCK:   -5.75 KCAL/MOL
REMARK 923 INTER-LIGAND FREE ENERGY PREDICTED BY IDOCK:   -5.40 KCAL/MOL
REMARK 924 INTRA-LIGAND FREE ENERGY PREDICTED BY IDOCK:   -0.35 KCAL/MOL
REMARK 927      BINDING AFFINITY PREDICTED BY RF-SCORE:    0.00 PKD
ROOT
HETATM    1  C   UNL     1     -12.082  12.454  63.605  1.00  0.00    -0.556 C  
HETATM    2  N   UNL     1     -12.174  13.905  63.627  1.00  0.00    -0.971 NA 
HETATM    3  H   UNL     1     -12.987  14.229  63.103  1.00  0.00     0.000 HD 
ENDROOT
BRANCH   2   4
HETATM    4  C   UNL     1     -12.172  14.448  64.989  1.00  0.00    -0.414 C  
BRANCH   4   5
HETATM    5  C   UNL     1     -10.716  14.619  65.422  1.00  0.00    -0.382 C  
BRANCH   5   6
HETATM    6  C   UNL     1     -10.214  16.068  65.357  1.00  0.00    -0.302 C  
BRANCH   6   7
HETATM    7  N   UNL     1      -9.595  16.477  66.645  1.00  0.00    -0.245 NA 
HETATM    8  C   UNL     1      -8.298  17.019  66.533  1.00  0.00    -0.278 A  
HETATM    9  C   UNL     1      -8.146  18.328  66.048  1.00  0.00    -0.115 A  
HETATM   10  C   UNL     1      -6.897  18.950  66.019  1.00  0.00    -0.284 A  
HETATM   11  C   UNL     1      -5.774  18.264  66.466  1.00  0.00    -0.183 A  
HETATM   12  C   UNL     1      -5.900  16.955  66.926  1.00  0.00    -0.207 A  
HETATM   13  C   UNL     1      -7.158  16.328  66.964  1.00  0.00    -0.259 A  
HETATM   14  C   UNL     1      -7.281  14.926  67.492  1.00  0.00    -0.227 C  
HETATM   15  C   UNL     1      -8.020  14.899  68.819  1.00  0.00    -0.156 C  
HETATM   16  C   UNL     1      -9.488  15.274  68.838  1.00  0.00    -0.218 A  
HETATM   17  C   UNL     1     -10.177  14.890  70.013  1.00  0.00     0.040 A  
HETATM   18  C   UNL     1     -11.519  15.198  70.211  1.00  0.00    -0.315 A  
HETATM   19  C   UNL     1     -12.202  15.906  69.237  1.00  0.00    -0.051 A  
HETATM   20  C   UNL     1     -11.543  16.283  68.066  1.00  0.00    -0.012 A  
HETATM   21  C   UNL     1     -10.182  15.974  67.829  1.00  0.00    -0.260 A  
ENDBRANCH   6   7
ENDBRANCH   5   6
ENDBRANCH   4   5
ENDBRANCH   2   4
TORSDOF 4
ENDMDL
MODEL       87
REMARK 921   NORMALIZED FREE ENERGY PREDICTED BY IDOCK:   -4.13 KCAL/MOL
REMARK 922        TOTAL FREE ENERGY PREDICTED BY IDOCK:   -5.74 KCAL/MOL
REMARK 923 INTER-LIGAND FREE ENERGY PREDICTED BY IDOCK:   -5.02 KCAL/MOL
REMARK 924 INTRA-LIGAND FREE ENERGY PREDICTED BY IDOCK:   -0.71 KCAL/MOL
REMARK 927      BINDING AFFINITY PREDICTED BY RF-SCORE:    0.00 PKD
ROOT
HETATM    1  C   UNL     1     -12.771  11.105  71.341  1.00  0.00    -0.418 C  
HETATM    2  N   UNL     1     -11.614  11.247  70.473  1.00  0.00    -0.467 NA 
HETATM    3  H   UNL     1     -10.840  10.666  70.794  1.00  0.00     0.000 HD 
ENDROOT
BRANCH   2   4
HETATM    4  C   UNL     1     -11.930  10.976  69.066  1.00  0.00    -0.293 C  
BRANCH   4   5
HETATM    5  C   UNL     1     -10.638  10.543  68.372  1.00  0.00    -0.230 C  
BRANCH   5   6
HETATM    6  C   UNL     1      -9.488  10.229  69.337  1.00  0.00    -0.206 C  
BRANCH   6   7
HETATM    7  N   UNL     1      -9.261   8.764  69.439  1.00  0.00    -0.145 NA 
HETATM    8  C   UNL     1      -8.629   8.184  68.320  1.00  0.00    -0.130 A  
HETATM    9  C   UNL     1      -7.251   8.380  68.137  1.00  0.00    -0.091 A  
HETATM   10  C   UNL     1      -6.557   7.740  67.109  1.00  0.00    -0.063 A  
HETATM   11  C   UNL     1      -7.237   6.898  66.238  1.00  0.00    -0.071 A  
HETATM   12  C   UNL     1      -8.609   6.711  66.386  1.00  0.00    -0.130 A  
HETATM   13  C   UNL     1      -9.311   7.347  67.425  1.00  0.00    -0.154 A  
HETATM   14  C   UNL     1     -10.786   7.111  67.590  1.00  0.00    -0.314 C  
HETATM   15  C   UNL     1     -11.078   6.306  68.845  1.00  0.00    -0.434 C  
HETATM   16  C   UNL     1     -10.803   6.941  70.192  1.00  0.00    -0.300 A  
HETATM   17  C   UNL     1     -11.419   6.288  71.287  1.00  0.00    -0.352 A  
HETATM   18  C   UNL     1     -11.231   6.715  72.597  1.00  0.00    -0.285 A  
HETATM   19  C   UNL     1     -10.414   7.805  72.844  1.00  0.00    -0.412 A  
HETATM   20  C   UNL     1      -9.808   8.470  71.776  1.00  0.00    -0.339 A  
HETATM   21  C   UNL     1      -9.989   8.068  70.432  1.00  0.00    -0.188 A  
ENDBRANCH   6   7
ENDBRANCH   5   6
ENDBRANCH   4   5
ENDBRANCH   2   4
TORSDOF 4
ENDMDL
MODEL       88
REMARK 921   NORMALIZED FREE ENERGY PREDICTED BY IDOCK:   -4.12 KCAL/MOL
REMARK 922        TOTAL FREE ENERGY PREDICTED BY IDOCK:   -5.73 KCAL/MOL
REMARK 923 INTER-LIGAND FREE ENERGY PREDICTED BY IDOCK:   -4.94 KCAL/MOL
REMARK 924 INTRA-LIGAND FREE ENERGY PREDICTED BY IDOCK:   -0.79 KCAL/MOL
REMARK 927      BINDING AFFINITY PREDICTED BY RF-SCORE:    0.00 PKD
ROOT
HETATM    1  C   UNL     1      -7.728   8.145  66.649  1.00  0.00    -0.094 C  
HETATM    2  N   UNL     1      -8.297   9.477  66.768  1.00  0.00    -0.116 NA 
HETATM    3  H   UNL     1      -7.710  10.169  66.301  1.00  0.00     0.000 HD 
ENDROOT
BRANCH   2   4
HETATM    4  C   UNL     1      -9.679   9.544  66.283  1.00  0.00    -0.245 C  
BRANCH   4   5
HETATM    5  C   UNL     1     -10.602   9.184  67.448  1.00  0.00    -0.315 C  
BRANCH   5   6
HETATM    6  C   UNL     1     -10.359  10.018  68.713  1.00  0.00    -0.198 C  
BRANCH   6   7
HETATM    7  N   UNL     1     -10.331   9.156  69.923  1.00  0.00    -0.202 NA 
HETATM    8  C   UNL     1      -9.205   8.313  70.025  1.00  0.00    -0.151 A  
HETATM    9  C   UNL     1      -7.970   8.867  70.395  1.00  0.00    -0.120 A  
HETATM   10  C   UNL     1      -6.851   8.063  70.616  1.00  0.00    -0.037 A  
HETATM   11  C   UNL     1      -6.948   6.686  70.456  1.00  0.00    -0.064 A  
HETATM   12  C   UNL     1      -8.158   6.119  70.061  1.00  0.00    -0.119 A  
HETATM   13  C   UNL     1      -9.290   6.925  69.847  1.00  0.00    -0.150 A  
HETATM   14  C   UNL     1     -10.596   6.295  69.453  1.00  0.00    -0.330 C  
HETATM   15  C   UNL     1     -11.618   6.395  70.572  1.00  0.00    -0.424 C  
HETATM   16  C   UNL     1     -12.139   7.765  70.956  1.00  0.00    -0.264 A  
HETATM   17  C   UNL     1     -13.319   7.747  71.737  1.00  0.00    -0.362 A  
HETATM   18  C   UNL     1     -13.903   8.917  72.212  1.00  0.00    -0.536 A  
HETATM   19  C   UNL     1     -13.313  10.135  71.920  1.00  0.00    -0.505 A  
HETATM   20  C   UNL     1     -12.157  10.174  71.140  1.00  0.00    -0.485 A  
HETATM   21  C   UNL     1     -11.545   9.003  70.632  1.00  0.00    -0.224 A  
ENDBRANCH   6   7
ENDBRANCH   5   6
ENDBRANCH   4   5
ENDBRANCH   2   4
TORSDOF 4
ENDMDL
MODEL       89
REMARK 921   NORMALIZED FREE ENERGY PREDICTED BY IDOCK:   -4.12 KCAL/MOL
REMARK 922        TOTAL FREE ENERGY PREDICTED BY IDOCK:   -5.73 KCAL/MOL
REMARK 923 INTER-LIGAND FREE ENERGY PREDICTED BY IDOCK:   -5.50 KCAL/MOL
REMARK 924 INTRA-LIGAND FREE ENERGY PREDICTED BY IDOCK:   -0.22 KCAL/MOL
REMARK 927      BINDING AFFINITY PREDICTED BY RF-SCORE:    0.00 PKD
ROOT
HETATM    1  C   UNL     1     -13.612  15.873  73.193  1.00  0.00    -0.499 C  
HETATM    2  N   UNL     1     -13.049  14.538  73.307  1.00  0.00    -0.589 NA 
HETATM    3  H   UNL     1     -12.985  14.249  74.283  1.00  0.00     0.000 HD 
ENDROOT
BRANCH   2   4
HETATM    4  C   UNL     1     -13.781  13.549  72.510  1.00  0.00    -0.559 C  
BRANCH   4   5
HETATM    5  C   UNL     1     -12.754  12.661  71.807  1.00  0.00    -0.242 C  
BRANCH   5   6
HETATM    6  C   UNL     1     -13.078  12.384  70.333  1.00  0.00     0.623 C  
BRANCH   6   7
HETATM    7  N   UNL     1     -11.891  12.622  69.471  1.00  0.00    -0.318 NA 
HETATM    8  C   UNL     1     -11.690  13.966  69.097  1.00  0.00    -0.338 A  
HETATM    9  C   UNL     1     -11.178  14.868  70.044  1.00  0.00    -0.293 A  
HETATM   10  C   UNL     1     -10.859  16.182  69.696  1.00  0.00    -0.338 A  
HETATM   11  C   UNL     1     -11.059  16.618  68.392  1.00  0.00    -0.305 A  
HETATM   12  C   UNL     1     -11.592  15.747  67.445  1.00  0.00     0.088 A  
HETATM   13  C   UNL     1     -11.906  14.420  67.789  1.00  0.00    -0.402 A  
HETATM   14  C   UNL     1     -12.450  13.484  66.747  1.00  0.00    -0.213 C  
HETATM   15  C   UNL     1     -11.443  12.402  66.397  1.00  0.00    -0.427 C  
HETATM   16  C   UNL     1     -11.086  11.377  67.454  1.00  0.00    -0.349 A  
HETATM   17  C   UNL     1     -10.434  10.223  66.956  1.00  0.00    -0.304 A  
HETATM   18  C   UNL     1      -9.997   9.205  67.798  1.00  0.00    -0.236 A  
HETATM   19  C   UNL     1     -10.198   9.323  69.163  1.00  0.00    -0.214 A  
HETATM   20  C   UNL     1     -10.851  10.447  69.671  1.00  0.00    -0.320 A  
HETATM   21  C   UNL     1     -11.318  11.493  68.840  1.00  0.00    -0.268 A  
ENDBRANCH   6   7
ENDBRANCH   5   6
ENDBRANCH   4   5
ENDBRANCH   2   4
TORSDOF 4
ENDMDL
MODEL       90
REMARK 921   NORMALIZED FREE ENERGY PREDICTED BY IDOCK:   -4.07 KCAL/MOL
REMARK 922        TOTAL FREE ENERGY PREDICTED BY IDOCK:   -5.67 KCAL/MOL
REMARK 923 INTER-LIGAND FREE ENERGY PREDICTED BY IDOCK:   -4.88 KCAL/MOL
REMARK 924 INTRA-LIGAND FREE ENERGY PREDICTED BY IDOCK:   -0.79 KCAL/MOL
REMARK 927      BINDING AFFINITY PREDICTED BY RF-SCORE:    0.00 PKD
ROOT
HETATM    1  C   UNL     1      -7.461  10.219  68.428  1.00  0.00    -0.090 C  
HETATM    2  N   UNL     1      -7.693  11.460  69.148  1.00  0.00    -0.323 NA 
HETATM    3  H   UNL     1      -7.451  11.364  70.134  1.00  0.00     0.000 HD 
ENDROOT
BRANCH   2   4
HETATM    4  C   UNL     1      -6.997  12.600  68.542  1.00  0.00    -0.094 C  
BRANCH   4   5
HETATM    5  C   UNL     1      -7.981  13.307  67.609  1.00  0.00    -0.176 C  
BRANCH   5   6
HETATM    6  C   UNL     1      -8.999  14.195  68.337  1.00  0.00    -0.189 C  
BRANCH   6   7
HETATM    7  N   UNL     1     -10.384  13.896  67.890  1.00  0.00    -0.236 NA 
HETATM    8  C   UNL     1     -11.048  12.906  68.641  1.00  0.00    -0.269 A  
HETATM    9  C   UNL     1     -11.535  13.230  69.918  1.00  0.00    -0.170 A  
HETATM   10  C   UNL     1     -12.293  12.321  70.658  1.00  0.00    -0.375 A  
HETATM   11  C   UNL     1     -12.567  11.064  70.134  1.00  0.00    -0.281 A  
HETATM   12  C   UNL     1     -12.071  10.713  68.881  1.00  0.00    -0.014 A  
HETATM   13  C   UNL     1     -11.314  11.628  68.129  1.00  0.00    -0.358 A  
HETATM   14  C   UNL     1     -10.812  11.245  66.765  1.00  0.00    -0.334 C  
HETATM   15  C   UNL     1     -11.524  12.027  65.675  1.00  0.00    -0.372 C  
HETATM   16  C   UNL     1     -11.290  13.521  65.586  1.00  0.00    -0.312 A  
HETATM   17  C   UNL     1     -11.691  14.107  64.361  1.00  0.00    -0.409 A  
HETATM   18  C   UNL     1     -11.589  15.475  64.133  1.00  0.00    -0.085 A  
HETATM   19  C   UNL     1     -11.086  16.292  65.131  1.00  0.00    -0.219 A  
HETATM   20  C   UNL     1     -10.673  15.731  66.341  1.00  0.00    -0.277 A  
HETATM   21  C   UNL     1     -10.754  14.343  66.600  1.00  0.00    -0.292 A  
ENDBRANCH   6   7
ENDBRANCH   5   6
ENDBRANCH   4   5
ENDBRANCH   2   4
TORSDOF 4
ENDMDL
MODEL       91
REMARK 921   NORMALIZED FREE ENERGY PREDICTED BY IDOCK:   -4.07 KCAL/MOL
REMARK 922        TOTAL FREE ENERGY PREDICTED BY IDOCK:   -5.67 KCAL/MOL
REMARK 923 INTER-LIGAND FREE ENERGY PREDICTED BY IDOCK:   -5.25 KCAL/MOL
REMARK 924 INTRA-LIGAND FREE ENERGY PREDICTED BY IDOCK:   -0.41 KCAL/MOL
REMARK 927      BINDING AFFINITY PREDICTED BY RF-SCORE:    0.00 PKD
ROOT
HETATM    1  C   UNL     1      -8.581   3.105  69.045  1.00  0.00    -0.073 C  
HETATM    2  N   UNL     1      -9.141   4.335  69.577  1.00  0.00    -0.107 NA 
HETATM    3  H   UNL     1      -8.417   4.916  69.999  1.00  0.00     0.000 HD 
ENDROOT
BRANCH   2   4
HETATM    4  C   UNL     1      -9.901   5.087  68.573  1.00  0.00    -0.151 C  
BRANCH   4   5
HETATM    5  C   UNL     1     -10.538   6.289  69.272  1.00  0.00    -0.332 C  
BRANCH   5   6
HETATM    6  C   UNL     1      -9.791   7.609  69.042  1.00  0.00    -0.168 C  
BRANCH   6   7
HETATM    7  N   UNL     1      -9.939   8.518  70.208  1.00  0.00    -0.181 NA 
HETATM    8  C   UNL     1      -9.721   7.912  71.462  1.00  0.00    -0.161 A  
HETATM    9  C   UNL     1      -8.406   7.621  71.861  1.00  0.00    -0.125 A  
HETATM   10  C   UNL     1      -8.128   7.123  73.134  1.00  0.00    -0.119 A  
HETATM   11  C   UNL     1      -9.166   6.894  74.029  1.00  0.00    -0.243 A  
HETATM   12  C   UNL     1     -10.480   7.149  73.643  1.00  0.00    -0.412 A  
HETATM   13  C   UNL     1     -10.764   7.660  72.365  1.00  0.00    -0.333 A  
HETATM   14  C   UNL     1     -12.185   7.960  71.976  1.00  0.00    -0.357 C  
HETATM   15  C   UNL     1     -12.417   9.456  71.844  1.00  0.00    -0.468 C  
HETATM   16  C   UNL     1     -11.718  10.201  70.726  1.00  0.00    -0.446 A  
HETATM   17  C   UNL     1     -12.249  11.485  70.455  1.00  0.00    -0.442 A  
HETATM   18  C   UNL     1     -11.695  12.320  69.490  1.00  0.00    -0.398 A  
HETATM   19  C   UNL     1     -10.588  11.890  68.777  1.00  0.00    -0.234 A  
HETATM   20  C   UNL     1     -10.059  10.622  69.022  1.00  0.00    -0.226 A  
HETATM   21  C   UNL     1     -10.607   9.745  69.987  1.00  0.00    -0.276 A  
ENDBRANCH   6   7
ENDBRANCH   5   6
ENDBRANCH   4   5
ENDBRANCH   2   4
TORSDOF 4
ENDMDL
MODEL       92
REMARK 921   NORMALIZED FREE ENERGY PREDICTED BY IDOCK:   -4.06 KCAL/MOL
REMARK 922        TOTAL FREE ENERGY PREDICTED BY IDOCK:   -5.66 KCAL/MOL
REMARK 923 INTER-LIGAND FREE ENERGY PREDICTED BY IDOCK:   -5.56 KCAL/MOL
REMARK 924 INTRA-LIGAND FREE ENERGY PREDICTED BY IDOCK:   -0.10 KCAL/MOL
REMARK 927      BINDING AFFINITY PREDICTED BY RF-SCORE:    0.00 PKD
ROOT
HETATM    1  C   UNL     1     -12.358  14.942  64.226  1.00  0.00    -0.277 C  
HETATM    2  N   UNL     1     -12.364  13.984  63.133  1.00  0.00    -1.094 NA 
HETATM    3  H   UNL     1     -11.713  14.261  62.399  1.00  0.00     0.000 HD 
ENDROOT
BRANCH   2   4
HETATM    4  C   UNL     1     -12.098  12.614  63.585  1.00  0.00    -0.547 C  
BRANCH   4   5
HETATM    5  C   UNL     1     -11.761  12.670  65.075  1.00  0.00    -0.401 C  
BRANCH   5   6
HETATM    6  C   UNL     1     -10.308  12.298  65.399  1.00  0.00    -0.269 C  
BRANCH   6   7
HETATM    7  N   UNL     1      -9.953  12.689  66.788  1.00  0.00    -0.229 NA 
HETATM    8  C   UNL     1      -9.059  13.775  66.888  1.00  0.00    -0.242 A  
HETATM    9  C   UNL     1      -9.535  15.074  66.648  1.00  0.00    -0.288 A  
HETATM   10  C   UNL     1      -8.721  16.191  66.840  1.00  0.00    -0.253 A  
HETATM   11  C   UNL     1      -7.408  16.024  67.264  1.00  0.00    -0.243 A  
HETATM   12  C   UNL     1      -6.909  14.742  67.480  1.00  0.00    -0.181 A  
HETATM   13  C   UNL     1      -7.729  13.614  67.297  1.00  0.00    -0.091 A  
HETATM   14  C   UNL     1      -7.183  12.240  67.565  1.00  0.00    -0.139 C  
HETATM   15  C   UNL     1      -7.826  11.621  68.796  1.00  0.00    -0.096 C  
HETATM   16  C   UNL     1      -9.298  11.271  68.745  1.00  0.00    -0.136 A  
HETATM   17  C   UNL     1      -9.730  10.395  69.770  1.00  0.00    -0.101 A  
HETATM   18  C   UNL     1     -11.060  10.010  69.895  1.00  0.00    -0.336 A  
HETATM   19  C   UNL     1     -11.995  10.500  68.997  1.00  0.00    -0.095 A  
HETATM   20  C   UNL     1     -11.586  11.354  67.972  1.00  0.00    -0.357 A  
HETATM   21  C   UNL     1     -10.238  11.755  67.811  1.00  0.00    -0.191 A  
ENDBRANCH   6   7
ENDBRANCH   5   6
ENDBRANCH   4   5
ENDBRANCH   2   4
TORSDOF 4
ENDMDL
MODEL       93
REMARK 921   NORMALIZED FREE ENERGY PREDICTED BY IDOCK:   -4.06 KCAL/MOL
REMARK 922        TOTAL FREE ENERGY PREDICTED BY IDOCK:   -5.66 KCAL/MOL
REMARK 923 INTER-LIGAND FREE ENERGY PREDICTED BY IDOCK:   -5.52 KCAL/MOL
REMARK 924 INTRA-LIGAND FREE ENERGY PREDICTED BY IDOCK:   -0.13 KCAL/MOL
REMARK 927      BINDING AFFINITY PREDICTED BY RF-SCORE:    0.00 PKD
ROOT
HETATM    1  C   UNL     1      -6.835  17.890  68.711  1.00  0.00    -0.255 C  
HETATM    2  N   UNL     1      -7.982  17.614  67.862  1.00  0.00    -0.225 NA 
HETATM    3  H   UNL     1      -8.112  16.610  67.736  1.00  0.00     0.000 HD 
ENDROOT
BRANCH   2   4
HETATM    4  C   UNL     1      -9.210  18.247  68.352  1.00  0.00    -0.317 C  
BRANCH   4   5
HETATM    5  C   UNL     1     -10.364  17.270  68.124  1.00  0.00    -0.357 C  
BRANCH   5   6
HETATM    6  C   UNL     1     -10.169  15.908  68.803  1.00  0.00    -0.220 C  
BRANCH   6   7
HETATM    7  N   UNL     1      -9.839  14.857  67.806  1.00  0.00    -0.216 NA 
HETATM    8  C   UNL     1     -10.712  14.793  66.701  1.00  0.00    -0.309 A  
HETATM    9  C   UNL     1     -10.614  15.770  65.697  1.00  0.00    -0.393 A  
HETATM   10  C   UNL     1     -11.379  15.692  64.532  1.00  0.00    -0.327 A  
HETATM   11  C   UNL     1     -12.267  14.638  64.358  1.00  0.00    -0.473 A  
HETATM   12  C   UNL     1     -12.399  13.673  65.355  1.00  0.00    -0.510 A  
HETATM   13  C   UNL     1     -11.624  13.743  66.526  1.00  0.00    -0.386 A  
HETATM   14  C   UNL     1     -11.756  12.677  67.577  1.00  0.00    -0.429 C  
HETATM   15  C   UNL     1     -10.505  11.818  67.653  1.00  0.00    -0.223 C  
HETATM   16  C   UNL     1      -9.219  12.454  68.140  1.00  0.00    -0.205 A  
HETATM   17  C   UNL     1      -8.213  11.532  68.515  1.00  0.00    -0.148 A  
HETATM   18  C   UNL     1      -6.956  11.949  68.941  1.00  0.00    -0.110 A  
HETATM   19  C   UNL     1      -6.675  13.303  68.996  1.00  0.00    -0.107 A  
HETATM   20  C   UNL     1      -7.659  14.228  68.644  1.00  0.00    -0.126 A  
HETATM   21  C   UNL     1      -8.950  13.837  68.217  1.00  0.00    -0.186 A  
ENDBRANCH   6   7
ENDBRANCH   5   6
ENDBRANCH   4   5
ENDBRANCH   2   4
TORSDOF 4
ENDMDL
MODEL       94
REMARK 921   NORMALIZED FREE ENERGY PREDICTED BY IDOCK:   -4.02 KCAL/MOL
REMARK 922        TOTAL FREE ENERGY PREDICTED BY IDOCK:   -5.61 KCAL/MOL
REMARK 923 INTER-LIGAND FREE ENERGY PREDICTED BY IDOCK:   -5.45 KCAL/MOL
REMARK 924 INTRA-LIGAND FREE ENERGY PREDICTED BY IDOCK:   -0.16 KCAL/MOL
REMARK 927      BINDING AFFINITY PREDICTED BY RF-SCORE:    0.00 PKD
ROOT
HETATM    1  C   UNL     1     -12.288  12.604  65.262  1.00  0.00    -0.466 C  
HETATM    2  N   UNL     1     -11.712  12.912  66.561  1.00  0.00    -0.374 NA 
HETATM    3  H   UNL     1     -11.818  12.128  67.205  1.00  0.00     0.000 HD 
ENDROOT
BRANCH   2   4
HETATM    4  C   UNL     1     -10.311  13.334  66.468  1.00  0.00    -0.285 C  
BRANCH   4   5
HETATM    5  C   UNL     1     -10.203  14.736  67.069  1.00  0.00    -0.253 C  
BRANCH   5   6
HETATM    6  C   UNL     1      -9.041  15.566  66.508  1.00  0.00    -0.302 C  
BRANCH   6   7
HETATM    7  N   UNL     1      -8.526  16.520  67.523  1.00  0.00    -0.174 NA 
HETATM    8  C   UNL     1      -8.975  17.848  67.371  1.00  0.00    -0.245 A  
HETATM    9  C   UNL     1     -10.290  18.169  67.742  1.00  0.00    -0.413 A  
HETATM   10  C   UNL     1     -10.750  19.487  67.713  1.00  0.00    -0.487 A  
HETATM   11  C   UNL     1      -9.901  20.506  67.300  1.00  0.00    -0.581 A  
HETATM   12  C   UNL     1      -8.600  20.204  66.901  1.00  0.00    -0.397 A  
HETATM   13  C   UNL     1      -8.130  18.879  66.937  1.00  0.00    -0.275 A  
HETATM   14  C   UNL     1      -6.715  18.574  66.534  1.00  0.00    -0.225 C  
HETATM   15  C   UNL     1      -5.879  18.149  67.730  1.00  0.00    -0.154 C  
HETATM   16  C   UNL     1      -6.205  16.836  68.410  1.00  0.00    -0.134 A  
HETATM   17  C   UNL     1      -5.188  16.349  69.265  1.00  0.00    -0.120 A  
HETATM   18  C   UNL     1      -5.344  15.179  70.001  1.00  0.00    -0.113 A  
HETATM   19  C   UNL     1      -6.530  14.470  69.903  1.00  0.00    -0.161 A  
HETATM   20  C   UNL     1      -7.540  14.928  69.055  1.00  0.00    -0.151 A  
HETATM   21  C   UNL     1      -7.407  16.107  68.284  1.00  0.00    -0.140 A  
ENDBRANCH   6   7
ENDBRANCH   5   6
ENDBRANCH   4   5
ENDBRANCH   2   4
TORSDOF 4
ENDMDL
MODEL       95
REMARK 921   NORMALIZED FREE ENERGY PREDICTED BY IDOCK:   -3.98 KCAL/MOL
REMARK 922        TOTAL FREE ENERGY PREDICTED BY IDOCK:   -5.55 KCAL/MOL
REMARK 923 INTER-LIGAND FREE ENERGY PREDICTED BY IDOCK:   -4.91 KCAL/MOL
REMARK 924 INTRA-LIGAND FREE ENERGY PREDICTED BY IDOCK:   -0.64 KCAL/MOL
REMARK 927      BINDING AFFINITY PREDICTED BY RF-SCORE:    0.00 PKD
ROOT
HETATM    1  C   UNL     1     -12.905   9.420  71.908  1.00  0.00    -0.412 C  
HETATM    2  N   UNL     1     -12.040   9.111  70.783  1.00  0.00    -0.458 NA 
HETATM    3  H   UNL     1     -12.585   8.848  69.962  1.00  0.00     0.000 HD 
ENDROOT
BRANCH   2   4
HETATM    4  C   UNL     1     -11.110  10.201  70.472  1.00  0.00    -0.327 C  
BRANCH   4   5
HETATM    5  C   UNL     1     -10.427   9.870  69.144  1.00  0.00    -0.235 C  
BRANCH   5   6
HETATM    6  C   UNL     1     -11.177  10.395  67.913  1.00  0.00    -0.263 C  
BRANCH   6   7
HETATM    7  N   UNL     1     -10.364  11.400  67.180  1.00  0.00    -0.206 NA 
HETATM    8  C   UNL     1      -9.549  10.872  66.158  1.00  0.00    -0.202 A  
HETATM    9  C   UNL     1     -10.143  10.477  64.948  1.00  0.00    -0.403 A  
HETATM   10  C   UNL     1      -9.371  10.050  63.866  1.00  0.00    -0.315 A  
HETATM   11  C   UNL     1      -7.988  10.001  63.983  1.00  0.00    -0.151 A  
HETATM   12  C   UNL     1      -7.381  10.363  65.183  1.00  0.00    -0.088 A  
HETATM   13  C   UNL     1      -8.154  10.801  66.273  1.00  0.00    -0.159 A  
HETATM   14  C   UNL     1      -7.482  11.217  67.551  1.00  0.00    -0.106 C  
HETATM   15  C   UNL     1      -7.605  12.715  67.777  1.00  0.00    -0.141 C  
HETATM   16  C   UNL     1      -8.977  13.296  68.048  1.00  0.00    -0.191 A  
HETATM   17  C   UNL     1      -8.966  14.604  68.589  1.00  0.00    -0.184 A  
HETATM   18  C   UNL     1     -10.140  15.300  68.853  1.00  0.00    -0.225 A  
HETATM   19  C   UNL     1     -11.358  14.703  68.575  1.00  0.00    -0.305 A  
HETATM   20  C   UNL     1     -11.390  13.408  68.054  1.00  0.00    -0.320 A  
HETATM   21  C   UNL     1     -10.214  12.670  67.785  1.00  0.00    -0.222 A  
ENDBRANCH   6   7
ENDBRANCH   5   6
ENDBRANCH   4   5
ENDBRANCH   2   4
TORSDOF 4
ENDMDL
MODEL       96
REMARK 921   NORMALIZED FREE ENERGY PREDICTED BY IDOCK:   -3.96 KCAL/MOL
REMARK 922        TOTAL FREE ENERGY PREDICTED BY IDOCK:   -5.53 KCAL/MOL
REMARK 923 INTER-LIGAND FREE ENERGY PREDICTED BY IDOCK:   -4.98 KCAL/MOL
REMARK 924 INTRA-LIGAND FREE ENERGY PREDICTED BY IDOCK:   -0.55 KCAL/MOL
REMARK 927      BINDING AFFINITY PREDICTED BY RF-SCORE:    0.00 PKD
ROOT
HETATM    1  C   UNL     1     -13.115  11.137  71.651  1.00  0.00    -0.424 C  
HETATM    2  N   UNL     1     -12.419  10.495  70.549  1.00  0.00    -0.343 NA 
HETATM    3  H   UNL     1     -12.124  11.179  69.852  1.00  0.00     0.000 HD 
ENDROOT
BRANCH   2   4
HETATM    4  C   UNL     1     -11.287   9.677  70.998  1.00  0.00    -0.374 C  
BRANCH   4   5
HETATM    5  C   UNL     1     -11.811   8.683  72.035  1.00  0.00    -0.443 C  
BRANCH   5   6
HETATM    6  C   UNL     1     -12.278   7.349  71.437  1.00  0.00    -0.342 C  
BRANCH   6   7
HETATM    7  N   UNL     1     -11.128   6.440  71.195  1.00  0.00    -0.277 NA 
HETATM    8  C   UNL     1     -10.556   5.885  72.357  1.00  0.00    -0.217 A  
HETATM    9  C   UNL     1     -11.231   4.847  73.020  1.00  0.00    -0.367 A  
HETATM   10  C   UNL     1     -10.659   4.190  74.111  1.00  0.00    -0.302 A  
HETATM   11  C   UNL     1      -9.402   4.571  74.564  1.00  0.00    -0.133 A  
HETATM   12  C   UNL     1      -8.727   5.616  73.937  1.00  0.00    -0.117 A  
HETATM   13  C   UNL     1      -9.296   6.275  72.833  1.00  0.00    -0.140 A  
HETATM   14  C   UNL     1      -8.542   7.380  72.149  1.00  0.00    -0.129 C  
HETATM   15  C   UNL     1      -8.088   6.961  70.760  1.00  0.00    -0.114 C  
HETATM   16  C   UNL     1      -9.140   6.718  69.698  1.00  0.00    -0.143 A  
HETATM   17  C   UNL     1      -8.640   6.682  68.374  1.00  0.00    -0.124 A  
HETATM   18  C   UNL     1      -9.464   6.423  67.284  1.00  0.00    -0.135 A  
HETATM   19  C   UNL     1     -10.812   6.187  67.496  1.00  0.00    -0.422 A  
HETATM   20  C   UNL     1     -11.326   6.231  68.793  1.00  0.00    -0.224 A  
HETATM   21  C   UNL     1     -10.516   6.503  69.921  1.00  0.00    -0.213 A  
ENDBRANCH   6   7
ENDBRANCH   5   6
ENDBRANCH   4   5
ENDBRANCH   2   4
TORSDOF 4
ENDMDL
MODEL       97
REMARK 921   NORMALIZED FREE ENERGY PREDICTED BY IDOCK:   -3.96 KCAL/MOL
REMARK 922        TOTAL FREE ENERGY PREDICTED BY IDOCK:   -5.53 KCAL/MOL
REMARK 923 INTER-LIGAND FREE ENERGY PREDICTED BY IDOCK:   -4.90 KCAL/MOL
REMARK 924 INTRA-LIGAND FREE ENERGY PREDICTED BY IDOCK:   -0.63 KCAL/MOL
REMARK 927      BINDING AFFINITY PREDICTED BY RF-SCORE:    0.00 PKD
ROOT
HETATM    1  C   UNL     1     -10.026   4.640  66.582  1.00  0.00    -0.236 C  
HETATM    2  N   UNL     1     -10.979   5.713  66.349  1.00  0.00    -0.735 NA 
HETATM    3  H   UNL     1     -11.879   5.344  66.041  1.00  0.00     0.000 HD 
ENDROOT
BRANCH   2   4
HETATM    4  C   UNL     1     -11.139   6.586  67.517  1.00  0.00    -0.308 C  
BRANCH   4   5
HETATM    5  C   UNL     1     -10.212   7.789  67.332  1.00  0.00    -0.320 C  
BRANCH   5   6
HETATM    6  C   UNL     1     -10.903   9.143  67.538  1.00  0.00    -0.081 C  
BRANCH   6   7
HETATM    7  N   UNL     1     -10.278   9.897  68.655  1.00  0.00    -0.170 NA 
HETATM    8  C   UNL     1      -9.440  10.959  68.257  1.00  0.00    -0.168 A  
HETATM    9  C   UNL     1     -10.021  12.147  67.785  1.00  0.00    -0.198 A  
HETATM   10  C   UNL     1      -9.243  13.265  67.482  1.00  0.00    -0.213 A  
HETATM   11  C   UNL     1      -7.863  13.207  67.634  1.00  0.00    -0.169 A  
HETATM   12  C   UNL     1      -7.264  12.029  68.074  1.00  0.00    -0.096 A  
HETATM   13  C   UNL     1      -8.046  10.903  68.390  1.00  0.00    -0.131 A  
HETATM   14  C   UNL     1      -7.386   9.650  68.893  1.00  0.00    -0.073 C  
HETATM   15  C   UNL     1      -7.717   9.402  70.356  1.00  0.00    -0.163 C  
HETATM   16  C   UNL     1      -9.146   9.067  70.728  1.00  0.00    -0.297 A  
HETATM   17  C   UNL     1      -9.302   8.512  72.021  1.00  0.00    -0.353 A  
HETATM   18  C   UNL     1     -10.553   8.191  72.537  1.00  0.00    -0.411 A  
HETATM   19  C   UNL     1     -11.682   8.424  71.770  1.00  0.00    -0.371 A  
HETATM   20  C   UNL     1     -11.547   8.958  70.487  1.00  0.00    -0.189 A  
HETATM   21  C   UNL     1     -10.288   9.285  69.930  1.00  0.00    -0.220 A  
ENDBRANCH   6   7
ENDBRANCH   5   6
ENDBRANCH   4   5
ENDBRANCH   2   4
TORSDOF 4
ENDMDL
MODEL       98
REMARK 921   NORMALIZED FREE ENERGY PREDICTED BY IDOCK:   -3.94 KCAL/MOL
REMARK 922        TOTAL FREE ENERGY PREDICTED BY IDOCK:   -5.51 KCAL/MOL
REMARK 923 INTER-LIGAND FREE ENERGY PREDICTED BY IDOCK:   -5.04 KCAL/MOL
REMARK 924 INTRA-LIGAND FREE ENERGY PREDICTED BY IDOCK:   -0.47 KCAL/MOL
REMARK 927      BINDING AFFINITY PREDICTED BY RF-SCORE:    0.00 PKD
ROOT
HETATM    1  C   UNL     1     -13.910  14.666  72.454  1.00  0.00    -0.475 C  
HETATM    2  N   UNL     1     -12.669  15.023  71.787  1.00  0.00    -0.318 NA 
HETATM    3  H   UNL     1     -11.992  14.261  71.838  1.00  0.00     0.000 HD 
ENDROOT
BRANCH   2   4
HETATM    4  C   UNL     1     -12.879  15.450  70.399  1.00  0.00    -0.311 C  
BRANCH   4   5
HETATM    5  C   UNL     1     -11.688  14.961  69.574  1.00  0.00    -0.353 C  
BRANCH   5   6
HETATM    6  C   UNL     1     -10.436  15.838  69.708  1.00  0.00    -0.317 C  
BRANCH   6   7
HETATM    7  N   UNL     1      -9.646  15.837  68.450  1.00  0.00    -0.197 NA 
HETATM    8  C   UNL     1      -9.537  17.093  67.818  1.00  0.00    -0.256 A  
HETATM    9  C   UNL     1      -8.669  18.055  68.359  1.00  0.00    -0.301 A  
HETATM   10  C   UNL     1      -8.442  19.272  67.713  1.00  0.00    -0.340 A  
HETATM   11  C   UNL     1      -9.093  19.550  66.517  1.00  0.00    -0.416 A  
HETATM   12  C   UNL     1      -9.979  18.620  65.979  1.00  0.00    -0.266 A  
HETATM   13  C   UNL     1     -10.203  17.390  66.621  1.00  0.00    -0.324 A  
HETATM   14  C   UNL     1     -11.139  16.384  66.011  1.00  0.00     0.157 C  
HETATM   15  C   UNL     1     -10.385  15.168  65.500  1.00  0.00    -0.399 C  
HETATM   16  C   UNL     1      -9.708  14.260  66.506  1.00  0.00    -0.304 A  
HETATM   17  C   UNL     1      -9.342  12.991  65.999  1.00  0.00    -0.024 A  
HETATM   18  C   UNL     1      -8.671  12.054  66.778  1.00  0.00    -0.192 A  
HETATM   19  C   UNL     1      -8.344  12.371  68.086  1.00  0.00    -0.178 A  
HETATM   20  C   UNL     1      -8.708  13.613  68.608  1.00  0.00    -0.027 A  
HETATM   21  C   UNL     1      -9.401  14.583  67.845  1.00  0.00    -0.201 A  
ENDBRANCH   6   7
ENDBRANCH   5   6
ENDBRANCH   4   5
ENDBRANCH   2   4
TORSDOF 4
ENDMDL
MODEL       99
REMARK 921   NORMALIZED FREE ENERGY PREDICTED BY IDOCK:   -3.94 KCAL/MOL
REMARK 922        TOTAL FREE ENERGY PREDICTED BY IDOCK:   -5.51 KCAL/MOL
REMARK 923 INTER-LIGAND FREE ENERGY PREDICTED BY IDOCK:   -4.92 KCAL/MOL
REMARK 924 INTRA-LIGAND FREE ENERGY PREDICTED BY IDOCK:   -0.59 KCAL/MOL
REMARK 927      BINDING AFFINITY PREDICTED BY RF-SCORE:    0.00 PKD
ROOT
HETATM    1  C   UNL     1     -11.560  13.933  67.564  1.00  0.00    -0.360 C  
HETATM    2  N   UNL     1     -10.666  12.795  67.420  1.00  0.00    -0.228 NA 
HETATM    3  H   UNL     1     -10.372  12.442  68.331  1.00  0.00     0.000 HD 
ENDROOT
BRANCH   2   4
HETATM    4  C   UNL     1     -11.246  11.725  66.601  1.00  0.00    -0.323 C  
BRANCH   4   5
HETATM    5  C   UNL     1     -11.101  10.414  67.374  1.00  0.00    -0.297 C  
BRANCH   5   6
HETATM    6  C   UNL     1      -9.957  10.417  68.396  1.00  0.00    -0.162 C  
BRANCH   6   7
HETATM    7  N   UNL     1      -9.593   9.033  68.795  1.00  0.00    -0.151 NA 
HETATM    8  C   UNL     1      -8.706   8.377  67.917  1.00  0.00    -0.138 A  
HETATM    9  C   UNL     1      -7.348   8.732  67.927  1.00  0.00    -0.088 A  
HETATM   10  C   UNL     1      -6.411   8.041  67.157  1.00  0.00    -0.057 A  
HETATM   11  C   UNL     1      -6.823   6.985  66.353  1.00  0.00    -0.061 A  
HETATM   12  C   UNL     1      -8.170   6.634  66.307  1.00  0.00    -0.120 A  
HETATM   13  C   UNL     1      -9.116   7.323  67.088  1.00  0.00    -0.144 A  
HETATM   14  C   UNL     1     -10.561   6.911  67.051  1.00  0.00    -0.403 C  
HETATM   15  C   UNL     1     -10.989   6.282  68.366  1.00  0.00    -0.409 C  
HETATM   16  C   UNL     1     -11.037   7.154  69.604  1.00  0.00    -0.206 A  
HETATM   17  C   UNL     1     -11.768   6.603  70.683  1.00  0.00    -0.452 A  
HETATM   18  C   UNL     1     -11.873   7.253  71.908  1.00  0.00    -0.333 A  
HETATM   19  C   UNL     1     -11.239   8.472  72.084  1.00  0.00    -0.432 A  
HETATM   20  C   UNL     1     -10.525   9.038  71.027  1.00  0.00    -0.339 A  
HETATM   21  C   UNL     1     -10.410   8.408  69.765  1.00  0.00    -0.216 A  
ENDBRANCH   6   7
ENDBRANCH   5   6
ENDBRANCH   4   5
ENDBRANCH   2   4
TORSDOF 4
ENDMDL
MODEL      100
REMARK 921   NORMALIZED FREE ENERGY PREDICTED BY IDOCK:   -3.94 KCAL/MOL
REMARK 922        TOTAL FREE ENERGY PREDICTED BY IDOCK:   -5.50 KCAL/MOL
REMARK 923 INTER-LIGAND FREE ENERGY PREDICTED BY IDOCK:   -5.00 KCAL/MOL
REMARK 924 INTRA-LIGAND FREE ENERGY PREDICTED BY IDOCK:   -0.51 KCAL/MOL
REMARK 927      BINDING AFFINITY PREDICTED BY RF-SCORE:    0.00 PKD
ROOT
HETATM    1  C   UNL     1      -7.769   7.445  72.701  1.00  0.00    -0.088 C  
HETATM    2  N   UNL     1      -7.932   8.514  71.730  1.00  0.00    -0.155 NA 
HETATM    3  H   UNL     1      -7.747   9.424  72.152  1.00  0.00     0.000 HD 
ENDROOT
BRANCH   2   4
HETATM    4  C   UNL     1      -7.115   8.312  70.529  1.00  0.00    -0.037 C  
BRANCH   4   5
HETATM    5  C   UNL     1      -7.660   9.227  69.432  1.00  0.00    -0.080 C  
BRANCH   5   6
HETATM    6  C   UNL     1      -8.946   9.967  69.823  1.00  0.00    -0.221 C  
BRANCH   6   7
HETATM    7  N   UNL     1     -10.030   9.709  68.839  1.00  0.00    -0.172 NA 
HETATM    8  C   UNL     1     -10.166   8.362  68.446  1.00  0.00    -0.206 A  
HETATM    9  C   UNL     1     -10.760   7.450  69.333  1.00  0.00    -0.220 A  
HETATM   10  C   UNL     1     -11.017   6.132  68.953  1.00  0.00    -0.424 A  
HETATM   11  C   UNL     1     -10.672   5.701  67.678  1.00  0.00    -0.260 A  
HETATM   12  C   UNL     1     -10.057   6.583  66.793  1.00  0.00    -0.239 A  
HETATM   13  C   UNL     1      -9.804   7.914  67.168  1.00  0.00    -0.273 A  
HETATM   14  C   UNL     1      -9.168   8.862  66.190  1.00  0.00    -0.273 C  
HETATM   15  C   UNL     1     -10.151   9.927  65.735  1.00  0.00    -0.317 C  
HETATM   16  C   UNL     1     -10.636  10.944  66.747  1.00  0.00    -0.313 A  
HETATM   17  C   UNL     1     -11.251  12.087  66.182  1.00  0.00    -0.394 A  
HETATM   18  C   UNL     1     -11.793  13.095  66.972  1.00  0.00    -0.435 A  
HETATM   19  C   UNL     1     -11.737  12.979  68.351  1.00  0.00    -0.386 A  
HETATM   20  C   UNL     1     -11.123  11.865  68.926  1.00  0.00    -0.299 A  
HETATM   21  C   UNL     1     -10.552  10.829  68.150  1.00  0.00    -0.203 A  
ENDBRANCH   6   7
ENDBRANCH   5   6
ENDBRANCH   4   5
ENDBRANCH   2   4
TORSDOF 4
ENDMDL
MODEL      101
REMARK 921   NORMALIZED FREE ENERGY PREDICTED BY IDOCK:   -3.93 KCAL/MOL
REMARK 922        TOTAL FREE ENERGY PREDICTED BY IDOCK:   -5.50 KCAL/MOL
REMARK 923 INTER-LIGAND FREE ENERGY PREDICTED BY IDOCK:   -4.91 KCAL/MOL
REMARK 924 INTRA-LIGAND FREE ENERGY PREDICTED BY IDOCK:   -0.59 KCAL/MOL
REMARK 927      BINDING AFFINITY PREDICTED BY RF-SCORE:    0.00 PKD
ROOT
HETATM    1  C   UNL     1     -10.888  15.516  67.364  1.00  0.00    -0.312 C  
HETATM    2  N   UNL     1     -11.287  14.423  68.235  1.00  0.00    -0.273 NA 
HETATM    3  H   UNL     1     -11.911  14.750  68.972  1.00  0.00     0.000 HD 
ENDROOT
BRANCH   2   4
HETATM    4  C   UNL     1     -11.883  13.305  67.497  1.00  0.00    -0.358 C  
BRANCH   4   5
HETATM    5  C   UNL     1     -11.316  12.007  68.074  1.00  0.00    -0.358 C  
BRANCH   5   6
HETATM    6  C   UNL     1     -10.898  10.984  67.010  1.00  0.00    -0.279 C  
BRANCH   6   7
HETATM    7  N   UNL     1      -9.850  10.069  67.531  1.00  0.00    -0.169 NA 
HETATM    8  C   UNL     1     -10.306   8.782  67.881  1.00  0.00    -0.224 A  
HETATM    9  C   UNL     1     -10.597   7.861  66.861  1.00  0.00    -0.333 A  
HETATM   10  C   UNL     1     -10.948   6.542  67.154  1.00  0.00    -0.480 A  
HETATM   11  C   UNL     1     -11.025   6.126  68.477  1.00  0.00    -0.404 A  
HETATM   12  C   UNL     1     -10.767   7.031  69.504  1.00  0.00    -0.263 A  
HETATM   13  C   UNL     1     -10.405   8.358  69.213  1.00  0.00    -0.220 A  
HETATM   14  C   UNL     1     -10.099   9.314  70.332  1.00  0.00    -0.287 C  
HETATM   15  C   UNL     1      -8.623   9.671  70.366  1.00  0.00    -0.200 C  
HETATM   16  C   UNL     1      -8.047  10.477  69.220  1.00  0.00    -0.152 A  
HETATM   17  C   UNL     1      -6.786  11.062  69.489  1.00  0.00    -0.126 A  
HETATM   18  C   UNL     1      -6.097  11.796  68.529  1.00  0.00    -0.050 A  
HETATM   19  C   UNL     1      -6.654  11.957  67.271  1.00  0.00    -0.141 A  
HETATM   20  C   UNL     1      -7.902  11.399  66.992  1.00  0.00    -0.158 A  
HETATM   21  C   UNL     1      -8.633  10.658  67.950  1.00  0.00    -0.124 A  
ENDBRANCH   6   7
ENDBRANCH   5   6
ENDBRANCH   4   5
ENDBRANCH   2   4
TORSDOF 4
ENDMDL
MODEL      102
REMARK 921   NORMALIZED FREE ENERGY PREDICTED BY IDOCK:   -3.92 KCAL/MOL
REMARK 922        TOTAL FREE ENERGY PREDICTED BY IDOCK:   -5.48 KCAL/MOL
REMARK 923 INTER-LIGAND FREE ENERGY PREDICTED BY IDOCK:   -4.59 KCAL/MOL
REMARK 924 INTRA-LIGAND FREE ENERGY PREDICTED BY IDOCK:   -0.89 KCAL/MOL
REMARK 927      BINDING AFFINITY PREDICTED BY RF-SCORE:    0.00 PKD
ROOT
HETATM    1  C   UNL     1     -12.363   7.216  71.822  1.00  0.00    -0.350 C  
HETATM    2  N   UNL     1     -12.386   8.263  70.814  1.00  0.00    -0.494 NA 
HETATM    3  H   UNL     1     -13.342   8.471  70.523  1.00  0.00     0.000 HD 
ENDROOT
BRANCH   2   4
HETATM    4  C   UNL     1     -11.690   9.478  71.250  1.00  0.00    -0.370 C  
BRANCH   4   5
HETATM    5  C   UNL     1     -10.826   9.965  70.086  1.00  0.00    -0.356 C  
BRANCH   5   6
HETATM    6  C   UNL     1      -9.336   9.634  70.237  1.00  0.00    -0.242 C  
BRANCH   6   7
HETATM    7  N   UNL     1      -8.929   8.557  69.297  1.00  0.00    -0.145 NA 
HETATM    8  C   UNL     1      -8.542   9.003  68.017  1.00  0.00    -0.129 A  
HETATM    9  C   UNL     1      -7.287   9.610  67.857  1.00  0.00    -0.082 A  
HETATM   10  C   UNL     1      -6.811   9.970  66.595  1.00  0.00    -0.082 A  
HETATM   11  C   UNL     1      -7.592   9.737  65.471  1.00  0.00    -0.118 A  
HETATM   12  C   UNL     1      -8.852   9.161  65.611  1.00  0.00    -0.222 A  
HETATM   13  C   UNL     1      -9.332   8.789  66.879  1.00  0.00    -0.213 A  
HETATM   14  C   UNL     1     -10.681   8.139  67.009  1.00  0.00    -0.247 C  
HETATM   15  C   UNL     1     -10.555   6.681  67.416  1.00  0.00    -0.370 C  
HETATM   16  C   UNL     1     -10.018   6.359  68.796  1.00  0.00    -0.165 A  
HETATM   17  C   UNL     1     -10.259   5.032  69.225  1.00  0.00    -0.245 A  
HETATM   18  C   UNL     1      -9.793   4.558  70.447  1.00  0.00    -0.302 A  
HETATM   19  C   UNL     1      -9.066   5.404  71.268  1.00  0.00    -0.162 A  
HETATM   20  C   UNL     1      -8.829   6.720  70.867  1.00  0.00    -0.146 A  
HETATM   21  C   UNL     1      -9.300   7.235  69.636  1.00  0.00    -0.153 A  
ENDBRANCH   6   7
ENDBRANCH   5   6
ENDBRANCH   4   5
ENDBRANCH   2   4
TORSDOF 4
ENDMDL
MODEL      103
REMARK 921   NORMALIZED FREE ENERGY PREDICTED BY IDOCK:   -3.92 KCAL/MOL
REMARK 922        TOTAL FREE ENERGY PREDICTED BY IDOCK:   -5.48 KCAL/MOL
REMARK 923 INTER-LIGAND FREE ENERGY PREDICTED BY IDOCK:   -5.02 KCAL/MOL
REMARK 924 INTRA-LIGAND FREE ENERGY PREDICTED BY IDOCK:   -0.45 KCAL/MOL
REMARK 927      BINDING AFFINITY PREDICTED BY RF-SCORE:    0.00 PKD
ROOT
HETATM    1  C   UNL     1      -5.454  11.247  66.874  1.00  0.00    -0.098 C  
HETATM    2  N   UNL     1      -6.079  12.556  66.769  1.00  0.00    -0.466 NA 
HETATM    3  H   UNL     1      -7.006  12.487  66.349  1.00  0.00     0.000 HD 
ENDROOT
BRANCH   2   4
HETATM    4  C   UNL     1      -6.133  13.257  68.056  1.00  0.00    -0.122 C  
BRANCH   4   5
HETATM    5  C   UNL     1      -6.116  14.760  67.771  1.00  0.00    -0.143 C  
BRANCH   5   6
HETATM    6  C   UNL     1      -6.251  15.632  69.025  1.00  0.00    -0.113 C  
BRANCH   6   7
HETATM    7  N   UNL     1      -7.330  16.640  68.862  1.00  0.00    -0.214 NA 
HETATM    8  C   UNL     1      -8.597  16.106  68.547  1.00  0.00    -0.202 A  
HETATM    9  C   UNL     1      -9.342  15.478  69.557  1.00  0.00    -0.276 A  
HETATM   10  C   UNL     1     -10.644  15.030  69.327  1.00  0.00    -0.249 A  
HETATM   11  C   UNL     1     -11.218  15.194  68.072  1.00  0.00    -0.329 A  
HETATM   12  C   UNL     1     -10.485  15.790  67.048  1.00  0.00    -0.309 A  
HETATM   13  C   UNL     1      -9.177  16.251  67.279  1.00  0.00    -0.217 A  
HETATM   14  C   UNL     1      -8.411  16.920  66.172  1.00  0.00    -0.286 C  
HETATM   15  C   UNL     1      -8.219  18.401  66.451  1.00  0.00    -0.280 C  
HETATM   16  C   UNL     1      -7.336  18.810  67.612  1.00  0.00    -0.238 A  
HETATM   17  C   UNL     1      -6.927  20.165  67.590  1.00  0.00    -0.302 A  
HETATM   18  C   UNL     1      -6.151  20.715  68.606  1.00  0.00    -0.371 A  
HETATM   19  C   UNL     1      -5.771  19.919  69.674  1.00  0.00    -0.310 A  
HETATM   20  C   UNL     1      -6.154  18.577  69.706  1.00  0.00    -0.238 A  
HETATM   21  C   UNL     1      -6.932  17.986  68.683  1.00  0.00    -0.260 A  
ENDBRANCH   6   7
ENDBRANCH   5   6
ENDBRANCH   4   5
ENDBRANCH   2   4
TORSDOF 4
ENDMDL
MODEL      104
REMARK 921   NORMALIZED FREE ENERGY PREDICTED BY IDOCK:   -3.91 KCAL/MOL
REMARK 922        TOTAL FREE ENERGY PREDICTED BY IDOCK:   -5.48 KCAL/MOL
REMARK 923 INTER-LIGAND FREE ENERGY PREDICTED BY IDOCK:   -5.36 KCAL/MOL
REMARK 924 INTRA-LIGAND FREE ENERGY PREDICTED BY IDOCK:   -0.11 KCAL/MOL
REMARK 927      BINDING AFFINITY PREDICTED BY RF-SCORE:    0.00 PKD
ROOT
HETATM    1  C   UNL     1     -11.944  13.835  66.401  1.00  0.00    -0.438 C  
HETATM    2  N   UNL     1     -12.404  14.288  67.703  1.00  0.00    -0.582 NA 
HETATM    3  H   UNL     1     -13.417  14.198  67.786  1.00  0.00     0.000 HD 
ENDROOT
BRANCH   2   4
HETATM    4  C   UNL     1     -11.722  13.607  68.808  1.00  0.00    -0.348 C  
BRANCH   4   5
HETATM    5  C   UNL     1     -11.698  12.111  68.493  1.00  0.00    -0.382 C  
BRANCH   5   6
HETATM    6  C   UNL     1     -11.583  11.216  69.734  1.00  0.00    -0.334 C  
BRANCH   6   7
HETATM    7  N   UNL     1     -10.577  10.142  69.527  1.00  0.00    -0.228 NA 
HETATM    8  C   UNL     1      -9.699  10.353  68.444  1.00  0.00    -0.158 A  
HETATM    9  C   UNL     1      -8.664  11.291  68.578  1.00  0.00    -0.156 A  
HETATM   10  C   UNL     1      -7.704  11.460  67.579  1.00  0.00    -0.125 A  
HETATM   11  C   UNL     1      -7.773  10.697  66.420  1.00  0.00    -0.141 A  
HETATM   12  C   UNL     1      -8.808   9.780  66.256  1.00  0.00    -0.165 A  
HETATM   13  C   UNL     1      -9.772   9.601  67.264  1.00  0.00    -0.213 A  
HETATM   14  C   UNL     1     -10.865   8.585  67.084  1.00  0.00    -0.062 C  
HETATM   15  C   UNL     1     -10.690   7.412  68.034  1.00  0.00    -0.191 C  
HETATM   16  C   UNL     1     -10.852   7.654  69.520  1.00  0.00    -0.171 A  
HETATM   17  C   UNL     1     -11.025   6.479  70.291  1.00  0.00    -0.365 A  
HETATM   18  C   UNL     1     -11.143   6.520  71.677  1.00  0.00    -0.302 A  
HETATM   19  C   UNL     1     -11.083   7.742  72.325  1.00  0.00    -0.355 A  
HETATM   20  C   UNL     1     -10.926   8.913  71.581  1.00  0.00    -0.415 A  
HETATM   21  C   UNL     1     -10.816   8.905  70.170  1.00  0.00    -0.231 A  
ENDBRANCH   6   7
ENDBRANCH   5   6
ENDBRANCH   4   5
ENDBRANCH   2   4
TORSDOF 4
ENDMDL
MODEL      105
REMARK 921   NORMALIZED FREE ENERGY PREDICTED BY IDOCK:   -3.90 KCAL/MOL
REMARK 922        TOTAL FREE ENERGY PREDICTED BY IDOCK:   -5.45 KCAL/MOL
REMARK 923 INTER-LIGAND FREE ENERGY PREDICTED BY IDOCK:   -4.88 KCAL/MOL
REMARK 924 INTRA-LIGAND FREE ENERGY PREDICTED BY IDOCK:   -0.57 KCAL/MOL
REMARK 927      BINDING AFFINITY PREDICTED BY RF-SCORE:    0.00 PKD
ROOT
HETATM    1  C   UNL     1     -13.706   9.339  71.625  1.00  0.00    -0.354 C  
HETATM    2  N   UNL     1     -14.347   8.154  71.080  1.00  0.00    -0.664 NA 
HETATM    3  H   UNL     1     -14.046   7.983  70.121  1.00  0.00     0.000 HD 
ENDROOT
BRANCH   2   4
HETATM    4  C   UNL     1     -14.142   6.968  71.917  1.00  0.00    -0.188 C  
BRANCH   4   5
HETATM    5  C   UNL     1     -12.650   6.877  72.243  1.00  0.00    -0.040 C  
BRANCH   5   6
HETATM    6  C   UNL     1     -11.881   5.888  71.358  1.00  0.00     0.176 C  
BRANCH   6   7
HETATM    7  N   UNL     1     -10.601   6.478  70.885  1.00  0.00    -0.223 NA 
HETATM    8  C   UNL     1      -9.644   6.703  71.894  1.00  0.00    -0.149 A  
HETATM    9  C   UNL     1      -8.939   5.609  72.422  1.00  0.00    -0.135 A  
HETATM   10  C   UNL     1      -7.906   5.788  73.343  1.00  0.00    -0.109 A  
HETATM   11  C   UNL     1      -7.568   7.069  73.762  1.00  0.00    -0.108 A  
HETATM   12  C   UNL     1      -8.273   8.166  73.271  1.00  0.00    -0.259 A  
HETATM   13  C   UNL     1      -9.309   7.990  72.336  1.00  0.00    -0.272 A  
HETATM   14  C   UNL     1     -10.039   9.187  71.792  1.00  0.00    -0.279 C  
HETATM   15  C   UNL     1      -9.716   9.410  70.325  1.00  0.00    -0.292 C  
HETATM   16  C   UNL     1     -10.187   8.384  69.315  1.00  0.00    -0.211 A  
HETATM   17  C   UNL     1     -10.163   8.828  67.971  1.00  0.00    -0.264 A  
HETATM   18  C   UNL     1     -10.521   7.995  66.916  1.00  0.00    -0.387 A  
HETATM   19  C   UNL     1     -10.905   6.691  67.183  1.00  0.00    -0.471 A  
HETATM   20  C   UNL     1     -10.947   6.240  68.503  1.00  0.00    -0.421 A  
HETATM   21  C   UNL     1     -10.601   7.065  69.598  1.00  0.00    -0.234 A  
ENDBRANCH   6   7
ENDBRANCH   5   6
ENDBRANCH   4   5
ENDBRANCH   2   4
TORSDOF 4
ENDMDL
MODEL      106
REMARK 921   NORMALIZED FREE ENERGY PREDICTED BY IDOCK:   -3.90 KCAL/MOL
REMARK 922        TOTAL FREE ENERGY PREDICTED BY IDOCK:   -5.45 KCAL/MOL
REMARK 923 INTER-LIGAND FREE ENERGY PREDICTED BY IDOCK:   -5.23 KCAL/MOL
REMARK 924 INTRA-LIGAND FREE ENERGY PREDICTED BY IDOCK:   -0.22 KCAL/MOL
REMARK 927      BINDING AFFINITY PREDICTED BY RF-SCORE:    0.00 PKD
ROOT
HETATM    1  C   UNL     1      -9.334  10.081  63.864  1.00  0.00    -0.263 C  
HETATM    2  N   UNL     1     -10.161  10.401  65.016  1.00  0.00    -0.323 NA 
HETATM    3  H   UNL     1     -10.432   9.556  65.518  1.00  0.00     0.000 HD 
ENDROOT
BRANCH   2   4
HETATM    4  C   UNL     1      -9.523  11.368  65.914  1.00  0.00    -0.228 C  
BRANCH   4   5
HETATM    5  C   UNL     1     -10.292  11.356  67.237  1.00  0.00    -0.230 C  
BRANCH   5   6
HETATM    6  C   UNL     1     -10.895   9.991  67.592  1.00  0.00    -0.278 C  
BRANCH   6   7
HETATM    7  N   UNL     1     -10.556   9.603  68.986  1.00  0.00    -0.215 NA 
HETATM    8  C   UNL     1      -9.507   8.669  69.103  1.00  0.00    -0.157 A  
HETATM    9  C   UNL     1      -8.185   9.101  68.906  1.00  0.00    -0.112 A  
HETATM   10  C   UNL     1      -7.104   8.244  69.116  1.00  0.00    -0.064 A  
HETATM   11  C   UNL     1      -7.329   6.933  69.516  1.00  0.00    -0.091 A  
HETATM   12  C   UNL     1      -8.634   6.477  69.691  1.00  0.00    -0.132 A  
HETATM   13  C   UNL     1      -9.726   7.340  69.489  1.00  0.00    -0.158 A  
HETATM   14  C   UNL     1     -11.126   6.841  69.711  1.00  0.00    -0.368 C  
HETATM   15  C   UNL     1     -11.755   7.489  70.934  1.00  0.00    -0.307 C  
HETATM   16  C   UNL     1     -12.051   8.974  70.894  1.00  0.00    -0.247 A  
HETATM   17  C   UNL     1     -12.939   9.424  71.901  1.00  0.00    -0.502 A  
HETATM   18  C   UNL     1     -13.279  10.765  72.034  1.00  0.00    -0.466 A  
HETATM   19  C   UNL     1     -12.732  11.693  71.164  1.00  0.00    -0.426 A  
HETATM   20  C   UNL     1     -11.864  11.267  70.157  1.00  0.00    -0.449 A  
HETATM   21  C   UNL     1     -11.507   9.909  69.987  1.00  0.00    -0.217 A  
ENDBRANCH   6   7
ENDBRANCH   5   6
ENDBRANCH   4   5
ENDBRANCH   2   4
TORSDOF 4
ENDMDL
MODEL      107
REMARK 921   NORMALIZED FREE ENERGY PREDICTED BY IDOCK:   -3.89 KCAL/MOL
REMARK 922        TOTAL FREE ENERGY PREDICTED BY IDOCK:   -5.45 KCAL/MOL
REMARK 923 INTER-LIGAND FREE ENERGY PREDICTED BY IDOCK:   -4.75 KCAL/MOL
REMARK 924 INTRA-LIGAND FREE ENERGY PREDICTED BY IDOCK:   -0.70 KCAL/MOL
REMARK 927      BINDING AFFINITY PREDICTED BY RF-SCORE:    0.00 PKD
ROOT
HETATM    1  C   UNL     1      -5.588   9.117  72.373  1.00  0.00    -0.068 C  
HETATM    2  N   UNL     1      -6.382   9.174  73.590  1.00  0.00    -0.323 NA 
HETATM    3  H   UNL     1      -6.932  10.032  73.629  1.00  0.00     0.000 HD 
ENDROOT
BRANCH   2   4
HETATM    4  C   UNL     1      -7.233   7.993  73.762  1.00  0.00    -0.142 C  
BRANCH   4   5
HETATM    5  C   UNL     1      -8.683   8.425  73.542  1.00  0.00    -0.160 C  
BRANCH   5   6
HETATM    6  C   UNL     1      -9.642   7.263  73.252  1.00  0.00    -0.212 C  
BRANCH   6   7
HETATM    7  N   UNL     1     -10.141   7.318  71.853  1.00  0.00    -0.178 NA 
HETATM    8  C   UNL     1      -9.531   6.404  70.970  1.00  0.00    -0.171 A  
HETATM    9  C   UNL     1      -9.887   5.048  71.039  1.00  0.00    -0.266 A  
HETATM   10  C   UNL     1      -9.396   4.121  70.118  1.00  0.00    -0.234 A  
HETATM   11  C   UNL     1      -8.527   4.537  69.117  1.00  0.00    -0.091 A  
HETATM   12  C   UNL     1      -8.140   5.873  69.047  1.00  0.00    -0.103 A  
HETATM   13  C   UNL     1      -8.640   6.812  69.968  1.00  0.00    -0.141 A  
HETATM   14  C   UNL     1      -8.237   8.255  69.860  1.00  0.00    -0.123 C  
HETATM   15  C   UNL     1      -9.405   9.124  69.425  1.00  0.00    -0.160 C  
HETATM   16  C   UNL     1     -10.576   9.289  70.372  1.00  0.00    -0.298 A  
HETATM   17  C   UNL     1     -11.437  10.368  70.059  1.00  0.00    -0.382 A  
HETATM   18  C   UNL     1     -12.584  10.631  70.800  1.00  0.00    -0.479 A  
HETATM   19  C   UNL     1     -12.900   9.814  71.872  1.00  0.00    -0.520 A  
HETATM   20  C   UNL     1     -12.056   8.753  72.205  1.00  0.00    -0.441 A  
HETATM   21  C   UNL     1     -10.876   8.466  71.478  1.00  0.00    -0.258 A  
ENDBRANCH   6   7
ENDBRANCH   5   6
ENDBRANCH   4   5
ENDBRANCH   2   4
TORSDOF 4
ENDMDL
MODEL      108
REMARK 921   NORMALIZED FREE ENERGY PREDICTED BY IDOCK:   -3.88 KCAL/MOL
REMARK 922        TOTAL FREE ENERGY PREDICTED BY IDOCK:   -5.43 KCAL/MOL
REMARK 923 INTER-LIGAND FREE ENERGY PREDICTED BY IDOCK:   -5.14 KCAL/MOL
REMARK 924 INTRA-LIGAND FREE ENERGY PREDICTED BY IDOCK:   -0.29 KCAL/MOL
REMARK 927      BINDING AFFINITY PREDICTED BY RF-SCORE:    0.00 PKD
ROOT
HETATM    1  C   UNL     1      -7.356   6.112  72.561  1.00  0.00    -0.086 C  
HETATM    2  N   UNL     1      -8.067   7.035  71.693  1.00  0.00    -0.103 NA 
HETATM    3  H   UNL     1      -7.987   7.994  72.032  1.00  0.00     0.000 HD 
ENDROOT
BRANCH   2   4
HETATM    4  C   UNL     1      -7.641   6.932  70.293  1.00  0.00    -0.091 C  
BRANCH   4   5
HETATM    5  C   UNL     1      -8.512   7.881  69.468  1.00  0.00    -0.133 C  
BRANCH   5   6
HETATM    6  C   UNL     1      -9.228   8.951  70.302  1.00  0.00    -0.185 C  
BRANCH   6   7
HETATM    7  N   UNL     1     -10.628   9.139  69.841  1.00  0.00    -0.223 NA 
HETATM    8  C   UNL     1     -10.798  10.131  68.854  1.00  0.00    -0.223 A  
HETATM    9  C   UNL     1     -10.405   9.855  67.534  1.00  0.00    -0.289 A  
HETATM   10  C   UNL     1     -10.651  10.760  66.500  1.00  0.00    -0.279 A  
HETATM   11  C   UNL     1     -11.286  11.965  66.773  1.00  0.00    -0.393 A  
HETATM   12  C   UNL     1     -11.659  12.270  68.080  1.00  0.00    -0.408 A  
HETATM   13  C   UNL     1     -11.422  11.358  69.123  1.00  0.00    -0.365 A  
HETATM   14  C   UNL     1     -11.859  11.689  70.523  1.00  0.00    -0.328 C  
HETATM   15  C   UNL     1     -13.010  10.801  70.966  1.00  0.00    -0.425 C  
HETATM   16  C   UNL     1     -12.750   9.321  71.158  1.00  0.00    -0.306 A  
HETATM   17  C   UNL     1     -13.747   8.640  71.896  1.00  0.00    -0.462 A  
HETATM   18  C   UNL     1     -13.686   7.269  72.124  1.00  0.00    -0.077 A  
HETATM   19  C   UNL     1     -12.623   6.545  71.610  1.00  0.00    -0.220 A  
HETATM   20  C   UNL     1     -11.623   7.201  70.890  1.00  0.00    -0.350 A  
HETATM   21  C   UNL     1     -11.651   8.595  70.652  1.00  0.00    -0.200 A  
ENDBRANCH   6   7
ENDBRANCH   5   6
ENDBRANCH   4   5
ENDBRANCH   2   4
TORSDOF 4
ENDMDL
MODEL      109
REMARK 921   NORMALIZED FREE ENERGY PREDICTED BY IDOCK:   -3.87 KCAL/MOL
REMARK 922        TOTAL FREE ENERGY PREDICTED BY IDOCK:   -5.43 KCAL/MOL
REMARK 923 INTER-LIGAND FREE ENERGY PREDICTED BY IDOCK:   -5.52 KCAL/MOL
REMARK 924 INTRA-LIGAND FREE ENERGY PREDICTED BY IDOCK:    0.09 KCAL/MOL
REMARK 927      BINDING AFFINITY PREDICTED BY RF-SCORE:    0.00 PKD
ROOT
HETATM    1  C   UNL     1     -13.097  12.648  71.691  1.00  0.00    -0.323 C  
HETATM    2  N   UNL     1     -12.068  12.031  70.871  1.00  0.00    -0.408 NA 
HETATM    3  H   UNL     1     -12.272  11.046  70.704  1.00  0.00     0.000 HD 
ENDROOT
BRANCH   2   4
HETATM    4  C   UNL     1     -11.851  12.745  69.608  1.00  0.00    -0.317 C  
BRANCH   4   5
HETATM    5  C   UNL     1     -12.155  11.777  68.464  1.00  0.00    -0.134 C  
BRANCH   5   6
HETATM    6  C   UNL     1     -10.968  10.890  68.069  1.00  0.00    -0.265 C  
BRANCH   6   7
HETATM    7  N   UNL     1     -10.147  11.535  67.012  1.00  0.00    -0.206 NA 
HETATM    8  C   UNL     1     -10.848  11.861  65.834  1.00  0.00    -0.297 A  
HETATM    9  C   UNL     1     -11.708  12.970  65.836  1.00  0.00    -0.442 A  
HETATM   10  C   UNL     1     -12.342  13.400  64.669  1.00  0.00    -0.433 A  
HETATM   11  C   UNL     1     -12.132  12.717  63.478  1.00  0.00    -0.648 A  
HETATM   12  C   UNL     1     -11.304  11.597  63.460  1.00  0.00    -0.447 A  
HETATM   13  C   UNL     1     -10.657  11.166  64.631  1.00  0.00    -0.386 A  
HETATM   14  C   UNL     1      -9.742   9.974  64.588  1.00  0.00    -0.339 C  
HETATM   15  C   UNL     1      -8.292  10.384  64.791  1.00  0.00    -0.157 C  
HETATM   16  C   UNL     1      -7.878  10.934  66.140  1.00  0.00    -0.144 A  
HETATM   17  C   UNL     1      -6.480  10.955  66.361  1.00  0.00    -0.130 A  
HETATM   18  C   UNL     1      -5.929  11.472  67.529  1.00  0.00    -0.071 A  
HETATM   19  C   UNL     1      -6.768  11.986  68.504  1.00  0.00    -0.066 A  
HETATM   20  C   UNL     1      -8.150  11.961  68.309  1.00  0.00    -0.154 A  
HETATM   21  C   UNL     1      -8.742  11.433  67.138  1.00  0.00    -0.155 A  
ENDBRANCH   6   7
ENDBRANCH   5   6
ENDBRANCH   4   5
ENDBRANCH   2   4
TORSDOF 4
ENDMDL
MODEL      110
REMARK 921   NORMALIZED FREE ENERGY PREDICTED BY IDOCK:   -3.87 KCAL/MOL
REMARK 922        TOTAL FREE ENERGY PREDICTED BY IDOCK:   -5.42 KCAL/MOL
REMARK 923 INTER-LIGAND FREE ENERGY PREDICTED BY IDOCK:   -4.94 KCAL/MOL
REMARK 924 INTRA-LIGAND FREE ENERGY PREDICTED BY IDOCK:   -0.48 KCAL/MOL
REMARK 927      BINDING AFFINITY PREDICTED BY RF-SCORE:    0.00 PKD
ROOT
HETATM    1  C   UNL     1      -9.961   4.112  74.502  1.00  0.00    -0.178 C  
HETATM    2  N   UNL     1      -9.847   5.190  73.535  1.00  0.00    -0.152 NA 
HETATM    3  H   UNL     1      -8.870   5.380  73.310  1.00  0.00     0.000 HD 
ENDROOT
BRANCH   2   4
HETATM    4  C   UNL     1     -10.629   4.941  72.320  1.00  0.00    -0.185 C  
BRANCH   4   5
HETATM    5  C   UNL     1      -9.835   5.483  71.131  1.00  0.00    -0.235 C  
BRANCH   5   6
HETATM    6  C   UNL     1     -10.660   5.631  69.847  1.00  0.00    -0.328 C  
BRANCH   6   7
HETATM    7  N   UNL     1     -11.026   7.051  69.606  1.00  0.00    -0.248 NA 
HETATM    8  C   UNL     1     -10.268   7.697  68.609  1.00  0.00    -0.199 A  
HETATM    9  C   UNL     1     -10.527   7.406  67.260  1.00  0.00    -0.385 A  
HETATM   10  C   UNL     1      -9.882   8.096  66.232  1.00  0.00    -0.193 A  
HETATM   11  C   UNL     1      -8.955   9.084  66.540  1.00  0.00    -0.177 A  
HETATM   12  C   UNL     1      -8.664   9.369  67.872  1.00  0.00    -0.120 A  
HETATM   13  C   UNL     1      -9.318   8.682  68.910  1.00  0.00    -0.145 A  
HETATM   14  C   UNL     1      -9.014   9.023  70.342  1.00  0.00    -0.235 C  
HETATM   15  C   UNL     1     -10.197   9.705  71.009  1.00  0.00    -0.252 C  
HETATM   16  C   UNL     1     -11.462   8.902  71.234  1.00  0.00    -0.368 A  
HETATM   17  C   UNL     1     -12.367   9.479  72.157  1.00  0.00    -0.332 A  
HETATM   18  C   UNL     1     -13.597   8.895  72.443  1.00  0.00    -0.500 A  
HETATM   19  C   UNL     1     -13.952   7.718  71.805  1.00  0.00    -0.477 A  
HETATM   20  C   UNL     1     -13.067   7.128  70.902  1.00  0.00    -0.083 A  
HETATM   21  C   UNL     1     -11.805   7.691  70.598  1.00  0.00    -0.147 A  
ENDBRANCH   6   7
ENDBRANCH   5   6
ENDBRANCH   4   5
ENDBRANCH   2   4
TORSDOF 4
ENDMDL
MODEL      111
REMARK 921   NORMALIZED FREE ENERGY PREDICTED BY IDOCK:   -3.87 KCAL/MOL
REMARK 922        TOTAL FREE ENERGY PREDICTED BY IDOCK:   -5.42 KCAL/MOL
REMARK 923 INTER-LIGAND FREE ENERGY PREDICTED BY IDOCK:   -5.38 KCAL/MOL
REMARK 924 INTRA-LIGAND FREE ENERGY PREDICTED BY IDOCK:   -0.04 KCAL/MOL
REMARK 927      BINDING AFFINITY PREDICTED BY RF-SCORE:    0.00 PKD
ROOT
HETATM    1  C   UNL     1     -10.674  15.111  64.923  1.00  0.00    -0.398 C  
HETATM    2  N   UNL     1     -10.197  13.752  65.117  1.00  0.00    -0.475 NA 
HETATM    3  H   UNL     1      -9.303  13.606  64.650  1.00  0.00     0.000 HD 
ENDROOT
BRANCH   2   4
HETATM    4  C   UNL     1     -10.119  13.381  66.534  1.00  0.00    -0.280 C  
BRANCH   4   5
HETATM    5  C   UNL     1     -10.146  11.854  66.621  1.00  0.00    -0.225 C  
BRANCH   5   6
HETATM    6  C   UNL     1     -11.227  11.305  67.561  1.00  0.00    -0.291 C  
BRANCH   6   7
HETATM    7  N   UNL     1     -10.778  11.350  68.976  1.00  0.00    -0.211 NA 
HETATM    8  C   UNL     1      -9.820  10.376  69.325  1.00  0.00    -0.225 A  
HETATM    9  C   UNL     1      -8.492  10.544  68.902  1.00  0.00    -0.152 A  
HETATM   10  C   UNL     1      -7.484   9.668  69.311  1.00  0.00    -0.085 A  
HETATM   11  C   UNL     1      -7.794   8.600  70.142  1.00  0.00    -0.098 A  
HETATM   12  C   UNL     1      -9.110   8.399  70.550  1.00  0.00    -0.163 A  
HETATM   13  C   UNL     1     -10.127   9.284  70.149  1.00  0.00    -0.249 A  
HETATM   14  C   UNL     1     -11.537   9.071  70.623  1.00  0.00    -0.265 C  
HETATM   15  C   UNL     1     -11.960  10.157  71.599  1.00  0.00    -0.314 C  
HETATM   16  C   UNL     1     -12.109  11.574  71.085  1.00  0.00    -0.149 A  
HETATM   17  C   UNL     1     -12.832  12.437  71.943  1.00  0.00    -0.315 A  
HETATM   18  C   UNL     1     -13.021  13.782  71.643  1.00  0.00    -0.448 A  
HETATM   19  C   UNL     1     -12.482  14.297  70.476  1.00  0.00    -0.428 A  
HETATM   20  C   UNL     1     -11.777  13.459  69.611  1.00  0.00    -0.375 A  
HETATM   21  C   UNL     1     -11.578  12.084  69.882  1.00  0.00    -0.238 A  
ENDBRANCH   6   7
ENDBRANCH   5   6
ENDBRANCH   4   5
ENDBRANCH   2   4
TORSDOF 4
ENDMDL
MODEL      112
REMARK 921   NORMALIZED FREE ENERGY PREDICTED BY IDOCK:   -3.84 KCAL/MOL
REMARK 922        TOTAL FREE ENERGY PREDICTED BY IDOCK:   -5.38 KCAL/MOL
REMARK 923 INTER-LIGAND FREE ENERGY PREDICTED BY IDOCK:   -5.27 KCAL/MOL
REMARK 924 INTRA-LIGAND FREE ENERGY PREDICTED BY IDOCK:   -0.11 KCAL/MOL
REMARK 927      BINDING AFFINITY PREDICTED BY RF-SCORE:    0.00 PKD
ROOT
HETATM    1  C   UNL     1     -12.109  14.201  68.889  1.00  0.00    -0.304 C  
HETATM    2  N   UNL     1     -11.077  13.235  69.228  1.00  0.00    -0.413 NA 
HETATM    3  H   UNL     1     -11.459  12.471  69.785  1.00  0.00     0.000 HD 
ENDROOT
BRANCH   2   4
HETATM    4  C   UNL     1     -10.374  12.726  68.046  1.00  0.00    -0.229 C  
BRANCH   4   5
HETATM    5  C   UNL     1      -9.646  11.444  68.451  1.00  0.00    -0.197 C  
BRANCH   5   6
HETATM    6  C   UNL     1     -10.549  10.205  68.501  1.00  0.00    -0.216 C  
BRANCH   6   7
HETATM    7  N   UNL     1     -10.405   9.490  69.796  1.00  0.00    -0.214 NA 
HETATM    8  C   UNL     1      -9.249   8.690  69.905  1.00  0.00    -0.155 A  
HETATM    9  C   UNL     1      -8.007   9.311  70.114  1.00  0.00    -0.143 A  
HETATM   10  C   UNL     1      -6.851   8.562  70.337  1.00  0.00    -0.037 A  
HETATM   11  C   UNL     1      -6.917   7.175  70.344  1.00  0.00    -0.058 A  
HETATM   12  C   UNL     1      -8.135   6.539  70.111  1.00  0.00    -0.121 A  
HETATM   13  C   UNL     1      -9.304   7.290  69.895  1.00  0.00    -0.154 A  
HETATM   14  C   UNL     1     -10.615   6.588  69.677  1.00  0.00    -0.291 C  
HETATM   15  C   UNL     1     -11.554   6.796  70.853  1.00  0.00    -0.403 C  
HETATM   16  C   UNL     1     -12.087   8.189  71.117  1.00  0.00    -0.281 A  
HETATM   17  C   UNL     1     -13.205   8.236  71.984  1.00  0.00    -0.342 A  
HETATM   18  C   UNL     1     -13.788   9.439  72.366  1.00  0.00    -0.422 A  
HETATM   19  C   UNL     1     -13.260  10.628  71.893  1.00  0.00    -0.528 A  
HETATM   20  C   UNL     1     -12.166  10.602  71.026  1.00  0.00    -0.498 A  
HETATM   21  C   UNL     1     -11.558   9.394  70.609  1.00  0.00    -0.269 A  
ENDBRANCH   6   7
ENDBRANCH   5   6
ENDBRANCH   4   5
ENDBRANCH   2   4
TORSDOF 4
ENDMDL
MODEL      113
REMARK 921   NORMALIZED FREE ENERGY PREDICTED BY IDOCK:   -3.83 KCAL/MOL
REMARK 922        TOTAL FREE ENERGY PREDICTED BY IDOCK:   -5.37 KCAL/MOL
REMARK 923 INTER-LIGAND FREE ENERGY PREDICTED BY IDOCK:   -5.28 KCAL/MOL
REMARK 924 INTRA-LIGAND FREE ENERGY PREDICTED BY IDOCK:   -0.09 KCAL/MOL
REMARK 927      BINDING AFFINITY PREDICTED BY RF-SCORE:    0.00 PKD
ROOT
HETATM    1  C   UNL     1     -11.000  15.257  64.933  1.00  0.00    -0.430 C  
HETATM    2  N   UNL     1      -9.824  14.462  65.245  1.00  0.00    -0.554 NA 
HETATM    3  H   UNL     1      -8.969  14.958  64.993  1.00  0.00     0.000 HD 
ENDROOT
BRANCH   2   4
HETATM    4  C   UNL     1      -9.791  14.032  66.646  1.00  0.00    -0.284 C  
BRANCH   4   5
HETATM    5  C   UNL     1      -9.976  12.514  66.674  1.00  0.00    -0.243 C  
BRANCH   5   6
HETATM    6  C   UNL     1      -9.280  11.825  67.855  1.00  0.00    -0.181 C  
BRANCH   6   7
HETATM    7  N   UNL     1      -9.857  10.479  68.104  1.00  0.00    -0.150 NA 
HETATM    8  C   UNL     1     -10.684  10.390  69.242  1.00  0.00    -0.237 A  
HETATM    9  C   UNL     1     -11.979  10.931  69.188  1.00  0.00    -0.359 A  
HETATM   10  C   UNL     1     -12.875  10.775  70.247  1.00  0.00    -0.226 A  
HETATM   11  C   UNL     1     -12.483  10.082  71.386  1.00  0.00    -0.510 A  
HETATM   12  C   UNL     1     -11.194   9.562  71.471  1.00  0.00    -0.437 A  
HETATM   13  C   UNL     1     -10.291   9.709  70.403  1.00  0.00    -0.350 A  
HETATM   14  C   UNL     1      -8.914   9.114  70.497  1.00  0.00    -0.274 C  
HETATM   15  C   UNL     1      -8.751   7.946  69.540  1.00  0.00    -0.134 C  
HETATM   16  C   UNL     1      -8.772   8.223  68.051  1.00  0.00    -0.135 A  
HETATM   17  C   UNL     1      -8.269   7.169  67.250  1.00  0.00    -0.119 A  
HETATM   18  C   UNL     1      -8.260   7.242  65.861  1.00  0.00    -0.132 A  
HETATM   19  C   UNL     1      -8.762   8.372  65.239  1.00  0.00    -0.148 A  
HETATM   20  C   UNL     1      -9.251   9.427  66.012  1.00  0.00    -0.253 A  
HETATM   21  C   UNL     1      -9.263   9.389  67.426  1.00  0.00    -0.126 A  
ENDBRANCH   6   7
ENDBRANCH   5   6
ENDBRANCH   4   5
ENDBRANCH   2   4
TORSDOF 4
ENDMDL
MODEL      114
REMARK 921   NORMALIZED FREE ENERGY PREDICTED BY IDOCK:   -3.82 KCAL/MOL
REMARK 922        TOTAL FREE ENERGY PREDICTED BY IDOCK:   -5.36 KCAL/MOL
REMARK 923 INTER-LIGAND FREE ENERGY PREDICTED BY IDOCK:   -4.73 KCAL/MOL
REMARK 924 INTRA-LIGAND FREE ENERGY PREDICTED BY IDOCK:   -0.63 KCAL/MOL
REMARK 927      BINDING AFFINITY PREDICTED BY RF-SCORE:    0.00 PKD
ROOT
HETATM    1  C   UNL     1      -9.381  11.374  63.200  1.00  0.00    -0.289 C  
HETATM    2  N   UNL     1     -10.077  10.857  64.366  1.00  0.00    -0.314 NA 
HETATM    3  H   UNL     1     -10.985  10.468  64.109  1.00  0.00     0.000 HD 
ENDROOT
BRANCH   2   4
HETATM    4  C   UNL     1      -9.277   9.879  65.111  1.00  0.00    -0.234 C  
BRANCH   4   5
HETATM    5  C   UNL     1     -10.073   9.470  66.351  1.00  0.00    -0.328 C  
BRANCH   5   6
HETATM    6  C   UNL     1     -10.653  10.654  67.135  1.00  0.00    -0.260 C  
BRANCH   6   7
HETATM    7  N   UNL     1      -9.792  11.000  68.295  1.00  0.00    -0.172 NA 
HETATM    8  C   UNL     1      -8.694  11.831  67.991  1.00  0.00    -0.167 A  
HETATM    9  C   UNL     1      -8.918  13.197  67.755  1.00  0.00    -0.194 A  
HETATM   10  C   UNL     1      -7.857  14.082  67.557  1.00  0.00    -0.197 A  
HETATM   11  C   UNL     1      -6.551  13.610  67.582  1.00  0.00    -0.176 A  
HETATM   12  C   UNL     1      -6.309  12.254  67.787  1.00  0.00    -0.101 A  
HETATM   13  C   UNL     1      -7.374  11.360  67.996  1.00  0.00    -0.090 A  
HETATM   14  C   UNL     1      -7.094   9.905  68.247  1.00  0.00    -0.076 C  
HETATM   15  C   UNL     1      -7.428   9.518  69.679  1.00  0.00    -0.092 C  
HETATM   16  C   UNL     1      -8.877   9.546  70.117  1.00  0.00    -0.266 A  
HETATM   17  C   UNL     1      -9.141   8.848  71.320  1.00  0.00    -0.323 A  
HETATM   18  C   UNL     1     -10.411   8.813  71.886  1.00  0.00    -0.414 A  
HETATM   19  C   UNL     1     -11.449   9.484  71.262  1.00  0.00    -0.447 A  
HETATM   20  C   UNL     1     -11.212  10.166  70.067  1.00  0.00    -0.361 A  
HETATM   21  C   UNL     1      -9.934  10.211  69.460  1.00  0.00    -0.235 A  
ENDBRANCH   6   7
ENDBRANCH   5   6
ENDBRANCH   4   5
ENDBRANCH   2   4
TORSDOF 4
ENDMDL
MODEL      115
REMARK 921   NORMALIZED FREE ENERGY PREDICTED BY IDOCK:   -3.81 KCAL/MOL
REMARK 922        TOTAL FREE ENERGY PREDICTED BY IDOCK:   -5.35 KCAL/MOL
REMARK 923 INTER-LIGAND FREE ENERGY PREDICTED BY IDOCK:   -5.18 KCAL/MOL
REMARK 924 INTRA-LIGAND FREE ENERGY PREDICTED BY IDOCK:   -0.17 KCAL/MOL
REMARK 927      BINDING AFFINITY PREDICTED BY RF-SCORE:    0.00 PKD
ROOT
HETATM    1  C   UNL     1      -9.805  11.161  62.930  1.00  0.00    -0.289 C  
HETATM    2  N   UNL     1     -11.088  11.286  63.601  1.00  0.00    -0.585 NA 
HETATM    3  H   UNL     1     -11.024  10.986  64.574  1.00  0.00     0.000 HD 
ENDROOT
BRANCH   2   4
HETATM    4  C   UNL     1     -11.644  12.640  63.502  1.00  0.00    -0.514 C  
BRANCH   4   5
HETATM    5  C   UNL     1     -11.510  13.302  64.874  1.00  0.00    -0.342 C  
BRANCH   5   6
HETATM    6  C   UNL     1     -10.157  13.989  65.103  1.00  0.00    -0.314 C  
BRANCH   6   7
HETATM    7  N   UNL     1      -9.747  13.899  66.528  1.00  0.00    -0.286 NA 
HETATM    8  C   UNL     1      -9.847  15.106  67.251  1.00  0.00    -0.228 A  
HETATM    9  C   UNL     1     -11.115  15.559  67.648  1.00  0.00    -0.311 A  
HETATM   10  C   UNL     1     -11.262  16.688  68.457  1.00  0.00    -0.239 A  
HETATM   11  C   UNL     1     -10.137  17.390  68.872  1.00  0.00    -0.330 A  
HETATM   12  C   UNL     1      -8.872  16.973  68.465  1.00  0.00    -0.253 A  
HETATM   13  C   UNL     1      -8.719  15.831  67.659  1.00  0.00    -0.178 A  
HETATM   14  C   UNL     1      -7.345  15.376  67.255  1.00  0.00    -0.239 C  
HETATM   15  C   UNL     1      -6.974  14.070  67.936  1.00  0.00    -0.168 C  
HETATM   16  C   UNL     1      -7.741  12.817  67.565  1.00  0.00    -0.168 A  
HETATM   17  C   UNL     1      -7.120  11.609  67.962  1.00  0.00    -0.080 A  
HETATM   18  C   UNL     1      -7.713  10.370  67.740  1.00  0.00    -0.089 A  
HETATM   19  C   UNL     1      -8.950  10.314  67.119  1.00  0.00    -0.145 A  
HETATM   20  C   UNL     1      -9.572  11.494  66.709  1.00  0.00    -0.203 A  
HETATM   21  C   UNL     1      -8.989  12.768  66.910  1.00  0.00    -0.213 A  
ENDBRANCH   6   7
ENDBRANCH   5   6
ENDBRANCH   4   5
ENDBRANCH   2   4
TORSDOF 4
ENDMDL
MODEL      116
REMARK 921   NORMALIZED FREE ENERGY PREDICTED BY IDOCK:   -3.77 KCAL/MOL
REMARK 922        TOTAL FREE ENERGY PREDICTED BY IDOCK:   -5.30 KCAL/MOL
REMARK 923 INTER-LIGAND FREE ENERGY PREDICTED BY IDOCK:   -4.78 KCAL/MOL
REMARK 924 INTRA-LIGAND FREE ENERGY PREDICTED BY IDOCK:   -0.53 KCAL/MOL
REMARK 927      BINDING AFFINITY PREDICTED BY RF-SCORE:    0.00 PKD
ROOT
HETATM    1  C   UNL     1     -13.969  13.201  72.451  1.00  0.00    -0.397 C  
HETATM    2  N   UNL     1     -12.862  13.035  71.524  1.00  0.00    -0.338 NA 
HETATM    3  H   UNL     1     -13.125  12.433  70.743  1.00  0.00     0.000 HD 
ENDROOT
BRANCH   2   4
HETATM    4  C   UNL     1     -12.330  14.316  71.048  1.00  0.00    -0.361 C  
BRANCH   4   5
HETATM    5  C   UNL     1     -11.461  14.035  69.822  1.00  0.00    -0.293 C  
BRANCH   5   6
HETATM    6  C   UNL     1     -10.705  15.264  69.301  1.00  0.00    -0.252 C  
BRANCH   6   7
HETATM    7  N   UNL     1      -9.756  14.890  68.221  1.00  0.00    -0.209 NA 
HETATM    8  C   UNL     1     -10.335  14.755  66.943  1.00  0.00    -0.267 A  
HETATM    9  C   UNL     1     -10.686  15.911  66.227  1.00  0.00    -0.261 A  
HETATM   10  C   UNL     1     -11.161  15.837  64.917  1.00  0.00    -0.411 A  
HETATM   11  C   UNL     1     -11.304  14.599  64.304  1.00  0.00    -0.113 A  
HETATM   12  C   UNL     1     -10.988  13.438  65.005  1.00  0.00    -0.328 A  
HETATM   13  C   UNL     1     -10.501  13.509  66.323  1.00  0.00    -0.290 A  
HETATM   14  C   UNL     1     -10.134  12.248  67.055  1.00  0.00    -0.225 C  
HETATM   15  C   UNL     1      -8.633  12.147  67.263  1.00  0.00    -0.180 C  
HETATM   16  C   UNL     1      -7.961  13.144  68.185  1.00  0.00    -0.154 A  
HETATM   17  C   UNL     1      -6.658  12.776  68.598  1.00  0.00    -0.084 A  
HETATM   18  C   UNL     1      -5.885  13.600  69.409  1.00  0.00    -0.093 A  
HETATM   19  C   UNL     1      -6.397  14.820  69.820  1.00  0.00    -0.152 A  
HETATM   20  C   UNL     1      -7.685  15.194  69.432  1.00  0.00    -0.213 A  
HETATM   21  C   UNL     1      -8.501  14.373  68.619  1.00  0.00    -0.156 A  
ENDBRANCH   6   7
ENDBRANCH   5   6
ENDBRANCH   4   5
ENDBRANCH   2   4
TORSDOF 4
ENDMDL
MODEL      117
REMARK 921   NORMALIZED FREE ENERGY PREDICTED BY IDOCK:   -3.74 KCAL/MOL
REMARK 922        TOTAL FREE ENERGY PREDICTED BY IDOCK:   -5.26 KCAL/MOL
REMARK 923 INTER-LIGAND FREE ENERGY PREDICTED BY IDOCK:   -4.64 KCAL/MOL
REMARK 924 INTRA-LIGAND FREE ENERGY PREDICTED BY IDOCK:   -0.62 KCAL/MOL
REMARK 927      BINDING AFFINITY PREDICTED BY RF-SCORE:    0.00 PKD
ROOT
HETATM    1  C   UNL     1      -6.181   7.241  63.625  1.00  0.00    -0.045 C  
HETATM    2  N   UNL     1      -6.893   8.508  63.596  1.00  0.00    -0.087 NA 
HETATM    3  H   UNL     1      -7.244   8.711  62.660  1.00  0.00     0.000 HD 
ENDROOT
BRANCH   2   4
HETATM    4  C   UNL     1      -7.970   8.570  64.589  1.00  0.00    -0.143 C  
BRANCH   4   5
HETATM    5  C   UNL     1      -8.417  10.028  64.705  1.00  0.00    -0.182 C  
BRANCH   5   6
HETATM    6  C   UNL     1      -9.939  10.216  64.675  1.00  0.00    -0.234 C  
BRANCH   6   7
HETATM    7  N   UNL     1     -10.422  10.858  65.926  1.00  0.00    -0.245 NA 
HETATM    8  C   UNL     1     -10.786  12.213  65.794  1.00  0.00    -0.281 A  
HETATM    9  C   UNL     1     -11.999  12.536  65.164  1.00  0.00    -0.484 A  
HETATM   10  C   UNL     1     -12.458  13.853  65.104  1.00  0.00    -0.479 A  
HETATM   11  C   UNL     1     -11.701  14.873  65.665  1.00  0.00    -0.194 A  
HETATM   12  C   UNL     1     -10.481  14.578  66.269  1.00  0.00    -0.303 A  
HETATM   13  C   UNL     1     -10.020  13.252  66.340  1.00  0.00    -0.288 A  
HETATM   14  C   UNL     1      -8.716  12.946  67.023  1.00  0.00    -0.195 C  
HETATM   15  C   UNL     1      -8.938  12.186  68.320  1.00  0.00    -0.186 C  
HETATM   16  C   UNL     1      -9.487  10.776  68.247  1.00  0.00    -0.164 A  
HETATM   17  C   UNL     1      -9.332  10.023  69.435  1.00  0.00    -0.237 A  
HETATM   18  C   UNL     1      -9.822   8.726  69.552  1.00  0.00    -0.180 A  
HETATM   19  C   UNL     1     -10.486   8.154  68.480  1.00  0.00    -0.199 A  
HETATM   20  C   UNL     1     -10.636   8.876  67.295  1.00  0.00    -0.304 A  
HETATM   21  C   UNL     1     -10.140  10.192  67.141  1.00  0.00    -0.209 A  
ENDBRANCH   6   7
ENDBRANCH   5   6
ENDBRANCH   4   5
ENDBRANCH   2   4
TORSDOF 4
ENDMDL
MODEL      118
REMARK 921   NORMALIZED FREE ENERGY PREDICTED BY IDOCK:   -3.74 KCAL/MOL
REMARK 922        TOTAL FREE ENERGY PREDICTED BY IDOCK:   -5.26 KCAL/MOL
REMARK 923 INTER-LIGAND FREE ENERGY PREDICTED BY IDOCK:   -4.66 KCAL/MOL
REMARK 924 INTRA-LIGAND FREE ENERGY PREDICTED BY IDOCK:   -0.60 KCAL/MOL
REMARK 927      BINDING AFFINITY PREDICTED BY RF-SCORE:    0.00 PKD
ROOT
HETATM    1  C   UNL     1      -5.779  10.915  68.169  1.00  0.00    -0.046 C  
HETATM    2  N   UNL     1      -6.912  10.399  67.419  1.00  0.00    -0.084 NA 
HETATM    3  H   UNL     1      -7.785  10.820  67.738  1.00  0.00     0.000 HD 
ENDROOT
BRANCH   2   4
HETATM    4  C   UNL     1      -6.747  10.559  65.971  1.00  0.00    -0.130 C  
BRANCH   4   5
HETATM    5  C   UNL     1      -8.101  10.962  65.387  1.00  0.00     0.015 C  
BRANCH   5   6
HETATM    6  C   UNL     1      -9.115   9.813  65.315  1.00  0.00    -0.211 C  
BRANCH   6   7
HETATM    7  N   UNL     1     -10.248  10.039  66.249  1.00  0.00    -0.235 NA 
HETATM    8  C   UNL     1     -10.852  11.309  66.151  1.00  0.00    -0.222 A  
HETATM    9  C   UNL     1     -11.700  11.578  65.064  1.00  0.00     0.050 A  
HETATM   10  C   UNL     1     -12.408  12.778  64.977  1.00  0.00    -0.559 A  
HETATM   11  C   UNL     1     -12.268  13.736  65.973  1.00  0.00    -0.495 A  
HETATM   12  C   UNL     1     -11.411  13.499  67.045  1.00  0.00    -0.369 A  
HETATM   13  C   UNL     1     -10.703  12.288  67.142  1.00  0.00    -0.265 A  
HETATM   14  C   UNL     1      -9.806  12.036  68.321  1.00  0.00    -0.204 C  
HETATM   15  C   UNL     1     -10.373  10.953  69.224  1.00  0.00    -0.211 C  
HETATM   16  C   UNL     1     -10.447   9.536  68.694  1.00  0.00    -0.237 A  
HETATM   17  C   UNL     1     -10.645   8.547  69.687  1.00  0.00    -0.221 A  
HETATM   18  C   UNL     1     -10.782   7.200  69.366  1.00  0.00    -0.246 A  
HETATM   19  C   UNL     1     -10.731   6.812  68.038  1.00  0.00    -0.302 A  
HETATM   20  C   UNL     1     -10.524   7.772  67.045  1.00  0.00    -0.419 A  
HETATM   21  C   UNL     1     -10.369   9.147  67.340  1.00  0.00    -0.264 A  
ENDBRANCH   6   7
ENDBRANCH   5   6
ENDBRANCH   4   5
ENDBRANCH   2   4
TORSDOF 4
ENDMDL
MODEL      119
REMARK 921   NORMALIZED FREE ENERGY PREDICTED BY IDOCK:   -3.72 KCAL/MOL
REMARK 922        TOTAL FREE ENERGY PREDICTED BY IDOCK:   -5.23 KCAL/MOL
REMARK 923 INTER-LIGAND FREE ENERGY PREDICTED BY IDOCK:   -4.82 KCAL/MOL
REMARK 924 INTRA-LIGAND FREE ENERGY PREDICTED BY IDOCK:   -0.41 KCAL/MOL
REMARK 927      BINDING AFFINITY PREDICTED BY RF-SCORE:    0.00 PKD
ROOT
HETATM    1  C   UNL     1     -11.151  11.518  65.831  1.00  0.00    -0.214 C  
HETATM    2  N   UNL     1     -12.213  12.352  65.295  1.00  0.00    -0.553 NA 
HETATM    3  H   UNL     1     -13.102  11.851  65.282  1.00  0.00     0.000 HD 
ENDROOT
BRANCH   2   4
HETATM    4  C   UNL     1     -12.339  13.629  66.005  1.00  0.00    -0.445 C  
BRANCH   4   5
HETATM    5  C   UNL     1     -10.996  13.925  66.676  1.00  0.00    -0.302 C  
BRANCH   5   6
HETATM    6  C   UNL     1     -10.108  14.895  65.886  1.00  0.00    -0.325 C  
BRANCH   6   7
HETATM    7  N   UNL     1      -9.409  15.841  66.794  1.00  0.00    -0.228 NA 
HETATM    8  C   UNL     1      -8.501  15.241  67.690  1.00  0.00    -0.161 A  
HETATM    9  C   UNL     1      -7.261  14.795  67.207  1.00  0.00    -0.114 A  
HETATM   10  C   UNL     1      -6.284  14.294  68.069  1.00  0.00    -0.158 A  
HETATM   11  C   UNL     1      -6.539  14.219  69.432  1.00  0.00    -0.132 A  
HETATM   12  C   UNL     1      -7.774  14.630  69.929  1.00  0.00     0.243 A  
HETATM   13  C   UNL     1      -8.758  15.144  69.065  1.00  0.00    -0.215 A  
HETATM   14  C   UNL     1     -10.073  15.612  69.620  1.00  0.00    -0.292 C  
HETATM   15  C   UNL     1     -10.210  17.122  69.518  1.00  0.00    -0.079 C  
HETATM   16  C   UNL     1     -10.313  17.748  68.142  1.00  0.00    -0.393 A  
HETATM   17  C   UNL     1     -10.785  19.082  68.137  1.00  0.00    -0.202 A  
HETATM   18  C   UNL     1     -10.897  19.818  66.962  1.00  0.00    -0.465 A  
HETATM   19  C   UNL     1     -10.529  19.235  65.761  1.00  0.00    -0.438 A  
HETATM   20  C   UNL     1     -10.074  17.916  65.744  1.00  0.00    -0.058 A  
HETATM   21  C   UNL     1      -9.961  17.137  66.920  1.00  0.00    -0.288 A  
ENDBRANCH   6   7
ENDBRANCH   5   6
ENDBRANCH   4   5
ENDBRANCH   2   4
TORSDOF 4
ENDMDL
MODEL      120
REMARK 921   NORMALIZED FREE ENERGY PREDICTED BY IDOCK:   -3.72 KCAL/MOL
REMARK 922        TOTAL FREE ENERGY PREDICTED BY IDOCK:   -5.23 KCAL/MOL
REMARK 923 INTER-LIGAND FREE ENERGY PREDICTED BY IDOCK:   -4.69 KCAL/MOL
REMARK 924 INTRA-LIGAND FREE ENERGY PREDICTED BY IDOCK:   -0.54 KCAL/MOL
REMARK 927      BINDING AFFINITY PREDICTED BY RF-SCORE:    0.00 PKD
ROOT
HETATM    1  C   UNL     1      -9.304   5.016  65.502  1.00  0.00    -0.140 C  
HETATM    2  N   UNL     1     -10.621   5.178  66.094  1.00  0.00    -0.502 NA 
HETATM    3  H   UNL     1     -10.868   4.371  66.667  1.00  0.00     0.000 HD 
ENDROOT
BRANCH   2   4
HETATM    4  C   UNL     1     -10.746   6.425  66.856  1.00  0.00    -0.338 C  
BRANCH   4   5
HETATM    5  C   UNL     1     -11.147   6.061  68.286  1.00  0.00    -0.259 C  
BRANCH   5   6
HETATM    6  C   UNL     1     -10.186   5.080  68.971  1.00  0.00    -0.137 C  
BRANCH   6   7
HETATM    7  N   UNL     1      -9.710   5.618  70.271  1.00  0.00    -0.170 NA 
HETATM    8  C   UNL     1     -10.127   4.889  71.403  1.00  0.00    -0.198 A  
HETATM    9  C   UNL     1      -9.508   3.662  71.690  1.00  0.00    -0.215 A  
HETATM   10  C   UNL     1      -9.807   2.953  72.855  1.00  0.00    -0.187 A  
HETATM   11  C   UNL     1     -10.742   3.458  73.749  1.00  0.00    -0.299 A  
HETATM   12  C   UNL     1     -11.388   4.661  73.470  1.00  0.00    -0.353 A  
HETATM   13  C   UNL     1     -11.083   5.382  72.302  1.00  0.00    -0.259 A  
HETATM   14  C   UNL     1     -11.766   6.694  72.031  1.00  0.00    -0.354 C  
HETATM   15  C   UNL     1     -10.794   7.856  72.147  1.00  0.00    -0.327 C  
HETATM   16  C   UNL     1      -9.678   7.971  71.129  1.00  0.00    -0.190 A  
HETATM   17  C   UNL     1      -9.048   9.238  71.087  1.00  0.00    -0.197 A  
HETATM   18  C   UNL     1      -7.976   9.498  70.241  1.00  0.00    -0.190 A  
HETATM   19  C   UNL     1      -7.502   8.489  69.419  1.00  0.00    -0.088 A  
HETATM   20  C   UNL     1      -8.118   7.237  69.437  1.00  0.00    -0.130 A  
HETATM   21  C   UNL     1      -9.218   6.945  70.277  1.00  0.00    -0.156 A  
ENDBRANCH   6   7
ENDBRANCH   5   6
ENDBRANCH   4   5
ENDBRANCH   2   4
TORSDOF 4
ENDMDL
MODEL      121
REMARK 921   NORMALIZED FREE ENERGY PREDICTED BY IDOCK:   -3.68 KCAL/MOL
REMARK 922        TOTAL FREE ENERGY PREDICTED BY IDOCK:   -5.18 KCAL/MOL
REMARK 923 INTER-LIGAND FREE ENERGY PREDICTED BY IDOCK:   -4.98 KCAL/MOL
REMARK 924 INTRA-LIGAND FREE ENERGY PREDICTED BY IDOCK:   -0.20 KCAL/MOL
REMARK 927      BINDING AFFINITY PREDICTED BY RF-SCORE:    0.00 PKD
ROOT
HETATM    1  C   UNL     1     -13.227   8.769  72.085  1.00  0.00    -0.414 C  
HETATM    2  N   UNL     1     -13.015   9.597  70.909  1.00  0.00    -0.543 NA 
HETATM    3  H   UNL     1     -13.903   9.865  70.485  1.00  0.00     0.000 HD 
ENDROOT
BRANCH   2   4
HETATM    4  C   UNL     1     -12.188  10.775  71.192  1.00  0.00    -0.352 C  
BRANCH   4   5
HETATM    5  C   UNL     1     -10.957  10.711  70.287  1.00  0.00    -0.237 C  
BRANCH   5   6
HETATM    6  C   UNL     1     -11.287  10.710  68.788  1.00  0.00    -0.277 C  
BRANCH   6   7
HETATM    7  N   UNL     1     -10.310  11.529  68.025  1.00  0.00    -0.184 NA 
HETATM    8  C   UNL     1     -10.679  12.877  67.846  1.00  0.00    -0.220 A  
HETATM    9  C   UNL     1     -10.570  13.764  68.928  1.00  0.00    -0.224 A  
HETATM   10  C   UNL     1     -10.818  15.129  68.776  1.00  0.00    -0.247 A  
HETATM   11  C   UNL     1     -11.192  15.628  67.534  1.00  0.00    -0.245 A  
HETATM   12  C   UNL     1     -11.332  14.761  66.454  1.00  0.00    -0.339 A  
HETATM   13  C   UNL     1     -11.074  13.386  66.601  1.00  0.00    -0.310 A  
HETATM   14  C   UNL     1     -11.200  12.468  65.417  1.00  0.00    -0.343 C  
HETATM   15  C   UNL     1      -9.843  11.949  64.975  1.00  0.00    -0.234 C  
HETATM   16  C   UNL     1      -9.088  11.017  65.901  1.00  0.00    -0.214 A  
HETATM   17  C   UNL     1      -8.027  10.310  65.285  1.00  0.00    -0.148 A  
HETATM   18  C   UNL     1      -7.205   9.448  66.003  1.00  0.00    -0.092 A  
HETATM   19  C   UNL     1      -7.422   9.278  67.360  1.00  0.00    -0.087 A  
HETATM   20  C   UNL     1      -8.472   9.957  67.982  1.00  0.00    -0.117 A  
HETATM   21  C   UNL     1      -9.333  10.831  67.278  1.00  0.00    -0.151 A  
ENDBRANCH   6   7
ENDBRANCH   5   6
ENDBRANCH   4   5
ENDBRANCH   2   4
TORSDOF 4
ENDMDL
MODEL      122
REMARK 921   NORMALIZED FREE ENERGY PREDICTED BY IDOCK:   -3.68 KCAL/MOL
REMARK 922        TOTAL FREE ENERGY PREDICTED BY IDOCK:   -5.18 KCAL/MOL
REMARK 923 INTER-LIGAND FREE ENERGY PREDICTED BY IDOCK:   -4.61 KCAL/MOL
REMARK 924 INTRA-LIGAND FREE ENERGY PREDICTED BY IDOCK:   -0.57 KCAL/MOL
REMARK 927      BINDING AFFINITY PREDICTED BY RF-SCORE:    0.00 PKD
ROOT
HETATM    1  C   UNL     1      -7.782   7.673  74.299  1.00  0.00    -0.160 C  
HETATM    2  N   UNL     1      -7.121   7.563  73.010  1.00  0.00    -0.069 NA 
HETATM    3  H   UNL     1      -7.427   6.728  72.510  1.00  0.00     0.000 HD 
ENDROOT
BRANCH   2   4
HETATM    4  C   UNL     1      -7.294   8.764  72.186  1.00  0.00     0.051 C  
BRANCH   4   5
HETATM    5  C   UNL     1      -7.232   8.338  70.718  1.00  0.00    -0.055 C  
BRANCH   5   6
HETATM    6  C   UNL     1      -8.189   9.115  69.804  1.00  0.00    -0.128 C  
BRANCH   6   7
HETATM    7  N   UNL     1      -9.537   8.491  69.788  1.00  0.00    -0.169 NA 
HETATM    8  C   UNL     1     -10.589   9.344  70.181  1.00  0.00    -0.240 A  
HETATM    9  C   UNL     1     -11.039  10.329  69.287  1.00  0.00    -0.293 A  
HETATM   10  C   UNL     1     -12.146  11.126  69.582  1.00  0.00    -0.406 A  
HETATM   11  C   UNL     1     -12.816  10.956  70.787  1.00  0.00    -0.378 A  
HETATM   12  C   UNL     1     -12.370  10.003  71.700  1.00  0.00    -0.486 A  
HETATM   13  C   UNL     1     -11.260   9.192  71.402  1.00  0.00    -0.419 A  
HETATM   14  C   UNL     1     -10.810   8.148  72.384  1.00  0.00    -0.409 C  
HETATM   15  C   UNL     1     -11.075   6.746  71.859  1.00  0.00    -0.279 C  
HETATM   16  C   UNL     1     -10.296   6.267  70.652  1.00  0.00    -0.254 A  
HETATM   17  C   UNL     1     -10.334   4.867  70.446  1.00  0.00    -0.248 A  
HETATM   18  C   UNL     1      -9.711   4.267  69.357  1.00  0.00    -0.257 A  
HETATM   19  C   UNL     1      -9.037   5.059  68.442  1.00  0.00    -0.137 A  
HETATM   20  C   UNL     1      -8.978   6.440  68.635  1.00  0.00    -0.125 A  
HETATM   21  C   UNL     1      -9.592   7.079  69.738  1.00  0.00    -0.151 A  
ENDBRANCH   6   7
ENDBRANCH   5   6
ENDBRANCH   4   5
ENDBRANCH   2   4
TORSDOF 4
ENDMDL
MODEL      123
REMARK 921   NORMALIZED FREE ENERGY PREDICTED BY IDOCK:   -3.67 KCAL/MOL
REMARK 922        TOTAL FREE ENERGY PREDICTED BY IDOCK:   -5.17 KCAL/MOL
REMARK 923 INTER-LIGAND FREE ENERGY PREDICTED BY IDOCK:   -5.25 KCAL/MOL
REMARK 924 INTRA-LIGAND FREE ENERGY PREDICTED BY IDOCK:    0.08 KCAL/MOL
REMARK 927      BINDING AFFINITY PREDICTED BY RF-SCORE:    0.00 PKD
ROOT
HETATM    1  C   UNL     1      -5.657  18.052  69.893  1.00  0.00    -0.240 C  
HETATM    2  N   UNL     1      -6.021  17.017  68.940  1.00  0.00    -0.152 NA 
HETATM    3  H   UNL     1      -5.207  16.465  68.669  1.00  0.00     0.000 HD 
ENDROOT
BRANCH   2   4
HETATM    4  C   UNL     1      -7.102  16.156  69.430  1.00  0.00    -0.215 C  
BRANCH   4   5
HETATM    5  C   UNL     1      -7.133  14.901  68.558  1.00  0.00    -0.108 C  
BRANCH   5   6
HETATM    6  C   UNL     1      -7.693  15.137  67.149  1.00  0.00    -0.188 C  
BRANCH   6   7
HETATM    7  N   UNL     1      -9.143  15.457  67.197  1.00  0.00    -0.210 NA 
HETATM    8  C   UNL     1      -9.993  14.340  67.330  1.00  0.00    -0.242 A  
HETATM    9  C   UNL     1     -10.096  13.707  68.579  1.00  0.00    -0.219 A  
HETATM   10  C   UNL     1     -11.002  12.667  68.792  1.00  0.00    -0.289 A  
HETATM   11  C   UNL     1     -11.815  12.235  67.752  1.00  0.00    -0.341 A  
HETATM   12  C   UNL     1     -11.709  12.832  66.497  1.00  0.00    -0.463 A  
HETATM   13  C   UNL     1     -10.803  13.886  66.281  1.00  0.00    -0.290 A  
HETATM   14  C   UNL     1     -10.723  14.539  64.930  1.00  0.00    -0.448 C  
HETATM   15  C   UNL     1     -11.263  15.959  64.971  1.00  0.00    -0.296 C  
HETATM   16  C   UNL     1     -10.503  16.999  65.768  1.00  0.00    -0.261 A  
HETATM   17  C   UNL     1     -10.856  18.338  65.474  1.00  0.00     0.157 A  
HETATM   18  C   UNL     1     -10.287  19.413  66.148  1.00  0.00    -0.595 A  
HETATM   19  C   UNL     1      -9.351  19.172  67.140  1.00  0.00    -0.358 A  
HETATM   20  C   UNL     1      -8.980  17.859  67.435  1.00  0.00    -0.245 A  
HETATM   21  C   UNL     1      -9.532  16.745  66.759  1.00  0.00    -0.246 A  
ENDBRANCH   6   7
ENDBRANCH   5   6
ENDBRANCH   4   5
ENDBRANCH   2   4
TORSDOF 4
ENDMDL
MODEL      124
REMARK 921   NORMALIZED FREE ENERGY PREDICTED BY IDOCK:   -3.64 KCAL/MOL
REMARK 922        TOTAL FREE ENERGY PREDICTED BY IDOCK:   -5.13 KCAL/MOL
REMARK 923 INTER-LIGAND FREE ENERGY PREDICTED BY IDOCK:   -5.15 KCAL/MOL
REMARK 924 INTRA-LIGAND FREE ENERGY PREDICTED BY IDOCK:    0.02 KCAL/MOL
REMARK 927      BINDING AFFINITY PREDICTED BY RF-SCORE:    0.00 PKD
ROOT
HETATM    1  C   UNL     1      -8.800   7.436  67.065  1.00  0.00    -0.128 C  
HETATM    2  N   UNL     1      -8.247   8.574  67.781  1.00  0.00    -0.121 NA 
HETATM    3  H   UNL     1      -7.855   8.287  68.678  1.00  0.00     0.000 HD 
ENDROOT
BRANCH   2   4
HETATM    4  C   UNL     1      -7.262   9.314  66.986  1.00  0.00    -0.087 C  
BRANCH   4   5
HETATM    5  C   UNL     1      -7.690  10.782  66.959  1.00  0.00    -0.121 C  
BRANCH   5   6
HETATM    6  C   UNL     1      -8.546  11.202  68.161  1.00  0.00    -0.140 C  
BRANCH   6   7
HETATM    7  N   UNL     1      -9.923  11.563  67.735  1.00  0.00    -0.180 NA 
HETATM    8  C   UNL     1     -10.085  11.750  66.347  1.00  0.00    -0.210 A  
HETATM    9  C   UNL     1     -10.125  10.625  65.508  1.00  0.00    -0.343 A  
HETATM   10  C   UNL     1     -10.391  10.747  64.143  1.00  0.00    -0.382 A  
HETATM   11  C   UNL     1     -10.610  12.004  63.593  1.00  0.00    -0.503 A  
HETATM   12  C   UNL     1     -10.548  13.135  64.403  1.00  0.00    -0.441 A  
HETATM   13  C   UNL     1     -10.289  13.015  65.780  1.00  0.00    -0.296 A  
HETATM   14  C   UNL     1     -10.255  14.243  66.646  1.00  0.00    -0.272 C  
HETATM   15  C   UNL     1     -11.440  14.280  67.598  1.00  0.00    -0.370 C  
HETATM   16  C   UNL     1     -11.521  13.237  68.693  1.00  0.00    -0.339 A  
HETATM   17  C   UNL     1     -12.435  13.543  69.729  1.00  0.00    -0.155 A  
HETATM   18  C   UNL     1     -12.664  12.671  70.788  1.00  0.00    -0.213 A  
HETATM   19  C   UNL     1     -11.987  11.464  70.830  1.00  0.00    -0.355 A  
HETATM   20  C   UNL     1     -11.072  11.150  69.823  1.00  0.00    -0.271 A  
HETATM   21  C   UNL     1     -10.807  12.021  68.740  1.00  0.00    -0.230 A  
ENDBRANCH   6   7
ENDBRANCH   5   6
ENDBRANCH   4   5
ENDBRANCH   2   4
TORSDOF 4
ENDMDL
MODEL      125
REMARK 921   NORMALIZED FREE ENERGY PREDICTED BY IDOCK:   -3.62 KCAL/MOL
REMARK 922        TOTAL FREE ENERGY PREDICTED BY IDOCK:   -5.12 KCAL/MOL
REMARK 923 INTER-LIGAND FREE ENERGY PREDICTED BY IDOCK:   -5.05 KCAL/MOL
REMARK 924 INTRA-LIGAND FREE ENERGY PREDICTED BY IDOCK:   -0.06 KCAL/MOL
REMARK 927      BINDING AFFINITY PREDICTED BY RF-SCORE:    0.00 PKD
ROOT
HETATM    1  C   UNL     1      -9.984  11.603  63.153  1.00  0.00    -0.375 C  
HETATM    2  N   UNL     1      -9.507  10.742  64.222  1.00  0.00    -0.242 NA 
HETATM    3  H   UNL     1      -8.639  11.099  64.621  1.00  0.00     0.000 HD 
ENDROOT
BRANCH   2   4
HETATM    4  C   UNL     1     -10.517  10.527  65.264  1.00  0.00    -0.162 C  
BRANCH   4   5
HETATM    5  C   UNL     1      -9.814   9.924  66.481  1.00  0.00    -0.274 C  
BRANCH   5   6
HETATM    6  C   UNL     1     -10.748   9.149  67.418  1.00  0.00    -0.177 C  
BRANCH   6   7
HETATM    7  N   UNL     1     -10.497   9.507  68.839  1.00  0.00    -0.211 NA 
HETATM    8  C   UNL     1      -9.928   8.479  69.617  1.00  0.00    -0.192 A  
HETATM    9  C   UNL     1      -8.566   8.177  69.457  1.00  0.00    -0.134 A  
HETATM   10  C   UNL     1      -7.929   7.245  70.278  1.00  0.00    -0.115 A  
HETATM   11  C   UNL     1      -8.650   6.589  71.267  1.00  0.00    -0.127 A  
HETATM   12  C   UNL     1     -10.008   6.855  71.424  1.00  0.00    -0.190 A  
HETATM   13  C   UNL     1     -10.652   7.799  70.606  1.00  0.00    -0.222 A  
HETATM   14  C   UNL     1     -12.112   8.097  70.809  1.00  0.00    -0.070 C  
HETATM   15  C   UNL     1     -12.317   9.495  71.366  1.00  0.00    -0.451 C  
HETATM   16  C   UNL     1     -11.968  10.681  70.490  1.00  0.00    -0.446 A  
HETATM   17  C   UNL     1     -12.508  11.914  70.928  1.00  0.00    -0.397 A  
HETATM   18  C   UNL     1     -12.246  13.108  70.265  1.00  0.00    -0.376 A  
HETATM   19  C   UNL     1     -11.429  13.096  69.147  1.00  0.00    -0.358 A  
HETATM   20  C   UNL     1     -10.898  11.888  68.692  1.00  0.00    -0.273 A  
HETATM   21  C   UNL     1     -11.155  10.656  69.338  1.00  0.00    -0.260 A  
ENDBRANCH   6   7
ENDBRANCH   5   6
ENDBRANCH   4   5
ENDBRANCH   2   4
TORSDOF 4
ENDMDL
MODEL      126
REMARK 921   NORMALIZED FREE ENERGY PREDICTED BY IDOCK:   -3.60 KCAL/MOL
REMARK 922        TOTAL FREE ENERGY PREDICTED BY IDOCK:   -5.09 KCAL/MOL
REMARK 923 INTER-LIGAND FREE ENERGY PREDICTED BY IDOCK:   -4.63 KCAL/MOL
REMARK 924 INTRA-LIGAND FREE ENERGY PREDICTED BY IDOCK:   -0.46 KCAL/MOL
REMARK 927      BINDING AFFINITY PREDICTED BY RF-SCORE:    0.00 PKD
ROOT
HETATM    1  C   UNL     1     -11.824  12.779  67.944  1.00  0.00    -0.339 C  
HETATM    2  N   UNL     1     -11.315  11.605  68.633  1.00  0.00    -0.240 NA 
HETATM    3  H   UNL     1     -11.804  10.762  68.333  1.00  0.00     0.000 HD 
ENDROOT
BRANCH   2   4
HETATM    4  C   UNL     1      -9.864  11.453  68.488  1.00  0.00    -0.198 C  
BRANCH   4   5
HETATM    5  C   UNL     1      -9.519   9.985  68.744  1.00  0.00    -0.162 C  
BRANCH   5   6
HETATM    6  C   UNL     1     -10.599   9.002  68.274  1.00  0.00    -0.163 C  
BRANCH   6   7
HETATM    7  N   UNL     1     -10.479   7.699  68.978  1.00  0.00    -0.214 NA 
HETATM    8  C   UNL     1     -10.452   7.786  70.385  1.00  0.00    -0.221 A  
HETATM    9  C   UNL     1     -11.647   8.045  71.075  1.00  0.00    -0.303 A  
HETATM   10  C   UNL     1     -11.696   8.034  72.470  1.00  0.00    -0.446 A  
HETATM   11  C   UNL     1     -10.542   7.774  73.199  1.00  0.00    -0.415 A  
HETATM   12  C   UNL     1      -9.341   7.542  72.534  1.00  0.00    -0.200 A  
HETATM   13  C   UNL     1      -9.289   7.544  71.129  1.00  0.00    -0.155 A  
HETATM   14  C   UNL     1      -7.991   7.261  70.426  1.00  0.00    -0.104 C  
HETATM   15  C   UNL     1      -8.030   5.920  69.712  1.00  0.00    -0.101 C  
HETATM   16  C   UNL     1      -8.964   5.756  68.531  1.00  0.00    -0.112 A  
HETATM   17  C   UNL     1      -8.691   4.630  67.718  1.00  0.00    -0.110 A  
HETATM   18  C   UNL     1      -9.481   4.308  66.620  1.00  0.00    -0.201 A  
HETATM   19  C   UNL     1     -10.571   5.105  66.312  1.00  0.00    -0.325 A  
HETATM   20  C   UNL     1     -10.848   6.228  67.094  1.00  0.00    -0.460 A  
HETATM   21  C   UNL     1     -10.057   6.589  68.210  1.00  0.00    -0.159 A  
ENDBRANCH   6   7
ENDBRANCH   5   6
ENDBRANCH   4   5
ENDBRANCH   2   4
TORSDOF 4
ENDMDL
MODEL      127
REMARK 921   NORMALIZED FREE ENERGY PREDICTED BY IDOCK:   -3.60 KCAL/MOL
REMARK 922        TOTAL FREE ENERGY PREDICTED BY IDOCK:   -5.09 KCAL/MOL
REMARK 923 INTER-LIGAND FREE ENERGY PREDICTED BY IDOCK:   -5.35 KCAL/MOL
REMARK 924 INTRA-LIGAND FREE ENERGY PREDICTED BY IDOCK:    0.26 KCAL/MOL
REMARK 927      BINDING AFFINITY PREDICTED BY RF-SCORE:    0.00 PKD
ROOT
HETATM    1  C   UNL     1      -9.367  12.745  67.630  1.00  0.00    -0.191 C  
HETATM    2  N   UNL     1      -8.845  14.042  68.028  1.00  0.00    -0.173 NA 
HETATM    3  H   UNL     1      -8.822  14.132  69.044  1.00  0.00     0.000 HD 
ENDROOT
BRANCH   2   4
HETATM    4  C   UNL     1      -7.529  14.322  67.444  1.00  0.00    -0.149 C  
BRANCH   4   5
HETATM    5  C   UNL     1      -7.557  15.746  66.888  1.00  0.00    -0.235 C  
BRANCH   5   6
HETATM    6  C   UNL     1      -6.544  16.691  67.547  1.00  0.00    -0.154 C  
BRANCH   6   7
HETATM    7  N   UNL     1      -7.221  17.878  68.130  1.00  0.00    -0.223 NA 
HETATM    8  C   UNL     1      -8.363  18.314  67.428  1.00  0.00    -0.244 A  
HETATM    9  C   UNL     1      -9.555  17.582  67.544  1.00  0.00    -0.265 A  
HETATM   10  C   UNL     1     -10.741  18.029  66.958  1.00  0.00    -0.251 A  
HETATM   11  C   UNL     1     -10.749  19.214  66.234  1.00  0.00    -0.444 A  
HETATM   12  C   UNL     1      -9.570  19.941  66.084  1.00  0.00    -0.492 A  
HETATM   13  C   UNL     1      -8.375  19.499  66.680  1.00  0.00    -0.340 A  
HETATM   14  C   UNL     1      -7.119  20.311  66.535  1.00  0.00    -0.297 C  
HETATM   15  C   UNL     1      -6.711  20.938  67.857  1.00  0.00    -0.337 C  
HETATM   16  C   UNL     1      -6.259  20.028  68.980  1.00  0.00    -0.347 A  
HETATM   17  C   UNL     1      -5.573  20.685  70.030  1.00  0.00    -0.367 A  
HETATM   18  C   UNL     1      -5.130  20.003  71.158  1.00  0.00    -0.284 A  
HETATM   19  C   UNL     1      -5.372  18.644  71.267  1.00  0.00    -0.244 A  
HETATM   20  C   UNL     1      -6.036  17.976  70.237  1.00  0.00    -0.055 A  
HETATM   21  C   UNL     1      -6.487  18.638  69.071  1.00  0.00    -0.258 A  
ENDBRANCH   6   7
ENDBRANCH   5   6
ENDBRANCH   4   5
ENDBRANCH   2   4
TORSDOF 4
ENDMDL
MODEL      128
REMARK 921   NORMALIZED FREE ENERGY PREDICTED BY IDOCK:   -3.59 KCAL/MOL
REMARK 922        TOTAL FREE ENERGY PREDICTED BY IDOCK:   -5.07 KCAL/MOL
REMARK 923 INTER-LIGAND FREE ENERGY PREDICTED BY IDOCK:   -4.99 KCAL/MOL
REMARK 924 INTRA-LIGAND FREE ENERGY PREDICTED BY IDOCK:   -0.08 KCAL/MOL
REMARK 927      BINDING AFFINITY PREDICTED BY RF-SCORE:    0.00 PKD
ROOT
HETATM    1  C   UNL     1     -11.150   7.786  72.592  1.00  0.00    -0.376 C  
HETATM    2  N   UNL     1     -11.480   8.256  71.257  1.00  0.00    -0.267 NA 
HETATM    3  H   UNL     1     -11.826   7.494  70.674  1.00  0.00     0.000 HD 
ENDROOT
BRANCH   2   4
HETATM    4  C   UNL     1     -12.424   9.379  71.274  1.00  0.00    -0.335 C  
BRANCH   4   5
HETATM    5  C   UNL     1     -12.009  10.355  70.172  1.00  0.00    -0.357 C  
BRANCH   5   6
HETATM    6  C   UNL     1     -10.550  10.203  69.724  1.00  0.00    -0.260 C  
BRANCH   6   7
HETATM    7  N   UNL     1     -10.447  10.171  68.242  1.00  0.00    -0.199 NA 
HETATM    8  C   UNL     1      -9.923   8.976  67.710  1.00  0.00    -0.187 A  
HETATM    9  C   UNL     1     -10.736   7.831  67.674  1.00  0.00    -0.227 A  
HETATM   10  C   UNL     1     -10.304   6.654  67.060  1.00  0.00    -0.330 A  
HETATM   11  C   UNL     1      -9.043   6.600  66.481  1.00  0.00    -0.167 A  
HETATM   12  C   UNL     1      -8.210   7.716  66.530  1.00  0.00    -0.125 A  
HETATM   13  C   UNL     1      -8.644   8.906  67.140  1.00  0.00    -0.112 A  
HETATM   14  C   UNL     1      -7.746  10.111  67.157  1.00  0.00    -0.092 C  
HETATM   15  C   UNL     1      -8.283  11.213  66.259  1.00  0.00    -0.153 C  
HETATM   16  C   UNL     1      -9.578  11.896  66.647  1.00  0.00    -0.220 A  
HETATM   17  C   UNL     1      -9.821  13.119  65.978  1.00  0.00    -0.266 A  
HETATM   18  C   UNL     1     -10.986  13.851  66.184  1.00  0.00    -0.293 A  
HETATM   19  C   UNL     1     -11.941  13.369  67.064  1.00  0.00    -0.429 A  
HETATM   20  C   UNL     1     -11.713  12.171  67.743  1.00  0.00    -0.390 A  
HETATM   21  C   UNL     1     -10.534  11.410  67.564  1.00  0.00    -0.201 A  
ENDBRANCH   6   7
ENDBRANCH   5   6
ENDBRANCH   4   5
ENDBRANCH   2   4
TORSDOF 4
ENDMDL
MODEL      129
REMARK 921   NORMALIZED FREE ENERGY PREDICTED BY IDOCK:   -3.58 KCAL/MOL
REMARK 922        TOTAL FREE ENERGY PREDICTED BY IDOCK:   -5.06 KCAL/MOL
REMARK 923 INTER-LIGAND FREE ENERGY PREDICTED BY IDOCK:   -4.55 KCAL/MOL
REMARK 924 INTRA-LIGAND FREE ENERGY PREDICTED BY IDOCK:   -0.51 KCAL/MOL
REMARK 927      BINDING AFFINITY PREDICTED BY RF-SCORE:    0.00 PKD
ROOT
HETATM    1  C   UNL     1     -13.220  10.404  71.751  1.00  0.00    -0.424 C  
HETATM    2  N   UNL     1     -12.668  10.213  70.420  1.00  0.00    -0.544 NA 
HETATM    3  H   UNL     1     -13.291   9.649  69.842  1.00  0.00     0.000 HD 
ENDROOT
BRANCH   2   4
HETATM    4  C   UNL     1     -12.340  11.481  69.760  1.00  0.00    -0.155 C  
BRANCH   4   5
HETATM    5  C   UNL     1     -11.301  11.189  68.676  1.00  0.00    -0.342 C  
BRANCH   5   6
HETATM    6  C   UNL     1      -9.864  11.089  69.204  1.00  0.00    -0.096 C  
BRANCH   6   7
HETATM    7  N   UNL     1      -9.200   9.852  68.716  1.00  0.00    -0.142 NA 
HETATM    8  C   UNL     1      -8.191  10.062  67.754  1.00  0.00    -0.113 A  
HETATM    9  C   UNL     1      -6.946  10.561  68.170  1.00  0.00    -0.073 A  
HETATM   10  C   UNL     1      -5.879  10.684  67.278  1.00  0.00    -0.046 A  
HETATM   11  C   UNL     1      -6.046  10.319  65.948  1.00  0.00    -0.103 A  
HETATM   12  C   UNL     1      -7.281   9.848  65.509  1.00  0.00    -0.122 A  
HETATM   13  C   UNL     1      -8.356   9.714  66.407  1.00  0.00    -0.120 A  
HETATM   14  C   UNL     1      -9.673   9.174  65.924  1.00  0.00    -0.336 C  
HETATM   15  C   UNL     1      -9.949   7.795  66.501  1.00  0.00    -0.244 C  
HETATM   16  C   UNL     1     -10.188   7.669  67.991  1.00  0.00    -0.248 A  
HETATM   17  C   UNL     1     -10.777   6.445  68.390  1.00  0.00    -0.349 A  
HETATM   18  C   UNL     1     -11.022   6.149  69.726  1.00  0.00    -0.459 A  
HETATM   19  C   UNL     1     -10.676   7.072  70.699  1.00  0.00    -0.255 A  
HETATM   20  C   UNL     1     -10.107   8.290  70.324  1.00  0.00    -0.195 A  
HETATM   21  C   UNL     1      -9.856   8.626  68.973  1.00  0.00    -0.182 A  
ENDBRANCH   6   7
ENDBRANCH   5   6
ENDBRANCH   4   5
ENDBRANCH   2   4
TORSDOF 4
ENDMDL
MODEL      130
REMARK 921   NORMALIZED FREE ENERGY PREDICTED BY IDOCK:   -3.54 KCAL/MOL
REMARK 922        TOTAL FREE ENERGY PREDICTED BY IDOCK:   -5.01 KCAL/MOL
REMARK 923 INTER-LIGAND FREE ENERGY PREDICTED BY IDOCK:   -4.58 KCAL/MOL
REMARK 924 INTRA-LIGAND FREE ENERGY PREDICTED BY IDOCK:   -0.43 KCAL/MOL
REMARK 927      BINDING AFFINITY PREDICTED BY RF-SCORE:    0.00 PKD
ROOT
HETATM    1  C   UNL     1      -8.640   6.898  66.311  1.00  0.00    -0.136 C  
HETATM    2  N   UNL     1      -7.746   7.802  67.015  1.00  0.00    -0.102 NA 
HETATM    3  H   UNL     1      -7.118   8.276  66.365  1.00  0.00     0.000 HD 
ENDROOT
BRANCH   2   4
HETATM    4  C   UNL     1      -8.466   8.768  67.851  1.00  0.00    -0.126 C  
BRANCH   4   5
HETATM    5  C   UNL     1      -8.397   8.277  69.298  1.00  0.00    -0.122 C  
BRANCH   5   6
HETATM    6  C   UNL     1      -8.973   9.267  70.318  1.00  0.00    -0.229 C  
BRANCH   6   7
HETATM    7  N   UNL     1      -9.638   8.553  71.439  1.00  0.00    -0.193 NA 
HETATM    8  C   UNL     1      -8.817   7.639  72.130  1.00  0.00    -0.125 A  
HETATM    9  C   UNL     1      -7.851   8.131  73.023  1.00  0.00    -0.207 A  
HETATM   10  C   UNL     1      -7.088   7.270  73.813  1.00  0.00    -0.088 A  
HETATM   11  C   UNL     1      -7.271   5.897  73.712  1.00  0.00    -0.085 A  
HETATM   12  C   UNL     1      -8.204   5.387  72.812  1.00  0.00    -0.109 A  
HETATM   13  C   UNL     1      -8.982   6.252  72.021  1.00  0.00    -0.142 A  
HETATM   14  C   UNL     1     -10.007   5.687  71.078  1.00  0.00    -0.248 C  
HETATM   15  C   UNL     1     -11.418   5.999  71.546  1.00  0.00    -0.280 C  
HETATM   16  C   UNL     1     -11.880   7.442  71.539  1.00  0.00    -0.327 A  
HETATM   17  C   UNL     1     -13.282   7.610  71.642  1.00  0.00    -0.395 A  
HETATM   18  C   UNL     1     -13.868   8.871  71.696  1.00  0.00    -0.432 A  
HETATM   19  C   UNL     1     -13.061   9.995  71.655  1.00  0.00    -0.547 A  
HETATM   20  C   UNL     1     -11.678   9.849  71.540  1.00  0.00    -0.414 A  
HETATM   21  C   UNL     1     -11.052   8.582  71.470  1.00  0.00    -0.275 A  
ENDBRANCH   6   7
ENDBRANCH   5   6
ENDBRANCH   4   5
ENDBRANCH   2   4
TORSDOF 4
ENDMDL
MODEL      131
REMARK 921   NORMALIZED FREE ENERGY PREDICTED BY IDOCK:   -3.50 KCAL/MOL
REMARK 922        TOTAL FREE ENERGY PREDICTED BY IDOCK:   -4.96 KCAL/MOL
REMARK 923 INTER-LIGAND FREE ENERGY PREDICTED BY IDOCK:   -4.63 KCAL/MOL
REMARK 924 INTRA-LIGAND FREE ENERGY PREDICTED BY IDOCK:   -0.33 KCAL/MOL
REMARK 927      BINDING AFFINITY PREDICTED BY RF-SCORE:    0.00 PKD
ROOT
HETATM    1  C   UNL     1     -12.959  10.713  71.689  1.00  0.00    -0.477 C  
HETATM    2  N   UNL     1     -12.789  10.392  70.282  1.00  0.00    -0.533 NA 
HETATM    3  H   UNL     1     -13.692  10.273  69.821  1.00  0.00     0.000 HD 
ENDROOT
BRANCH   2   4
HETATM    4  C   UNL     1     -11.963  11.377  69.577  1.00  0.00    -0.341 C  
BRANCH   4   5
HETATM    5  C   UNL     1     -11.132  10.629  68.533  1.00  0.00    -0.318 C  
BRANCH   5   6
HETATM    6  C   UNL     1      -9.617  10.738  68.750  1.00  0.00    -0.189 C  
BRANCH   6   7
HETATM    7  N   UNL     1      -9.021   9.407  69.037  1.00  0.00    -0.138 NA 
HETATM    8  C   UNL     1      -9.755   8.310  68.542  1.00  0.00    -0.156 A  
HETATM    9  C   UNL     1      -9.715   8.028  67.167  1.00  0.00    -0.255 A  
HETATM   10  C   UNL     1     -10.334   6.892  66.641  1.00  0.00    -0.214 A  
HETATM   11  C   UNL     1     -11.016   6.025  67.485  1.00  0.00    -0.335 A  
HETATM   12  C   UNL     1     -11.091   6.302  68.848  1.00  0.00    -0.434 A  
HETATM   13  C   UNL     1     -10.461   7.440  69.383  1.00  0.00    -0.220 A  
HETATM   14  C   UNL     1     -10.526   7.708  70.861  1.00  0.00    -0.210 C  
HETATM   15  C   UNL     1      -9.166   7.526  71.514  1.00  0.00    -0.149 C  
HETATM   16  C   UNL     1      -8.057   8.495  71.160  1.00  0.00    -0.158 A  
HETATM   17  C   UNL     1      -6.958   8.482  72.052  1.00  0.00    -0.102 A  
HETATM   18  C   UNL     1      -5.836   9.278  71.847  1.00  0.00    -0.048 A  
HETATM   19  C   UNL     1      -5.785  10.103  70.736  1.00  0.00    -0.089 A  
HETATM   20  C   UNL     1      -6.865  10.139  69.852  1.00  0.00    -0.124 A  
HETATM   21  C   UNL     1      -8.025   9.351  70.039  1.00  0.00    -0.137 A  
ENDBRANCH   6   7
ENDBRANCH   5   6
ENDBRANCH   4   5
ENDBRANCH   2   4
TORSDOF 4
ENDMDL
MODEL      132
REMARK 921   NORMALIZED FREE ENERGY PREDICTED BY IDOCK:   -3.47 KCAL/MOL
REMARK 922        TOTAL FREE ENERGY PREDICTED BY IDOCK:   -4.93 KCAL/MOL
REMARK 923 INTER-LIGAND FREE ENERGY PREDICTED BY IDOCK:   -4.29 KCAL/MOL
REMARK 924 INTRA-LIGAND FREE ENERGY PREDICTED BY IDOCK:   -0.64 KCAL/MOL
REMARK 927      BINDING AFFINITY PREDICTED BY RF-SCORE:    0.00 PKD
ROOT
HETATM    1  C   UNL     1      -8.090   4.792  65.751  1.00  0.00    -0.111 C  
HETATM    2  N   UNL     1      -7.513   6.126  65.738  1.00  0.00    -0.080 NA 
HETATM    3  H   UNL     1      -7.093   6.335  64.832  1.00  0.00     0.000 HD 
ENDROOT
BRANCH   2   4
HETATM    4  C   UNL     1      -8.478   7.160  66.124  1.00  0.00    -0.142 C  
BRANCH   4   5
HETATM    5  C   UNL     1      -9.061   6.772  67.483  1.00  0.00    -0.117 C  
BRANCH   5   6
HETATM    6  C   UNL     1     -10.497   7.265  67.707  1.00  0.00    -0.228 C  
BRANCH   6   7
HETATM    7  N   UNL     1     -10.546   8.301  68.772  1.00  0.00    -0.171 NA 
HETATM    8  C   UNL     1     -10.177   9.596  68.356  1.00  0.00    -0.188 A  
HETATM    9  C   UNL     1     -11.081  10.349  67.588  1.00  0.00    -0.361 A  
HETATM   10  C   UNL     1     -10.811  11.674  67.243  1.00  0.00    -0.302 A  
HETATM   11  C   UNL     1      -9.622  12.266  67.653  1.00  0.00    -0.191 A  
HETATM   12  C   UNL     1      -8.700  11.528  68.392  1.00  0.00    -0.160 A  
HETATM   13  C   UNL     1      -8.972  10.195  68.749  1.00  0.00    -0.147 A  
HETATM   14  C   UNL     1      -7.981   9.422  69.573  1.00  0.00    -0.098 C  
HETATM   15  C   UNL     1      -8.514   9.157  70.971  1.00  0.00    -0.221 C  
HETATM   16  C   UNL     1      -9.703   8.232  71.129  1.00  0.00    -0.209 A  
HETATM   17  C   UNL     1      -9.912   7.762  72.448  1.00  0.00    -0.272 A  
HETATM   18  C   UNL     1     -10.986   6.942  72.774  1.00  0.00    -0.315 A  
HETATM   19  C   UNL     1     -11.884   6.577  71.785  1.00  0.00    -0.384 A  
HETATM   20  C   UNL     1     -11.688   7.019  70.476  1.00  0.00    -0.359 A  
HETATM   21  C   UNL     1     -10.599   7.845  70.110  1.00  0.00    -0.237 A  
ENDBRANCH   6   7
ENDBRANCH   5   6
ENDBRANCH   4   5
ENDBRANCH   2   4
TORSDOF 4
ENDMDL
MODEL      133
REMARK 921   NORMALIZED FREE ENERGY PREDICTED BY IDOCK:   -3.43 KCAL/MOL
REMARK 922        TOTAL FREE ENERGY PREDICTED BY IDOCK:   -4.88 KCAL/MOL
REMARK 923 INTER-LIGAND FREE ENERGY PREDICTED BY IDOCK:   -4.91 KCAL/MOL
REMARK 924 INTRA-LIGAND FREE ENERGY PREDICTED BY IDOCK:    0.03 KCAL/MOL
REMARK 927      BINDING AFFINITY PREDICTED BY RF-SCORE:    0.00 PKD
ROOT
HETATM    1  C   UNL     1     -14.372   8.077  72.016  1.00  0.00    -0.410 C  
HETATM    2  N   UNL     1     -13.004   7.585  72.021  1.00  0.00    -0.491 NA 
HETATM    3  H   UNL     1     -12.853   6.929  72.787  1.00  0.00     0.000 HD 
ENDROOT
BRANCH   2   4
HETATM    4  C   UNL     1     -12.615   6.995  70.736  1.00  0.00    -0.140 C  
BRANCH   4   5
HETATM    5  C   UNL     1     -11.157   6.547  70.849  1.00  0.00    -0.345 C  
BRANCH   5   6
HETATM    6  C   UNL     1     -10.140   7.664  70.581  1.00  0.00    -0.187 C  
BRANCH   6   7
HETATM    7  N   UNL     1     -10.318   8.233  69.220  1.00  0.00    -0.216 NA 
HETATM    8  C   UNL     1      -9.975   7.363  68.165  1.00  0.00    -0.166 A  
HETATM    9  C   UNL     1     -10.848   6.313  67.836  1.00  0.00    -0.417 A  
HETATM   10  C   UNL     1     -10.610   5.491  66.733  1.00  0.00    -0.360 A  
HETATM   11  C   UNL     1      -9.484   5.700  65.946  1.00  0.00    -0.087 A  
HETATM   12  C   UNL     1      -8.591   6.718  66.272  1.00  0.00    -0.141 A  
HETATM   13  C   UNL     1      -8.832   7.554  67.377  1.00  0.00    -0.127 A  
HETATM   14  C   UNL     1      -7.875   8.668  67.697  1.00  0.00    -0.103 C  
HETATM   15  C   UNL     1      -8.502  10.027  67.436  1.00  0.00    -0.121 C  
HETATM   16  C   UNL     1      -9.659  10.470  68.308  1.00  0.00    -0.164 A  
HETATM   17  C   UNL     1      -9.948  11.854  68.243  1.00  0.00    -0.202 A  
HETATM   18  C   UNL     1     -11.008  12.417  68.946  1.00  0.00    -0.268 A  
HETATM   19  C   UNL     1     -11.809  11.603  69.729  1.00  0.00    -0.428 A  
HETATM   20  C   UNL     1     -11.532  10.238  69.817  1.00  0.00    -0.320 A  
HETATM   21  C   UNL     1     -10.454   9.637  69.123  1.00  0.00    -0.214 A  
ENDBRANCH   6   7
ENDBRANCH   5   6
ENDBRANCH   4   5
ENDBRANCH   2   4
TORSDOF 4
ENDMDL
MODEL      134
REMARK 921   NORMALIZED FREE ENERGY PREDICTED BY IDOCK:   -3.42 KCAL/MOL
REMARK 922        TOTAL FREE ENERGY PREDICTED BY IDOCK:   -4.87 KCAL/MOL
REMARK 923 INTER-LIGAND FREE ENERGY PREDICTED BY IDOCK:   -5.49 KCAL/MOL
REMARK 924 INTRA-LIGAND FREE ENERGY PREDICTED BY IDOCK:    0.61 KCAL/MOL
REMARK 927      BINDING AFFINITY PREDICTED BY RF-SCORE:    0.00 PKD
ROOT
HETATM    1  C   UNL     1     -12.171  13.746  66.443  1.00  0.00    -0.436 C  
HETATM    2  N   UNL     1     -12.273  14.168  67.830  1.00  0.00    -0.563 NA 
HETATM    3  H   UNL     1     -13.202  13.975  68.205  1.00  0.00     0.000 HD 
ENDROOT
BRANCH   2   4
HETATM    4  C   UNL     1     -11.230  13.577  68.675  1.00  0.00    -0.278 C  
BRANCH   4   5
HETATM    5  C   UNL     1     -11.328  12.056  68.545  1.00  0.00    -0.323 C  
BRANCH   5   6
HETATM    6  C   UNL     1     -11.304  11.315  69.888  1.00  0.00    -0.249 C  
BRANCH   6   7
HETATM    7  N   UNL     1     -10.813   9.922  69.721  1.00  0.00    -0.252 NA 
HETATM    8  C   UNL     1     -10.735   9.174  70.914  1.00  0.00    -0.275 A  
HETATM    9  C   UNL     1     -11.918   8.683  71.489  1.00  0.00    -0.362 A  
HETATM   10  C   UNL     1     -11.888   7.848  72.607  1.00  0.00    -0.352 A  
HETATM   11  C   UNL     1     -10.670   7.499  73.176  1.00  0.00    -0.452 A  
HETATM   12  C   UNL     1      -9.486   7.997  72.636  1.00  0.00    -0.317 A  
HETATM   13  C   UNL     1      -9.511   8.832  71.505  1.00  0.00    -0.341 A  
HETATM   14  C   UNL     1      -8.223   9.337  70.917  1.00  0.00    -0.179 C  
HETATM   15  C   UNL     1      -7.951   8.705  69.562  1.00  0.00    -0.097 C  
HETATM   16  C   UNL     1      -8.871   9.044  68.408  1.00  0.00    -0.134 A  
HETATM   17  C   UNL     1      -8.358   8.711  67.131  1.00  0.00    -0.107 A  
HETATM   18  C   UNL     1      -9.094   8.913  65.968  1.00  0.00    -0.265 A  
HETATM   19  C   UNL     1     -10.368   9.449  66.058  1.00  0.00    -0.081 A  
HETATM   20  C   UNL     1     -10.886   9.795  67.307  1.00  0.00    -0.247 A  
HETATM   21  C   UNL     1     -10.158   9.613  68.507  1.00  0.00    -0.175 A  
ENDBRANCH   6   7
ENDBRANCH   5   6
ENDBRANCH   4   5
ENDBRANCH   2   4
TORSDOF 4
ENDMDL
MODEL      135
REMARK 921   NORMALIZED FREE ENERGY PREDICTED BY IDOCK:   -3.42 KCAL/MOL
REMARK 922        TOTAL FREE ENERGY PREDICTED BY IDOCK:   -4.87 KCAL/MOL
REMARK 923 INTER-LIGAND FREE ENERGY PREDICTED BY IDOCK:   -4.65 KCAL/MOL
REMARK 924 INTRA-LIGAND FREE ENERGY PREDICTED BY IDOCK:   -0.22 KCAL/MOL
REMARK 927      BINDING AFFINITY PREDICTED BY RF-SCORE:    0.00 PKD
ROOT
HETATM    1  C   UNL     1      -6.182   8.276  72.702  1.00  0.00    -0.078 C  
HETATM    2  N   UNL     1      -6.806   8.475  74.000  1.00  0.00    -0.253 NA 
HETATM    3  H   UNL     1      -7.435   9.278  73.984  1.00  0.00     0.000 HD 
ENDROOT
BRANCH   2   4
HETATM    4  C   UNL     1      -7.496   7.274  74.482  1.00  0.00    -0.124 C  
BRANCH   4   5
HETATM    5  C   UNL     1      -8.999   7.497  74.313  1.00  0.00    -0.221 C  
BRANCH   5   6
HETATM    6  C   UNL     1      -9.839   6.225  74.480  1.00  0.00    -0.323 C  
BRANCH   6   7
HETATM    7  N   UNL     1     -10.462   5.822  73.193  1.00  0.00    -0.211 NA 
HETATM    8  C   UNL     1     -10.367   4.448  72.893  1.00  0.00    -0.178 A  
HETATM    9  C   UNL     1     -11.197   3.542  73.572  1.00  0.00    -0.279 A  
HETATM   10  C   UNL     1     -11.220   2.187  73.237  1.00  0.00    -0.257 A  
HETATM   11  C   UNL     1     -10.401   1.714  72.221  1.00  0.00    -0.227 A  
HETATM   12  C   UNL     1      -9.549   2.591  71.552  1.00  0.00    -0.220 A  
HETATM   13  C   UNL     1      -9.530   3.958  71.881  1.00  0.00    -0.204 A  
HETATM   14  C   UNL     1      -8.628   4.897  71.129  1.00  0.00    -0.131 C  
HETATM   15  C   UNL     1      -9.428   5.848  70.255  1.00  0.00    -0.191 C  
HETATM   16  C   UNL     1     -10.311   6.879  70.928  1.00  0.00    -0.218 A  
HETATM   17  C   UNL     1     -10.734   7.932  70.082  1.00  0.00    -0.244 A  
HETATM   18  C   UNL     1     -11.587   8.936  70.529  1.00  0.00    -0.189 A  
HETATM   19  C   UNL     1     -12.043   8.905  71.836  1.00  0.00    -0.443 A  
HETATM   20  C   UNL     1     -11.626   7.881  72.689  1.00  0.00    -0.435 A  
HETATM   21  C   UNL     1     -10.751   6.853  72.268  1.00  0.00    -0.223 A  
ENDBRANCH   6   7
ENDBRANCH   5   6
ENDBRANCH   4   5
ENDBRANCH   2   4
TORSDOF 4
ENDMDL
MODEL      136
REMARK 921   NORMALIZED FREE ENERGY PREDICTED BY IDOCK:   -3.40 KCAL/MOL
REMARK 922        TOTAL FREE ENERGY PREDICTED BY IDOCK:   -4.84 KCAL/MOL
REMARK 923 INTER-LIGAND FREE ENERGY PREDICTED BY IDOCK:   -4.61 KCAL/MOL
REMARK 924 INTRA-LIGAND FREE ENERGY PREDICTED BY IDOCK:   -0.23 KCAL/MOL
REMARK 927      BINDING AFFINITY PREDICTED BY RF-SCORE:    0.00 PKD
ROOT
HETATM    1  C   UNL     1     -10.441  18.261  66.045  1.00  0.00    -0.361 C  
HETATM    2  N   UNL     1      -9.744  18.328  67.319  1.00  0.00    -0.290 NA 
HETATM    3  H   UNL     1      -9.459  19.284  67.531  1.00  0.00     0.000 HD 
ENDROOT
BRANCH   2   4
HETATM    4  C   UNL     1     -10.527  17.755  68.419  1.00  0.00    -0.347 C  
BRANCH   4   5
HETATM    5  C   UNL     1     -11.066  16.402  67.954  1.00  0.00    -0.249 C  
BRANCH   5   6
HETATM    6  C   UNL     1     -10.446  15.202  68.681  1.00  0.00    -0.234 C  
BRANCH   6   7
HETATM    7  N   UNL     1      -9.332  14.616  67.891  1.00  0.00    -0.195 NA 
HETATM    8  C   UNL     1      -9.734  13.759  66.847  1.00  0.00    -0.265 A  
HETATM    9  C   UNL     1     -10.267  14.316  65.673  1.00  0.00    -0.366 A  
HETATM   10  C   UNL     1     -10.578  13.521  64.569  1.00  0.00    -0.439 A  
HETATM   11  C   UNL     1     -10.371  12.149  64.626  1.00  0.00    -0.328 A  
HETATM   12  C   UNL     1      -9.869  11.572  65.791  1.00  0.00    -0.266 A  
HETATM   13  C   UNL     1      -9.546  12.371  66.902  1.00  0.00    -0.219 A  
HETATM   14  C   UNL     1      -8.976  11.737  68.140  1.00  0.00    -0.181 C  
HETATM   15  C   UNL     1      -7.519  12.123  68.337  1.00  0.00    -0.114 C  
HETATM   16  C   UNL     1      -7.190  13.567  68.655  1.00  0.00    -0.107 A  
HETATM   17  C   UNL     1      -5.886  13.774  69.165  1.00  0.00    -0.083 A  
HETATM   18  C   UNL     1      -5.408  15.045  69.464  1.00  0.00    -0.089 A  
HETATM   19  C   UNL     1      -6.225  16.144  69.253  1.00  0.00    -0.163 A  
HETATM   20  C   UNL     1      -7.519  15.958  68.763  1.00  0.00    -0.170 A  
HETATM   21  C   UNL     1      -8.039  14.678  68.460  1.00  0.00    -0.146 A  
ENDBRANCH   6   7
ENDBRANCH   5   6
ENDBRANCH   4   5
ENDBRANCH   2   4
TORSDOF 4
ENDMDL
MODEL      137
REMARK 921   NORMALIZED FREE ENERGY PREDICTED BY IDOCK:   -3.40 KCAL/MOL
REMARK 922        TOTAL FREE ENERGY PREDICTED BY IDOCK:   -4.84 KCAL/MOL
REMARK 923 INTER-LIGAND FREE ENERGY PREDICTED BY IDOCK:   -4.87 KCAL/MOL
REMARK 924 INTRA-LIGAND FREE ENERGY PREDICTED BY IDOCK:    0.04 KCAL/MOL
REMARK 927      BINDING AFFINITY PREDICTED BY RF-SCORE:    0.00 PKD
ROOT
HETATM    1  C   UNL     1     -14.371   7.859  71.867  1.00  0.00    -0.436 C  
HETATM    2  N   UNL     1     -12.944   7.931  72.130  1.00  0.00    -0.491 NA 
HETATM    3  H   UNL     1     -12.697   7.402  72.966  1.00  0.00     0.000 HD 
ENDROOT
BRANCH   2   4
HETATM    4  C   UNL     1     -12.138   7.507  70.980  1.00  0.00    -0.277 C  
BRANCH   4   5
HETATM    5  C   UNL     1     -10.978   8.493  70.832  1.00  0.00    -0.292 C  
BRANCH   5   6
HETATM    6  C   UNL     1     -11.415   9.914  70.450  1.00  0.00    -0.301 C  
BRANCH   6   7
HETATM    7  N   UNL     1     -10.481  10.512  69.461  1.00  0.00    -0.237 NA 
HETATM    8  C   UNL     1     -11.077  11.403  68.547  1.00  0.00    -0.235 A  
HETATM    9  C   UNL     1     -11.434  12.690  68.982  1.00  0.00    -0.354 A  
HETATM   10  C   UNL     1     -11.927  13.646  68.092  1.00  0.00    -0.390 A  
HETATM   11  C   UNL     1     -12.082  13.324  66.750  1.00  0.00    -0.403 A  
HETATM   12  C   UNL     1     -11.760  12.045  66.303  1.00  0.00    -0.319 A  
HETATM   13  C   UNL     1     -11.255  11.082  67.194  1.00  0.00    -0.290 A  
HETATM   14  C   UNL     1     -10.883   9.715  66.690  1.00  0.00     0.001 C  
HETATM   15  C   UNL     1      -9.379   9.504  66.729  1.00  0.00    -0.196 C  
HETATM   16  C   UNL     1      -8.692   9.438  68.077  1.00  0.00    -0.124 A  
HETATM   17  C   UNL     1      -7.385   8.896  68.045  1.00  0.00    -0.084 A  
HETATM   18  C   UNL     1      -6.598   8.806  69.188  1.00  0.00    -0.047 A  
HETATM   19  C   UNL     1      -7.101   9.266  70.394  1.00  0.00    -0.091 A  
HETATM   20  C   UNL     1      -8.393   9.792  70.448  1.00  0.00    -0.106 A  
HETATM   21  C   UNL     1      -9.222   9.886  69.305  1.00  0.00    -0.200 A  
ENDBRANCH   6   7
ENDBRANCH   5   6
ENDBRANCH   4   5
ENDBRANCH   2   4
TORSDOF 4
ENDMDL
MODEL      138
REMARK 921   NORMALIZED FREE ENERGY PREDICTED BY IDOCK:   -3.38 KCAL/MOL
REMARK 922        TOTAL FREE ENERGY PREDICTED BY IDOCK:   -4.81 KCAL/MOL
REMARK 923 INTER-LIGAND FREE ENERGY PREDICTED BY IDOCK:   -4.51 KCAL/MOL
REMARK 924 INTRA-LIGAND FREE ENERGY PREDICTED BY IDOCK:   -0.31 KCAL/MOL
REMARK 927      BINDING AFFINITY PREDICTED BY RF-SCORE:    0.00 PKD
ROOT
HETATM    1  C   UNL     1      -5.759  13.387  70.495  1.00  0.00    -0.175 C  
HETATM    2  N   UNL     1      -6.573  14.528  70.879  1.00  0.00    -0.229 NA 
HETATM    3  H   UNL     1      -6.056  15.158  71.493  1.00  0.00     0.000 HD 
ENDROOT
BRANCH   2   4
HETATM    4  C   UNL     1      -7.113  15.247  69.720  1.00  0.00    -0.154 C  
BRANCH   4   5
HETATM    5  C   UNL     1      -5.933  15.718  68.869  1.00  0.00    -0.108 C  
BRANCH   5   6
HETATM    6  C   UNL     1      -6.187  15.642  67.358  1.00  0.00    -0.075 C  
BRANCH   6   7
HETATM    7  N   UNL     1      -7.213  16.632  66.938  1.00  0.00    -0.203 NA 
HETATM    8  C   UNL     1      -6.734  17.948  66.777  1.00  0.00    -0.184 A  
HETATM    9  C   UNL     1      -5.971  18.263  65.641  1.00  0.00    -0.265 A  
HETATM   10  C   UNL     1      -5.566  19.573  65.380  1.00  0.00    -0.195 A  
HETATM   11  C   UNL     1      -5.909  20.590  66.261  1.00  0.00    -0.222 A  
HETATM   12  C   UNL     1      -6.642  20.295  67.408  1.00  0.00    -0.267 A  
HETATM   13  C   UNL     1      -7.060  18.978  67.670  1.00  0.00    -0.237 A  
HETATM   14  C   UNL     1      -7.877  18.682  68.897  1.00  0.00    -0.264 C  
HETATM   15  C   UNL     1      -9.303  18.303  68.531  1.00  0.00    -0.334 C  
HETATM   16  C   UNL     1      -9.539  17.005  67.787  1.00  0.00    -0.244 A  
HETATM   17  C   UNL     1     -10.881  16.557  67.798  1.00  0.00    -0.304 A  
HETATM   18  C   UNL     1     -11.277  15.407  67.124  1.00  0.00    -0.256 A  
HETATM   19  C   UNL     1     -10.336  14.680  66.414  1.00  0.00    -0.293 A  
HETATM   20  C   UNL     1      -9.005  15.099  66.402  1.00  0.00    -0.314 A  
HETATM   21  C   UNL     1      -8.568  16.257  67.088  1.00  0.00    -0.183 A  
ENDBRANCH   6   7
ENDBRANCH   5   6
ENDBRANCH   4   5
ENDBRANCH   2   4
TORSDOF 4
ENDMDL
MODEL      139
REMARK 921   NORMALIZED FREE ENERGY PREDICTED BY IDOCK:   -3.36 KCAL/MOL
REMARK 922        TOTAL FREE ENERGY PREDICTED BY IDOCK:   -4.79 KCAL/MOL
REMARK 923 INTER-LIGAND FREE ENERGY PREDICTED BY IDOCK:   -4.29 KCAL/MOL
REMARK 924 INTRA-LIGAND FREE ENERGY PREDICTED BY IDOCK:   -0.50 KCAL/MOL
REMARK 927      BINDING AFFINITY PREDICTED BY RF-SCORE:    0.00 PKD
ROOT
HETATM    1  C   UNL     1     -13.086  11.310  71.685  1.00  0.00    -0.408 C  
HETATM    2  N   UNL     1     -12.301  11.049  70.489  1.00  0.00    -0.352 NA 
HETATM    3  H   UNL     1     -11.917  11.912  70.106  1.00  0.00     0.000 HD 
ENDROOT
BRANCH   2   4
HETATM    4  C   UNL     1     -11.246  10.055  70.715  1.00  0.00    -0.352 C  
BRANCH   4   5
HETATM    5  C   UNL     1     -11.917   8.746  71.131  1.00  0.00    -0.331 C  
BRANCH   5   6
HETATM    6  C   UNL     1     -11.399   7.514  70.378  1.00  0.00    -0.233 C  
BRANCH   6   7
HETATM    7  N   UNL     1     -10.145   7.002  70.990  1.00  0.00    -0.196 NA 
HETATM    8  C   UNL     1     -10.329   6.195  72.130  1.00  0.00    -0.197 A  
HETATM    9  C   UNL     1     -10.782   4.876  71.966  1.00  0.00    -0.161 A  
HETATM   10  C   UNL     1     -10.878   4.001  73.049  1.00  0.00    -0.234 A  
HETATM   11  C   UNL     1     -10.531   4.438  74.321  1.00  0.00    -0.313 A  
HETATM   12  C   UNL     1     -10.105   5.751  74.510  1.00  0.00    -0.301 A  
HETATM   13  C   UNL     1      -9.999   6.632  73.420  1.00  0.00    -0.231 A  
HETATM   14  C   UNL     1      -9.508   8.037  73.636  1.00  0.00    -0.149 C  
HETATM   15  C   UNL     1      -8.134   8.242  73.020  1.00  0.00    -0.210 C  
HETATM   16  C   UNL     1      -8.003   8.189  71.512  1.00  0.00    -0.135 A  
HETATM   17  C   UNL     1      -6.796   8.731  71.008  1.00  0.00    -0.074 A  
HETATM   18  C   UNL     1      -6.496   8.719  69.650  1.00  0.00    -0.039 A  
HETATM   19  C   UNL     1      -7.398   8.158  68.762  1.00  0.00    -0.088 A  
HETATM   20  C   UNL     1      -8.599   7.631  69.238  1.00  0.00    -0.136 A  
HETATM   21  C   UNL     1      -8.939   7.638  70.612  1.00  0.00    -0.153 A  
ENDBRANCH   6   7
ENDBRANCH   5   6
ENDBRANCH   4   5
ENDBRANCH   2   4
TORSDOF 4
ENDMDL
MODEL      140
REMARK 921   NORMALIZED FREE ENERGY PREDICTED BY IDOCK:   -3.36 KCAL/MOL
REMARK 922        TOTAL FREE ENERGY PREDICTED BY IDOCK:   -4.79 KCAL/MOL
REMARK 923 INTER-LIGAND FREE ENERGY PREDICTED BY IDOCK:   -4.13 KCAL/MOL
REMARK 924 INTRA-LIGAND FREE ENERGY PREDICTED BY IDOCK:   -0.66 KCAL/MOL
REMARK 927      BINDING AFFINITY PREDICTED BY RF-SCORE:    0.00 PKD
ROOT
HETATM    1  C   UNL     1      -5.258   7.020  66.061  1.00  0.00    -0.023 C  
HETATM    2  N   UNL     1      -6.059   8.225  66.199  1.00  0.00    -0.044 NA 
HETATM    3  H   UNL     1      -7.051   8.021  66.082  1.00  0.00     0.000 HD 
ENDROOT
BRANCH   2   4
HETATM    4  C   UNL     1      -5.810   8.923  67.464  1.00  0.00    -0.043 C  
BRANCH   4   5
HETATM    5  C   UNL     1      -7.106   8.899  68.275  1.00  0.00    -0.078 C  
BRANCH   5   6
HETATM    6  C   UNL     1      -8.304   9.526  67.551  1.00  0.00    -0.125 C  
BRANCH   6   7
HETATM    7  N   UNL     1      -9.581   8.917  68.005  1.00  0.00    -0.146 NA 
HETATM    8  C   UNL     1     -10.374   9.745  68.826  1.00  0.00    -0.208 A  
HETATM    9  C   UNL     1     -11.090  10.801  68.240  1.00  0.00    -0.327 A  
HETATM   10  C   UNL     1     -11.972  11.582  68.989  1.00  0.00    -0.377 A  
HETATM   11  C   UNL     1     -12.143  11.324  70.343  1.00  0.00    -0.474 A  
HETATM   12  C   UNL     1     -11.421  10.299  70.949  1.00  0.00    -0.425 A  
HETATM   13  C   UNL     1     -10.538   9.504  70.197  1.00  0.00    -0.298 A  
HETATM   14  C   UNL     1      -9.790   8.382  70.859  1.00  0.00    -0.223 C  
HETATM   15  C   UNL     1     -10.286   7.028  70.379  1.00  0.00    -0.219 C  
HETATM   16  C   UNL     1     -10.041   6.638  68.936  1.00  0.00    -0.178 A  
HETATM   17  C   UNL     1     -10.207   5.259  68.664  1.00  0.00    -0.223 A  
HETATM   18  C   UNL     1     -10.064   4.741  67.381  1.00  0.00    -0.177 A  
HETATM   19  C   UNL     1      -9.758   5.596  66.335  1.00  0.00    -0.180 A  
HETATM   20  C   UNL     1      -9.578   6.957  66.587  1.00  0.00    -0.218 A  
HETATM   21  C   UNL     1      -9.704   7.513  67.882  1.00  0.00    -0.146 A  
ENDBRANCH   6   7
ENDBRANCH   5   6
ENDBRANCH   4   5
ENDBRANCH   2   4
TORSDOF 4
ENDMDL
MODEL      141
REMARK 921   NORMALIZED FREE ENERGY PREDICTED BY IDOCK:   -3.35 KCAL/MOL
REMARK 922        TOTAL FREE ENERGY PREDICTED BY IDOCK:   -4.78 KCAL/MOL
REMARK 923 INTER-LIGAND FREE ENERGY PREDICTED BY IDOCK:   -4.60 KCAL/MOL
REMARK 924 INTRA-LIGAND FREE ENERGY PREDICTED BY IDOCK:   -0.18 KCAL/MOL
REMARK 927      BINDING AFFINITY PREDICTED BY RF-SCORE:    0.00 PKD
ROOT
HETATM    1  C   UNL     1     -12.432  15.089  71.596  1.00  0.00    -0.339 C  
HETATM    2  N   UNL     1     -11.774  14.165  70.687  1.00  0.00    -0.485 NA 
HETATM    3  H   UNL     1     -10.775  14.106  70.884  1.00  0.00     0.000 HD 
ENDROOT
BRANCH   2   4
HETATM    4  C   UNL     1     -12.393  12.835  70.692  1.00  0.00    -0.297 C  
BRANCH   4   5
HETATM    5  C   UNL     1     -12.019  12.139  69.383  1.00  0.00    -0.329 C  
BRANCH   5   6
HETATM    6  C   UNL     1     -10.542  12.293  68.997  1.00  0.00    -0.066 C  
BRANCH   6   7
HETATM    7  N   UNL     1      -9.969  10.998  68.546  1.00  0.00    -0.186 NA 
HETATM    8  C   UNL     1      -9.548  10.143  69.585  1.00  0.00    -0.210 A  
HETATM    9  C   UNL     1     -10.513   9.451  70.333  1.00  0.00    -0.311 A  
HETATM   10  C   UNL     1     -10.147   8.512  71.298  1.00  0.00    -0.286 A  
HETATM   11  C   UNL     1      -8.803   8.258  71.538  1.00  0.00    -0.216 A  
HETATM   12  C   UNL     1      -7.828   8.954  70.826  1.00  0.00    -0.135 A  
HETATM   13  C   UNL     1      -8.193   9.895  69.847  1.00  0.00    -0.199 A  
HETATM   14  C   UNL     1      -7.130  10.615  69.066  1.00  0.00    -0.086 C  
HETATM   15  C   UNL     1      -7.116  10.169  67.613  1.00  0.00    -0.086 C  
HETATM   16  C   UNL     1      -8.305  10.512  66.740  1.00  0.00    -0.128 A  
HETATM   17  C   UNL     1      -8.070  10.383  65.350  1.00  0.00    -0.152 A  
HETATM   18  C   UNL     1      -9.069  10.615  64.411  1.00  0.00    -0.240 A  
HETATM   19  C   UNL     1     -10.334  10.976  64.843  1.00  0.00    -0.378 A  
HETATM   20  C   UNL     1     -10.582  11.121  66.209  1.00  0.00    -0.309 A  
HETATM   21  C   UNL     1      -9.584  10.904  67.189  1.00  0.00    -0.165 A  
ENDBRANCH   6   7
ENDBRANCH   5   6
ENDBRANCH   4   5
ENDBRANCH   2   4
TORSDOF 4
ENDMDL
MODEL      142
REMARK 921   NORMALIZED FREE ENERGY PREDICTED BY IDOCK:   -3.35 KCAL/MOL
REMARK 922        TOTAL FREE ENERGY PREDICTED BY IDOCK:   -4.78 KCAL/MOL
REMARK 923 INTER-LIGAND FREE ENERGY PREDICTED BY IDOCK:   -4.00 KCAL/MOL
REMARK 924 INTRA-LIGAND FREE ENERGY PREDICTED BY IDOCK:   -0.77 KCAL/MOL
REMARK 927      BINDING AFFINITY PREDICTED BY RF-SCORE:    0.00 PKD
ROOT
HETATM    1  C   UNL     1      -7.869   4.253  67.055  1.00  0.00    -0.097 C  
HETATM    2  N   UNL     1      -6.976   4.921  67.987  1.00  0.00    -0.060 NA 
HETATM    3  H   UNL     1      -7.185   5.918  68.044  1.00  0.00     0.000 HD 
ENDROOT
BRANCH   2   4
HETATM    4  C   UNL     1      -6.986   4.303  69.317  1.00  0.00    -0.050 C  
BRANCH   4   5
HETATM    5  C   UNL     1      -7.874   5.156  70.224  1.00  0.00    -0.079 C  
BRANCH   5   6
HETATM    6  C   UNL     1      -7.511   6.647  70.224  1.00  0.00    -0.094 C  
BRANCH   6   7
HETATM    7  N   UNL     1      -8.625   7.469  69.685  1.00  0.00    -0.136 NA 
HETATM    8  C   UNL     1      -9.818   7.414  70.435  1.00  0.00    -0.183 A  
HETATM    9  C   UNL     1      -9.893   8.115  71.649  1.00  0.00    -0.242 A  
HETATM   10  C   UNL     1     -11.084   8.183  72.375  1.00  0.00    -0.437 A  
HETATM   11  C   UNL     1     -12.219   7.537  71.901  1.00  0.00    -0.339 A  
HETATM   12  C   UNL     1     -12.158   6.813  70.713  1.00  0.00    -0.402 A  
HETATM   13  C   UNL     1     -10.963   6.749  69.974  1.00  0.00    -0.344 A  
HETATM   14  C   UNL     1     -10.922   5.990  68.677  1.00  0.00    -0.361 C  
HETATM   15  C   UNL     1     -10.770   6.928  67.492  1.00  0.00    -0.368 C  
HETATM   16  C   UNL     1      -9.474   7.698  67.340  1.00  0.00    -0.175 A  
HETATM   17  C   UNL     1      -9.272   8.260  66.057  1.00  0.00    -0.226 A  
HETATM   18  C   UNL     1      -8.155   9.036  65.763  1.00  0.00    -0.109 A  
HETATM   19  C   UNL     1      -7.215   9.272  66.752  1.00  0.00    -0.083 A  
HETATM   20  C   UNL     1      -7.391   8.715  68.020  1.00  0.00    -0.092 A  
HETATM   21  C   UNL     1      -8.509   7.912  68.347  1.00  0.00    -0.128 A  
ENDBRANCH   6   7
ENDBRANCH   5   6
ENDBRANCH   4   5
ENDBRANCH   2   4
TORSDOF 4
ENDMDL
MODEL      143
REMARK 921   NORMALIZED FREE ENERGY PREDICTED BY IDOCK:   -3.32 KCAL/MOL
REMARK 922        TOTAL FREE ENERGY PREDICTED BY IDOCK:   -4.75 KCAL/MOL
REMARK 923 INTER-LIGAND FREE ENERGY PREDICTED BY IDOCK:   -4.23 KCAL/MOL
REMARK 924 INTRA-LIGAND FREE ENERGY PREDICTED BY IDOCK:   -0.51 KCAL/MOL
REMARK 927      BINDING AFFINITY PREDICTED BY RF-SCORE:    0.00 PKD
ROOT
HETATM    1  C   UNL     1      -6.294   9.848  67.577  1.00  0.00    -0.063 C  
HETATM    2  N   UNL     1      -5.967   9.385  68.915  1.00  0.00    -0.043 NA 
HETATM    3  H   UNL     1      -4.959   9.383  69.067  1.00  0.00     0.000 HD 
ENDROOT
BRANCH   2   4
HETATM    4  C   UNL     1      -6.657  10.150  69.959  1.00  0.00    -0.117 C  
BRANCH   4   5
HETATM    5  C   UNL     1      -7.477   9.166  70.796  1.00  0.00    -0.133 C  
BRANCH   5   6
HETATM    6  C   UNL     1      -7.843   7.874  70.054  1.00  0.00    -0.105 C  
BRANCH   6   7
HETATM    7  N   UNL     1      -9.283   7.859  69.687  1.00  0.00    -0.153 NA 
HETATM    8  C   UNL     1      -9.634   8.721  68.628  1.00  0.00    -0.154 A  
HETATM    9  C   UNL     1      -9.299   8.358  67.314  1.00  0.00    -0.181 A  
HETATM   10  C   UNL     1      -9.717   9.120  66.222  1.00  0.00    -0.344 A  
HETATM   11  C   UNL     1     -10.470  10.269  66.429  1.00  0.00    -0.233 A  
HETATM   12  C   UNL     1     -10.789  10.662  67.727  1.00  0.00    -0.338 A  
HETATM   13  C   UNL     1     -10.377   9.892  68.830  1.00  0.00    -0.222 A  
HETATM   14  C   UNL     1     -10.757  10.313  70.222  1.00  0.00    -0.310 C  
HETATM   15  C   UNL     1     -11.764   9.354  70.833  1.00  0.00    -0.378 C  
HETATM   16  C   UNL     1     -11.320   7.939  71.142  1.00  0.00    -0.289 A  
HETATM   17  C   UNL     1     -12.180   7.230  72.015  1.00  0.00    -0.312 A  
HETATM   18  C   UNL     1     -11.943   5.905  72.364  1.00  0.00    -0.206 A  
HETATM   19  C   UNL     1     -10.839   5.253  71.840  1.00  0.00    -0.218 A  
HETATM   20  C   UNL     1      -9.973   5.939  70.987  1.00  0.00    -0.239 A  
HETATM   21  C   UNL     1     -10.179   7.291  70.622  1.00  0.00    -0.195 A  
ENDBRANCH   6   7
ENDBRANCH   5   6
ENDBRANCH   4   5
ENDBRANCH   2   4
TORSDOF 4
ENDMDL
MODEL      144
REMARK 921   NORMALIZED FREE ENERGY PREDICTED BY IDOCK:   -3.32 KCAL/MOL
REMARK 922        TOTAL FREE ENERGY PREDICTED BY IDOCK:   -4.74 KCAL/MOL
REMARK 923 INTER-LIGAND FREE ENERGY PREDICTED BY IDOCK:   -4.52 KCAL/MOL
REMARK 924 INTRA-LIGAND FREE ENERGY PREDICTED BY IDOCK:   -0.22 KCAL/MOL
REMARK 927      BINDING AFFINITY PREDICTED BY RF-SCORE:    0.00 PKD
ROOT
HETATM    1  C   UNL     1      -9.764   4.499  66.029  1.00  0.00    -0.210 C  
HETATM    2  N   UNL     1      -8.550   5.298  66.016  1.00  0.00    -0.120 NA 
HETATM    3  H   UNL     1      -7.974   5.077  65.204  1.00  0.00     0.000 HD 
ENDROOT
BRANCH   2   4
HETATM    4  C   UNL     1      -8.823   6.737  66.094  1.00  0.00    -0.148 C  
BRANCH   4   5
HETATM    5  C   UNL     1      -9.619   6.994  67.374  1.00  0.00    -0.164 C  
BRANCH   5   6
HETATM    6  C   UNL     1     -10.460   8.277  67.336  1.00  0.00    -0.283 C  
BRANCH   6   7
HETATM    7  N   UNL     1     -10.055   9.213  68.416  1.00  0.00    -0.189 NA 
HETATM    8  C   UNL     1     -10.780   9.080  69.618  1.00  0.00    -0.219 A  
HETATM    9  C   UNL     1     -10.507   7.993  70.463  1.00  0.00    -0.217 A  
HETATM   10  C   UNL     1     -11.117   7.874  71.712  1.00  0.00    -0.299 A  
HETATM   11  C   UNL     1     -12.024   8.839  72.132  1.00  0.00    -0.436 A  
HETATM   12  C   UNL     1     -12.331   9.911  71.297  1.00  0.00    -0.478 A  
HETATM   13  C   UNL     1     -11.711  10.039  70.041  1.00  0.00    -0.242 A  
HETATM   14  C   UNL     1     -12.029  11.218  69.165  1.00  0.00    -0.405 C  
HETATM   15  C   UNL     1     -10.841  12.159  69.053  1.00  0.00    -0.208 C  
HETATM   16  C   UNL     1      -9.600  11.674  68.332  1.00  0.00    -0.195 A  
HETATM   17  C   UNL     1      -8.696  12.699  67.964  1.00  0.00    -0.190 A  
HETATM   18  C   UNL     1      -7.486  12.421  67.336  1.00  0.00    -0.157 A  
HETATM   19  C   UNL     1      -7.149  11.105  67.067  1.00  0.00    -0.124 A  
HETATM   20  C   UNL     1      -8.034  10.082  67.411  1.00  0.00    -0.106 A  
HETATM   21  C   UNL     1      -9.277  10.332  68.039  1.00  0.00    -0.135 A  
ENDBRANCH   6   7
ENDBRANCH   5   6
ENDBRANCH   4   5
ENDBRANCH   2   4
TORSDOF 4
ENDMDL
MODEL      145
REMARK 921   NORMALIZED FREE ENERGY PREDICTED BY IDOCK:   -3.32 KCAL/MOL
REMARK 922        TOTAL FREE ENERGY PREDICTED BY IDOCK:   -4.74 KCAL/MOL
REMARK 923 INTER-LIGAND FREE ENERGY PREDICTED BY IDOCK:   -5.27 KCAL/MOL
REMARK 924 INTRA-LIGAND FREE ENERGY PREDICTED BY IDOCK:    0.52 KCAL/MOL
REMARK 927      BINDING AFFINITY PREDICTED BY RF-SCORE:    0.00 PKD
ROOT
HETATM    1  C   UNL     1     -14.329   7.041  71.883  1.00  0.00    -0.263 C  
HETATM    2  N   UNL     1     -12.903   6.957  72.148  1.00  0.00    -0.549 NA 
HETATM    3  H   UNL     1     -12.690   6.179  72.772  1.00  0.00     0.000 HD 
ENDROOT
BRANCH   2   4
HETATM    4  C   UNL     1     -12.107   6.880  70.918  1.00  0.00    -0.373 C  
BRANCH   4   5
HETATM    5  C   UNL     1     -10.631   6.959  71.311  1.00  0.00    -0.244 C  
BRANCH   5   6
HETATM    6  C   UNL     1     -10.034   8.369  71.208  1.00  0.00    -0.204 C  
BRANCH   6   7
HETATM    7  N   UNL     1     -10.657   9.133  70.096  1.00  0.00    -0.217 NA 
HETATM    8  C   UNL     1     -10.187   8.797  68.810  1.00  0.00    -0.206 A  
HETATM    9  C   UNL     1     -10.615   7.597  68.220  1.00  0.00    -0.175 A  
HETATM   10  C   UNL     1     -10.267   7.269  66.908  1.00  0.00    -0.340 A  
HETATM   11  C   UNL     1      -9.472   8.135  66.168  1.00  0.00    -0.217 A  
HETATM   12  C   UNL     1      -9.015   9.318  66.745  1.00  0.00    -0.154 A  
HETATM   13  C   UNL     1      -9.371   9.656  68.063  1.00  0.00    -0.142 A  
HETATM   14  C   UNL     1      -8.894  10.951  68.659  1.00  0.00    -0.158 C  
HETATM   15  C   UNL     1     -10.045  11.924  68.857  1.00  0.00    -0.060 C  
HETATM   16  C   UNL     1     -11.111  11.586  69.879  1.00  0.00    -0.079 A  
HETATM   17  C   UNL     1     -11.932  12.676  70.254  1.00  0.00    -0.363 A  
HETATM   18  C   UNL     1     -12.988  12.527  71.147  1.00  0.00    -0.237 A  
HETATM   19  C   UNL     1     -13.251  11.278  71.683  1.00  0.00    -0.431 A  
HETATM   20  C   UNL     1     -12.443  10.193  71.336  1.00  0.00    -0.524 A  
HETATM   21  C   UNL     1     -11.355  10.314  70.439  1.00  0.00    -0.332 A  
ENDBRANCH   6   7
ENDBRANCH   5   6
ENDBRANCH   4   5
ENDBRANCH   2   4
TORSDOF 4
ENDMDL
MODEL      146
REMARK 921   NORMALIZED FREE ENERGY PREDICTED BY IDOCK:   -3.32 KCAL/MOL
REMARK 922        TOTAL FREE ENERGY PREDICTED BY IDOCK:   -4.74 KCAL/MOL
REMARK 923 INTER-LIGAND FREE ENERGY PREDICTED BY IDOCK:   -4.53 KCAL/MOL
REMARK 924 INTRA-LIGAND FREE ENERGY PREDICTED BY IDOCK:   -0.21 KCAL/MOL
REMARK 927      BINDING AFFINITY PREDICTED BY RF-SCORE:    0.00 PKD
ROOT
HETATM    1  C   UNL     1      -9.470   3.054  70.400  1.00  0.00    -0.148 C  
HETATM    2  N   UNL     1      -9.792   4.464  70.541  1.00  0.00    -0.216 NA 
HETATM    3  H   UNL     1      -8.981   4.997  70.855  1.00  0.00     0.000 HD 
ENDROOT
BRANCH   2   4
HETATM    4  C   UNL     1     -10.357   5.037  69.315  1.00  0.00    -0.129 C  
BRANCH   4   5
HETATM    5  C   UNL     1     -11.067   6.339  69.690  1.00  0.00    -0.479 C  
BRANCH   5   6
HETATM    6  C   UNL     1     -10.700   7.528  68.792  1.00  0.00    -0.095 C  
BRANCH   6   7
HETATM    7  N   UNL     1     -10.137   8.647  69.591  1.00  0.00    -0.196 NA 
HETATM    8  C   UNL     1     -11.093   9.542  70.113  1.00  0.00    -0.255 A  
HETATM    9  C   UNL     1     -11.865   9.149  71.217  1.00  0.00    -0.396 A  
HETATM   10  C   UNL     1     -12.746  10.035  71.839  1.00  0.00    -0.493 A  
HETATM   11  C   UNL     1     -12.878  11.330  71.355  1.00  0.00    -0.515 A  
HETATM   12  C   UNL     1     -12.141  11.732  70.244  1.00  0.00    -0.426 A  
HETATM   13  C   UNL     1     -11.245  10.846  69.620  1.00  0.00    -0.348 A  
HETATM   14  C   UNL     1     -10.435  11.305  68.440  1.00  0.00    -0.219 C  
HETATM   15  C   UNL     1      -8.961  11.419  68.794  1.00  0.00    -0.086 C  
HETATM   16  C   UNL     1      -8.194  10.152  69.112  1.00  0.00    -0.145 A  
HETATM   17  C   UNL     1      -6.786  10.295  69.081  1.00  0.00    -0.062 A  
HETATM   18  C   UNL     1      -5.934   9.241  69.394  1.00  0.00    -0.037 A  
HETATM   19  C   UNL     1      -6.474   8.017  69.753  1.00  0.00    -0.037 A  
HETATM   20  C   UNL     1      -7.860   7.854  69.777  1.00  0.00    -0.104 A  
HETATM   21  C   UNL     1      -8.753   8.902  69.453  1.00  0.00    -0.142 A  
ENDBRANCH   6   7
ENDBRANCH   5   6
ENDBRANCH   4   5
ENDBRANCH   2   4
TORSDOF 4
ENDMDL
MODEL      147
REMARK 921   NORMALIZED FREE ENERGY PREDICTED BY IDOCK:   -3.28 KCAL/MOL
REMARK 922        TOTAL FREE ENERGY PREDICTED BY IDOCK:   -4.69 KCAL/MOL
REMARK 923 INTER-LIGAND FREE ENERGY PREDICTED BY IDOCK:   -4.61 KCAL/MOL
REMARK 924 INTRA-LIGAND FREE ENERGY PREDICTED BY IDOCK:   -0.09 KCAL/MOL
REMARK 927      BINDING AFFINITY PREDICTED BY RF-SCORE:    0.00 PKD
ROOT
HETATM    1  C   UNL     1     -12.437  13.929  66.312  1.00  0.00    -0.409 C  
HETATM    2  N   UNL     1     -12.202  14.108  67.735  1.00  0.00    -0.569 NA 
HETATM    3  H   UNL     1     -12.954  13.694  68.286  1.00  0.00     0.000 HD 
ENDROOT
BRANCH   2   4
HETATM    4  C   UNL     1     -10.895  13.596  68.158  1.00  0.00    -0.246 C  
BRANCH   4   5
HETATM    5  C   UNL     1     -10.829  12.115  67.783  1.00  0.00    -0.263 C  
BRANCH   5   6
HETATM    6  C   UNL     1     -10.800  11.169  68.990  1.00  0.00    -0.231 C  
BRANCH   6   7
HETATM    7  N   UNL     1      -9.707  10.171  68.861  1.00  0.00    -0.177 NA 
HETATM    8  C   UNL     1     -10.137   8.845  68.646  1.00  0.00    -0.188 A  
HETATM    9  C   UNL     1     -10.613   8.481  67.377  1.00  0.00    -0.304 A  
HETATM   10  C   UNL     1     -10.949   7.159  67.080  1.00  0.00    -0.304 A  
HETATM   11  C   UNL     1     -10.823   6.179  68.056  1.00  0.00    -0.398 A  
HETATM   12  C   UNL     1     -10.378   6.524  69.330  1.00  0.00    -0.241 A  
HETATM   13  C   UNL     1     -10.031   7.854  69.631  1.00  0.00    -0.191 A  
HETATM   14  C   UNL     1      -9.523   8.204  71.001  1.00  0.00    -0.185 C  
HETATM   15  C   UNL     1      -8.051   8.579  70.965  1.00  0.00    -0.149 C  
HETATM   16  C   UNL     1      -7.645   9.849  70.245  1.00  0.00    -0.172 A  
HETATM   17  C   UNL     1      -6.341  10.307  70.552  1.00  0.00    -0.112 A  
HETATM   18  C   UNL     1      -5.796  11.433  69.944  1.00  0.00    -0.109 A  
HETATM   19  C   UNL     1      -6.544  12.125  69.005  1.00  0.00    -0.100 A  
HETATM   20  C   UNL     1      -7.836  11.695  68.699  1.00  0.00    -0.132 A  
HETATM   21  C   UNL     1      -8.424  10.562  69.309  1.00  0.00    -0.129 A  
ENDBRANCH   6   7
ENDBRANCH   5   6
ENDBRANCH   4   5
ENDBRANCH   2   4
TORSDOF 4
ENDMDL
MODEL      148
REMARK 921   NORMALIZED FREE ENERGY PREDICTED BY IDOCK:   -3.20 KCAL/MOL
REMARK 922        TOTAL FREE ENERGY PREDICTED BY IDOCK:   -4.60 KCAL/MOL
REMARK 923 INTER-LIGAND FREE ENERGY PREDICTED BY IDOCK:   -4.01 KCAL/MOL
REMARK 924 INTRA-LIGAND FREE ENERGY PREDICTED BY IDOCK:   -0.59 KCAL/MOL
REMARK 927      BINDING AFFINITY PREDICTED BY RF-SCORE:    0.00 PKD
ROOT
HETATM    1  C   UNL     1     -11.304  12.773  64.413  1.00  0.00    -0.347 C  
HETATM    2  N   UNL     1     -10.447  11.977  65.275  1.00  0.00    -0.273 NA 
HETATM    3  H   UNL     1      -9.526  12.404  65.374  1.00  0.00     0.000 HD 
ENDROOT
BRANCH   2   4
HETATM    4  C   UNL     1     -11.052  11.718  66.586  1.00  0.00    -0.310 C  
BRANCH   4   5
HETATM    5  C   UNL     1     -10.141  10.747  67.339  1.00  0.00    -0.227 C  
BRANCH   5   6
HETATM    6  C   UNL     1     -10.765   9.365  67.573  1.00  0.00    -0.222 C  
BRANCH   6   7
HETATM    7  N   UNL     1      -9.809   8.457  68.258  1.00  0.00    -0.163 NA 
HETATM    8  C   UNL     1      -9.943   8.406  69.661  1.00  0.00    -0.193 A  
HETATM    9  C   UNL     1     -11.015   7.691  70.218  1.00  0.00    -0.261 A  
HETATM   10  C   UNL     1     -11.132   7.518  71.598  1.00  0.00    -0.270 A  
HETATM   11  C   UNL     1     -10.180   8.070  72.446  1.00  0.00    -0.347 A  
HETATM   12  C   UNL     1      -9.123   8.806  71.915  1.00  0.00    -0.291 A  
HETATM   13  C   UNL     1      -8.997   8.975  70.524  1.00  0.00    -0.249 A  
HETATM   14  C   UNL     1      -7.834   9.745  69.965  1.00  0.00    -0.188 C  
HETATM   15  C   UNL     1      -6.872   8.831  69.224  1.00  0.00    -0.050 C  
HETATM   16  C   UNL     1      -7.342   8.175  67.942  1.00  0.00    -0.096 A  
HETATM   17  C   UNL     1      -6.304   7.641  67.141  1.00  0.00    -0.054 A  
HETATM   18  C   UNL     1      -6.566   6.964  65.954  1.00  0.00    -0.051 A  
HETATM   19  C   UNL     1      -7.878   6.801  65.543  1.00  0.00    -0.112 A  
HETATM   20  C   UNL     1      -8.914   7.332  66.313  1.00  0.00    -0.185 A  
HETATM   21  C   UNL     1      -8.680   8.035  67.519  1.00  0.00    -0.125 A  
ENDBRANCH   6   7
ENDBRANCH   5   6
ENDBRANCH   4   5
ENDBRANCH   2   4
TORSDOF 4
ENDMDL
MODEL      149
REMARK 921   NORMALIZED FREE ENERGY PREDICTED BY IDOCK:   -3.19 KCAL/MOL
REMARK 922        TOTAL FREE ENERGY PREDICTED BY IDOCK:   -4.58 KCAL/MOL
REMARK 923 INTER-LIGAND FREE ENERGY PREDICTED BY IDOCK:   -4.71 KCAL/MOL
REMARK 924 INTRA-LIGAND FREE ENERGY PREDICTED BY IDOCK:    0.13 KCAL/MOL
REMARK 927      BINDING AFFINITY PREDICTED BY RF-SCORE:    0.00 PKD
ROOT
HETATM    1  C   UNL     1     -13.191  10.453  71.736  1.00  0.00    -0.424 C  
HETATM    2  N   UNL     1     -12.332   9.924  70.690  1.00  0.00    -0.440 NA 
HETATM    3  H   UNL     1     -11.802  10.669  70.238  1.00  0.00     0.000 HD 
ENDROOT
BRANCH   2   4
HETATM    4  C   UNL     1     -11.443   8.863  71.176  1.00  0.00    -0.301 C  
BRANCH   4   5
HETATM    5  C   UNL     1     -12.225   7.549  71.150  1.00  0.00    -0.330 C  
BRANCH   5   6
HETATM    6  C   UNL     1     -11.720   6.546  70.105  1.00  0.00    -0.353 C  
BRANCH   6   7
HETATM    7  N   UNL     1     -10.421   5.954  70.516  1.00  0.00    -0.236 NA 
HETATM    8  C   UNL     1      -9.371   6.130  69.592  1.00  0.00    -0.146 A  
HETATM    9  C   UNL     1      -8.759   7.389  69.486  1.00  0.00    -0.137 A  
HETATM   10  C   UNL     1      -7.646   7.588  68.667  1.00  0.00    -0.110 A  
HETATM   11  C   UNL     1      -7.134   6.529  67.930  1.00  0.00    -0.085 A  
HETATM   12  C   UNL     1      -7.743   5.278  67.999  1.00  0.00    -0.084 A  
HETATM   13  C   UNL     1      -8.858   5.071  68.830  1.00  0.00    -0.111 A  
HETATM   14  C   UNL     1      -9.485   3.707  68.918  1.00  0.00    -0.218 C  
HETATM   15  C   UNL     1      -9.248   3.078  70.281  1.00  0.00    -0.213 C  
HETATM   16  C   UNL     1      -9.908   3.705  71.491  1.00  0.00    -0.227 A  
HETATM   17  C   UNL     1      -9.934   2.879  72.641  1.00  0.00    -0.221 A  
HETATM   18  C   UNL     1     -10.462   3.319  73.850  1.00  0.00    -0.256 A  
HETATM   19  C   UNL     1     -10.973   4.603  73.939  1.00  0.00    -0.333 A  
HETATM   20  C   UNL     1     -10.968   5.428  72.813  1.00  0.00    -0.328 A  
HETATM   21  C   UNL     1     -10.449   5.006  71.566  1.00  0.00    -0.155 A  
ENDBRANCH   6   7
ENDBRANCH   5   6
ENDBRANCH   4   5
ENDBRANCH   2   4
TORSDOF 4
ENDMDL
MODEL      150
REMARK 921   NORMALIZED FREE ENERGY PREDICTED BY IDOCK:   -3.18 KCAL/MOL
REMARK 922        TOTAL FREE ENERGY PREDICTED BY IDOCK:   -4.57 KCAL/MOL
REMARK 923 INTER-LIGAND FREE ENERGY PREDICTED BY IDOCK:   -4.02 KCAL/MOL
REMARK 924 INTRA-LIGAND FREE ENERGY PREDICTED BY IDOCK:   -0.55 KCAL/MOL
REMARK 927      BINDING AFFINITY PREDICTED BY RF-SCORE:    0.00 PKD
ROOT
HETATM    1  C   UNL     1      -8.752   9.639  65.150  1.00  0.00    -0.166 C  
HETATM    2  N   UNL     1      -9.655   9.114  66.161  1.00  0.00    -0.246 NA 
HETATM    3  H   UNL     1      -9.287   8.255  66.571  1.00  0.00     0.000 HD 
ENDROOT
BRANCH   2   4
HETATM    4  C   UNL     1      -9.972  10.101  67.198  1.00  0.00    -0.196 C  
BRANCH   4   5
HETATM    5  C   UNL     1     -10.118   9.355  68.525  1.00  0.00    -0.208 C  
BRANCH   5   6
HETATM    6  C   UNL     1      -8.783   9.064  69.225  1.00  0.00    -0.138 C  
BRANCH   6   7
HETATM    7  N   UNL     1      -8.779   7.704  69.823  1.00  0.00    -0.139 NA 
HETATM    8  C   UNL     1      -8.925   6.649  68.899  1.00  0.00    -0.130 A  
HETATM    9  C   UNL     1      -7.833   6.293  68.092  1.00  0.00    -0.104 A  
HETATM   10  C   UNL     1      -7.890   5.189  67.240  1.00  0.00    -0.096 A  
HETATM   11  C   UNL     1      -9.050   4.428  67.173  1.00  0.00    -0.143 A  
HETATM   12  C   UNL     1     -10.155   4.781  67.945  1.00  0.00    -0.119 A  
HETATM   13  C   UNL     1     -10.099   5.887  68.811  1.00  0.00    -0.220 A  
HETATM   14  C   UNL     1     -11.289   6.236  69.660  1.00  0.00    -0.492 C  
HETATM   15  C   UNL     1     -11.014   5.972  71.131  1.00  0.00    -0.341 C  
HETATM   16  C   UNL     1      -9.979   6.824  71.837  1.00  0.00    -0.187 A  
HETATM   17  C   UNL     1     -10.034   6.763  73.250  1.00  0.00    -0.227 A  
HETATM   18  C   UNL     1      -9.126   7.449  74.051  1.00  0.00    -0.289 A  
HETATM   19  C   UNL     1      -8.134   8.208  73.453  1.00  0.00    -0.253 A  
HETATM   20  C   UNL     1      -8.072   8.290  72.061  1.00  0.00    -0.188 A  
HETATM   21  C   UNL     1      -8.988   7.615  71.219  1.00  0.00    -0.133 A  
ENDBRANCH   6   7
ENDBRANCH   5   6
ENDBRANCH   4   5
ENDBRANCH   2   4
TORSDOF 4
ENDMDL
MODEL      151
REMARK 921   NORMALIZED FREE ENERGY PREDICTED BY IDOCK:   -3.17 KCAL/MOL
REMARK 922        TOTAL FREE ENERGY PREDICTED BY IDOCK:   -4.55 KCAL/MOL
REMARK 923 INTER-LIGAND FREE ENERGY PREDICTED BY IDOCK:   -4.01 KCAL/MOL
REMARK 924 INTRA-LIGAND FREE ENERGY PREDICTED BY IDOCK:   -0.54 KCAL/MOL
REMARK 927      BINDING AFFINITY PREDICTED BY RF-SCORE:    0.00 PKD
ROOT
HETATM    1  C   UNL     1     -10.741   3.208  63.674  1.00  0.00    -0.234 C  
HETATM    2  N   UNL     1      -9.821   2.627  64.637  1.00  0.00    -0.338 NA 
HETATM    3  H   UNL     1      -9.753   1.617  64.517  1.00  0.00     0.000 HD 
ENDROOT
BRANCH   2   4
HETATM    4  C   UNL     1      -8.496   3.254  64.597  1.00  0.00    -0.094 C  
BRANCH   4   5
HETATM    5  C   UNL     1      -8.613   4.638  65.236  1.00  0.00    -0.133 C  
BRANCH   5   6
HETATM    6  C   UNL     1      -7.890   4.764  66.584  1.00  0.00    -0.099 C  
BRANCH   6   7
HETATM    7  N   UNL     1      -8.269   6.022  67.278  1.00  0.00    -0.106 NA 
HETATM    8  C   UNL     1      -9.029   5.844  68.453  1.00  0.00    -0.112 A  
HETATM    9  C   UNL     1      -8.387   5.399  69.619  1.00  0.00    -0.100 A  
HETATM   10  C   UNL     1      -9.069   5.311  70.834  1.00  0.00    -0.168 A  
HETATM   11  C   UNL     1     -10.413   5.657  70.898  1.00  0.00    -0.323 A  
HETATM   12  C   UNL     1     -11.075   6.076  69.746  1.00  0.00    -0.476 A  
HETATM   13  C   UNL     1     -10.389   6.174  68.522  1.00  0.00    -0.248 A  
HETATM   14  C   UNL     1     -11.111   6.657  67.295  1.00  0.00    -0.418 C  
HETATM   15  C   UNL     1     -10.615   8.028  66.867  1.00  0.00    -0.324 C  
HETATM   16  C   UNL     1      -9.195   8.158  66.356  1.00  0.00    -0.250 A  
HETATM   17  C   UNL     1      -8.929   9.361  65.659  1.00  0.00    -0.236 A  
HETATM   18  C   UNL     1      -7.663   9.658  65.164  1.00  0.00    -0.117 A  
HETATM   19  C   UNL     1      -6.630   8.758  65.362  1.00  0.00    -0.067 A  
HETATM   20  C   UNL     1      -6.876   7.560  66.036  1.00  0.00    -0.057 A  
HETATM   21  C   UNL     1      -8.155   7.223  66.541  1.00  0.00    -0.114 A  
ENDBRANCH   6   7
ENDBRANCH   5   6
ENDBRANCH   4   5
ENDBRANCH   2   4
TORSDOF 4
ENDMDL
MODEL      152
REMARK 921   NORMALIZED FREE ENERGY PREDICTED BY IDOCK:   -3.16 KCAL/MOL
REMARK 922        TOTAL FREE ENERGY PREDICTED BY IDOCK:   -4.54 KCAL/MOL
REMARK 923 INTER-LIGAND FREE ENERGY PREDICTED BY IDOCK:   -4.43 KCAL/MOL
REMARK 924 INTRA-LIGAND FREE ENERGY PREDICTED BY IDOCK:   -0.11 KCAL/MOL
REMARK 927      BINDING AFFINITY PREDICTED BY RF-SCORE:    0.00 PKD
ROOT
HETATM    1  C   UNL     1     -13.220   9.698  71.370  1.00  0.00    -0.389 C  
HETATM    2  N   UNL     1     -11.853   9.429  71.785  1.00  0.00    -0.384 NA 
HETATM    3  H   UNL     1     -11.507  10.162  72.404  1.00  0.00     0.000 HD 
ENDROOT
BRANCH   2   4
HETATM    4  C   UNL     1     -11.703   8.105  72.399  1.00  0.00    -0.399 C  
BRANCH   4   5
HETATM    5  C   UNL     1     -11.972   7.056  71.320  1.00  0.00    -0.388 C  
BRANCH   5   6
HETATM    6  C   UNL     1     -11.119   5.788  71.460  1.00  0.00    -0.214 C  
BRANCH   6   7
HETATM    7  N   UNL     1      -9.920   5.851  70.586  1.00  0.00    -0.182 NA 
HETATM    8  C   UNL     1     -10.163   5.573  69.225  1.00  0.00    -0.245 A  
HETATM    9  C   UNL     1     -10.787   6.548  68.431  1.00  0.00    -0.357 A  
HETATM   10  C   UNL     1     -10.953   6.367  67.057  1.00  0.00    -0.463 A  
HETATM   11  C   UNL     1     -10.505   5.198  66.456  1.00  0.00    -0.346 A  
HETATM   12  C   UNL     1      -9.907   4.206  67.231  1.00  0.00    -0.171 A  
HETATM   13  C   UNL     1      -9.730   4.388  68.614  1.00  0.00    -0.190 A  
HETATM   14  C   UNL     1      -9.055   3.322  69.430  1.00  0.00    -0.201 C  
HETATM   15  C   UNL     1      -7.691   3.781  69.917  1.00  0.00    -0.051 C  
HETATM   16  C   UNL     1      -7.625   4.909  70.926  1.00  0.00    -0.073 A  
HETATM   17  C   UNL     1      -6.378   5.036  71.584  1.00  0.00    -0.030 A  
HETATM   18  C   UNL     1      -6.134   6.048  72.506  1.00  0.00    -0.041 A  
HETATM   19  C   UNL     1      -7.133   6.965  72.786  1.00  0.00    -0.074 A  
HETATM   20  C   UNL     1      -8.374   6.848  72.157  1.00  0.00    -0.105 A  
HETATM   21  C   UNL     1      -8.657   5.823  71.223  1.00  0.00    -0.129 A  
ENDBRANCH   6   7
ENDBRANCH   5   6
ENDBRANCH   4   5
ENDBRANCH   2   4
TORSDOF 4
ENDMDL
MODEL      153
REMARK 921   NORMALIZED FREE ENERGY PREDICTED BY IDOCK:   -3.15 KCAL/MOL
REMARK 922        TOTAL FREE ENERGY PREDICTED BY IDOCK:   -4.54 KCAL/MOL
REMARK 923 INTER-LIGAND FREE ENERGY PREDICTED BY IDOCK:   -4.29 KCAL/MOL
REMARK 924 INTRA-LIGAND FREE ENERGY PREDICTED BY IDOCK:   -0.25 KCAL/MOL
REMARK 927      BINDING AFFINITY PREDICTED BY RF-SCORE:    0.00 PKD
ROOT
HETATM    1  C   UNL     1      -9.040   2.970  65.933  1.00  0.00    -0.141 C  
HETATM    2  N   UNL     1      -8.373   3.447  67.133  1.00  0.00    -0.091 NA 
HETATM    3  H   UNL     1      -8.674   4.392  67.370  1.00  0.00     0.000 HD 
ENDROOT
BRANCH   2   4
HETATM    4  C   UNL     1      -8.545   2.537  68.271  1.00  0.00    -0.081 C  
BRANCH   4   5
HETATM    5  C   UNL     1      -9.336   3.280  69.348  1.00  0.00    -0.232 C  
BRANCH   5   6
HETATM    6  C   UNL     1      -8.592   4.479  69.950  1.00  0.00    -0.069 C  
BRANCH   6   7
HETATM    7  N   UNL     1      -9.523   5.603  70.224  1.00  0.00    -0.157 NA 
HETATM    8  C   UNL     1      -9.814   6.417  69.110  1.00  0.00    -0.140 A  
HETATM    9  C   UNL     1     -10.691   5.937  68.125  1.00  0.00    -0.329 A  
HETATM   10  C   UNL     1     -11.097   6.742  67.060  1.00  0.00    -0.369 A  
HETATM   11  C   UNL     1     -10.620   8.043  66.957  1.00  0.00    -0.364 A  
HETATM   12  C   UNL     1      -9.727   8.530  67.909  1.00  0.00    -0.193 A  
HETATM   13  C   UNL     1      -9.323   7.724  68.989  1.00  0.00    -0.150 A  
HETATM   14  C   UNL     1      -8.384   8.276  70.025  1.00  0.00    -0.121 C  
HETATM   15  C   UNL     1      -9.086   8.471  71.358  1.00  0.00    -0.266 C  
HETATM   16  C   UNL     1      -9.557   7.246  72.114  1.00  0.00    -0.162 A  
HETATM   17  C   UNL     1      -9.871   7.480  73.474  1.00  0.00    -0.372 A  
HETATM   18  C   UNL     1     -10.361   6.472  74.299  1.00  0.00    -0.309 A  
HETATM   19  C   UNL     1     -10.557   5.205  73.776  1.00  0.00    -0.331 A  
HETATM   20  C   UNL     1     -10.241   4.952  72.440  1.00  0.00    -0.255 A  
HETATM   21  C   UNL     1      -9.729   5.952  71.580  1.00  0.00    -0.161 A  
ENDBRANCH   6   7
ENDBRANCH   5   6
ENDBRANCH   4   5
ENDBRANCH   2   4
TORSDOF 4
ENDMDL
MODEL      154
REMARK 921   NORMALIZED FREE ENERGY PREDICTED BY IDOCK:   -3.15 KCAL/MOL
REMARK 922        TOTAL FREE ENERGY PREDICTED BY IDOCK:   -4.54 KCAL/MOL
REMARK 923 INTER-LIGAND FREE ENERGY PREDICTED BY IDOCK:   -3.98 KCAL/MOL
REMARK 924 INTRA-LIGAND FREE ENERGY PREDICTED BY IDOCK:   -0.56 KCAL/MOL
REMARK 927      BINDING AFFINITY PREDICTED BY RF-SCORE:    0.00 PKD
ROOT
HETATM    1  C   UNL     1      -8.138   7.553  69.199  1.00  0.00    -0.123 C  
HETATM    2  N   UNL     1      -8.948   8.533  68.494  1.00  0.00    -0.139 NA 
HETATM    3  H   UNL     1      -9.780   8.100  68.092  1.00  0.00     0.000 HD 
ENDROOT
BRANCH   2   4
HETATM    4  C   UNL     1      -9.305   9.678  69.337  1.00  0.00    -0.193 C  
BRANCH   4   5
HETATM    5  C   UNL     1      -9.608  10.861  68.416  1.00  0.00    -0.177 C  
BRANCH   5   6
HETATM    6  C   UNL     1      -8.362  11.487  67.778  1.00  0.00    -0.136 C  
BRANCH   6   7
HETATM    7  N   UNL     1      -8.728  12.346  66.622  1.00  0.00    -0.165 NA 
HETATM    8  C   UNL     1      -9.151  13.647  66.961  1.00  0.00    -0.248 A  
HETATM    9  C   UNL     1      -8.193  14.595  67.356  1.00  0.00    -0.220 A  
HETATM   10  C   UNL     1      -8.544  15.924  67.597  1.00  0.00    -0.172 A  
HETATM   11  C   UNL     1      -9.866  16.325  67.458  1.00  0.00    -0.238 A  
HETATM   12  C   UNL     1     -10.837  15.394  67.094  1.00  0.00    -0.321 A  
HETATM   13  C   UNL     1     -10.486  14.056  66.841  1.00  0.00    -0.276 A  
HETATM   14  C   UNL     1     -11.541  13.072  66.419  1.00  0.00    -0.413 C  
HETATM   15  C   UNL     1     -11.352  12.648  64.971  1.00  0.00    -0.345 C  
HETATM   16  C   UNL     1     -10.128  11.833  64.610  1.00  0.00    -0.310 A  
HETATM   17  C   UNL     1     -10.201  11.189  63.352  1.00  0.00    -0.435 A  
HETATM   18  C   UNL     1      -9.144  10.438  62.848  1.00  0.00    -0.287 A  
HETATM   19  C   UNL     1      -7.982  10.320  63.591  1.00  0.00    -0.139 A  
HETATM   20  C   UNL     1      -7.896  10.937  64.840  1.00  0.00     0.268 A  
HETATM   21  C   UNL     1      -8.957  11.697  65.386  1.00  0.00     0.090 A  
ENDBRANCH   6   7
ENDBRANCH   5   6
ENDBRANCH   4   5
ENDBRANCH   2   4
TORSDOF 4
ENDMDL
MODEL      155
REMARK 921   NORMALIZED FREE ENERGY PREDICTED BY IDOCK:   -3.14 KCAL/MOL
REMARK 922        TOTAL FREE ENERGY PREDICTED BY IDOCK:   -4.52 KCAL/MOL
REMARK 923 INTER-LIGAND FREE ENERGY PREDICTED BY IDOCK:   -4.35 KCAL/MOL
REMARK 924 INTRA-LIGAND FREE ENERGY PREDICTED BY IDOCK:   -0.16 KCAL/MOL
REMARK 927      BINDING AFFINITY PREDICTED BY RF-SCORE:    0.00 PKD
ROOT
HETATM    1  C   UNL     1      -9.849   4.373  69.664  1.00  0.00    -0.202 C  
HETATM    2  N   UNL     1     -10.090   5.805  69.600  1.00  0.00    -0.193 NA 
HETATM    3  H   UNL     1      -9.290   6.328  69.955  1.00  0.00     0.000 HD 
ENDROOT
BRANCH   2   4
HETATM    4  C   UNL     1     -10.458   6.253  68.253  1.00  0.00    -0.228 C  
BRANCH   4   5
HETATM    5  C   UNL     1     -10.421   7.782  68.242  1.00  0.00    -0.215 C  
BRANCH   5   6
HETATM    6  C   UNL     1     -10.866   8.404  66.912  1.00  0.00     0.089 C  
BRANCH   6   7
HETATM    7  N   UNL     1     -10.088   9.635  66.612  1.00  0.00    -0.230 NA 
HETATM    8  C   UNL     1     -10.679  10.833  67.062  1.00  0.00    -0.265 A  
HETATM    9  C   UNL     1     -10.634  11.143  68.430  1.00  0.00    -0.223 A  
HETATM   10  C   UNL     1     -11.107  12.365  68.913  1.00  0.00    -0.307 A  
HETATM   11  C   UNL     1     -11.644  13.294  68.031  1.00  0.00    -0.371 A  
HETATM   12  C   UNL     1     -11.723  12.995  66.673  1.00  0.00    -0.438 A  
HETATM   13  C   UNL     1     -11.240  11.769  66.182  1.00  0.00    -0.363 A  
HETATM   14  C   UNL     1     -11.304  11.474  64.709  1.00  0.00    -0.206 C  
HETATM   15  C   UNL     1      -9.917  11.454  64.090  1.00  0.00    -0.335 C  
HETATM   16  C   UNL     1      -8.958  10.354  64.496  1.00  0.00    -0.241 A  
HETATM   17  C   UNL     1      -7.846  10.196  63.635  1.00  0.00    -0.154 A  
HETATM   18  C   UNL     1      -6.847   9.262  63.889  1.00  0.00    -0.092 A  
HETATM   19  C   UNL     1      -6.936   8.466  65.019  1.00  0.00    -0.074 A  
HETATM   20  C   UNL     1      -8.032   8.598  65.873  1.00  0.00    -0.105 A  
HETATM   21  C   UNL     1      -9.070   9.530  65.636  1.00  0.00    -0.201 A  
ENDBRANCH   6   7
ENDBRANCH   5   6
ENDBRANCH   4   5
ENDBRANCH   2   4
TORSDOF 4
ENDMDL
MODEL      156
REMARK 921   NORMALIZED FREE ENERGY PREDICTED BY IDOCK:   -3.13 KCAL/MOL
REMARK 922        TOTAL FREE ENERGY PREDICTED BY IDOCK:   -4.50 KCAL/MOL
REMARK 923 INTER-LIGAND FREE ENERGY PREDICTED BY IDOCK:   -3.95 KCAL/MOL
REMARK 924 INTRA-LIGAND FREE ENERGY PREDICTED BY IDOCK:   -0.55 KCAL/MOL
REMARK 927      BINDING AFFINITY PREDICTED BY RF-SCORE:    0.00 PKD
ROOT
HETATM    1  C   UNL     1     -10.421  11.378  67.588  1.00  0.00    -0.194 C  
HETATM    2  N   UNL     1      -9.299  10.454  67.540  1.00  0.00    -0.148 NA 
HETATM    3  H   UNL     1      -8.980  10.216  68.479  1.00  0.00     0.000 HD 
ENDROOT
BRANCH   2   4
HETATM    4  C   UNL     1      -9.597   9.248  66.761  1.00  0.00    -0.183 C  
BRANCH   4   5
HETATM    5  C   UNL     1      -8.352   8.360  66.778  1.00  0.00    -0.109 C  
BRANCH   5   6
HETATM    6  C   UNL     1      -7.749   8.163  68.175  1.00  0.00    -0.110 C  
BRANCH   6   7
HETATM    7  N   UNL     1      -8.475   7.106  68.926  1.00  0.00    -0.126 NA 
HETATM    8  C   UNL     1      -8.510   5.847  68.293  1.00  0.00    -0.114 A  
HETATM    9  C   UNL     1      -7.354   5.049  68.297  1.00  0.00    -0.074 A  
HETATM   10  C   UNL     1      -7.366   3.752  67.780  1.00  0.00    -0.063 A  
HETATM   11  C   UNL     1      -8.536   3.236  67.239  1.00  0.00    -0.121 A  
HETATM   12  C   UNL     1      -9.687   4.020  67.201  1.00  0.00    -0.207 A  
HETATM   13  C   UNL     1      -9.681   5.324  67.728  1.00  0.00    -0.170 A  
HETATM   14  C   UNL     1     -10.939   6.146  67.707  1.00  0.00    -0.400 C  
HETATM   15  C   UNL     1     -11.490   6.348  69.109  1.00  0.00    -0.265 C  
HETATM   16  C   UNL     1     -10.692   7.186  70.087  1.00  0.00    -0.260 A  
HETATM   17  C   UNL     1     -11.419   7.615  71.223  1.00  0.00    -0.293 A  
HETATM   18  C   UNL     1     -10.824   8.353  72.240  1.00  0.00    -0.422 A  
HETATM   19  C   UNL     1      -9.481   8.675  72.146  1.00  0.00    -0.373 A  
HETATM   20  C   UNL     1      -8.750   8.273  71.027  1.00  0.00    -0.169 A  
HETATM   21  C   UNL     1      -9.329   7.531  69.970  1.00  0.00    -0.154 A  
ENDBRANCH   6   7
ENDBRANCH   5   6
ENDBRANCH   4   5
ENDBRANCH   2   4
TORSDOF 4
ENDMDL
MODEL      157
REMARK 921   NORMALIZED FREE ENERGY PREDICTED BY IDOCK:   -3.11 KCAL/MOL
REMARK 922        TOTAL FREE ENERGY PREDICTED BY IDOCK:   -4.48 KCAL/MOL
REMARK 923 INTER-LIGAND FREE ENERGY PREDICTED BY IDOCK:   -3.97 KCAL/MOL
REMARK 924 INTRA-LIGAND FREE ENERGY PREDICTED BY IDOCK:   -0.51 KCAL/MOL
REMARK 927      BINDING AFFINITY PREDICTED BY RF-SCORE:    0.00 PKD
ROOT
HETATM    1  C   UNL     1     -12.268  13.796  64.614  1.00  0.00    -0.406 C  
HETATM    2  N   UNL     1     -11.875  12.621  65.375  1.00  0.00    -0.404 NA 
HETATM    3  H   UNL     1     -12.564  11.876  65.281  1.00  0.00     0.000 HD 
ENDROOT
BRANCH   2   4
HETATM    4  C   UNL     1     -10.533  12.147  65.022  1.00  0.00    -0.290 C  
BRANCH   4   5
HETATM    5  C   UNL     1     -10.482  10.643  65.291  1.00  0.00    -0.264 C  
BRANCH   5   6
HETATM    6  C   UNL     1      -9.092  10.023  65.099  1.00  0.00    -0.204 C  
BRANCH   6   7
HETATM    7  N   UNL     1      -8.606   9.399  66.357  1.00  0.00    -0.132 NA 
HETATM    8  C   UNL     1      -9.259   8.202  66.714  1.00  0.00    -0.164 A  
HETATM    9  C   UNL     1      -8.953   7.023  66.016  1.00  0.00    -0.135 A  
HETATM   10  C   UNL     1      -9.489   5.792  66.400  1.00  0.00    -0.172 A  
HETATM   11  C   UNL     1     -10.352   5.724  67.486  1.00  0.00    -0.274 A  
HETATM   12  C   UNL     1     -10.690   6.886  68.175  1.00  0.00    -0.260 A  
HETATM   13  C   UNL     1     -10.146   8.126  67.798  1.00  0.00    -0.260 A  
HETATM   14  C   UNL     1     -10.496   9.366  68.571  1.00  0.00    -0.239 C  
HETATM   15  C   UNL     1      -9.301   9.885  69.353  1.00  0.00    -0.226 C  
HETATM   16  C   UNL     1      -8.115  10.430  68.585  1.00  0.00    -0.118 A  
HETATM   17  C   UNL     1      -7.218  11.203  69.360  1.00  0.00    -0.091 A  
HETATM   18  C   UNL     1      -6.053  11.738  68.820  1.00  0.00    -0.050 A  
HETATM   19  C   UNL     1      -5.756  11.506  67.487  1.00  0.00    -0.063 A  
HETATM   20  C   UNL     1      -6.635  10.757  66.704  1.00  0.00    -0.112 A  
HETATM   21  C   UNL     1      -7.833  10.209  67.220  1.00  0.00    -0.103 A  
ENDBRANCH   6   7
ENDBRANCH   5   6
ENDBRANCH   4   5
ENDBRANCH   2   4
TORSDOF 4
ENDMDL
MODEL      158
REMARK 921   NORMALIZED FREE ENERGY PREDICTED BY IDOCK:   -3.11 KCAL/MOL
REMARK 922        TOTAL FREE ENERGY PREDICTED BY IDOCK:   -4.48 KCAL/MOL
REMARK 923 INTER-LIGAND FREE ENERGY PREDICTED BY IDOCK:   -4.15 KCAL/MOL
REMARK 924 INTRA-LIGAND FREE ENERGY PREDICTED BY IDOCK:   -0.33 KCAL/MOL
REMARK 927      BINDING AFFINITY PREDICTED BY RF-SCORE:    0.00 PKD
ROOT
HETATM    1  C   UNL     1      -8.720  19.489  68.575  1.00  0.00    -0.345 C  
HETATM    2  N   UNL     1     -10.107  19.586  68.152  1.00  0.00    -0.406 NA 
HETATM    3  H   UNL     1     -10.191  20.123  67.289  1.00  0.00     0.000 HD 
ENDROOT
BRANCH   2   4
HETATM    4  C   UNL     1     -10.747  18.272  68.021  1.00  0.00    -0.266 C  
BRANCH   4   5
HETATM    5  C   UNL     1     -10.290  17.409  69.197  1.00  0.00    -0.271 C  
BRANCH   5   6
HETATM    6  C   UNL     1     -10.826  15.972  69.160  1.00  0.00    -0.281 C  
BRANCH   6   7
HETATM    7  N   UNL     1     -10.175  15.187  68.080  1.00  0.00    -0.229 NA 
HETATM    8  C   UNL     1      -8.766  15.176  68.122  1.00  0.00    -0.167 A  
HETATM    9  C   UNL     1      -8.119  14.383  69.083  1.00  0.00     0.018 A  
HETATM   10  C   UNL     1      -6.729  14.252  69.099  1.00  0.00    -0.118 A  
HETATM   11  C   UNL     1      -5.962  14.924  68.156  1.00  0.00    -0.145 A  
HETATM   12  C   UNL     1      -6.582  15.737  67.211  1.00  0.00    -0.169 A  
HETATM   13  C   UNL     1      -7.983  15.865  67.186  1.00  0.00    -0.243 A  
HETATM   14  C   UNL     1      -8.639  16.723  66.141  1.00  0.00    -0.299 C  
HETATM   15  C   UNL     1      -9.411  15.879  65.141  1.00  0.00     0.600 C  
HETATM   16  C   UNL     1     -10.639  15.132  65.620  1.00  0.00    -0.370 A  
HETATM   17  C   UNL     1     -11.487  14.671  64.585  1.00  0.00    -0.389 A  
HETATM   18  C   UNL     1     -12.633  13.928  64.850  1.00  0.00    -0.380 A  
HETATM   19  C   UNL     1     -12.954  13.623  66.162  1.00  0.00     0.074 A  
HETATM   20  C   UNL     1     -12.137  14.081  67.197  1.00  0.00    -0.436 A  
HETATM   21  C   UNL     1     -10.972  14.848  66.961  1.00  0.00    -0.327 A  
ENDBRANCH   6   7
ENDBRANCH   5   6
ENDBRANCH   4   5
ENDBRANCH   2   4
TORSDOF 4
ENDMDL
MODEL      159
REMARK 921   NORMALIZED FREE ENERGY PREDICTED BY IDOCK:   -3.10 KCAL/MOL
REMARK 922        TOTAL FREE ENERGY PREDICTED BY IDOCK:   -4.47 KCAL/MOL
REMARK 923 INTER-LIGAND FREE ENERGY PREDICTED BY IDOCK:   -4.31 KCAL/MOL
REMARK 924 INTRA-LIGAND FREE ENERGY PREDICTED BY IDOCK:   -0.16 KCAL/MOL
REMARK 927      BINDING AFFINITY PREDICTED BY RF-SCORE:    0.00 PKD
ROOT
HETATM    1  C   UNL     1     -12.061  13.223  65.490  1.00  0.00    -0.435 C  
HETATM    2  N   UNL     1     -12.191  12.255  66.567  1.00  0.00    -0.507 NA 
HETATM    3  H   UNL     1     -13.056  11.722  66.479  1.00  0.00     0.000 HD 
ENDROOT
BRANCH   2   4
HETATM    4  C   UNL     1     -11.030  11.365  66.665  1.00  0.00    -0.285 C  
BRANCH   4   5
HETATM    5  C   UNL     1     -11.070  10.693  68.038  1.00  0.00    -0.361 C  
BRANCH   5   6
HETATM    6  C   UNL     1     -10.160   9.463  68.155  1.00  0.00    -0.181 C  
BRANCH   6   7
HETATM    7  N   UNL     1      -9.303   9.545  69.366  1.00  0.00    -0.170 NA 
HETATM    8  C   UNL     1      -7.969   9.930  69.124  1.00  0.00    -0.112 A  
HETATM    9  C   UNL     1      -7.689  11.277  68.840  1.00  0.00    -0.125 A  
HETATM   10  C   UNL     1      -6.377  11.731  68.700  1.00  0.00    -0.057 A  
HETATM   11  C   UNL     1      -5.320  10.838  68.830  1.00  0.00    -0.041 A  
HETATM   12  C   UNL     1      -5.577   9.493  69.084  1.00  0.00    -0.036 A  
HETATM   13  C   UNL     1      -6.898   9.033  69.235  1.00  0.00    -0.050 A  
HETATM   14  C   UNL     1      -7.157   7.585  69.540  1.00  0.00    -0.069 C  
HETATM   15  C   UNL     1      -7.689   7.405  70.952  1.00  0.00    -0.088 C  
HETATM   16  C   UNL     1      -9.063   7.951  71.283  1.00  0.00    -0.161 A  
HETATM   17  C   UNL     1      -9.624   7.446  72.480  1.00  0.00    -0.199 A  
HETATM   18  C   UNL     1     -10.859   7.878  72.952  1.00  0.00    -0.451 A  
HETATM   19  C   UNL     1     -11.560   8.835  72.238  1.00  0.00    -0.391 A  
HETATM   20  C   UNL     1     -11.028   9.337  71.049  1.00  0.00    -0.390 A  
HETATM   21  C   UNL     1      -9.781   8.909  70.535  1.00  0.00    -0.203 A  
ENDBRANCH   6   7
ENDBRANCH   5   6
ENDBRANCH   4   5
ENDBRANCH   2   4
TORSDOF 4
ENDMDL
MODEL      160
REMARK 921   NORMALIZED FREE ENERGY PREDICTED BY IDOCK:   -3.09 KCAL/MOL
REMARK 922        TOTAL FREE ENERGY PREDICTED BY IDOCK:   -4.46 KCAL/MOL
REMARK 923 INTER-LIGAND FREE ENERGY PREDICTED BY IDOCK:   -3.63 KCAL/MOL
REMARK 924 INTRA-LIGAND FREE ENERGY PREDICTED BY IDOCK:   -0.83 KCAL/MOL
REMARK 927      BINDING AFFINITY PREDICTED BY RF-SCORE:    0.00 PKD
ROOT
HETATM    1  C   UNL     1      -8.924   5.100  65.471  1.00  0.00    -0.155 C  
HETATM    2  N   UNL     1      -9.804   4.029  65.907  1.00  0.00    -0.311 NA 
HETATM    3  H   UNL     1     -10.251   3.574  65.111  1.00  0.00     0.000 HD 
ENDROOT
BRANCH   2   4
HETATM    4  C   UNL     1      -9.120   3.050  66.758  1.00  0.00    -0.161 C  
BRANCH   4   5
HETATM    5  C   UNL     1      -9.593   3.267  68.196  1.00  0.00    -0.147 C  
BRANCH   5   6
HETATM    6  C   UNL     1      -8.457   3.548  69.188  1.00  0.00    -0.066 C  
BRANCH   6   7
HETATM    7  N   UNL     1      -8.566   4.919  69.751  1.00  0.00    -0.086 NA 
HETATM    8  C   UNL     1      -9.409   5.032  70.876  1.00  0.00    -0.151 A  
HETATM    9  C   UNL     1      -8.955   4.562  72.118  1.00  0.00    -0.145 A  
HETATM   10  C   UNL     1      -9.704   4.747  73.282  1.00  0.00    -0.156 A  
HETATM   11  C   UNL     1     -10.929   5.398  73.217  1.00  0.00    -0.358 A  
HETATM   12  C   UNL     1     -11.410   5.848  71.990  1.00  0.00    -0.325 A  
HETATM   13  C   UNL     1     -10.655   5.671  70.817  1.00  0.00    -0.335 A  
HETATM   14  C   UNL     1     -11.174   6.190  69.505  1.00  0.00    -0.482 C  
HETATM   15  C   UNL     1     -10.347   7.364  69.010  1.00  0.00    -0.214 C  
HETATM   16  C   UNL     1      -8.910   7.114  68.598  1.00  0.00    -0.126 A  
HETATM   17  C   UNL     1      -8.330   8.153  67.831  1.00  0.00    -0.129 A  
HETATM   18  C   UNL     1      -7.005   8.103  67.410  1.00  0.00    -0.075 A  
HETATM   19  C   UNL     1      -6.226   7.012  67.755  1.00  0.00    -0.042 A  
HETATM   20  C   UNL     1      -6.784   5.972  68.500  1.00  0.00    -0.061 A  
HETATM   21  C   UNL     1      -8.131   5.987  68.933  1.00  0.00    -0.104 A  
ENDBRANCH   6   7
ENDBRANCH   5   6
ENDBRANCH   4   5
ENDBRANCH   2   4
TORSDOF 4
ENDMDL
MODEL      161
REMARK 921   NORMALIZED FREE ENERGY PREDICTED BY IDOCK:   -3.09 KCAL/MOL
REMARK 922        TOTAL FREE ENERGY PREDICTED BY IDOCK:   -4.46 KCAL/MOL
REMARK 923 INTER-LIGAND FREE ENERGY PREDICTED BY IDOCK:   -3.89 KCAL/MOL
REMARK 924 INTRA-LIGAND FREE ENERGY PREDICTED BY IDOCK:   -0.57 KCAL/MOL
REMARK 927      BINDING AFFINITY PREDICTED BY RF-SCORE:    0.00 PKD
ROOT
HETATM    1  C   UNL     1     -12.052   8.201  72.427  1.00  0.00    -0.348 C  
HETATM    2  N   UNL     1     -12.176   6.865  71.869  1.00  0.00    -0.361 NA 
HETATM    3  H   UNL     1     -13.149   6.558  71.866  1.00  0.00     0.000 HD 
ENDROOT
BRANCH   2   4
HETATM    4  C   UNL     1     -11.585   6.757  70.531  1.00  0.00    -0.372 C  
BRANCH   4   5
HETATM    5  C   UNL     1     -10.171   6.196  70.688  1.00  0.00    -0.250 C  
BRANCH   5   6
HETATM    6  C   UNL     1      -9.067   7.257  70.589  1.00  0.00    -0.157 C  
BRANCH   6   7
HETATM    7  N   UNL     1      -8.654   7.468  69.177  1.00  0.00    -0.136 NA 
HETATM    8  C   UNL     1      -9.199   8.616  68.566  1.00  0.00    -0.138 A  
HETATM    9  C   UNL     1      -8.683   9.878  68.901  1.00  0.00    -0.140 A  
HETATM   10  C   UNL     1      -9.110  11.034  68.246  1.00  0.00    -0.158 A  
HETATM   11  C   UNL     1     -10.075  10.947  67.250  1.00  0.00    -0.225 A  
HETATM   12  C   UNL     1     -10.620   9.708  66.922  1.00  0.00    -0.241 A  
HETATM   13  C   UNL     1     -10.185   8.539  67.572  1.00  0.00    -0.307 A  
HETATM   14  C   UNL     1     -10.762   7.206  67.184  1.00  0.00    -0.422 C  
HETATM   15  C   UNL     1      -9.729   6.343  66.479  1.00  0.00    -0.177 C  
HETATM   16  C   UNL     1      -8.537   5.848  67.271  1.00  0.00    -0.106 A  
HETATM   17  C   UNL     1      -7.827   4.786  66.663  1.00  0.00    -0.099 A  
HETATM   18  C   UNL     1      -6.680   4.245  67.235  1.00  0.00    -0.047 A  
HETATM   19  C   UNL     1      -6.212   4.762  68.431  1.00  0.00    -0.032 A  
HETATM   20  C   UNL     1      -6.906   5.802  69.053  1.00  0.00    -0.062 A  
HETATM   21  C   UNL     1      -8.081   6.365  68.503  1.00  0.00    -0.110 A  
ENDBRANCH   6   7
ENDBRANCH   5   6
ENDBRANCH   4   5
ENDBRANCH   2   4
TORSDOF 4
ENDMDL
MODEL      162
REMARK 921   NORMALIZED FREE ENERGY PREDICTED BY IDOCK:   -3.08 KCAL/MOL
REMARK 922        TOTAL FREE ENERGY PREDICTED BY IDOCK:   -4.45 KCAL/MOL
REMARK 923 INTER-LIGAND FREE ENERGY PREDICTED BY IDOCK:   -3.87 KCAL/MOL
REMARK 924 INTRA-LIGAND FREE ENERGY PREDICTED BY IDOCK:   -0.57 KCAL/MOL
REMARK 927      BINDING AFFINITY PREDICTED BY RF-SCORE:    0.00 PKD
ROOT
HETATM    1  C   UNL     1      -5.133  13.940  68.620  1.00  0.00    -0.089 C  
HETATM    2  N   UNL     1      -6.116  12.912  68.917  1.00  0.00    -0.078 NA 
HETATM    3  H   UNL     1      -6.961  13.318  69.320  1.00  0.00     0.000 HD 
ENDROOT
BRANCH   2   4
HETATM    4  C   UNL     1      -6.434  12.084  67.750  1.00  0.00    -0.087 C  
BRANCH   4   5
HETATM    5  C   UNL     1      -7.337  10.942  68.218  1.00  0.00    -0.087 C  
BRANCH   5   6
HETATM    6  C   UNL     1      -8.780  11.040  67.705  1.00  0.00    -0.130 C  
BRANCH   6   7
HETATM    7  N   UNL     1      -9.572   9.848  68.105  1.00  0.00    -0.139 NA 
HETATM    8  C   UNL     1     -10.476  10.065  69.164  1.00  0.00    -0.219 A  
HETATM    9  C   UNL     1     -11.667  10.766  68.912  1.00  0.00    -0.338 A  
HETATM   10  C   UNL     1     -12.644  10.914  69.897  1.00  0.00    -0.211 A  
HETATM   11  C   UNL     1     -12.440  10.372  71.159  1.00  0.00    -0.509 A  
HETATM   12  C   UNL     1     -11.254   9.697  71.439  1.00  0.00    -0.426 A  
HETATM   13  C   UNL     1     -10.270   9.538  70.446  1.00  0.00    -0.337 A  
HETATM   14  C   UNL     1      -9.009   8.780  70.755  1.00  0.00    -0.231 C  
HETATM   15  C   UNL     1      -8.963   7.458  70.007  1.00  0.00    -0.144 C  
HETATM   16  C   UNL     1      -8.842   7.485  68.498  1.00  0.00    -0.126 A  
HETATM   17  C   UNL     1      -8.454   6.254  67.917  1.00  0.00    -0.117 A  
HETATM   18  C   UNL     1      -8.341   6.094  66.540  1.00  0.00    -0.113 A  
HETATM   19  C   UNL     1      -8.623   7.165  65.709  1.00  0.00    -0.143 A  
HETATM   20  C   UNL     1      -8.995   8.391  66.263  1.00  0.00    -0.213 A  
HETATM   21  C   UNL     1      -9.107   8.589  67.660  1.00  0.00    -0.135 A  
ENDBRANCH   6   7
ENDBRANCH   5   6
ENDBRANCH   4   5
ENDBRANCH   2   4
TORSDOF 4
ENDMDL
MODEL      163
REMARK 921   NORMALIZED FREE ENERGY PREDICTED BY IDOCK:   -3.08 KCAL/MOL
REMARK 922        TOTAL FREE ENERGY PREDICTED BY IDOCK:   -4.44 KCAL/MOL
REMARK 923 INTER-LIGAND FREE ENERGY PREDICTED BY IDOCK:   -4.41 KCAL/MOL
REMARK 924 INTRA-LIGAND FREE ENERGY PREDICTED BY IDOCK:   -0.04 KCAL/MOL
REMARK 927      BINDING AFFINITY PREDICTED BY RF-SCORE:    0.00 PKD
ROOT
HETATM    1  C   UNL     1     -10.440  18.240  66.031  1.00  0.00    -0.361 C  
HETATM    2  N   UNL     1      -9.861  18.550  67.328  1.00  0.00    -0.302 NA 
HETATM    3  H   UNL     1     -10.494  19.125  67.884  1.00  0.00     0.000 HD 
ENDROOT
BRANCH   2   4
HETATM    4  C   UNL     1      -9.455  17.348  68.063  1.00  0.00    -0.281 C  
BRANCH   4   5
HETATM    5  C   UNL     1      -8.045  16.973  67.605  1.00  0.00    -0.190 C  
BRANCH   5   6
HETATM    6  C   UNL     1      -7.986  15.689  66.766  1.00  0.00    -0.211 C  
BRANCH   6   7
HETATM    7  N   UNL     1      -8.307  14.496  67.591  1.00  0.00    -0.166 NA 
HETATM    8  C   UNL     1      -7.289  14.101  68.483  1.00  0.00    -0.120 A  
HETATM    9  C   UNL     1      -7.080  14.848  69.653  1.00  0.00    -0.179 A  
HETATM   10  C   UNL     1      -6.160  14.439  70.620  1.00  0.00    -0.183 A  
HETATM   11  C   UNL     1      -5.425  13.276  70.426  1.00  0.00    -0.145 A  
HETATM   12  C   UNL     1      -5.599  12.535  69.259  1.00  0.00    -0.075 A  
HETATM   13  C   UNL     1      -6.530  12.939  68.286  1.00  0.00    -0.086 A  
HETATM   14  C   UNL     1      -6.727  12.111  67.047  1.00  0.00    -0.072 C  
HETATM   15  C   UNL     1      -8.089  11.438  67.045  1.00  0.00    -0.157 C  
HETATM   16  C   UNL     1      -9.326  12.306  66.932  1.00  0.00    -0.210 A  
HETATM   17  C   UNL     1     -10.506  11.605  66.585  1.00  0.00    -0.268 A  
HETATM   18  C   UNL     1     -11.737  12.244  66.484  1.00  0.00    -0.420 A  
HETATM   19  C   UNL     1     -11.817  13.603  66.738  1.00  0.00    -0.452 A  
HETATM   20  C   UNL     1     -10.662  14.314  67.070  1.00  0.00    -0.290 A  
HETATM   21  C   UNL     1      -9.393  13.695  67.168  1.00  0.00    -0.240 A  
ENDBRANCH   6   7
ENDBRANCH   5   6
ENDBRANCH   4   5
ENDBRANCH   2   4
TORSDOF 4
ENDMDL
MODEL      164
REMARK 921   NORMALIZED FREE ENERGY PREDICTED BY IDOCK:   -3.07 KCAL/MOL
REMARK 922        TOTAL FREE ENERGY PREDICTED BY IDOCK:   -4.44 KCAL/MOL
REMARK 923 INTER-LIGAND FREE ENERGY PREDICTED BY IDOCK:   -4.24 KCAL/MOL
REMARK 924 INTRA-LIGAND FREE ENERGY PREDICTED BY IDOCK:   -0.20 KCAL/MOL
REMARK 927      BINDING AFFINITY PREDICTED BY RF-SCORE:    0.00 PKD
ROOT
HETATM    1  C   UNL     1      -9.115   8.197  72.179  1.00  0.00    -0.186 C  
HETATM    2  N   UNL     1     -10.518   8.576  72.215  1.00  0.00    -0.332 NA 
HETATM    3  H   UNL     1     -10.627   9.553  72.486  1.00  0.00     0.000 HD 
ENDROOT
BRANCH   2   4
HETATM    4  C   UNL     1     -11.208   8.297  70.952  1.00  0.00    -0.265 C  
BRANCH   4   5
HETATM    5  C   UNL     1     -10.153   8.232  69.847  1.00  0.00    -0.195 C  
BRANCH   5   6
HETATM    6  C   UNL     1     -10.642   8.752  68.489  1.00  0.00    -0.129 C  
BRANCH   6   7
HETATM    7  N   UNL     1      -9.948  10.012  68.118  1.00  0.00    -0.149 NA 
HETATM    8  C   UNL     1     -10.735  11.177  68.230  1.00  0.00    -0.196 A  
HETATM    9  C   UNL     1     -10.998  11.702  69.505  1.00  0.00    -0.159 A  
HETATM   10  C   UNL     1     -11.678  12.910  69.666  1.00  0.00    -0.367 A  
HETATM   11  C   UNL     1     -12.118  13.609  68.549  1.00  0.00    -0.321 A  
HETATM   12  C   UNL     1     -11.891  13.091  67.276  1.00  0.00    -0.419 A  
HETATM   13  C   UNL     1     -11.198  11.879  67.109  1.00  0.00    -0.377 A  
HETATM   14  C   UNL     1     -10.934  11.350  65.727  1.00  0.00    -0.256 C  
HETATM   15  C   UNL     1      -9.456  11.419  65.383  1.00  0.00    -0.240 C  
HETATM   16  C   UNL     1      -8.493  10.534  66.148  1.00  0.00    -0.154 A  
HETATM   17  C   UNL     1      -7.220  10.392  65.545  1.00  0.00    -0.138 A  
HETATM   18  C   UNL     1      -6.204   9.652  66.140  1.00  0.00    -0.068 A  
HETATM   19  C   UNL     1      -6.438   9.039  67.360  1.00  0.00    -0.064 A  
HETATM   20  C   UNL     1      -7.691   9.156  67.963  1.00  0.00    -0.092 A  
HETATM   21  C   UNL     1      -8.748   9.893  67.378  1.00  0.00    -0.128 A  
ENDBRANCH   6   7
ENDBRANCH   5   6
ENDBRANCH   4   5
ENDBRANCH   2   4
TORSDOF 4
ENDMDL
MODEL      165
REMARK 921   NORMALIZED FREE ENERGY PREDICTED BY IDOCK:   -3.05 KCAL/MOL
REMARK 922        TOTAL FREE ENERGY PREDICTED BY IDOCK:   -4.41 KCAL/MOL
REMARK 923 INTER-LIGAND FREE ENERGY PREDICTED BY IDOCK:   -3.81 KCAL/MOL
REMARK 924 INTRA-LIGAND FREE ENERGY PREDICTED BY IDOCK:   -0.61 KCAL/MOL
REMARK 927      BINDING AFFINITY PREDICTED BY RF-SCORE:    0.00 PKD
ROOT
HETATM    1  C   UNL     1      -9.988   4.874  65.868  1.00  0.00    -0.203 C  
HETATM    2  N   UNL     1      -8.820   5.564  66.389  1.00  0.00    -0.122 NA 
HETATM    3  H   UNL     1      -8.280   5.992  65.637  1.00  0.00     0.000 HD 
ENDROOT
BRANCH   2   4
HETATM    4  C   UNL     1      -9.163   6.550  67.419  1.00  0.00    -0.121 C  
BRANCH   4   5
HETATM    5  C   UNL     1      -9.565   7.845  66.712  1.00  0.00    -0.278 C  
BRANCH   5   6
HETATM    6  C   UNL     1     -10.657   8.638  67.442  1.00  0.00    -0.228 C  
BRANCH   6   7
HETATM    7  N   UNL     1     -10.094   9.849  68.093  1.00  0.00    -0.159 NA 
HETATM    8  C   UNL     1     -10.272  11.047  67.372  1.00  0.00    -0.195 A  
HETATM    9  C   UNL     1     -11.539  11.651  67.356  1.00  0.00    -0.330 A  
HETATM   10  C   UNL     1     -11.744  12.891  66.750  1.00  0.00    -0.445 A  
HETATM   11  C   UNL     1     -10.681  13.544  66.137  1.00  0.00    -0.289 A  
HETATM   12  C   UNL     1      -9.422  12.949  66.118  1.00  0.00    -0.161 A  
HETATM   13  C   UNL     1      -9.210  11.704  66.736  1.00  0.00    -0.190 A  
HETATM   14  C   UNL     1      -7.838  11.090  66.734  1.00  0.00    -0.149 C  
HETATM   15  C   UNL     1      -7.234  11.082  68.128  1.00  0.00    -0.083 C  
HETATM   16  C   UNL     1      -7.869  10.205  69.187  1.00  0.00    -0.120 A  
HETATM   17  C   UNL     1      -7.061   9.981  70.327  1.00  0.00    -0.156 A  
HETATM   18  C   UNL     1      -7.511   9.236  71.412  1.00  0.00     0.078 A  
HETATM   19  C   UNL     1      -8.788   8.700  71.383  1.00  0.00    -0.276 A  
HETATM   20  C   UNL     1      -9.595   8.899  70.261  1.00  0.00    -0.212 A  
HETATM   21  C   UNL     1      -9.162   9.642  69.138  1.00  0.00    -0.168 A  
ENDBRANCH   6   7
ENDBRANCH   5   6
ENDBRANCH   4   5
ENDBRANCH   2   4
TORSDOF 4
ENDMDL
MODEL      166
REMARK 921   NORMALIZED FREE ENERGY PREDICTED BY IDOCK:   -3.04 KCAL/MOL
REMARK 922        TOTAL FREE ENERGY PREDICTED BY IDOCK:   -4.40 KCAL/MOL
REMARK 923 INTER-LIGAND FREE ENERGY PREDICTED BY IDOCK:   -3.76 KCAL/MOL
REMARK 924 INTRA-LIGAND FREE ENERGY PREDICTED BY IDOCK:   -0.64 KCAL/MOL
REMARK 927      BINDING AFFINITY PREDICTED BY RF-SCORE:    0.00 PKD
ROOT
HETATM    1  C   UNL     1      -5.925   6.025  67.004  1.00  0.00    -0.018 C  
HETATM    2  N   UNL     1      -6.671   7.271  66.950  1.00  0.00    -0.062 NA 
HETATM    3  H   UNL     1      -7.676   7.097  66.950  1.00  0.00     0.000 HD 
ENDROOT
BRANCH   2   4
HETATM    4  C   UNL     1      -6.296   8.198  68.022  1.00  0.00    -0.055 C  
BRANCH   4   5
HETATM    5  C   UNL     1      -7.310   8.038  69.156  1.00  0.00    -0.086 C  
BRANCH   5   6
HETATM    6  C   UNL     1      -8.725   8.509  68.794  1.00  0.00    -0.139 C  
BRANCH   6   7
HETATM    7  N   UNL     1      -9.749   7.554  69.291  1.00  0.00    -0.162 NA 
HETATM    8  C   UNL     1     -10.523   8.023  70.372  1.00  0.00    -0.218 A  
HETATM    9  C   UNL     1     -11.531   8.970  70.128  1.00  0.00    -0.078 A  
HETATM   10  C   UNL     1     -12.395   9.387  71.141  1.00  0.00    -0.386 A  
HETATM   11  C   UNL     1     -12.257   8.868  72.423  1.00  0.00    -0.365 A  
HETATM   12  C   UNL     1     -11.246   7.948  72.692  1.00  0.00    -0.459 A  
HETATM   13  C   UNL     1     -10.379   7.520  71.672  1.00  0.00    -0.217 A  
HETATM   14  C   UNL     1      -9.313   6.503  71.972  1.00  0.00    -0.147 C  
HETATM   15  C   UNL     1      -9.612   5.175  71.297  1.00  0.00    -0.218 C  
HETATM   16  C   UNL     1      -9.567   5.106  69.784  1.00  0.00    -0.242 A  
HETATM   17  C   UNL     1      -9.504   3.793  69.258  1.00  0.00    -0.252 A  
HETATM   18  C   UNL     1      -9.502   3.550  67.888  1.00  0.00    -0.220 A  
HETATM   19  C   UNL     1      -9.571   4.619  67.011  1.00  0.00    -0.198 A  
HETATM   20  C   UNL     1      -9.621   5.921  67.511  1.00  0.00    -0.114 A  
HETATM   21  C   UNL     1      -9.612   6.202  68.898  1.00  0.00    -0.129 A  
ENDBRANCH   6   7
ENDBRANCH   5   6
ENDBRANCH   4   5
ENDBRANCH   2   4
TORSDOF 4
ENDMDL
MODEL      167
REMARK 921   NORMALIZED FREE ENERGY PREDICTED BY IDOCK:   -3.03 KCAL/MOL
REMARK 922        TOTAL FREE ENERGY PREDICTED BY IDOCK:   -4.38 KCAL/MOL
REMARK 923 INTER-LIGAND FREE ENERGY PREDICTED BY IDOCK:   -4.11 KCAL/MOL
REMARK 924 INTRA-LIGAND FREE ENERGY PREDICTED BY IDOCK:   -0.27 KCAL/MOL
REMARK 927      BINDING AFFINITY PREDICTED BY RF-SCORE:    0.00 PKD
ROOT
HETATM    1  C   UNL     1     -12.283  13.054  63.415  1.00  0.00    -0.472 C  
HETATM    2  N   UNL     1     -11.978  12.404  64.679  1.00  0.00    -0.386 NA 
HETATM    3  H   UNL     1     -12.431  11.492  64.741  1.00  0.00     0.000 HD 
ENDROOT
BRANCH   2   4
HETATM    4  C   UNL     1     -10.536  12.295  64.922  1.00  0.00    -0.289 C  
BRANCH   4   5
HETATM    5  C   UNL     1     -10.323  12.173  66.432  1.00  0.00    -0.246 C  
BRANCH   5   6
HETATM    6  C   UNL     1     -10.766  10.825  67.015  1.00  0.00    -0.265 C  
BRANCH   6   7
HETATM    7  N   UNL     1      -9.595   9.957  67.304  1.00  0.00    -0.156 NA 
HETATM    8  C   UNL     1      -8.383  10.647  67.508  1.00  0.00    -0.115 A  
HETATM    9  C   UNL     1      -8.178  11.320  68.723  1.00  0.00    -0.122 A  
HETATM   10  C   UNL     1      -6.956  11.926  69.020  1.00  0.00    -0.098 A  
HETATM   11  C   UNL     1      -5.919  11.877  68.096  1.00  0.00    -0.051 A  
HETATM   12  C   UNL     1      -6.111  11.237  66.874  1.00  0.00    -0.120 A  
HETATM   13  C   UNL     1      -7.338  10.618  66.575  1.00  0.00    -0.134 A  
HETATM   14  C   UNL     1      -7.518   9.906  65.264  1.00  0.00    -0.131 C  
HETATM   15  C   UNL     1      -7.622   8.403  65.462  1.00  0.00    -0.090 C  
HETATM   16  C   UNL     1      -8.833   7.851  66.185  1.00  0.00    -0.197 A  
HETATM   17  C   UNL     1      -9.032   6.459  66.020  1.00  0.00    -0.143 A  
HETATM   18  C   UNL     1     -10.071   5.785  66.653  1.00  0.00    -0.235 A  
HETATM   19  C   UNL     1     -10.935   6.490  67.474  1.00  0.00    -0.444 A  
HETATM   20  C   UNL     1     -10.763   7.866  67.639  1.00  0.00    -0.215 A  
HETATM   21  C   UNL     1      -9.723   8.582  66.999  1.00  0.00    -0.204 A  
ENDBRANCH   6   7
ENDBRANCH   5   6
ENDBRANCH   4   5
ENDBRANCH   2   4
TORSDOF 4
ENDMDL
MODEL      168
REMARK 921   NORMALIZED FREE ENERGY PREDICTED BY IDOCK:   -3.02 KCAL/MOL
REMARK 922        TOTAL FREE ENERGY PREDICTED BY IDOCK:   -4.37 KCAL/MOL
REMARK 923 INTER-LIGAND FREE ENERGY PREDICTED BY IDOCK:   -3.78 KCAL/MOL
REMARK 924 INTRA-LIGAND FREE ENERGY PREDICTED BY IDOCK:   -0.59 KCAL/MOL
REMARK 927      BINDING AFFINITY PREDICTED BY RF-SCORE:    0.00 PKD
ROOT
HETATM    1  C   UNL     1      -8.512   4.975  69.020  1.00  0.00    -0.082 C  
HETATM    2  N   UNL     1      -8.798   6.400  68.971  1.00  0.00    -0.129 NA 
HETATM    3  H   UNL     1      -7.986   6.947  69.258  1.00  0.00     0.000 HD 
ENDROOT
BRANCH   2   4
HETATM    4  C   UNL     1      -9.286   6.830  67.656  1.00  0.00    -0.120 C  
BRANCH   4   5
HETATM    5  C   UNL     1      -9.584   8.328  67.735  1.00  0.00    -0.178 C  
BRANCH   5   6
HETATM    6  C   UNL     1     -10.303   8.885  66.500  1.00  0.00    -0.197 C  
BRANCH   6   7
HETATM    7  N   UNL     1      -9.694  10.167  66.060  1.00  0.00    -0.211 NA 
HETATM    8  C   UNL     1      -8.632  10.034  65.142  1.00  0.00    -0.158 A  
HETATM    9  C   UNL     1      -8.921   9.717  63.805  1.00  0.00    -0.272 A  
HETATM   10  C   UNL     1      -7.918   9.681  62.835  1.00  0.00    -0.128 A  
HETATM   11  C   UNL     1      -6.603   9.950  63.192  1.00  0.00    -0.126 A  
HETATM   12  C   UNL     1      -6.290  10.240  64.518  1.00  0.00    -0.103 A  
HETATM   13  C   UNL     1      -7.299  10.286  65.497  1.00  0.00    -0.149 A  
HETATM   14  C   UNL     1      -6.950  10.630  66.918  1.00  0.00    -0.100 C  
HETATM   15  C   UNL     1      -7.500  11.992  67.306  1.00  0.00    -0.158 C  
HETATM   16  C   UNL     1      -9.002  12.167  67.397  1.00  0.00    -0.180 A  
HETATM   17  C   UNL     1      -9.417  13.327  68.093  1.00  0.00    -0.222 A  
HETATM   18  C   UNL     1     -10.761  13.662  68.228  1.00  0.00    -0.266 A  
HETATM   19  C   UNL     1     -11.723  12.843  67.661  1.00  0.00    -0.422 A  
HETATM   20  C   UNL     1     -11.333  11.687  66.982  1.00  0.00    -0.373 A  
HETATM   21  C   UNL     1      -9.976  11.313  66.838  1.00  0.00    -0.207 A  
ENDBRANCH   6   7
ENDBRANCH   5   6
ENDBRANCH   4   5
ENDBRANCH   2   4
TORSDOF 4
ENDMDL
MODEL      169
REMARK 921   NORMALIZED FREE ENERGY PREDICTED BY IDOCK:   -3.01 KCAL/MOL
REMARK 922        TOTAL FREE ENERGY PREDICTED BY IDOCK:   -4.35 KCAL/MOL
REMARK 923 INTER-LIGAND FREE ENERGY PREDICTED BY IDOCK:   -4.56 KCAL/MOL
REMARK 924 INTRA-LIGAND FREE ENERGY PREDICTED BY IDOCK:    0.21 KCAL/MOL
REMARK 927      BINDING AFFINITY PREDICTED BY RF-SCORE:    0.00 PKD
ROOT
HETATM    1  C   UNL     1      -8.588   5.681  66.151  1.00  0.00    -0.132 C  
HETATM    2  N   UNL     1      -7.650   6.774  66.344  1.00  0.00    -0.088 NA 
HETATM    3  H   UNL     1      -7.303   7.122  65.450  1.00  0.00     0.000 HD 
ENDROOT
BRANCH   2   4
HETATM    4  C   UNL     1      -8.214   7.862  67.150  1.00  0.00    -0.118 C  
BRANCH   4   5
HETATM    5  C   UNL     1      -9.453   8.389  66.424  1.00  0.00    -0.293 C  
BRANCH   5   6
HETATM    6  C   UNL     1     -10.674   8.577  67.334  1.00  0.00    -0.145 C  
BRANCH   6   7
HETATM    7  N   UNL     1     -10.360   9.483  68.469  1.00  0.00    -0.200 NA 
HETATM    8  C   UNL     1     -10.545   8.918  69.747  1.00  0.00    -0.224 A  
HETATM    9  C   UNL     1      -9.602   7.997  70.228  1.00  0.00    -0.171 A  
HETATM   10  C   UNL     1      -9.679   7.491  71.527  1.00  0.00    -0.184 A  
HETATM   11  C   UNL     1     -10.713   7.893  72.364  1.00  0.00    -0.367 A  
HETATM   12  C   UNL     1     -11.675   8.785  71.896  1.00  0.00    -0.429 A  
HETATM   13  C   UNL     1     -11.595   9.304  70.592  1.00  0.00    -0.305 A  
HETATM   14  C   UNL     1     -12.624  10.290  70.113  1.00  0.00    -0.137 C  
HETATM   15  C   UNL     1     -12.021  11.673  69.934  1.00  0.00    -0.414 C  
HETATM   16  C   UNL     1     -10.991  11.878  68.842  1.00  0.00    -0.285 A  
HETATM   17  C   UNL     1     -10.747  13.232  68.511  1.00  0.00    -0.280 A  
HETATM   18  C   UNL     1      -9.798  13.597  67.562  1.00  0.00    -0.227 A  
HETATM   19  C   UNL     1      -9.063  12.610  66.925  1.00  0.00    -0.218 A  
HETATM   20  C   UNL     1      -9.299  11.269  67.229  1.00  0.00    -0.173 A  
HETATM   21  C   UNL     1     -10.265  10.865  68.181  1.00  0.00    -0.176 A  
ENDBRANCH   6   7
ENDBRANCH   5   6
ENDBRANCH   4   5
ENDBRANCH   2   4
TORSDOF 4
ENDMDL
MODEL      170
REMARK 921   NORMALIZED FREE ENERGY PREDICTED BY IDOCK:   -2.99 KCAL/MOL
REMARK 922        TOTAL FREE ENERGY PREDICTED BY IDOCK:   -4.34 KCAL/MOL
REMARK 923 INTER-LIGAND FREE ENERGY PREDICTED BY IDOCK:   -3.83 KCAL/MOL
REMARK 924 INTRA-LIGAND FREE ENERGY PREDICTED BY IDOCK:   -0.51 KCAL/MOL
REMARK 927      BINDING AFFINITY PREDICTED BY RF-SCORE:    0.00 PKD
ROOT
HETATM    1  C   UNL     1     -10.702   5.992  69.608  1.00  0.00    -0.335 C  
HETATM    2  N   UNL     1     -10.677   6.295  68.187  1.00  0.00    -0.264 NA 
HETATM    3  H   UNL     1     -11.560   6.044  67.742  1.00  0.00     0.000 HD 
ENDROOT
BRANCH   2   4
HETATM    4  C   UNL     1     -10.330   7.694  67.916  1.00  0.00    -0.212 C  
BRANCH   4   5
HETATM    5  C   UNL     1      -9.023   7.707  67.123  1.00  0.00    -0.137 C  
BRANCH   5   6
HETATM    6  C   UNL     1      -8.053   8.820  67.542  1.00  0.00    -0.106 C  
BRANCH   6   7
HETATM    7  N   UNL     1      -8.174  10.000  66.646  1.00  0.00    -0.121 NA 
HETATM    8  C   UNL     1      -8.491  11.209  67.299  1.00  0.00    -0.137 A  
HETATM    9  C   UNL     1      -7.492  11.871  68.030  1.00  0.00    -0.107 A  
HETATM   10  C   UNL     1      -7.722  13.123  68.603  1.00  0.00    -0.073 A  
HETATM   11  C   UNL     1      -8.964  13.728  68.463  1.00  0.00    -0.120 A  
HETATM   12  C   UNL     1      -9.978  13.075  67.765  1.00  0.00    -0.227 A  
HETATM   13  C   UNL     1      -9.747  11.818  67.178  1.00  0.00    -0.194 A  
HETATM   14  C   UNL     1     -10.842  11.141  66.402  1.00  0.00    -0.284 C  
HETATM   15  C   UNL     1     -10.520  11.098  64.918  1.00  0.00    -0.372 C  
HETATM   16  C   UNL     1      -9.358  10.246  64.454  1.00  0.00    -0.329 A  
HETATM   17  C   UNL     1      -9.343   9.979  63.063  1.00  0.00    -0.297 A  
HETATM   18  C   UNL     1      -8.320   9.250  62.466  1.00  0.00    -0.185 A  
HETATM   19  C   UNL     1      -7.281   8.775  63.249  1.00  0.00    -0.094 A  
HETATM   20  C   UNL     1      -7.285   9.017  64.623  1.00  0.00    -0.097 A  
HETATM   21  C   UNL     1      -8.316   9.744  65.263  1.00  0.00    -0.142 A  
ENDBRANCH   6   7
ENDBRANCH   5   6
ENDBRANCH   4   5
ENDBRANCH   2   4
TORSDOF 4
ENDMDL
MODEL      171
REMARK 921   NORMALIZED FREE ENERGY PREDICTED BY IDOCK:   -2.99 KCAL/MOL
REMARK 922        TOTAL FREE ENERGY PREDICTED BY IDOCK:   -4.34 KCAL/MOL
REMARK 923 INTER-LIGAND FREE ENERGY PREDICTED BY IDOCK:   -4.00 KCAL/MOL
REMARK 924 INTRA-LIGAND FREE ENERGY PREDICTED BY IDOCK:   -0.34 KCAL/MOL
REMARK 927      BINDING AFFINITY PREDICTED BY RF-SCORE:    0.00 PKD
ROOT
HETATM    1  C   UNL     1      -8.026   7.272  73.541  1.00  0.00    -0.110 C  
HETATM    2  N   UNL     1      -7.633   8.545  72.960  1.00  0.00    -0.345 NA 
HETATM    3  H   UNL     1      -7.187   9.143  73.655  1.00  0.00     0.000 HD 
ENDROOT
BRANCH   2   4
HETATM    4  C   UNL     1      -6.781   8.384  71.777  1.00  0.00    -0.076 C  
BRANCH   4   5
HETATM    5  C   UNL     1      -7.554   8.913  70.568  1.00  0.00    -0.093 C  
BRANCH   5   6
HETATM    6  C   UNL     1      -9.010   8.434  70.503  1.00  0.00    -0.150 C  
BRANCH   6   7
HETATM    7  N   UNL     1      -9.758   9.141  69.432  1.00  0.00    -0.166 NA 
HETATM    8  C   UNL     1      -9.325   8.858  68.120  1.00  0.00    -0.142 A  
HETATM    9  C   UNL     1      -9.668   7.626  67.541  1.00  0.00    -0.197 A  
HETATM   10  C   UNL     1      -9.358   7.339  66.210  1.00  0.00    -0.160 A  
HETATM   11  C   UNL     1      -8.687   8.280  65.439  1.00  0.00    -0.147 A  
HETATM   12  C   UNL     1      -8.314   9.498  66.004  1.00  0.00    -0.123 A  
HETATM   13  C   UNL     1      -8.632   9.794  67.341  1.00  0.00    -0.128 A  
HETATM   14  C   UNL     1      -8.250  11.125  67.926  1.00  0.00    -0.121 C  
HETATM   15  C   UNL     1      -9.475  11.984  68.191  1.00  0.00    -0.200 C  
HETATM   16  C   UNL     1     -10.450  11.542  69.262  1.00  0.00    -0.066 A  
HETATM   17  C   UNL     1     -11.350  12.548  69.688  1.00  0.00    -0.182 A  
HETATM   18  C   UNL     1     -12.340  12.296  70.632  1.00  0.00    -0.375 A  
HETATM   19  C   UNL     1     -12.457  11.024  71.168  1.00  0.00    -0.502 A  
HETATM   20  C   UNL     1     -11.570  10.023  70.770  1.00  0.00    -0.444 A  
HETATM   21  C   UNL     1     -10.545  10.250  69.821  1.00  0.00    -0.271 A  
ENDBRANCH   6   7
ENDBRANCH   5   6
ENDBRANCH   4   5
ENDBRANCH   2   4
TORSDOF 4
ENDMDL
MODEL      172
REMARK 921   NORMALIZED FREE ENERGY PREDICTED BY IDOCK:   -2.96 KCAL/MOL
REMARK 922        TOTAL FREE ENERGY PREDICTED BY IDOCK:   -4.30 KCAL/MOL
REMARK 923 INTER-LIGAND FREE ENERGY PREDICTED BY IDOCK:   -3.69 KCAL/MOL
REMARK 924 INTRA-LIGAND FREE ENERGY PREDICTED BY IDOCK:   -0.61 KCAL/MOL
REMARK 927      BINDING AFFINITY PREDICTED BY RF-SCORE:    0.00 PKD
ROOT
HETATM    1  C   UNL     1     -12.165  13.500  63.809  1.00  0.00    -0.388 C  
HETATM    2  N   UNL     1     -12.010  12.456  64.808  1.00  0.00    -0.395 NA 
HETATM    3  H   UNL     1     -12.139  11.532  64.396  1.00  0.00     0.000 HD 
ENDROOT
BRANCH   2   4
HETATM    4  C   UNL     1     -10.729  12.544  65.517  1.00  0.00    -0.271 C  
BRANCH   4   5
HETATM    5  C   UNL     1     -10.876  11.795  66.843  1.00  0.00    -0.312 C  
BRANCH   5   6
HETATM    6  C   UNL     1     -10.909  10.268  66.694  1.00  0.00    -0.045 C  
BRANCH   6   7
HETATM    7  N   UNL     1      -9.628   9.661  67.139  1.00  0.00    -0.161 NA 
HETATM    8  C   UNL     1      -9.599   9.265  68.492  1.00  0.00    -0.147 A  
HETATM    9  C   UNL     1     -10.281   8.100  68.877  1.00  0.00    -0.221 A  
HETATM   10  C   UNL     1     -10.194   7.605  70.179  1.00  0.00    -0.204 A  
HETATM   11  C   UNL     1      -9.429   8.279  71.124  1.00  0.00    -0.206 A  
HETATM   12  C   UNL     1      -8.767   9.452  70.769  1.00  0.00    -0.216 A  
HETATM   13  C   UNL     1      -8.845   9.949  69.456  1.00  0.00    -0.208 A  
HETATM   14  C   UNL     1      -8.099  11.199  69.082  1.00  0.00    -0.030 C  
HETATM   15  C   UNL     1      -6.948  10.893  68.138  1.00  0.00    -0.069 C  
HETATM   16  C   UNL     1      -7.269  10.398  66.742  1.00  0.00    -0.109 A  
HETATM   17  C   UNL     1      -6.190  10.476  65.829  1.00  0.00    -0.132 A  
HETATM   18  C   UNL     1      -6.302  10.021  64.519  1.00  0.00    -0.130 A  
HETATM   19  C   UNL     1      -7.499   9.469  64.094  1.00  0.00    -0.122 A  
HETATM   20  C   UNL     1      -8.578   9.396  64.976  1.00  0.00    -0.193 A  
HETATM   21  C   UNL     1      -8.500   9.861  66.311  1.00  0.00    -0.128 A  
ENDBRANCH   6   7
ENDBRANCH   5   6
ENDBRANCH   4   5
ENDBRANCH   2   4
TORSDOF 4
ENDMDL
MODEL      173
REMARK 921   NORMALIZED FREE ENERGY PREDICTED BY IDOCK:   -2.96 KCAL/MOL
REMARK 922        TOTAL FREE ENERGY PREDICTED BY IDOCK:   -4.29 KCAL/MOL
REMARK 923 INTER-LIGAND FREE ENERGY PREDICTED BY IDOCK:   -3.45 KCAL/MOL
REMARK 924 INTRA-LIGAND FREE ENERGY PREDICTED BY IDOCK:   -0.84 KCAL/MOL
REMARK 927      BINDING AFFINITY PREDICTED BY RF-SCORE:    0.00 PKD
ROOT
HETATM    1  C   UNL     1      -8.392   6.663  74.056  1.00  0.00    -0.128 C  
HETATM    2  N   UNL     1      -7.514   5.640  73.512  1.00  0.00    -0.091 NA 
HETATM    3  H   UNL     1      -8.032   4.987  72.924  1.00  0.00     0.000 HD 
ENDROOT
BRANCH   2   4
HETATM    4  C   UNL     1      -6.369   6.206  72.792  1.00  0.00    -0.062 C  
BRANCH   4   5
HETATM    5  C   UNL     1      -6.670   6.124  71.295  1.00  0.00    -0.055 C  
BRANCH   5   6
HETATM    6  C   UNL     1      -7.147   7.447  70.684  1.00  0.00    -0.060 C  
BRANCH   6   7
HETATM    7  N   UNL     1      -8.398   7.256  69.905  1.00  0.00    -0.133 NA 
HETATM    8  C   UNL     1      -9.586   7.376  70.654  1.00  0.00    -0.171 A  
HETATM    9  C   UNL     1     -10.025   8.653  71.038  1.00  0.00    -0.272 A  
HETATM   10  C   UNL     1     -11.248   8.836  71.685  1.00  0.00    -0.394 A  
HETATM   11  C   UNL     1     -12.049   7.738  71.971  1.00  0.00    -0.351 A  
HETATM   12  C   UNL     1     -11.619   6.459  71.623  1.00  0.00    -0.363 A  
HETATM   13  C   UNL     1     -10.392   6.271  70.963  1.00  0.00    -0.258 A  
HETATM   14  C   UNL     1      -9.957   4.888  70.567  1.00  0.00    -0.311 C  
HETATM   15  C   UNL     1      -9.983   4.712  69.058  1.00  0.00    -0.186 C  
HETATM   16  C   UNL     1      -8.998   5.503  68.221  1.00  0.00    -0.109 A  
HETATM   17  C   UNL     1      -8.843   5.032  66.895  1.00  0.00    -0.106 A  
HETATM   18  C   UNL     1      -8.013   5.672  65.981  1.00  0.00    -0.106 A  
HETATM   19  C   UNL     1      -7.321   6.806  66.372  1.00  0.00    -0.073 A  
HETATM   20  C   UNL     1      -7.452   7.278  67.679  1.00  0.00    -0.101 A  
HETATM   21  C   UNL     1      -8.278   6.643  68.636  1.00  0.00    -0.119 A  
ENDBRANCH   6   7
ENDBRANCH   5   6
ENDBRANCH   4   5
ENDBRANCH   2   4
TORSDOF 4
ENDMDL
MODEL      174
REMARK 921   NORMALIZED FREE ENERGY PREDICTED BY IDOCK:   -2.95 KCAL/MOL
REMARK 922        TOTAL FREE ENERGY PREDICTED BY IDOCK:   -4.29 KCAL/MOL
REMARK 923 INTER-LIGAND FREE ENERGY PREDICTED BY IDOCK:   -3.59 KCAL/MOL
REMARK 924 INTRA-LIGAND FREE ENERGY PREDICTED BY IDOCK:   -0.70 KCAL/MOL
REMARK 927      BINDING AFFINITY PREDICTED BY RF-SCORE:    0.00 PKD
ROOT
HETATM    1  C   UNL     1      -6.603   8.179  72.779  1.00  0.00    -0.085 C  
HETATM    2  N   UNL     1      -7.184   8.681  74.013  1.00  0.00    -0.376 NA 
HETATM    3  H   UNL     1      -7.390   9.678  73.943  1.00  0.00     0.000 HD 
ENDROOT
BRANCH   2   4
HETATM    4  C   UNL     1      -8.372   7.925  74.424  1.00  0.00    -0.218 C  
BRANCH   4   5
HETATM    5  C   UNL     1      -9.405   8.031  73.302  1.00  0.00    -0.344 C  
BRANCH   5   6
HETATM    6  C   UNL     1     -10.521   6.980  73.382  1.00  0.00    -0.347 C  
BRANCH   6   7
HETATM    7  N   UNL     1     -10.221   5.815  72.510  1.00  0.00    -0.184 NA 
HETATM    8  C   UNL     1     -10.030   4.597  73.193  1.00  0.00    -0.150 A  
HETATM    9  C   UNL     1     -11.148   3.920  73.706  1.00  0.00    -0.291 A  
HETATM   10  C   UNL     1     -11.027   2.660  74.295  1.00  0.00    -0.100 A  
HETATM   11  C   UNL     1      -9.777   2.060  74.390  1.00  0.00    -0.117 A  
HETATM   12  C   UNL     1      -8.651   2.727  73.912  1.00  0.00    -0.072 A  
HETATM   13  C   UNL     1      -8.771   3.993  73.311  1.00  0.00    -0.095 A  
HETATM   14  C   UNL     1      -7.550   4.685  72.772  1.00  0.00    -0.087 C  
HETATM   15  C   UNL     1      -7.577   4.750  71.254  1.00  0.00    -0.081 C  
HETATM   16  C   UNL     1      -8.633   5.606  70.585  1.00  0.00    -0.130 A  
HETATM   17  C   UNL     1      -8.379   5.895  69.223  1.00  0.00    -0.113 A  
HETATM   18  C   UNL     1      -9.270   6.631  68.449  1.00  0.00    -0.122 A  
HETATM   19  C   UNL     1     -10.445   7.090  69.022  1.00  0.00    -0.219 A  
HETATM   20  C   UNL     1     -10.706   6.827  70.368  1.00  0.00    -0.281 A  
HETATM   21  C   UNL     1      -9.814   6.092  71.184  1.00  0.00    -0.179 A  
ENDBRANCH   6   7
ENDBRANCH   5   6
ENDBRANCH   4   5
ENDBRANCH   2   4
TORSDOF 4
ENDMDL
MODEL      175
REMARK 921   NORMALIZED FREE ENERGY PREDICTED BY IDOCK:   -2.94 KCAL/MOL
REMARK 922        TOTAL FREE ENERGY PREDICTED BY IDOCK:   -4.27 KCAL/MOL
REMARK 923 INTER-LIGAND FREE ENERGY PREDICTED BY IDOCK:   -3.61 KCAL/MOL
REMARK 924 INTRA-LIGAND FREE ENERGY PREDICTED BY IDOCK:   -0.67 KCAL/MOL
REMARK 927      BINDING AFFINITY PREDICTED BY RF-SCORE:    0.00 PKD
ROOT
HETATM    1  C   UNL     1      -7.712   9.057  70.799  1.00  0.00    -0.128 C  
HETATM    2  N   UNL     1      -6.841   8.073  70.179  1.00  0.00    -0.040 NA 
HETATM    3  H   UNL     1      -7.074   7.129  70.489  1.00  0.00     0.000 HD 
ENDROOT
BRANCH   2   4
HETATM    4  C   UNL     1      -6.845   8.163  68.715  1.00  0.00    -0.066 C  
BRANCH   4   5
HETATM    5  C   UNL     1      -7.563   6.927  68.171  1.00  0.00    -0.108 C  
BRANCH   5   6
HETATM    6  C   UNL     1      -9.065   7.134  67.935  1.00  0.00    -0.128 C  
BRANCH   6   7
HETATM    7  N   UNL     1      -9.837   5.920  68.307  1.00  0.00    -0.130 NA 
HETATM    8  C   UNL     1     -10.422   5.960  69.589  1.00  0.00    -0.277 A  
HETATM    9  C   UNL     1     -11.569   6.746  69.790  1.00  0.00    -0.284 A  
HETATM   10  C   UNL     1     -12.250   6.735  71.009  1.00  0.00    -0.405 A  
HETATM   11  C   UNL     1     -11.786   5.945  72.052  1.00  0.00    -0.255 A  
HETATM   12  C   UNL     1     -10.635   5.179  71.882  1.00  0.00    -0.256 A  
HETATM   13  C   UNL     1      -9.951   5.180  70.653  1.00  0.00    -0.296 A  
HETATM   14  C   UNL     1      -8.728   4.324  70.475  1.00  0.00    -0.118 C  
HETATM   15  C   UNL     1      -8.992   3.176  69.515  1.00  0.00    -0.174 C  
HETATM   16  C   UNL     1      -9.253   3.498  68.058  1.00  0.00    -0.228 A  
HETATM   17  C   UNL     1      -9.138   2.392  67.182  1.00  0.00    -0.164 A  
HETATM   18  C   UNL     1      -9.389   2.504  65.819  1.00  0.00     0.011 A  
HETATM   19  C   UNL     1      -9.771   3.730  65.300  1.00  0.00    -0.167 A  
HETATM   20  C   UNL     1      -9.878   4.836  66.145  1.00  0.00    -0.234 A  
HETATM   21  C   UNL     1      -9.617   4.756  67.534  1.00  0.00    -0.158 A  
ENDBRANCH   6   7
ENDBRANCH   5   6
ENDBRANCH   4   5
ENDBRANCH   2   4
TORSDOF 4
ENDMDL
MODEL      176
REMARK 921   NORMALIZED FREE ENERGY PREDICTED BY IDOCK:   -2.93 KCAL/MOL
REMARK 922        TOTAL FREE ENERGY PREDICTED BY IDOCK:   -4.26 KCAL/MOL
REMARK 923 INTER-LIGAND FREE ENERGY PREDICTED BY IDOCK:   -3.57 KCAL/MOL
REMARK 924 INTRA-LIGAND FREE ENERGY PREDICTED BY IDOCK:   -0.70 KCAL/MOL
REMARK 927      BINDING AFFINITY PREDICTED BY RF-SCORE:    0.00 PKD
ROOT
HETATM    1  C   UNL     1      -8.297   6.673  65.334  1.00  0.00    -0.129 C  
HETATM    2  N   UNL     1      -9.391   5.831  65.790  1.00  0.00    -0.329 NA 
HETATM    3  H   UNL     1      -9.729   5.229  65.039  1.00  0.00     0.000 HD 
ENDROOT
BRANCH   2   4
HETATM    4  C   UNL     1      -9.038   5.045  66.977  1.00  0.00    -0.117 C  
BRANCH   4   5
HETATM    5  C   UNL     1      -9.494   5.827  68.209  1.00  0.00    -0.130 C  
BRANCH   5   6
HETATM    6  C   UNL     1      -8.391   6.041  69.254  1.00  0.00    -0.115 C  
BRANCH   6   7
HETATM    7  N   UNL     1      -8.543   7.355  69.930  1.00  0.00    -0.139 NA 
HETATM    8  C   UNL     1      -9.117   7.297  71.216  1.00  0.00    -0.146 A  
HETATM    9  C   UNL     1      -8.338   6.839  72.291  1.00  0.00    -0.106 A  
HETATM   10  C   UNL     1      -8.822   6.864  73.600  1.00  0.00    -0.168 A  
HETATM   11  C   UNL     1     -10.102   7.338  73.854  1.00  0.00    -0.312 A  
HETATM   12  C   UNL     1     -10.901   7.772  72.798  1.00  0.00    -0.438 A  
HETATM   13  C   UNL     1     -10.415   7.757  71.479  1.00  0.00    -0.239 A  
HETATM   14  C   UNL     1     -11.278   8.257  70.355  1.00  0.00    -0.222 C  
HETATM   15  C   UNL     1     -10.740   9.557  69.782  1.00  0.00    -0.259 C  
HETATM   16  C   UNL     1      -9.414   9.531  69.050  1.00  0.00    -0.158 A  
HETATM   17  C   UNL     1      -9.159  10.675  68.256  1.00  0.00    -0.153 A  
HETATM   18  C   UNL     1      -7.968  10.832  67.555  1.00  0.00    -0.110 A  
HETATM   19  C   UNL     1      -6.999   9.846  67.637  1.00  0.00    -0.086 A  
HETATM   20  C   UNL     1      -7.238   8.705  68.405  1.00  0.00    -0.085 A  
HETATM   21  C   UNL     1      -8.443   8.510  69.120  1.00  0.00    -0.125 A  
ENDBRANCH   6   7
ENDBRANCH   5   6
ENDBRANCH   4   5
ENDBRANCH   2   4
TORSDOF 4
ENDMDL
MODEL      177
REMARK 921   NORMALIZED FREE ENERGY PREDICTED BY IDOCK:   -2.92 KCAL/MOL
REMARK 922        TOTAL FREE ENERGY PREDICTED BY IDOCK:   -4.24 KCAL/MOL
REMARK 923 INTER-LIGAND FREE ENERGY PREDICTED BY IDOCK:   -3.94 KCAL/MOL
REMARK 924 INTRA-LIGAND FREE ENERGY PREDICTED BY IDOCK:   -0.30 KCAL/MOL
REMARK 927      BINDING AFFINITY PREDICTED BY RF-SCORE:    0.00 PKD
ROOT
HETATM    1  C   UNL     1      -7.018   7.653  72.997  1.00  0.00    -0.072 C  
HETATM    2  N   UNL     1      -8.022   8.486  73.637  1.00  0.00    -0.406 NA 
HETATM    3  H   UNL     1      -7.896   9.467  73.391  1.00  0.00     0.000 HD 
ENDROOT
BRANCH   2   4
HETATM    4  C   UNL     1      -9.389   8.040  73.349  1.00  0.00    -0.254 C  
BRANCH   4   5
HETATM    5  C   UNL     1      -9.350   7.211  72.064  1.00  0.00    -0.151 C  
BRANCH   5   6
HETATM    6  C   UNL     1     -10.263   7.744  70.952  1.00  0.00    -0.199 C  
BRANCH   6   7
HETATM    7  N   UNL     1      -9.545   7.802  69.653  1.00  0.00    -0.163 NA 
HETATM    8  C   UNL     1      -9.014   9.066  69.325  1.00  0.00    -0.144 A  
HETATM    9  C   UNL     1      -7.855   9.510  69.980  1.00  0.00    -0.157 A  
HETATM   10  C   UNL     1      -7.228  10.703  69.617  1.00  0.00    -0.139 A  
HETATM   11  C   UNL     1      -7.760  11.480  68.596  1.00  0.00    -0.139 A  
HETATM   12  C   UNL     1      -8.926  11.071  67.952  1.00  0.00    -0.144 A  
HETATM   13  C   UNL     1      -9.555   9.866  68.308  1.00  0.00    -0.151 A  
HETATM   14  C   UNL     1     -10.795   9.423  67.582  1.00  0.00    -0.222 C  
HETATM   15  C   UNL     1     -10.524   8.199  66.723  1.00  0.00    -0.316 C  
HETATM   16  C   UNL     1     -10.190   6.892  67.411  1.00  0.00    -0.262 A  
HETATM   17  C   UNL     1     -10.301   5.748  66.585  1.00  0.00    -0.300 A  
HETATM   18  C   UNL     1      -9.987   4.474  67.047  1.00  0.00    -0.215 A  
HETATM   19  C   UNL     1      -9.546   4.317  68.351  1.00  0.00    -0.197 A  
HETATM   20  C   UNL     1      -9.443   5.431  69.185  1.00  0.00    -0.177 A  
HETATM   21  C   UNL     1      -9.766   6.738  68.748  1.00  0.00    -0.132 A  
ENDBRANCH   6   7
ENDBRANCH   5   6
ENDBRANCH   4   5
ENDBRANCH   2   4
TORSDOF 4
ENDMDL
MODEL      178
REMARK 921   NORMALIZED FREE ENERGY PREDICTED BY IDOCK:   -2.88 KCAL/MOL
REMARK 922        TOTAL FREE ENERGY PREDICTED BY IDOCK:   -4.20 KCAL/MOL
REMARK 923 INTER-LIGAND FREE ENERGY PREDICTED BY IDOCK:   -3.64 KCAL/MOL
REMARK 924 INTRA-LIGAND FREE ENERGY PREDICTED BY IDOCK:   -0.56 KCAL/MOL
REMARK 927      BINDING AFFINITY PREDICTED BY RF-SCORE:    0.00 PKD
ROOT
HETATM    1  C   UNL     1      -6.570   9.596  67.460  1.00  0.00    -0.070 C  
HETATM    2  N   UNL     1      -7.749   8.948  68.008  1.00  0.00    -0.100 NA 
HETATM    3  H   UNL     1      -8.595   9.473  67.784  1.00  0.00     0.000 HD 
ENDROOT
BRANCH   2   4
HETATM    4  C   UNL     1      -7.869   7.549  67.585  1.00  0.00    -0.113 C  
BRANCH   4   5
HETATM    5  C   UNL     1      -8.148   6.706  68.831  1.00  0.00    -0.116 C  
BRANCH   5   6
HETATM    6  C   UNL     1      -9.498   5.978  68.799  1.00  0.00    -0.125 C  
BRANCH   6   7
HETATM    7  N   UNL     1      -9.860   5.463  70.145  1.00  0.00    -0.190 NA 
HETATM    8  C   UNL     1     -10.537   6.385  70.970  1.00  0.00    -0.234 A  
HETATM    9  C   UNL     1     -11.890   6.660  70.716  1.00  0.00    -0.441 A  
HETATM   10  C   UNL     1     -12.635   7.480  71.566  1.00  0.00    -0.385 A  
HETATM   11  C   UNL     1     -12.031   8.048  72.681  1.00  0.00    -0.334 A  
HETATM   12  C   UNL     1     -10.682   7.809  72.935  1.00  0.00    -0.446 A  
HETATM   13  C   UNL     1      -9.931   6.977  72.086  1.00  0.00    -0.179 A  
HETATM   14  C   UNL     1      -8.485   6.705  72.391  1.00  0.00    -0.117 C  
HETATM   15  C   UNL     1      -8.273   5.261  72.817  1.00  0.00    -0.109 C  
HETATM   16  C   UNL     1      -8.496   4.166  71.796  1.00  0.00    -0.111 A  
HETATM   17  C   UNL     1      -7.948   2.910  72.152  1.00  0.00    -0.055 A  
HETATM   18  C   UNL     1      -8.102   1.786  71.347  1.00  0.00    -0.047 A  
HETATM   19  C   UNL     1      -8.816   1.892  70.166  1.00  0.00    -0.124 A  
HETATM   20  C   UNL     1      -9.353   3.125  69.791  1.00  0.00    -0.223 A  
HETATM   21  C   UNL     1      -9.204   4.289  70.582  1.00  0.00    -0.124 A  
ENDBRANCH   6   7
ENDBRANCH   5   6
ENDBRANCH   4   5
ENDBRANCH   2   4
TORSDOF 4
ENDMDL
MODEL      179
REMARK 921   NORMALIZED FREE ENERGY PREDICTED BY IDOCK:   -2.87 KCAL/MOL
REMARK 922        TOTAL FREE ENERGY PREDICTED BY IDOCK:   -4.19 KCAL/MOL
REMARK 923 INTER-LIGAND FREE ENERGY PREDICTED BY IDOCK:   -4.01 KCAL/MOL
REMARK 924 INTRA-LIGAND FREE ENERGY PREDICTED BY IDOCK:   -0.18 KCAL/MOL
REMARK 927      BINDING AFFINITY PREDICTED BY RF-SCORE:    0.00 PKD
ROOT
HETATM    1  C   UNL     1     -10.188  18.779  66.795  1.00  0.00    -0.393 C  
HETATM    2  N   UNL     1     -10.941  17.746  66.103  1.00  0.00     0.101 NA 
HETATM    3  H   UNL     1     -11.226  18.058  65.175  1.00  0.00     0.000 HD 
ENDROOT
BRANCH   2   4
HETATM    4  C   UNL     1     -10.214  16.474  66.031  1.00  0.00    -0.356 C  
BRANCH   4   5
HETATM    5  C   UNL     1     -10.719  15.582  67.167  1.00  0.00    -0.315 C  
BRANCH   5   6
HETATM    6  C   UNL     1     -10.478  14.085  66.935  1.00  0.00    -0.276 C  
BRANCH   6   7
HETATM    7  N   UNL     1      -9.763  13.474  68.086  1.00  0.00    -0.228 NA 
HETATM    8  C   UNL     1      -8.358  13.580  68.035  1.00  0.00    -0.168 A  
HETATM    9  C   UNL     1      -7.756  14.815  68.322  1.00  0.00    -0.120 A  
HETATM   10  C   UNL     1      -6.368  14.947  68.391  1.00  0.00    -0.105 A  
HETATM   11  C   UNL     1      -5.558  13.843  68.162  1.00  0.00    -0.118 A  
HETATM   12  C   UNL     1      -6.134  12.614  67.849  1.00  0.00    -0.108 A  
HETATM   13  C   UNL     1      -7.532  12.475  67.787  1.00  0.00    -0.130 A  
HETATM   14  C   UNL     1      -8.139  11.135  67.478  1.00  0.00    -0.119 C  
HETATM   15  C   UNL     1      -8.850  10.559  68.691  1.00  0.00    -0.147 C  
HETATM   16  C   UNL     1     -10.095  11.256  69.199  1.00  0.00    -0.093 A  
HETATM   17  C   UNL     1     -10.883  10.481  70.083  1.00  0.00    -0.291 A  
HETATM   18  C   UNL     1     -12.035  10.987  70.676  1.00  0.00    -0.464 A  
HETATM   19  C   UNL     1     -12.422  12.288  70.402  1.00  0.00    -0.221 A  
HETATM   20  C   UNL     1     -11.665  13.063  69.522  1.00  0.00    -0.381 A  
HETATM   21  C   UNL     1     -10.496  12.574  68.894  1.00  0.00    -0.080 A  
ENDBRANCH   6   7
ENDBRANCH   5   6
ENDBRANCH   4   5
ENDBRANCH   2   4
TORSDOF 4
ENDMDL
MODEL      180
REMARK 921   NORMALIZED FREE ENERGY PREDICTED BY IDOCK:   -2.85 KCAL/MOL
REMARK 922        TOTAL FREE ENERGY PREDICTED BY IDOCK:   -4.17 KCAL/MOL
REMARK 923 INTER-LIGAND FREE ENERGY PREDICTED BY IDOCK:   -3.39 KCAL/MOL
REMARK 924 INTRA-LIGAND FREE ENERGY PREDICTED BY IDOCK:   -0.77 KCAL/MOL
REMARK 927      BINDING AFFINITY PREDICTED BY RF-SCORE:    0.00 PKD
ROOT
HETATM    1  C   UNL     1      -8.370   2.950  67.215  1.00  0.00    -0.086 C  
HETATM    2  N   UNL     1      -7.298   3.214  68.161  1.00  0.00    -0.050 NA 
HETATM    3  H   UNL     1      -7.139   4.216  68.264  1.00  0.00     0.000 HD 
ENDROOT
BRANCH   2   4
HETATM    4  C   UNL     1      -7.528   2.579  69.463  1.00  0.00    -0.044 C  
BRANCH   4   5
HETATM    5  C   UNL     1      -7.965   3.668  70.444  1.00  0.00    -0.053 C  
BRANCH   5   6
HETATM    6  C   UNL     1      -7.208   4.992  70.279  1.00  0.00    -0.054 C  
BRANCH   6   7
HETATM    7  N   UNL     1      -8.139   6.149  70.327  1.00  0.00    -0.110 NA 
HETATM    8  C   UNL     1      -8.420   6.631  71.622  1.00  0.00    -0.119 A  
HETATM    9  C   UNL     1      -7.448   7.391  72.292  1.00  0.00    -0.078 A  
HETATM   10  C   UNL     1      -7.714   7.982  73.528  1.00  0.00    -0.218 A  
HETATM   11  C   UNL     1      -8.959   7.811  74.121  1.00  0.00    -0.204 A  
HETATM   12  C   UNL     1      -9.928   7.038  73.486  1.00  0.00    -0.321 A  
HETATM   13  C   UNL     1      -9.666   6.448  72.236  1.00  0.00    -0.158 A  
HETATM   14  C   UNL     1     -10.733   5.642  71.549  1.00  0.00    -0.306 C  
HETATM   15  C   UNL     1     -11.247   6.352  70.308  1.00  0.00    -0.445 C  
HETATM   16  C   UNL     1     -10.308   6.525  69.132  1.00  0.00    -0.226 A  
HETATM   17  C   UNL     1     -10.945   6.864  67.915  1.00  0.00    -0.260 A  
HETATM   18  C   UNL     1     -10.225   7.104  66.750  1.00  0.00    -0.289 A  
HETATM   19  C   UNL     1      -8.843   7.017  66.778  1.00  0.00    -0.130 A  
HETATM   20  C   UNL     1      -8.197   6.671  67.966  1.00  0.00    -0.117 A  
HETATM   21  C   UNL     1      -8.902   6.409  69.165  1.00  0.00    -0.126 A  
ENDBRANCH   6   7
ENDBRANCH   5   6
ENDBRANCH   4   5
ENDBRANCH   2   4
TORSDOF 4
ENDMDL
MODEL      181
REMARK 921   NORMALIZED FREE ENERGY PREDICTED BY IDOCK:   -2.85 KCAL/MOL
REMARK 922        TOTAL FREE ENERGY PREDICTED BY IDOCK:   -4.17 KCAL/MOL
REMARK 923 INTER-LIGAND FREE ENERGY PREDICTED BY IDOCK:   -4.00 KCAL/MOL
REMARK 924 INTRA-LIGAND FREE ENERGY PREDICTED BY IDOCK:   -0.17 KCAL/MOL
REMARK 927      BINDING AFFINITY PREDICTED BY RF-SCORE:    0.00 PKD
ROOT
HETATM    1  C   UNL     1     -13.723   9.349  71.885  1.00  0.00    -0.368 C  
HETATM    2  N   UNL     1     -12.780  10.428  71.640  1.00  0.00    -0.434 NA 
HETATM    3  H   UNL     1     -12.863  11.156  72.350  1.00  0.00     0.000 HD 
ENDROOT
BRANCH   2   4
HETATM    4  C   UNL     1     -11.397   9.953  71.532  1.00  0.00    -0.176 C  
BRANCH   4   5
HETATM    5  C   UNL     1     -11.201   9.401  70.119  1.00  0.00    -0.253 C  
BRANCH   5   6
HETATM    6  C   UNL     1      -9.732   9.289  69.693  1.00  0.00    -0.182 C  
BRANCH   6   7
HETATM    7  N   UNL     1      -9.553   8.236  68.660  1.00  0.00    -0.148 NA 
HETATM    8  C   UNL     1      -9.308   6.944  69.167  1.00  0.00    -0.140 A  
HETATM    9  C   UNL     1     -10.372   6.214  69.721  1.00  0.00    -0.269 A  
HETATM   10  C   UNL     1     -10.207   4.892  70.137  1.00  0.00    -0.310 A  
HETATM   11  C   UNL     1      -8.965   4.281  70.016  1.00  0.00    -0.152 A  
HETATM   12  C   UNL     1      -7.889   4.996  69.495  1.00  0.00    -0.068 A  
HETATM   13  C   UNL     1      -8.054   6.325  69.067  1.00  0.00    -0.110 A  
HETATM   14  C   UNL     1      -6.890   7.072  68.478  1.00  0.00    -0.073 C  
HETATM   15  C   UNL     1      -7.088   7.320  66.992  1.00  0.00    -0.087 C  
HETATM   16  C   UNL     1      -8.197   8.254  66.555  1.00  0.00    -0.106 A  
HETATM   17  C   UNL     1      -8.094   8.704  65.217  1.00  0.00    -0.136 A  
HETATM   18  C   UNL     1      -9.055   9.530  64.644  1.00  0.00    -0.263 A  
HETATM   19  C   UNL     1     -10.148   9.922  65.397  1.00  0.00    -0.270 A  
HETATM   20  C   UNL     1     -10.261   9.500  66.723  1.00  0.00    -0.313 A  
HETATM   21  C   UNL     1      -9.295   8.669  67.339  1.00  0.00    -0.144 A  
ENDBRANCH   6   7
ENDBRANCH   5   6
ENDBRANCH   4   5
ENDBRANCH   2   4
TORSDOF 4
ENDMDL
MODEL      182
REMARK 921   NORMALIZED FREE ENERGY PREDICTED BY IDOCK:   -2.73 KCAL/MOL
REMARK 922        TOTAL FREE ENERGY PREDICTED BY IDOCK:   -4.01 KCAL/MOL
REMARK 923 INTER-LIGAND FREE ENERGY PREDICTED BY IDOCK:   -3.33 KCAL/MOL
REMARK 924 INTRA-LIGAND FREE ENERGY PREDICTED BY IDOCK:   -0.68 KCAL/MOL
REMARK 927      BINDING AFFINITY PREDICTED BY RF-SCORE:    0.00 PKD
ROOT
HETATM    1  C   UNL     1      -8.185   7.345  73.334  1.00  0.00    -0.119 C  
HETATM    2  N   UNL     1      -8.208   8.702  72.815  1.00  0.00    -0.409 NA 
HETATM    3  H   UNL     1      -7.851   9.365  73.504  1.00  0.00     0.000 HD 
ENDROOT
BRANCH   2   4
HETATM    4  C   UNL     1      -7.493   8.829  71.541  1.00  0.00    -0.087 C  
BRANCH   4   5
HETATM    5  C   UNL     1      -8.492   9.311  70.489  1.00  0.00    -0.251 C  
BRANCH   5   6
HETATM    6  C   UNL     1      -9.683   8.365  70.284  1.00  0.00    -0.172 C  
BRANCH   6   7
HETATM    7  N   UNL     1      -9.414   7.397  69.189  1.00  0.00    -0.150 NA 
HETATM    8  C   UNL     1      -9.124   6.085  69.617  1.00  0.00    -0.135 A  
HETATM    9  C   UNL     1     -10.172   5.270  70.075  1.00  0.00    -0.358 A  
HETATM   10  C   UNL     1      -9.958   3.931  70.406  1.00  0.00    -0.055 A  
HETATM   11  C   UNL     1      -8.685   3.388  70.296  1.00  0.00    -0.123 A  
HETATM   12  C   UNL     1      -7.626   4.187  69.870  1.00  0.00    -0.052 A  
HETATM   13  C   UNL     1      -7.839   5.533  69.526  1.00  0.00    -0.087 A  
HETATM   14  C   UNL     1      -6.692   6.374  69.039  1.00  0.00    -0.053 C  
HETATM   15  C   UNL     1      -6.845   6.715  67.566  1.00  0.00    -0.076 C  
HETATM   16  C   UNL     1      -7.981   7.626  67.149  1.00  0.00    -0.117 A  
HETATM   17  C   UNL     1      -7.849   8.172  65.850  1.00  0.00    -0.094 A  
HETATM   18  C   UNL     1      -8.826   8.992  65.295  1.00  0.00    -0.234 A  
HETATM   19  C   UNL     1      -9.966   9.279  66.028  1.00  0.00    -0.325 A  
HETATM   20  C   UNL     1     -10.108   8.760  67.316  1.00  0.00    -0.301 A  
HETATM   21  C   UNL     1      -9.127   7.933  67.913  1.00  0.00    -0.131 A  
ENDBRANCH   6   7
ENDBRANCH   5   6
ENDBRANCH   4   5
ENDBRANCH   2   4
TORSDOF 4
ENDMDL
MODEL      183
REMARK 921   NORMALIZED FREE ENERGY PREDICTED BY IDOCK:   -2.72 KCAL/MOL
REMARK 922        TOTAL FREE ENERGY PREDICTED BY IDOCK:   -4.01 KCAL/MOL
REMARK 923 INTER-LIGAND FREE ENERGY PREDICTED BY IDOCK:   -4.00 KCAL/MOL
REMARK 924 INTRA-LIGAND FREE ENERGY PREDICTED BY IDOCK:   -0.01 KCAL/MOL
REMARK 927      BINDING AFFINITY PREDICTED BY RF-SCORE:    0.00 PKD
ROOT
HETATM    1  C   UNL     1      -7.427  16.398  66.447  1.00  0.00    -0.097 C  
HETATM    2  N   UNL     1      -8.116  15.125  66.573  1.00  0.00    -0.311 NA 
HETATM    3  H   UNL     1      -7.612  14.385  66.083  1.00  0.00     0.000 HD 
ENDROOT
BRANCH   2   4
HETATM    4  C   UNL     1      -8.365  14.757  67.971  1.00  0.00    -0.143 C  
BRANCH   4   5
HETATM    5  C   UNL     1      -8.607  13.248  68.022  1.00  0.00    -0.178 C  
BRANCH   5   6
HETATM    6  C   UNL     1      -8.544  12.562  66.651  1.00  0.00    -0.053 C  
BRANCH   6   7
HETATM    7  N   UNL     1      -9.273  11.267  66.668  1.00  0.00    -0.175 NA 
HETATM    8  C   UNL     1      -9.978  10.999  67.859  1.00  0.00    -0.174 A  
HETATM    9  C   UNL     1     -11.183  11.676  68.106  1.00  0.00    -0.325 A  
HETATM   10  C   UNL     1     -11.973  11.370  69.215  1.00  0.00    -0.400 A  
HETATM   11  C   UNL     1     -11.562  10.385  70.104  1.00  0.00    -0.392 A  
HETATM   12  C   UNL     1     -10.356   9.720  69.892  1.00  0.00    -0.291 A  
HETATM   13  C   UNL     1      -9.562  10.020  68.771  1.00  0.00    -0.168 A  
HETATM   14  C   UNL     1      -8.279   9.272  68.541  1.00  0.00    -0.114 C  
HETATM   15  C   UNL     1      -8.383   8.358  67.331  1.00  0.00    -0.124 C  
HETATM   16  C   UNL     1      -8.525   8.985  65.960  1.00  0.00    -0.138 A  
HETATM   17  C   UNL     1      -8.262   8.106  64.882  1.00  0.00    -0.150 A  
HETATM   18  C   UNL     1      -8.392   8.509  63.557  1.00  0.00    -0.086 A  
HETATM   19  C   UNL     1      -8.796   9.805  63.280  1.00  0.00    -0.260 A  
HETATM   20  C   UNL     1      -9.047  10.689  64.330  1.00  0.00    -0.244 A  
HETATM   21  C   UNL     1      -8.913  10.314  65.687  1.00  0.00    -0.172 A  
ENDBRANCH   6   7
ENDBRANCH   5   6
ENDBRANCH   4   5
ENDBRANCH   2   4
TORSDOF 4
ENDMDL
MODEL      184
REMARK 921   NORMALIZED FREE ENERGY PREDICTED BY IDOCK:   -2.72 KCAL/MOL
REMARK 922        TOTAL FREE ENERGY PREDICTED BY IDOCK:   -4.00 KCAL/MOL
REMARK 923 INTER-LIGAND FREE ENERGY PREDICTED BY IDOCK:   -3.90 KCAL/MOL
REMARK 924 INTRA-LIGAND FREE ENERGY PREDICTED BY IDOCK:   -0.10 KCAL/MOL
REMARK 927      BINDING AFFINITY PREDICTED BY RF-SCORE:    0.00 PKD
ROOT
HETATM    1  C   UNL     1     -11.203   9.530  71.235  1.00  0.00    -0.382 C  
HETATM    2  N   UNL     1     -10.928   8.803  72.463  1.00  0.00    -0.163 NA 
HETATM    3  H   UNL     1     -11.521   9.132  73.225  1.00  0.00     0.000 HD 
ENDROOT
BRANCH   2   4
HETATM    4  C   UNL     1     -11.043   7.351  72.294  1.00  0.00    -0.266 C  
BRANCH   4   5
HETATM    5  C   UNL     1     -10.958   7.046  70.798  1.00  0.00    -0.285 C  
BRANCH   5   6
HETATM    6  C   UNL     1     -10.408   5.650  70.478  1.00  0.00    -0.258 C  
BRANCH   6   7
HETATM    7  N   UNL     1      -9.599   5.667  69.232  1.00  0.00    -0.132 NA 
HETATM    8  C   UNL     1      -9.396   6.946  68.675  1.00  0.00    -0.135 A  
HETATM    9  C   UNL     1      -8.474   7.815  69.280  1.00  0.00    -0.138 A  
HETATM   10  C   UNL     1      -8.156   9.048  68.708  1.00  0.00    -0.105 A  
HETATM   11  C   UNL     1      -8.767   9.436  67.522  1.00  0.00    -0.123 A  
HETATM   12  C   UNL     1      -9.705   8.600  66.920  1.00  0.00    -0.278 A  
HETATM   13  C   UNL     1     -10.021   7.354  67.489  1.00  0.00    -0.225 A  
HETATM   14  C   UNL     1     -11.012   6.450  66.810  1.00  0.00    -0.321 C  
HETATM   15  C   UNL     1     -10.333   5.216  66.239  1.00  0.00    -0.313 C  
HETATM   16  C   UNL     1      -9.735   4.210  67.200  1.00  0.00    -0.224 A  
HETATM   17  C   UNL     1      -9.447   2.949  66.626  1.00  0.00    -0.002 A  
HETATM   18  C   UNL     1      -8.852   1.926  67.358  1.00  0.00    -0.150 A  
HETATM   19  C   UNL     1      -8.526   2.146  68.686  1.00  0.00    -0.086 A  
HETATM   20  C   UNL     1      -8.815   3.379  69.274  1.00  0.00    -0.158 A  
HETATM   21  C   UNL     1      -9.429   4.434  68.559  1.00  0.00    -0.156 A  
ENDBRANCH   6   7
ENDBRANCH   5   6
ENDBRANCH   4   5
ENDBRANCH   2   4
TORSDOF 4
ENDMDL
MODEL      185
REMARK 921   NORMALIZED FREE ENERGY PREDICTED BY IDOCK:   -2.70 KCAL/MOL
REMARK 922        TOTAL FREE ENERGY PREDICTED BY IDOCK:   -3.98 KCAL/MOL
REMARK 923 INTER-LIGAND FREE ENERGY PREDICTED BY IDOCK:   -3.41 KCAL/MOL
REMARK 924 INTRA-LIGAND FREE ENERGY PREDICTED BY IDOCK:   -0.57 KCAL/MOL
REMARK 927      BINDING AFFINITY PREDICTED BY RF-SCORE:    0.00 PKD
ROOT
HETATM    1  C   UNL     1     -10.100   5.294  66.103  1.00  0.00    -0.172 C  
HETATM    2  N   UNL     1      -8.884   6.087  66.023  1.00  0.00    -0.152 NA 
HETATM    3  H   UNL     1      -8.346   5.851  65.189  1.00  0.00     0.000 HD 
ENDROOT
BRANCH   2   4
HETATM    4  C   UNL     1      -9.148   7.528  66.090  1.00  0.00    -0.137 C  
BRANCH   4   5
HETATM    5  C   UNL     1      -9.633   7.849  67.504  1.00  0.00    -0.190 C  
BRANCH   5   6
HETATM    6  C   UNL     1      -8.503   7.995  68.531  1.00  0.00    -0.128 C  
BRANCH   6   7
HETATM    7  N   UNL     1      -8.805   7.233  69.770  1.00  0.00    -0.142 NA 
HETATM    8  C   UNL     1      -8.037   6.064  69.950  1.00  0.00    -0.117 A  
HETATM    9  C   UNL     1      -6.698   6.184  70.355  1.00  0.00    -0.053 A  
HETATM   10  C   UNL     1      -5.926   5.060  70.651  1.00  0.00    -0.018 A  
HETATM   11  C   UNL     1      -6.481   3.791  70.534  1.00  0.00    -0.031 A  
HETATM   12  C   UNL     1      -7.799   3.650  70.107  1.00  0.00    -0.047 A  
HETATM   13  C   UNL     1      -8.583   4.780  69.816  1.00  0.00    -0.101 A  
HETATM   14  C   UNL     1     -10.013   4.611  69.386  1.00  0.00    -0.249 C  
HETATM   15  C   UNL     1     -10.973   5.104  70.456  1.00  0.00     0.182 C  
HETATM   16  C   UNL     1     -11.008   6.586  70.770  1.00  0.00    -0.328 A  
HETATM   17  C   UNL     1     -12.146   7.005  71.499  1.00  0.00    -0.392 A  
HETATM   18  C   UNL     1     -12.312   8.324  71.908  1.00  0.00    -0.379 A  
HETATM   19  C   UNL     1     -11.335   9.256  71.601  1.00  0.00    -0.467 A  
HETATM   20  C   UNL     1     -10.211   8.864  70.871  1.00  0.00    -0.304 A  
HETATM   21  C   UNL     1     -10.019   7.533  70.430  1.00  0.00    -0.184 A  
ENDBRANCH   6   7
ENDBRANCH   5   6
ENDBRANCH   4   5
ENDBRANCH   2   4
TORSDOF 4
ENDMDL
MODEL      186
REMARK 921   NORMALIZED FREE ENERGY PREDICTED BY IDOCK:   -2.70 KCAL/MOL
REMARK 922        TOTAL FREE ENERGY PREDICTED BY IDOCK:   -3.97 KCAL/MOL
REMARK 923 INTER-LIGAND FREE ENERGY PREDICTED BY IDOCK:   -3.81 KCAL/MOL
REMARK 924 INTRA-LIGAND FREE ENERGY PREDICTED BY IDOCK:   -0.17 KCAL/MOL
REMARK 927      BINDING AFFINITY PREDICTED BY RF-SCORE:    0.00 PKD
ROOT
HETATM    1  C   UNL     1     -11.712  10.897  68.231  1.00  0.00    -0.184 C  
HETATM    2  N   UNL     1     -12.190  10.562  69.562  1.00  0.00    -0.540 NA 
HETATM    3  H   UNL     1     -12.999   9.941  69.516  1.00  0.00     0.000 HD 
ENDROOT
BRANCH   2   4
HETATM    4  C   UNL     1     -11.137   9.994  70.411  1.00  0.00    -0.327 C  
BRANCH   4   5
HETATM    5  C   UNL     1     -11.403   8.494  70.546  1.00  0.00    -0.235 C  
BRANCH   5   6
HETATM    6  C   UNL     1     -10.630   7.633  69.539  1.00  0.00    -0.227 C  
BRANCH   6   7
HETATM    7  N   UNL     1      -9.578   6.832  70.217  1.00  0.00    -0.165 NA 
HETATM    8  C   UNL     1      -9.713   6.741  71.618  1.00  0.00    -0.162 A  
HETATM    9  C   UNL     1     -10.697   5.896  72.155  1.00  0.00    -0.278 A  
HETATM   10  C   UNL     1     -10.802   5.686  73.531  1.00  0.00    -0.295 A  
HETATM   11  C   UNL     1      -9.927   6.332  74.395  1.00  0.00    -0.346 A  
HETATM   12  C   UNL     1      -8.961   7.196  73.885  1.00  0.00    -0.237 A  
HETATM   13  C   UNL     1      -8.847   7.403  72.498  1.00  0.00    -0.159 A  
HETATM   14  C   UNL     1      -7.779   8.315  71.962  1.00  0.00    -0.153 C  
HETATM   15  C   UNL     1      -6.712   7.534  71.213  1.00  0.00    -0.049 C  
HETATM   16  C   UNL     1      -7.093   6.849  69.917  1.00  0.00    -0.071 A  
HETATM   17  C   UNL     1      -5.994   6.455  69.116  1.00  0.00    -0.021 A  
HETATM   18  C   UNL     1      -6.167   5.773  67.916  1.00  0.00    -0.029 A  
HETATM   19  C   UNL     1      -7.448   5.462  67.492  1.00  0.00    -0.084 A  
HETATM   20  C   UNL     1      -8.544   5.854  68.262  1.00  0.00    -0.113 A  
HETATM   21  C   UNL     1      -8.402   6.559  69.480  1.00  0.00    -0.130 A  
ENDBRANCH   6   7
ENDBRANCH   5   6
ENDBRANCH   4   5
ENDBRANCH   2   4
TORSDOF 4
ENDMDL
MODEL      187
REMARK 921   NORMALIZED FREE ENERGY PREDICTED BY IDOCK:   -2.66 KCAL/MOL
REMARK 922        TOTAL FREE ENERGY PREDICTED BY IDOCK:   -3.93 KCAL/MOL
REMARK 923 INTER-LIGAND FREE ENERGY PREDICTED BY IDOCK:   -3.91 KCAL/MOL
REMARK 924 INTRA-LIGAND FREE ENERGY PREDICTED BY IDOCK:   -0.02 KCAL/MOL
REMARK 927      BINDING AFFINITY PREDICTED BY RF-SCORE:    0.00 PKD
ROOT
HETATM    1  C   UNL     1      -8.314   6.708  65.361  1.00  0.00    -0.129 C  
HETATM    2  N   UNL     1      -9.560   6.105  65.803  1.00  0.00    -0.372 NA 
HETATM    3  H   UNL     1      -9.985   5.552  65.059  1.00  0.00     0.000 HD 
ENDROOT
BRANCH   2   4
HETATM    4  C   UNL     1      -9.398   5.311  67.025  1.00  0.00    -0.122 C  
BRANCH   4   5
HETATM    5  C   UNL     1      -9.648   6.232  68.220  1.00  0.00    -0.119 C  
BRANCH   5   6
HETATM    6  C   UNL     1      -8.392   6.533  69.047  1.00  0.00    -0.116 C  
BRANCH   6   7
HETATM    7  N   UNL     1      -8.463   7.887  69.654  1.00  0.00    -0.131 NA 
HETATM    8  C   UNL     1      -7.857   8.001  70.922  1.00  0.00    -0.089 A  
HETATM    9  C   UNL     1      -6.456   8.042  71.006  1.00  0.00    -0.037 A  
HETATM   10  C   UNL     1      -5.808   8.262  72.223  1.00  0.00    -0.050 A  
HETATM   11  C   UNL     1      -6.555   8.434  73.381  1.00  0.00    -0.124 A  
HETATM   12  C   UNL     1      -7.946   8.369  73.324  1.00  0.00    -0.155 A  
HETATM   13  C   UNL     1      -8.602   8.156  72.098  1.00  0.00    -0.226 A  
HETATM   14  C   UNL     1     -10.104   8.120  72.049  1.00  0.00    -0.304 C  
HETATM   15  C   UNL     1     -10.661   9.333  71.322  1.00  0.00    -0.422 C  
HETATM   16  C   UNL     1     -10.392   9.473  69.838  1.00  0.00    -0.265 A  
HETATM   17  C   UNL     1     -11.221  10.411  69.176  1.00  0.00    -0.301 A  
HETATM   18  C   UNL     1     -11.075  10.695  67.823  1.00  0.00    -0.385 A  
HETATM   19  C   UNL     1     -10.088  10.048  67.098  1.00  0.00    -0.265 A  
HETATM   20  C   UNL     1      -9.269   9.110  67.730  1.00  0.00    -0.145 A  
HETATM   21  C   UNL     1      -9.400   8.791  69.102  1.00  0.00    -0.149 A  
ENDBRANCH   6   7
ENDBRANCH   5   6
ENDBRANCH   4   5
ENDBRANCH   2   4
TORSDOF 4
ENDMDL
MODEL      188
REMARK 921   NORMALIZED FREE ENERGY PREDICTED BY IDOCK:   -2.64 KCAL/MOL
REMARK 922        TOTAL FREE ENERGY PREDICTED BY IDOCK:   -3.90 KCAL/MOL
REMARK 923 INTER-LIGAND FREE ENERGY PREDICTED BY IDOCK:   -3.82 KCAL/MOL
REMARK 924 INTRA-LIGAND FREE ENERGY PREDICTED BY IDOCK:   -0.09 KCAL/MOL
REMARK 927      BINDING AFFINITY PREDICTED BY RF-SCORE:    0.00 PKD
ROOT
HETATM    1  C   UNL     1      -9.240   1.589  69.254  1.00  0.00    -0.111 C  
HETATM    2  N   UNL     1      -9.479   2.990  69.557  1.00  0.00    -0.140 NA 
HETATM    3  H   UNL     1      -9.099   3.239  70.470  1.00  0.00     0.000 HD 
ENDROOT
BRANCH   2   4
HETATM    4  C   UNL     1      -8.971   3.886  68.512  1.00  0.00    -0.121 C  
BRANCH   4   5
HETATM    5  C   UNL     1      -9.519   5.287  68.790  1.00  0.00    -0.171 C  
BRANCH   5   6
HETATM    6  C   UNL     1      -8.696   6.085  69.808  1.00  0.00    -0.130 C  
BRANCH   6   7
HETATM    7  N   UNL     1      -9.340   6.069  71.147  1.00  0.00    -0.159 NA 
HETATM    8  C   UNL     1     -10.506   6.855  71.253  1.00  0.00    -0.208 A  
HETATM    9  C   UNL     1     -11.698   6.388  70.678  1.00  0.00    -0.377 A  
HETATM   10  C   UNL     1     -12.902   7.074  70.847  1.00  0.00    -0.172 A  
HETATM   11  C   UNL     1     -12.929   8.249  71.588  1.00  0.00    -0.357 A  
HETATM   12  C   UNL     1     -11.752   8.744  72.144  1.00  0.00    -0.433 A  
HETATM   13  C   UNL     1     -10.539   8.051  71.983  1.00  0.00    -0.310 A  
HETATM   14  C   UNL     1      -9.283   8.582  72.616  1.00  0.00    -0.269 C  
HETATM   15  C   UNL     1      -8.819   7.690  73.755  1.00  0.00    -0.305 C  
HETATM   16  C   UNL     1      -8.330   6.294  73.427  1.00  0.00    -0.114 A  
HETATM   17  C   UNL     1      -7.598   5.669  74.465  1.00  0.00    -0.094 A  
HETATM   18  C   UNL     1      -7.117   4.369  74.345  1.00  0.00    -0.071 A  
HETATM   19  C   UNL     1      -7.365   3.660  73.181  1.00  0.00    -0.056 A  
HETATM   20  C   UNL     1      -8.073   4.265  72.142  1.00  0.00    -0.091 A  
HETATM   21  C   UNL     1      -8.565   5.589  72.228  1.00  0.00    -0.126 A  
ENDBRANCH   6   7
ENDBRANCH   5   6
ENDBRANCH   4   5
ENDBRANCH   2   4
TORSDOF 4
ENDMDL
MODEL      189
REMARK 921   NORMALIZED FREE ENERGY PREDICTED BY IDOCK:   -2.63 KCAL/MOL
REMARK 922        TOTAL FREE ENERGY PREDICTED BY IDOCK:   -3.89 KCAL/MOL
REMARK 923 INTER-LIGAND FREE ENERGY PREDICTED BY IDOCK:   -3.24 KCAL/MOL
REMARK 924 INTRA-LIGAND FREE ENERGY PREDICTED BY IDOCK:   -0.65 KCAL/MOL
REMARK 927      BINDING AFFINITY PREDICTED BY RF-SCORE:    0.00 PKD
ROOT
HETATM    1  C   UNL     1      -7.169   5.988  66.980  1.00  0.00    -0.075 C  
HETATM    2  N   UNL     1      -8.105   6.979  67.485  1.00  0.00    -0.112 NA 
HETATM    3  H   UNL     1      -9.069   6.680  67.340  1.00  0.00     0.000 HD 
ENDROOT
BRANCH   2   4
HETATM    4  C   UNL     1      -7.863   7.315  68.892  1.00  0.00    -0.118 C  
BRANCH   4   5
HETATM    5  C   UNL     1      -8.816   6.475  69.744  1.00  0.00    -0.143 C  
BRANCH   5   6
HETATM    6  C   UNL     1      -8.151   5.265  70.412  1.00  0.00    -0.096 C  
BRANCH   6   7
HETATM    7  N   UNL     1      -8.417   5.249  71.874  1.00  0.00    -0.125 NA 
HETATM    8  C   UNL     1      -9.409   4.336  72.286  1.00  0.00    -0.124 A  
HETATM    9  C   UNL     1      -9.099   2.967  72.331  1.00  0.00    -0.136 A  
HETATM   10  C   UNL     1     -10.008   2.035  72.834  1.00  0.00    -0.176 A  
HETATM   11  C   UNL     1     -11.250   2.457  73.290  1.00  0.00    -0.234 A  
HETATM   12  C   UNL     1     -11.587   3.808  73.228  1.00  0.00    -0.035 A  
HETATM   13  C   UNL     1     -10.671   4.752  72.731  1.00  0.00    -0.282 A  
HETATM   14  C   UNL     1     -11.039   6.209  72.700  1.00  0.00    -0.308 C  
HETATM   15  C   UNL     1     -10.223   7.005  73.705  1.00  0.00    -0.401 C  
HETATM   16  C   UNL     1      -8.732   7.146  73.478  1.00  0.00    -0.176 A  
HETATM   17  C   UNL     1      -8.117   8.171  74.236  1.00  0.00    -0.309 A  
HETATM   18  C   UNL     1      -6.747   8.404  74.180  1.00  0.00    -0.163 A  
HETATM   19  C   UNL     1      -5.957   7.609  73.366  1.00  0.00    -0.060 A  
HETATM   20  C   UNL     1      -6.548   6.602  72.601  1.00  0.00    -0.063 A  
HETATM   21  C   UNL     1      -7.940   6.348  72.627  1.00  0.00    -0.104 A  
ENDBRANCH   6   7
ENDBRANCH   5   6
ENDBRANCH   4   5
ENDBRANCH   2   4
TORSDOF 4
ENDMDL
MODEL      190
REMARK 921   NORMALIZED FREE ENERGY PREDICTED BY IDOCK:   -2.61 KCAL/MOL
REMARK 922        TOTAL FREE ENERGY PREDICTED BY IDOCK:   -3.87 KCAL/MOL
REMARK 923 INTER-LIGAND FREE ENERGY PREDICTED BY IDOCK:   -2.98 KCAL/MOL
REMARK 924 INTRA-LIGAND FREE ENERGY PREDICTED BY IDOCK:   -0.89 KCAL/MOL
REMARK 927      BINDING AFFINITY PREDICTED BY RF-SCORE:    0.00 PKD
ROOT
HETATM    1  C   UNL     1      -7.483   3.887  70.769  1.00  0.00    -0.041 C  
HETATM    2  N   UNL     1      -7.644   5.211  71.345  1.00  0.00    -0.093 NA 
HETATM    3  H   UNL     1      -7.718   5.163  72.361  1.00  0.00     0.000 HD 
ENDROOT
BRANCH   2   4
HETATM    4  C   UNL     1      -6.580   6.135  70.937  1.00  0.00    -0.053 C  
BRANCH   4   5
HETATM    5  C   UNL     1      -7.243   7.410  70.414  1.00  0.00    -0.068 C  
BRANCH   5   6
HETATM    6  C   UNL     1      -6.851   7.768  68.975  1.00  0.00    -0.057 C  
BRANCH   6   7
HETATM    7  N   UNL     1      -7.977   7.521  68.037  1.00  0.00    -0.121 NA 
HETATM    8  C   UNL     1      -8.771   8.650  67.753  1.00  0.00    -0.137 A  
HETATM    9  C   UNL     1      -8.271   9.635  66.886  1.00  0.00    -0.113 A  
HETATM   10  C   UNL     1      -9.058  10.717  66.487  1.00  0.00    -0.179 A  
HETATM   11  C   UNL     1     -10.358  10.837  66.961  1.00  0.00    -0.275 A  
HETATM   12  C   UNL     1     -10.863   9.886  67.844  1.00  0.00    -0.312 A  
HETATM   13  C   UNL     1     -10.078   8.790  68.241  1.00  0.00    -0.220 A  
HETATM   14  C   UNL     1     -10.649   7.755  69.170  1.00  0.00    -0.193 C  
HETATM   15  C   UNL     1     -10.865   6.431  68.457  1.00  0.00    -0.382 C  
HETATM   16  C   UNL     1      -9.651   5.659  67.982  1.00  0.00    -0.137 A  
HETATM   17  C   UNL     1      -9.906   4.305  67.657  1.00  0.00    -0.150 A  
HETATM   18  C   UNL     1      -8.912   3.468  67.162  1.00  0.00    -0.168 A  
HETATM   19  C   UNL     1      -7.635   3.971  66.975  1.00  0.00    -0.084 A  
HETATM   20  C   UNL     1      -7.361   5.300  67.303  1.00  0.00    -0.083 A  
HETATM   21  C   UNL     1      -8.347   6.173  67.819  1.00  0.00    -0.116 A  
ENDBRANCH   6   7
ENDBRANCH   5   6
ENDBRANCH   4   5
ENDBRANCH   2   4
TORSDOF 4
ENDMDL
MODEL      191
REMARK 921   NORMALIZED FREE ENERGY PREDICTED BY IDOCK:   -2.61 KCAL/MOL
REMARK 922        TOTAL FREE ENERGY PREDICTED BY IDOCK:   -3.87 KCAL/MOL
REMARK 923 INTER-LIGAND FREE ENERGY PREDICTED BY IDOCK:   -3.24 KCAL/MOL
REMARK 924 INTRA-LIGAND FREE ENERGY PREDICTED BY IDOCK:   -0.63 KCAL/MOL
REMARK 927      BINDING AFFINITY PREDICTED BY RF-SCORE:    0.00 PKD
ROOT
HETATM    1  C   UNL     1     -12.389   8.854  72.408  1.00  0.00    -0.315 C  
HETATM    2  N   UNL     1     -12.728   7.446  72.282  1.00  0.00    -0.509 NA 
HETATM    3  H   UNL     1     -13.737   7.305  72.342  1.00  0.00     0.000 HD 
ENDROOT
BRANCH   2   4
HETATM    4  C   UNL     1     -12.183   6.844  71.061  1.00  0.00    -0.377 C  
BRANCH   4   5
HETATM    5  C   UNL     1     -10.887   6.124  71.433  1.00  0.00    -0.319 C  
BRANCH   5   6
HETATM    6  C   UNL     1      -9.616   6.888  71.041  1.00  0.00    -0.170 C  
BRANCH   6   7
HETATM    7  N   UNL     1      -8.603   5.975  70.450  1.00  0.00    -0.131 NA 
HETATM    8  C   UNL     1      -8.548   5.983  69.042  1.00  0.00    -0.120 A  
HETATM    9  C   UNL     1      -7.943   7.069  68.389  1.00  0.00    -0.123 A  
HETATM   10  C   UNL     1      -7.766   7.075  67.004  1.00  0.00    -0.107 A  
HETATM   11  C   UNL     1      -8.204   5.996  66.247  1.00  0.00    -0.118 A  
HETATM   12  C   UNL     1      -8.831   4.921  66.873  1.00  0.00    -0.106 A  
HETATM   13  C   UNL     1      -9.004   4.906  68.268  1.00  0.00    -0.126 A  
HETATM   14  C   UNL     1      -9.655   3.725  68.931  1.00  0.00    -0.183 C  
HETATM   15  C   UNL     1      -8.655   2.938  69.762  1.00  0.00    -0.115 C  
HETATM   16  C   UNL     1      -8.068   3.591  70.996  1.00  0.00    -0.070 A  
HETATM   17  C   UNL     1      -7.438   2.693  71.892  1.00  0.00    -0.044 A  
HETATM   18  C   UNL     1      -6.809   3.134  73.051  1.00  0.00    -0.034 A  
HETATM   19  C   UNL     1      -6.789   4.488  73.338  1.00  0.00    -0.064 A  
HETATM   20  C   UNL     1      -7.416   5.387  72.474  1.00  0.00    -0.096 A  
HETATM   21  C   UNL     1      -8.075   4.970  71.293  1.00  0.00    -0.111 A  
ENDBRANCH   6   7
ENDBRANCH   5   6
ENDBRANCH   4   5
ENDBRANCH   2   4
TORSDOF 4
ENDMDL
MODEL      192
REMARK 921   NORMALIZED FREE ENERGY PREDICTED BY IDOCK:   -2.60 KCAL/MOL
REMARK 922        TOTAL FREE ENERGY PREDICTED BY IDOCK:   -3.85 KCAL/MOL
REMARK 923 INTER-LIGAND FREE ENERGY PREDICTED BY IDOCK:   -4.07 KCAL/MOL
REMARK 924 INTRA-LIGAND FREE ENERGY PREDICTED BY IDOCK:    0.22 KCAL/MOL
REMARK 927      BINDING AFFINITY PREDICTED BY RF-SCORE:    0.00 PKD
ROOT
HETATM    1  C   UNL     1     -14.400   7.374  71.468  1.00  0.00    -0.440 C  
HETATM    2  N   UNL     1     -13.484   8.475  71.218  1.00  0.00    -0.544 NA 
HETATM    3  H   UNL     1     -13.924   9.372  71.425  1.00  0.00     0.000 HD 
ENDROOT
BRANCH   2   4
HETATM    4  C   UNL     1     -12.218   8.329  71.942  1.00  0.00    -0.337 C  
BRANCH   4   5
HETATM    5  C   UNL     1     -11.840   6.847  71.930  1.00  0.00    -0.351 C  
BRANCH   5   6
HETATM    6  C   UNL     1     -10.724   6.482  72.917  1.00  0.00    -0.251 C  
BRANCH   6   7
HETATM    7  N   UNL     1      -9.417   6.352  72.222  1.00  0.00    -0.149 NA 
HETATM    8  C   UNL     1      -9.453   5.606  71.026  1.00  0.00    -0.166 A  
HETATM    9  C   UNL     1     -10.003   6.191  69.874  1.00  0.00    -0.215 A  
HETATM   10  C   UNL     1      -9.966   5.538  68.641  1.00  0.00    -0.222 A  
HETATM   11  C   UNL     1      -9.385   4.280  68.543  1.00  0.00    -0.209 A  
HETATM   12  C   UNL     1      -8.858   3.671  69.680  1.00  0.00    -0.149 A  
HETATM   13  C   UNL     1      -8.886   4.329  70.922  1.00  0.00    -0.142 A  
HETATM   14  C   UNL     1      -8.286   3.670  72.133  1.00  0.00    -0.072 C  
HETATM   15  C   UNL     1      -7.025   4.390  72.584  1.00  0.00    -0.061 C  
HETATM   16  C   UNL     1      -7.152   5.795  73.134  1.00  0.00    -0.085 A  
HETATM   17  C   UNL     1      -6.018   6.252  73.847  1.00  0.00    -0.063 A  
HETATM   18  C   UNL     1      -5.951   7.536  74.378  1.00  0.00    -0.080 A  
HETATM   19  C   UNL     1      -7.021   8.398  74.201  1.00  0.00    -0.178 A  
HETATM   20  C   UNL     1      -8.154   7.961  73.513  1.00  0.00    -0.239 A  
HETATM   21  C   UNL     1      -8.257   6.658  72.971  1.00  0.00    -0.113 A  
ENDBRANCH   6   7
ENDBRANCH   5   6
ENDBRANCH   4   5
ENDBRANCH   2   4
TORSDOF 4
ENDMDL
MODEL      193
REMARK 921   NORMALIZED FREE ENERGY PREDICTED BY IDOCK:   -2.58 KCAL/MOL
REMARK 922        TOTAL FREE ENERGY PREDICTED BY IDOCK:   -3.83 KCAL/MOL
REMARK 923 INTER-LIGAND FREE ENERGY PREDICTED BY IDOCK:   -3.82 KCAL/MOL
REMARK 924 INTRA-LIGAND FREE ENERGY PREDICTED BY IDOCK:   -0.01 KCAL/MOL
REMARK 927      BINDING AFFINITY PREDICTED BY RF-SCORE:    0.00 PKD
ROOT
HETATM    1  C   UNL     1     -10.666  14.785  65.113  1.00  0.00    -0.415 C  
HETATM    2  N   UNL     1     -10.974  13.746  64.144  1.00  0.00    -0.581 NA 
HETATM    3  H   UNL     1     -10.122  13.348  63.749  1.00  0.00     0.000 HD 
ENDROOT
BRANCH   2   4
HETATM    4  C   UNL     1     -11.838  12.699  64.698  1.00  0.00    -0.380 C  
BRANCH   4   5
HETATM    5  C   UNL     1     -11.071  11.378  64.638  1.00  0.00    -0.277 C  
BRANCH   5   6
HETATM    6  C   UNL     1     -10.552  10.898  65.999  1.00  0.00    -0.189 C  
BRANCH   6   7
HETATM    7  N   UNL     1      -9.077  10.715  65.975  1.00  0.00    -0.173 NA 
HETATM    8  C   UNL     1      -8.617   9.726  65.082  1.00  0.00    -0.158 A  
HETATM    9  C   UNL     1      -8.601  10.004  63.706  1.00  0.00    -0.202 A  
HETATM   10  C   UNL     1      -8.056   9.103  62.790  1.00  0.00    -0.154 A  
HETATM   11  C   UNL     1      -7.526   7.899  63.238  1.00  0.00    -0.119 A  
HETATM   12  C   UNL     1      -7.557   7.592  64.596  1.00  0.00    -0.111 A  
HETATM   13  C   UNL     1      -8.098   8.501  65.523  1.00  0.00    -0.126 A  
HETATM   14  C   UNL     1      -8.095   8.169  66.989  1.00  0.00    -0.108 C  
HETATM   15  C   UNL     1      -7.131   9.059  67.755  1.00  0.00    -0.079 C  
HETATM   16  C   UNL     1      -7.442  10.538  67.863  1.00  0.00    -0.091 A  
HETATM   17  C   UNL     1      -6.712  11.220  68.865  1.00  0.00    -0.081 A  
HETATM   18  C   UNL     1      -6.844  12.590  69.066  1.00  0.00    -0.089 A  
HETATM   19  C   UNL     1      -7.708  13.312  68.260  1.00  0.00    -0.141 A  
HETATM   20  C   UNL     1      -8.447  12.655  67.275  1.00  0.00    -0.193 A  
HETATM   21  C   UNL     1      -8.344  11.261  67.054  1.00  0.00    -0.153 A  
ENDBRANCH   6   7
ENDBRANCH   5   6
ENDBRANCH   4   5
ENDBRANCH   2   4
TORSDOF 4
ENDMDL
MODEL      194
REMARK 921   NORMALIZED FREE ENERGY PREDICTED BY IDOCK:   -2.58 KCAL/MOL
REMARK 922        TOTAL FREE ENERGY PREDICTED BY IDOCK:   -3.83 KCAL/MOL
REMARK 923 INTER-LIGAND FREE ENERGY PREDICTED BY IDOCK:   -3.50 KCAL/MOL
REMARK 924 INTRA-LIGAND FREE ENERGY PREDICTED BY IDOCK:   -0.33 KCAL/MOL
REMARK 927      BINDING AFFINITY PREDICTED BY RF-SCORE:    0.00 PKD
ROOT
HETATM    1  C   UNL     1     -11.009   8.172  72.503  1.00  0.00    -0.369 C  
HETATM    2  N   UNL     1     -12.193   7.329  72.462  1.00  0.00    -0.512 NA 
HETATM    3  H   UNL     1     -12.973   7.768  72.950  1.00  0.00     0.000 HD 
ENDROOT
BRANCH   2   4
HETATM    4  C   UNL     1     -12.569   6.956  71.094  1.00  0.00    -0.314 C  
BRANCH   4   5
HETATM    5  C   UNL     1     -11.330   6.381  70.408  1.00  0.00    -0.453 C  
BRANCH   5   6
HETATM    6  C   UNL     1     -10.818   7.230  69.236  1.00  0.00    -0.159 C  
BRANCH   6   7
HETATM    7  N   UNL     1      -9.486   6.759  68.777  1.00  0.00    -0.131 NA 
HETATM    8  C   UNL     1      -9.455   5.427  68.315  1.00  0.00    -0.119 A  
HETATM    9  C   UNL     1      -9.991   5.131  67.052  1.00  0.00    -0.222 A  
HETATM   10  C   UNL     1      -9.888   3.852  66.502  1.00  0.00    -0.125 A  
HETATM   11  C   UNL     1      -9.256   2.842  67.217  1.00  0.00    -0.205 A  
HETATM   12  C   UNL     1      -8.742   3.108  68.484  1.00  0.00    -0.143 A  
HETATM   13  C   UNL     1      -8.835   4.398  69.037  1.00  0.00    -0.131 A  
HETATM   14  C   UNL     1      -8.248   4.676  70.393  1.00  0.00    -0.075 C  
HETATM   15  C   UNL     1      -7.032   5.582  70.292  1.00  0.00    -0.061 C  
HETATM   16  C   UNL     1      -7.231   7.013  69.837  1.00  0.00    -0.079 A  
HETATM   17  C   UNL     1      -6.138   7.872  70.104  1.00  0.00    -0.032 A  
HETATM   18  C   UNL     1      -6.139   9.206  69.711  1.00  0.00    -0.038 A  
HETATM   19  C   UNL     1      -7.236   9.711  69.032  1.00  0.00    -0.071 A  
HETATM   20  C   UNL     1      -8.328   8.883  68.771  1.00  0.00    -0.123 A  
HETATM   21  C   UNL     1      -8.363   7.525  69.168  1.00  0.00    -0.135 A  
ENDBRANCH   6   7
ENDBRANCH   5   6
ENDBRANCH   4   5
ENDBRANCH   2   4
TORSDOF 4
ENDMDL
MODEL      195
REMARK 921   NORMALIZED FREE ENERGY PREDICTED BY IDOCK:   -2.56 KCAL/MOL
REMARK 922        TOTAL FREE ENERGY PREDICTED BY IDOCK:   -3.80 KCAL/MOL
REMARK 923 INTER-LIGAND FREE ENERGY PREDICTED BY IDOCK:   -3.15 KCAL/MOL
REMARK 924 INTRA-LIGAND FREE ENERGY PREDICTED BY IDOCK:   -0.64 KCAL/MOL
REMARK 927      BINDING AFFINITY PREDICTED BY RF-SCORE:    0.00 PKD
ROOT
HETATM    1  C   UNL     1     -12.491   8.771  72.327  1.00  0.00    -0.386 C  
HETATM    2  N   UNL     1     -12.877   7.421  71.955  1.00  0.00    -0.494 NA 
HETATM    3  H   UNL     1     -13.874   7.369  71.745  1.00  0.00     0.000 HD 
ENDROOT
BRANCH   2   4
HETATM    4  C   UNL     1     -12.076   6.891  70.847  1.00  0.00    -0.373 C  
BRANCH   4   5
HETATM    5  C   UNL     1     -11.227   5.741  71.391  1.00  0.00    -0.234 C  
BRANCH   5   6
HETATM    6  C   UNL     1      -9.860   6.179  71.932  1.00  0.00    -0.156 C  
BRANCH   6   7
HETATM    7  N   UNL     1      -8.813   6.080  70.882  1.00  0.00    -0.135 NA 
HETATM    8  C   UNL     1      -8.315   7.316  70.424  1.00  0.00    -0.130 A  
HETATM    9  C   UNL     1      -7.426   8.037  71.237  1.00  0.00    -0.072 A  
HETATM   10  C   UNL     1      -6.819   9.211  70.786  1.00  0.00    -0.087 A  
HETATM   11  C   UNL     1      -7.104   9.690  69.514  1.00  0.00    -0.072 A  
HETATM   12  C   UNL     1      -8.005   9.005  68.702  1.00  0.00    -0.102 A  
HETATM   13  C   UNL     1      -8.611   7.817  69.149  1.00  0.00    -0.138 A  
HETATM   14  C   UNL     1      -9.557   7.073  68.248  1.00  0.00    -0.134 C  
HETATM   15  C   UNL     1      -8.958   5.754  67.788  1.00  0.00    -0.107 C  
HETATM   16  C   UNL     1      -8.728   4.667  68.817  1.00  0.00    -0.113 A  
HETATM   17  C   UNL     1      -8.510   3.379  68.272  1.00  0.00    -0.104 A  
HETATM   18  C   UNL     1      -8.237   2.277  69.076  1.00  0.00    -0.071 A  
HETATM   19  C   UNL     1      -8.169   2.441  70.449  1.00  0.00    -0.063 A  
HETATM   20  C   UNL     1      -8.394   3.701  71.006  1.00  0.00    -0.087 A  
HETATM   21  C   UNL     1      -8.685   4.839  70.217  1.00  0.00    -0.093 A  
ENDBRANCH   6   7
ENDBRANCH   5   6
ENDBRANCH   4   5
ENDBRANCH   2   4
TORSDOF 4
ENDMDL
MODEL      196
REMARK 921   NORMALIZED FREE ENERGY PREDICTED BY IDOCK:   -2.54 KCAL/MOL
REMARK 922        TOTAL FREE ENERGY PREDICTED BY IDOCK:   -3.78 KCAL/MOL
REMARK 923 INTER-LIGAND FREE ENERGY PREDICTED BY IDOCK:   -3.15 KCAL/MOL
REMARK 924 INTRA-LIGAND FREE ENERGY PREDICTED BY IDOCK:   -0.63 KCAL/MOL
REMARK 927      BINDING AFFINITY PREDICTED BY RF-SCORE:    0.00 PKD
ROOT
HETATM    1  C   UNL     1      -7.407   2.467  69.227  1.00  0.00    -0.044 C  
HETATM    2  N   UNL     1      -7.964   3.531  70.046  1.00  0.00    -0.046 NA 
HETATM    3  H   UNL     1      -7.910   3.297  71.037  1.00  0.00     0.000 HD 
ENDROOT
BRANCH   2   4
HETATM    4  C   UNL     1      -7.341   4.832  69.777  1.00  0.00    -0.055 C  
BRANCH   4   5
HETATM    5  C   UNL     1      -8.418   5.907  69.927  1.00  0.00    -0.129 C  
BRANCH   5   6
HETATM    6  C   UNL     1      -8.820   6.184  71.381  1.00  0.00    -0.139 C  
BRANCH   6   7
HETATM    7  N   UNL     1      -8.872   7.645  71.652  1.00  0.00    -0.115 NA 
HETATM    8  C   UNL     1     -10.155   8.221  71.550  1.00  0.00    -0.208 A  
HETATM    9  C   UNL     1     -11.085   8.002  72.579  1.00  0.00    -0.440 A  
HETATM   10  C   UNL     1     -12.328   8.636  72.581  1.00  0.00    -0.282 A  
HETATM   11  C   UNL     1     -12.666   9.494  71.543  1.00  0.00    -0.461 A  
HETATM   12  C   UNL     1     -11.769   9.704  70.498  1.00  0.00    -0.312 A  
HETATM   13  C   UNL     1     -10.512   9.074  70.497  1.00  0.00    -0.271 A  
HETATM   14  C   UNL     1      -9.543   9.335  69.378  1.00  0.00    -0.170 C  
HETATM   15  C   UNL     1      -8.346  10.137  69.860  1.00  0.00    -0.110 C  
HETATM   16  C   UNL     1      -7.388   9.490  70.838  1.00  0.00    -0.053 A  
HETATM   17  C   UNL     1      -6.140  10.147  70.961  1.00  0.00    -0.003 A  
HETATM   18  C   UNL     1      -5.163   9.709  71.849  1.00  0.00    -0.077 A  
HETATM   19  C   UNL     1      -5.417   8.604  72.643  1.00  0.00    -0.057 A  
HETATM   20  C   UNL     1      -6.636   7.935  72.527  1.00  0.00    -0.070 A  
HETATM   21  C   UNL     1      -7.645   8.347  71.625  1.00  0.00    -0.104 A  
ENDBRANCH   6   7
ENDBRANCH   5   6
ENDBRANCH   4   5
ENDBRANCH   2   4
TORSDOF 4
ENDMDL
MODEL      197
REMARK 921   NORMALIZED FREE ENERGY PREDICTED BY IDOCK:   -2.52 KCAL/MOL
REMARK 922        TOTAL FREE ENERGY PREDICTED BY IDOCK:   -3.76 KCAL/MOL
REMARK 923 INTER-LIGAND FREE ENERGY PREDICTED BY IDOCK:   -3.14 KCAL/MOL
REMARK 924 INTRA-LIGAND FREE ENERGY PREDICTED BY IDOCK:   -0.62 KCAL/MOL
REMARK 927      BINDING AFFINITY PREDICTED BY RF-SCORE:    0.00 PKD
ROOT
HETATM    1  C   UNL     1      -7.610   1.973  67.950  1.00  0.00    -0.055 C  
HETATM    2  N   UNL     1      -7.678   3.340  68.442  1.00  0.00    -0.055 NA 
HETATM    3  H   UNL     1      -7.746   3.360  69.460  1.00  0.00     0.000 HD 
ENDROOT
BRANCH   2   4
HETATM    4  C   UNL     1      -6.559   4.162  67.971  1.00  0.00    -0.042 C  
BRANCH   4   5
HETATM    5  C   UNL     1      -7.022   5.619  67.958  1.00  0.00    -0.066 C  
BRANCH   5   6
HETATM    6  C   UNL     1      -8.530   5.794  68.177  1.00  0.00    -0.109 C  
BRANCH   6   7
HETATM    7  N   UNL     1      -9.191   6.317  66.953  1.00  0.00    -0.127 NA 
HETATM    8  C   UNL     1      -9.087   5.483  65.821  1.00  0.00    -0.144 A  
HETATM    9  C   UNL     1      -9.881   4.327  65.751  1.00  0.00    -0.228 A  
HETATM   10  C   UNL     1      -9.897   3.527  64.607  1.00  0.00    -0.168 A  
HETATM   11  C   UNL     1      -9.106   3.865  63.517  1.00  0.00    -0.119 A  
HETATM   12  C   UNL     1      -8.290   4.993  63.577  1.00  0.00    -0.123 A  
HETATM   13  C   UNL     1      -8.278   5.807  64.723  1.00  0.00    -0.135 A  
HETATM   14  C   UNL     1      -7.416   7.038  64.760  1.00  0.00    -0.096 C  
HETATM   15  C   UNL     1      -8.258   8.302  64.742  1.00  0.00    -0.147 C  
HETATM   16  C   UNL     1      -9.132   8.607  65.941  1.00  0.00    -0.259 A  
HETATM   17  C   UNL     1      -9.598   9.942  66.005  1.00  0.00    -0.284 A  
HETATM   18  C   UNL     1     -10.448  10.376  67.016  1.00  0.00    -0.309 A  
HETATM   19  C   UNL     1     -10.859   9.478  67.987  1.00  0.00    -0.225 A  
HETATM   20  C   UNL     1     -10.400   8.160  67.948  1.00  0.00    -0.280 A  
HETATM   21  C   UNL     1      -9.525   7.691  66.940  1.00  0.00    -0.172 A  
ENDBRANCH   6   7
ENDBRANCH   5   6
ENDBRANCH   4   5
ENDBRANCH   2   4
TORSDOF 4
ENDMDL
MODEL      198
REMARK 921   NORMALIZED FREE ENERGY PREDICTED BY IDOCK:   -2.52 KCAL/MOL
REMARK 922        TOTAL FREE ENERGY PREDICTED BY IDOCK:   -3.75 KCAL/MOL
REMARK 923 INTER-LIGAND FREE ENERGY PREDICTED BY IDOCK:   -4.04 KCAL/MOL
REMARK 924 INTRA-LIGAND FREE ENERGY PREDICTED BY IDOCK:    0.29 KCAL/MOL
REMARK 927      BINDING AFFINITY PREDICTED BY RF-SCORE:    0.00 PKD
ROOT
HETATM    1  C   UNL     1     -10.312   5.623  68.352  1.00  0.00    -0.196 C  
HETATM    2  N   UNL     1      -9.694   6.363  67.265  1.00  0.00    -0.125 NA 
HETATM    3  H   UNL     1      -9.604   5.782  66.431  1.00  0.00     0.000 HD 
ENDROOT
BRANCH   2   4
HETATM    4  C   UNL     1     -10.399   7.613  66.964  1.00  0.00    -0.330 C  
BRANCH   4   5
HETATM    5  C   UNL     1      -9.367   8.742  66.957  1.00  0.00    -0.200 C  
BRANCH   5   6
HETATM    6  C   UNL     1      -9.788   9.974  67.768  1.00  0.00    -0.157 C  
BRANCH   6   7
HETATM    7  N   UNL     1      -9.250  11.221  67.165  1.00  0.00    -0.162 NA 
HETATM    8  C   UNL     1      -7.890  11.162  66.799  1.00  0.00    -0.153 A  
HETATM    9  C   UNL     1      -7.524  10.451  65.645  1.00  0.00    -0.149 A  
HETATM   10  C   UNL     1      -6.208  10.453  65.179  1.00  0.00    -0.114 A  
HETATM   11  C   UNL     1      -5.232  11.159  65.870  1.00  0.00    -0.114 A  
HETATM   12  C   UNL     1      -5.569  11.849  67.032  1.00  0.00    -0.126 A  
HETATM   13  C   UNL     1      -6.895  11.857  67.500  1.00  0.00    -0.124 A  
HETATM   14  C   UNL     1      -7.248  12.632  68.739  1.00  0.00    -0.083 C  
HETATM   15  C   UNL     1      -8.110  13.839  68.408  1.00  0.00    -0.148 C  
HETATM   16  C   UNL     1      -9.512  13.605  67.885  1.00  0.00    -0.213 A  
HETATM   17  C   UNL     1     -10.356  14.739  67.938  1.00  0.00    -0.240 A  
HETATM   18  C   UNL     1     -11.660  14.708  67.455  1.00  0.00    -0.396 A  
HETATM   19  C   UNL     1     -12.149  13.538  66.899  1.00  0.00    -0.417 A  
HETATM   20  C   UNL     1     -11.335  12.405  66.849  1.00  0.00    -0.392 A  
HETATM   21  C   UNL     1     -10.009  12.401  67.343  1.00  0.00    -0.202 A  
ENDBRANCH   6   7
ENDBRANCH   5   6
ENDBRANCH   4   5
ENDBRANCH   2   4
TORSDOF 4
ENDMDL
MODEL      199
REMARK 921   NORMALIZED FREE ENERGY PREDICTED BY IDOCK:   -2.50 KCAL/MOL
REMARK 922        TOTAL FREE ENERGY PREDICTED BY IDOCK:   -3.73 KCAL/MOL
REMARK 923 INTER-LIGAND FREE ENERGY PREDICTED BY IDOCK:   -3.60 KCAL/MOL
REMARK 924 INTRA-LIGAND FREE ENERGY PREDICTED BY IDOCK:   -0.13 KCAL/MOL
REMARK 927      BINDING AFFINITY PREDICTED BY RF-SCORE:    0.00 PKD
ROOT
HETATM    1  C   UNL     1     -10.582   3.330  63.265  1.00  0.00    -0.241 C  
HETATM    2  N   UNL     1     -10.495   3.218  64.711  1.00  0.00    -0.406 NA 
HETATM    3  H   UNL     1     -10.647   2.256  65.015  1.00  0.00     0.000 HD 
ENDROOT
BRANCH   2   4
HETATM    4  C   UNL     1      -9.234   3.746  65.241  1.00  0.00    -0.151 C  
BRANCH   4   5
HETATM    5  C   UNL     1      -9.528   5.102  65.884  1.00  0.00    -0.168 C  
BRANCH   5   6
HETATM    6  C   UNL     1      -8.475   5.545  66.908  1.00  0.00    -0.110 C  
BRANCH   6   7
HETATM    7  N   UNL     1      -9.108   6.236  68.062  1.00  0.00    -0.113 NA 
HETATM    8  C   UNL     1      -9.355   7.610  67.867  1.00  0.00    -0.139 A  
HETATM    9  C   UNL     1     -10.428   8.001  67.049  1.00  0.00    -0.410 A  
HETATM   10  C   UNL     1     -10.782   9.344  66.910  1.00  0.00    -0.174 A  
HETATM   11  C   UNL     1     -10.058  10.321  67.581  1.00  0.00    -0.229 A  
HETATM   12  C   UNL     1      -8.974   9.957  68.376  1.00  0.00    -0.120 A  
HETATM   13  C   UNL     1      -8.619   8.604  68.525  1.00  0.00    -0.135 A  
HETATM   14  C   UNL     1      -7.465   8.225  69.411  1.00  0.00    -0.090 C  
HETATM   15  C   UNL     1      -7.942   7.500  70.658  1.00  0.00    -0.100 C  
HETATM   16  C   UNL     1      -8.565   6.128  70.504  1.00  0.00    -0.138 A  
HETATM   17  C   UNL     1      -8.653   5.384  71.705  1.00  0.00    -0.131 A  
HETATM   18  C   UNL     1      -9.240   4.124  71.747  1.00  0.00    -0.181 A  
HETATM   19  C   UNL     1      -9.760   3.580  70.584  1.00  0.00    -0.196 A  
HETATM   20  C   UNL     1      -9.671   4.292  69.388  1.00  0.00    -0.257 A  
HETATM   21  C   UNL     1      -9.069   5.571  69.309  1.00  0.00    -0.112 A  
ENDBRANCH   6   7
ENDBRANCH   5   6
ENDBRANCH   4   5
ENDBRANCH   2   4
TORSDOF 4
ENDMDL
MODEL      200
REMARK 921   NORMALIZED FREE ENERGY PREDICTED BY IDOCK:   -2.50 KCAL/MOL
REMARK 922        TOTAL FREE ENERGY PREDICTED BY IDOCK:   -3.73 KCAL/MOL
REMARK 923 INTER-LIGAND FREE ENERGY PREDICTED BY IDOCK:   -3.08 KCAL/MOL
REMARK 924 INTRA-LIGAND FREE ENERGY PREDICTED BY IDOCK:   -0.65 KCAL/MOL
REMARK 927      BINDING AFFINITY PREDICTED BY RF-SCORE:    0.00 PKD
ROOT
HETATM    1  C   UNL     1      -5.338  11.947  68.923  1.00  0.00    -0.050 C  
HETATM    2  N   UNL     1      -6.262  10.922  68.467  1.00  0.00    -0.046 NA 
HETATM    3  H   UNL     1      -7.187  11.314  68.293  1.00  0.00     0.000 HD 
ENDROOT
BRANCH   2   4
HETATM    4  C   UNL     1      -5.765  10.201  67.290  1.00  0.00    -0.045 C  
BRANCH   4   5
HETATM    5  C   UNL     1      -6.360   8.792  67.319  1.00  0.00    -0.057 C  
BRANCH   5   6
HETATM    6  C   UNL     1      -7.843   8.752  67.707  1.00  0.00    -0.102 C  
BRANCH   6   7
HETATM    7  N   UNL     1      -8.699   8.485  66.522  1.00  0.00    -0.126 NA 
HETATM    8  C   UNL     1      -8.826   7.124  66.177  1.00  0.00    -0.150 A  
HETATM    9  C   UNL     1      -9.653   6.298  66.955  1.00  0.00    -0.173 A  
HETATM   10  C   UNL     1      -9.899   4.972  66.594  1.00  0.00    -0.215 A  
HETATM   11  C   UNL     1      -9.309   4.447  65.452  1.00  0.00    -0.164 A  
HETATM   12  C   UNL     1      -8.463   5.242  64.682  1.00  0.00    -0.142 A  
HETATM   13  C   UNL     1      -8.220   6.580  65.036  1.00  0.00    -0.115 A  
HETATM   14  C   UNL     1      -7.329   7.434  64.177  1.00  0.00    -0.091 C  
HETATM   15  C   UNL     1      -8.123   8.514  63.461  1.00  0.00    -0.155 C  
HETATM   16  C   UNL     1      -8.757   9.614  64.287  1.00  0.00    -0.229 A  
HETATM   17  C   UNL     1      -9.164  10.747  63.543  1.00  0.00    -0.275 A  
HETATM   18  C   UNL     1      -9.804  11.827  64.141  1.00  0.00    -0.248 A  
HETATM   19  C   UNL     1     -10.059  11.795  65.502  1.00  0.00    -0.285 A  
HETATM   20  C   UNL     1      -9.653  10.692  66.255  1.00  0.00    -0.228 A  
HETATM   21  C   UNL     1      -8.989   9.583  65.679  1.00  0.00    -0.183 A  
ENDBRANCH   6   7
ENDBRANCH   5   6
ENDBRANCH   4   5
ENDBRANCH   2   4
TORSDOF 4
ENDMDL
MODEL      201
REMARK 921   NORMALIZED FREE ENERGY PREDICTED BY IDOCK:   -2.49 KCAL/MOL
REMARK 922        TOTAL FREE ENERGY PREDICTED BY IDOCK:   -3.72 KCAL/MOL
REMARK 923 INTER-LIGAND FREE ENERGY PREDICTED BY IDOCK:   -2.97 KCAL/MOL
REMARK 924 INTRA-LIGAND FREE ENERGY PREDICTED BY IDOCK:   -0.75 KCAL/MOL
REMARK 927      BINDING AFFINITY PREDICTED BY RF-SCORE:    0.00 PKD
ROOT
HETATM    1  C   UNL     1      -8.388   6.264  69.284  1.00  0.00    -0.117 C  
HETATM    2  N   UNL     1      -8.059   6.517  67.891  1.00  0.00    -0.115 NA 
HETATM    3  H   UNL     1      -7.913   5.644  67.384  1.00  0.00     0.000 HD 
ENDROOT
BRANCH   2   4
HETATM    4  C   UNL     1      -9.058   7.356  67.221  1.00  0.00    -0.124 C  
BRANCH   4   5
HETATM    5  C   UNL     1      -8.352   8.619  66.725  1.00  0.00    -0.108 C  
BRANCH   5   6
HETATM    6  C   UNL     1      -9.182   9.899  66.888  1.00  0.00    -0.147 C  
BRANCH   6   7
HETATM    7  N   UNL     1      -8.862  10.585  68.167  1.00  0.00    -0.131 NA 
HETATM    8  C   UNL     1      -7.711  11.399  68.131  1.00  0.00    -0.118 A  
HETATM    9  C   UNL     1      -7.777  12.644  67.485  1.00  0.00    -0.161 A  
HETATM   10  C   UNL     1      -6.702  13.534  67.514  1.00  0.00    -0.144 A  
HETATM   11  C   UNL     1      -5.535  13.185  68.182  1.00  0.00    -0.096 A  
HETATM   12  C   UNL     1      -5.440  11.944  68.806  1.00  0.00    -0.049 A  
HETATM   13  C   UNL     1      -6.524  11.048  68.787  1.00  0.00    -0.051 A  
HETATM   14  C   UNL     1      -6.415   9.725  69.492  1.00  0.00    -0.046 C  
HETATM   15  C   UNL     1      -7.317   9.675  70.714  1.00  0.00    -0.060 C  
HETATM   16  C   UNL     1      -8.818   9.695  70.507  1.00  0.00    -0.169 A  
HETATM   17  C   UNL     1      -9.572   9.295  71.636  1.00  0.00    -0.061 A  
HETATM   18  C   UNL     1     -10.963   9.301  71.630  1.00  0.00    -0.433 A  
HETATM   19  C   UNL     1     -11.633   9.715  70.492  1.00  0.00    -0.341 A  
HETATM   20  C   UNL     1     -10.907  10.101  69.364  1.00  0.00    -0.274 A  
HETATM   21  C   UNL     1      -9.492  10.095  69.334  1.00  0.00    -0.224 A  
ENDBRANCH   6   7
ENDBRANCH   5   6
ENDBRANCH   4   5
ENDBRANCH   2   4
TORSDOF 4
ENDMDL
MODEL      202
REMARK 921   NORMALIZED FREE ENERGY PREDICTED BY IDOCK:   -2.47 KCAL/MOL
REMARK 922        TOTAL FREE ENERGY PREDICTED BY IDOCK:   -3.69 KCAL/MOL
REMARK 923 INTER-LIGAND FREE ENERGY PREDICTED BY IDOCK:   -3.05 KCAL/MOL
REMARK 924 INTRA-LIGAND FREE ENERGY PREDICTED BY IDOCK:   -0.64 KCAL/MOL
REMARK 927      BINDING AFFINITY PREDICTED BY RF-SCORE:    0.00 PKD
ROOT
HETATM    1  C   UNL     1      -8.979   2.541  64.940  1.00  0.00    -0.127 C  
HETATM    2  N   UNL     1      -7.822   3.398  64.742  1.00  0.00    -0.078 NA 
HETATM    3  H   UNL     1      -7.588   3.477  63.752  1.00  0.00     0.000 HD 
ENDROOT
BRANCH   2   4
HETATM    4  C   UNL     1      -7.992   4.721  65.351  1.00  0.00    -0.099 C  
BRANCH   4   5
HETATM    5  C   UNL     1      -8.006   4.539  66.870  1.00  0.00    -0.102 C  
BRANCH   5   6
HETATM    6  C   UNL     1      -7.081   5.507  67.620  1.00  0.00    -0.071 C  
BRANCH   6   7
HETATM    7  N   UNL     1      -7.865   6.472  68.434  1.00  0.00    -0.105 NA 
HETATM    8  C   UNL     1      -8.083   6.079  69.771  1.00  0.00    -0.114 A  
HETATM    9  C   UNL     1      -7.025   6.171  70.689  1.00  0.00    -0.064 A  
HETATM   10  C   UNL     1      -7.215   5.899  72.045  1.00  0.00    -0.092 A  
HETATM   11  C   UNL     1      -8.471   5.519  72.503  1.00  0.00    -0.118 A  
HETATM   12  C   UNL     1      -9.527   5.396  71.603  1.00  0.00    -0.182 A  
HETATM   13  C   UNL     1      -9.341   5.677  70.238  1.00  0.00    -0.186 A  
HETATM   14  C   UNL     1     -10.499   5.570  69.286  1.00  0.00    -0.336 C  
HETATM   15  C   UNL     1     -10.925   6.937  68.778  1.00  0.00    -0.210 C  
HETATM   16  C   UNL     1      -9.973   7.706  67.886  1.00  0.00    -0.208 A  
HETATM   17  C   UNL     1     -10.567   8.781  67.181  1.00  0.00    -0.303 A  
HETATM   18  C   UNL     1      -9.824   9.617  66.354  1.00  0.00    -0.309 A  
HETATM   19  C   UNL     1      -8.463   9.399  66.218  1.00  0.00    -0.133 A  
HETATM   20  C   UNL     1      -7.862   8.337  66.895  1.00  0.00    -0.096 A  
HETATM   21  C   UNL     1      -8.592   7.462  67.734  1.00  0.00    -0.120 A  
ENDBRANCH   6   7
ENDBRANCH   5   6
ENDBRANCH   4   5
ENDBRANCH   2   4
TORSDOF 4
ENDMDL
MODEL      203
REMARK 921   NORMALIZED FREE ENERGY PREDICTED BY IDOCK:   -2.44 KCAL/MOL
REMARK 922        TOTAL FREE ENERGY PREDICTED BY IDOCK:   -3.66 KCAL/MOL
REMARK 923 INTER-LIGAND FREE ENERGY PREDICTED BY IDOCK:   -3.28 KCAL/MOL
REMARK 924 INTRA-LIGAND FREE ENERGY PREDICTED BY IDOCK:   -0.38 KCAL/MOL
REMARK 927      BINDING AFFINITY PREDICTED BY RF-SCORE:    0.00 PKD
ROOT
HETATM    1  C   UNL     1     -11.775  11.513  68.395  1.00  0.00    -0.303 C  
HETATM    2  N   UNL     1     -11.687  10.501  69.434  1.00  0.00    -0.423 NA 
HETATM    3  H   UNL     1     -12.428   9.807  69.334  1.00  0.00     0.000 HD 
ENDROOT
BRANCH   2   4
HETATM    4  C   UNL     1     -10.368   9.861  69.484  1.00  0.00    -0.229 C  
BRANCH   4   5
HETATM    5  C   UNL     1     -10.486   8.492  68.811  1.00  0.00    -0.208 C  
BRANCH   5   6
HETATM    6  C   UNL     1     -10.406   8.543  67.280  1.00  0.00    -0.302 C  
BRANCH   6   7
HETATM    7  N   UNL     1      -9.239   7.771  66.780  1.00  0.00    -0.154 NA 
HETATM    8  C   UNL     1      -9.214   6.416  67.168  1.00  0.00    -0.123 A  
HETATM    9  C   UNL     1     -10.080   5.510  66.535  1.00  0.00    -0.241 A  
HETATM   10  C   UNL     1     -10.020   4.141  66.804  1.00  0.00    -0.140 A  
HETATM   11  C   UNL     1      -9.097   3.658  67.724  1.00  0.00    -0.193 A  
HETATM   12  C   UNL     1      -8.248   4.544  68.383  1.00  0.00    -0.086 A  
HETATM   13  C   UNL     1      -8.299   5.923  68.108  1.00  0.00    -0.115 A  
HETATM   14  C   UNL     1      -7.355   6.862  68.806  1.00  0.00    -0.094 C  
HETATM   15  C   UNL     1      -6.330   7.431  67.840  1.00  0.00    -0.048 C  
HETATM   16  C   UNL     1      -6.807   8.365  66.747  1.00  0.00    -0.069 A  
HETATM   17  C   UNL     1      -5.780   9.117  66.127  1.00  0.00    -0.053 A  
HETATM   18  C   UNL     1      -6.040   9.988  65.074  1.00  0.00    -0.113 A  
HETATM   19  C   UNL     1      -7.338  10.122  64.611  1.00  0.00    -0.129 A  
HETATM   20  C   UNL     1      -8.366   9.398  65.218  1.00  0.00    -0.147 A  
HETATM   21  C   UNL     1      -8.136   8.514  66.298  1.00  0.00    -0.107 A  
ENDBRANCH   6   7
ENDBRANCH   5   6
ENDBRANCH   4   5
ENDBRANCH   2   4
TORSDOF 4
ENDMDL
MODEL      204
REMARK 921   NORMALIZED FREE ENERGY PREDICTED BY IDOCK:   -2.43 KCAL/MOL
REMARK 922        TOTAL FREE ENERGY PREDICTED BY IDOCK:   -3.64 KCAL/MOL
REMARK 923 INTER-LIGAND FREE ENERGY PREDICTED BY IDOCK:   -3.59 KCAL/MOL
REMARK 924 INTRA-LIGAND FREE ENERGY PREDICTED BY IDOCK:   -0.05 KCAL/MOL
REMARK 927      BINDING AFFINITY PREDICTED BY RF-SCORE:    0.00 PKD
ROOT
HETATM    1  C   UNL     1     -11.005   8.168  72.501  1.00  0.00    -0.369 C  
HETATM    2  N   UNL     1     -12.189   7.326  72.470  1.00  0.00    -0.512 NA 
HETATM    3  H   UNL     1     -12.970   7.772  72.952  1.00  0.00     0.000 HD 
ENDROOT
BRANCH   2   4
HETATM    4  C   UNL     1     -12.564   6.934  71.107  1.00  0.00    -0.314 C  
BRANCH   4   5
HETATM    5  C   UNL     1     -11.329   6.330  70.437  1.00  0.00    -0.440 C  
BRANCH   5   6
HETATM    6  C   UNL     1     -10.803   7.148  69.251  1.00  0.00    -0.183 C  
BRANCH   6   7
HETATM    7  N   UNL     1      -9.485   6.637  68.792  1.00  0.00    -0.130 NA 
HETATM    8  C   UNL     1      -8.384   7.064  69.562  1.00  0.00    -0.133 A  
HETATM    9  C   UNL     1      -8.166   6.483  70.821  1.00  0.00    -0.125 A  
HETATM   10  C   UNL     1      -7.032   6.790  71.576  1.00  0.00    -0.067 A  
HETATM   11  C   UNL     1      -6.101   7.696  71.084  1.00  0.00    -0.035 A  
HETATM   12  C   UNL     1      -6.312   8.304  69.849  1.00  0.00    -0.032 A  
HETATM   13  C   UNL     1      -7.448   7.991  69.082  1.00  0.00    -0.095 A  
HETATM   14  C   UNL     1      -7.646   8.632  67.737  1.00  0.00    -0.098 C  
HETATM   15  C   UNL     1      -7.488   7.620  66.614  1.00  0.00    -0.093 C  
HETATM   16  C   UNL     1      -8.515   6.515  66.487  1.00  0.00    -0.120 A  
HETATM   17  C   UNL     1      -8.505   5.844  65.241  1.00  0.00    -0.144 A  
HETATM   18  C   UNL     1      -9.353   4.774  64.975  1.00  0.00    -0.113 A  
HETATM   19  C   UNL     1     -10.230   4.345  65.957  1.00  0.00    -0.246 A  
HETATM   20  C   UNL     1     -10.264   5.003  67.188  1.00  0.00    -0.234 A  
HETATM   21  C   UNL     1      -9.423   6.101  67.485  1.00  0.00    -0.112 A  
ENDBRANCH   6   7
ENDBRANCH   5   6
ENDBRANCH   4   5
ENDBRANCH   2   4
TORSDOF 4
ENDMDL
MODEL      205
REMARK 921   NORMALIZED FREE ENERGY PREDICTED BY IDOCK:   -2.41 KCAL/MOL
REMARK 922        TOTAL FREE ENERGY PREDICTED BY IDOCK:   -3.62 KCAL/MOL
REMARK 923 INTER-LIGAND FREE ENERGY PREDICTED BY IDOCK:   -3.11 KCAL/MOL
REMARK 924 INTRA-LIGAND FREE ENERGY PREDICTED BY IDOCK:   -0.50 KCAL/MOL
REMARK 927      BINDING AFFINITY PREDICTED BY RF-SCORE:    0.00 PKD
ROOT
HETATM    1  C   UNL     1      -9.532   4.843  73.997  1.00  0.00    -0.122 C  
HETATM    2  N   UNL     1      -9.788   5.945  73.084  1.00  0.00    -0.166 NA 
HETATM    3  H   UNL     1      -8.916   6.384  72.786  1.00  0.00     0.000 HD 
ENDROOT
BRANCH   2   4
HETATM    4  C   UNL     1     -10.598   5.542  71.930  1.00  0.00    -0.234 C  
BRANCH   4   5
HETATM    5  C   UNL     1     -10.083   6.304  70.708  1.00  0.00    -0.229 C  
BRANCH   5   6
HETATM    6  C   UNL     1     -10.953   6.130  69.456  1.00  0.00    -0.393 C  
BRANCH   6   7
HETATM    7  N   UNL     1     -10.394   6.891  68.308  1.00  0.00    -0.183 NA 
HETATM    8  C   UNL     1      -9.917   6.095  67.246  1.00  0.00    -0.144 A  
HETATM    9  C   UNL     1     -10.841   5.482  66.385  1.00  0.00    -0.195 A  
HETATM   10  C   UNL     1     -10.422   4.775  65.256  1.00  0.00    -0.031 A  
HETATM   11  C   UNL     1      -9.066   4.660  64.978  1.00  0.00    -0.156 A  
HETATM   12  C   UNL     1      -8.132   5.237  65.835  1.00  0.00    -0.110 A  
HETATM   13  C   UNL     1      -8.550   5.958  66.968  1.00  0.00    -0.110 A  
HETATM   14  C   UNL     1      -7.530   6.602  67.865  1.00  0.00    -0.098 C  
HETATM   15  C   UNL     1      -7.583   8.117  67.763  1.00  0.00    -0.098 C  
HETATM   16  C   UNL     1      -8.815   8.834  68.275  1.00  0.00    -0.141 A  
HETATM   17  C   UNL     1      -8.646  10.226  68.470  1.00  0.00    -0.126 A  
HETATM   18  C   UNL     1      -9.692  11.041  68.893  1.00  0.00    -0.184 A  
HETATM   19  C   UNL     1     -10.937  10.480  69.123  1.00  0.00    -0.286 A  
HETATM   20  C   UNL     1     -11.119   9.107  68.949  1.00  0.00     0.089 A  
HETATM   21  C   UNL     1     -10.074   8.250  68.531  1.00  0.00    -0.197 A  
ENDBRANCH   6   7
ENDBRANCH   5   6
ENDBRANCH   4   5
ENDBRANCH   2   4
TORSDOF 4
ENDMDL
MODEL      206
REMARK 921   NORMALIZED FREE ENERGY PREDICTED BY IDOCK:   -2.40 KCAL/MOL
REMARK 922        TOTAL FREE ENERGY PREDICTED BY IDOCK:   -3.61 KCAL/MOL
REMARK 923 INTER-LIGAND FREE ENERGY PREDICTED BY IDOCK:   -4.24 KCAL/MOL
REMARK 924 INTRA-LIGAND FREE ENERGY PREDICTED BY IDOCK:    0.63 KCAL/MOL
REMARK 927      BINDING AFFINITY PREDICTED BY RF-SCORE:    0.00 PKD
ROOT
HETATM    1  C   UNL     1     -10.955   6.117  68.567  1.00  0.00    -0.320 C  
HETATM    2  N   UNL     1     -10.090   6.773  67.600  1.00  0.00    -0.149 NA 
HETATM    3  H   UNL     1      -9.979   6.204  66.761  1.00  0.00     0.000 HD 
ENDROOT
BRANCH   2   4
HETATM    4  C   UNL     1     -10.548   8.125  67.263  1.00  0.00    -0.273 C  
BRANCH   4   5
HETATM    5  C   UNL     1     -10.398   8.995  68.512  1.00  0.00    -0.233 C  
BRANCH   5   6
HETATM    6  C   UNL     1     -11.065  10.372  68.394  1.00  0.00    -0.268 C  
BRANCH   6   7
HETATM    7  N   UNL     1     -10.127  11.455  68.788  1.00  0.00    -0.206 NA 
HETATM    8  C   UNL     1     -10.667  12.756  68.730  1.00  0.00    -0.214 A  
HETATM    9  C   UNL     1     -11.559  13.169  69.733  1.00  0.00    -0.291 A  
HETATM   10  C   UNL     1     -12.037  14.480  69.783  1.00  0.00    -0.380 A  
HETATM   11  C   UNL     1     -11.637  15.398  68.820  1.00  0.00    -0.382 A  
HETATM   12  C   UNL     1     -10.774  15.001  67.802  1.00  0.00    -0.278 A  
HETATM   13  C   UNL     1     -10.283  13.684  67.752  1.00  0.00    -0.242 A  
HETATM   14  C   UNL     1      -9.328  13.280  66.664  1.00  0.00    -0.247 C  
HETATM   15  C   UNL     1      -7.938  13.019  67.219  1.00  0.00    -0.143 C  
HETATM   16  C   UNL     1      -7.738  11.835  68.143  1.00  0.00    -0.124 A  
HETATM   17  C   UNL     1      -6.386  11.455  68.327  1.00  0.00    -0.046 A  
HETATM   18  C   UNL     1      -6.025  10.417  69.179  1.00  0.00    -0.037 A  
HETATM   19  C   UNL     1      -7.011   9.737  69.874  1.00  0.00    -0.093 A  
HETATM   20  C   UNL     1      -8.350  10.088  69.696  1.00  0.00    -0.188 A  
HETATM   21  C   UNL     1      -8.751  11.131  68.827  1.00  0.00    -0.128 A  
ENDBRANCH   6   7
ENDBRANCH   5   6
ENDBRANCH   4   5
ENDBRANCH   2   4
TORSDOF 4
ENDMDL
MODEL      207
REMARK 921   NORMALIZED FREE ENERGY PREDICTED BY IDOCK:   -2.39 KCAL/MOL
REMARK 922        TOTAL FREE ENERGY PREDICTED BY IDOCK:   -3.59 KCAL/MOL
REMARK 923 INTER-LIGAND FREE ENERGY PREDICTED BY IDOCK:   -3.10 KCAL/MOL
REMARK 924 INTRA-LIGAND FREE ENERGY PREDICTED BY IDOCK:   -0.49 KCAL/MOL
REMARK 927      BINDING AFFINITY PREDICTED BY RF-SCORE:    0.00 PKD
ROOT
HETATM    1  C   UNL     1      -6.641   5.793  65.890  1.00  0.00    -0.044 C  
HETATM    2  N   UNL     1      -7.842   5.351  66.579  1.00  0.00    -0.100 NA 
HETATM    3  H   UNL     1      -7.800   4.353  66.787  1.00  0.00     0.000 HD 
ENDROOT
BRANCH   2   4
HETATM    4  C   UNL     1      -8.113   6.131  67.791  1.00  0.00    -0.113 C  
BRANCH   4   5
HETATM    5  C   UNL     1      -9.331   5.515  68.481  1.00  0.00    -0.143 C  
BRANCH   5   6
HETATM    6  C   UNL     1      -9.042   4.983  69.891  1.00  0.00    -0.119 C  
BRANCH   6   7
HETATM    7  N   UNL     1      -9.049   6.084  70.889  1.00  0.00    -0.152 NA 
HETATM    8  C   UNL     1     -10.278   6.761  71.016  1.00  0.00    -0.197 A  
HETATM    9  C   UNL     1     -11.332   6.138  71.703  1.00  0.00    -0.341 A  
HETATM   10  C   UNL     1     -12.532   6.807  71.952  1.00  0.00    -0.355 A  
HETATM   11  C   UNL     1     -12.701   8.111  71.504  1.00  0.00    -0.327 A  
HETATM   12  C   UNL     1     -11.677   8.738  70.796  1.00  0.00    -0.253 A  
HETATM   13  C   UNL     1     -10.464   8.071  70.552  1.00  0.00    -0.217 A  
HETATM   14  C   UNL     1      -9.358   8.772  69.814  1.00  0.00    -0.163 C  
HETATM   15  C   UNL     1      -8.185   9.072  70.732  1.00  0.00    -0.213 C  
HETATM   16  C   UNL     1      -7.384   7.912  71.285  1.00  0.00    -0.068 A  
HETATM   17  C   UNL     1      -6.126   8.271  71.826  1.00  0.00    -0.047 A  
HETATM   18  C   UNL     1      -5.285   7.334  72.415  1.00  0.00    -0.037 A  
HETATM   19  C   UNL     1      -5.687   6.011  72.483  1.00  0.00    -0.036 A  
HETATM   20  C   UNL     1      -6.918   5.635  71.943  1.00  0.00    -0.076 A  
HETATM   21  C   UNL     1      -7.791   6.562  71.327  1.00  0.00    -0.103 A  
ENDBRANCH   6   7
ENDBRANCH   5   6
ENDBRANCH   4   5
ENDBRANCH   2   4
TORSDOF 4
ENDMDL
MODEL      208
REMARK 921   NORMALIZED FREE ENERGY PREDICTED BY IDOCK:   -2.37 KCAL/MOL
REMARK 922        TOTAL FREE ENERGY PREDICTED BY IDOCK:   -3.56 KCAL/MOL
REMARK 923 INTER-LIGAND FREE ENERGY PREDICTED BY IDOCK:   -3.52 KCAL/MOL
REMARK 924 INTRA-LIGAND FREE ENERGY PREDICTED BY IDOCK:   -0.04 KCAL/MOL
REMARK 927      BINDING AFFINITY PREDICTED BY RF-SCORE:    0.00 PKD
ROOT
HETATM    1  C   UNL     1      -7.219  17.762  66.074  1.00  0.00    -0.287 C  
HETATM    2  N   UNL     1      -7.794  16.610  66.749  1.00  0.00    -0.225 NA 
HETATM    3  H   UNL     1      -7.660  15.760  66.201  1.00  0.00     0.000 HD 
ENDROOT
BRANCH   2   4
HETATM    4  C   UNL     1      -7.283  16.445  68.113  1.00  0.00    -0.143 C  
BRANCH   4   5
HETATM    5  C   UNL     1      -8.324  15.659  68.911  1.00  0.00    -0.210 C  
BRANCH   5   6
HETATM    6  C   UNL     1      -8.306  14.150  68.639  1.00  0.00    -0.123 C  
BRANCH   6   7
HETATM    7  N   UNL     1      -9.683  13.591  68.634  1.00  0.00    -0.157 NA 
HETATM    8  C   UNL     1      -9.905  12.571  67.687  1.00  0.00    -0.202 A  
HETATM    9  C   UNL     1      -9.391  11.288  67.935  1.00  0.00    -0.161 A  
HETATM   10  C   UNL     1      -9.673  10.217  67.085  1.00  0.00    -0.214 A  
HETATM   11  C   UNL     1     -10.468  10.416  65.964  1.00  0.00    -0.211 A  
HETATM   12  C   UNL     1     -10.966  11.687  65.686  1.00  0.00    -0.322 A  
HETATM   13  C   UNL     1     -10.691  12.767  66.544  1.00  0.00    -0.277 A  
HETATM   14  C   UNL     1     -11.262  14.125  66.246  1.00  0.00    -0.329 C  
HETATM   15  C   UNL     1     -12.323  14.513  67.262  1.00  0.00    -0.013 C  
HETATM   16  C   UNL     1     -11.897  14.759  68.695  1.00  0.00    -0.334 A  
HETATM   17  C   UNL     1     -12.853  15.446  69.482  1.00  0.00     0.280 A  
HETATM   18  C   UNL     1     -12.639  15.711  70.831  1.00  0.00    -0.503 A  
HETATM   19  C   UNL     1     -11.463  15.288  71.426  1.00  0.00    -0.444 A  
HETATM   20  C   UNL     1     -10.503  14.621  70.663  1.00  0.00     0.559 A  
HETATM   21  C   UNL     1     -10.685  14.346  69.287  1.00  0.00    -0.206 A  
ENDBRANCH   6   7
ENDBRANCH   5   6
ENDBRANCH   4   5
ENDBRANCH   2   4
TORSDOF 4
ENDMDL
MODEL      209
REMARK 921   NORMALIZED FREE ENERGY PREDICTED BY IDOCK:   -2.34 KCAL/MOL
REMARK 922        TOTAL FREE ENERGY PREDICTED BY IDOCK:   -3.53 KCAL/MOL
REMARK 923 INTER-LIGAND FREE ENERGY PREDICTED BY IDOCK:   -2.95 KCAL/MOL
REMARK 924 INTRA-LIGAND FREE ENERGY PREDICTED BY IDOCK:   -0.57 KCAL/MOL
REMARK 927      BINDING AFFINITY PREDICTED BY RF-SCORE:    0.00 PKD
ROOT
HETATM    1  C   UNL     1      -9.016   4.211  64.768  1.00  0.00    -0.140 C  
HETATM    2  N   UNL     1      -7.925   5.154  64.947  1.00  0.00    -0.097 NA 
HETATM    3  H   UNL     1      -7.093   4.853  64.441  1.00  0.00     0.000 HD 
ENDROOT
BRANCH   2   4
HETATM    4  C   UNL     1      -8.300   6.523  64.578  1.00  0.00     0.039 C  
BRANCH   4   5
HETATM    5  C   UNL     1      -8.613   7.286  65.865  1.00  0.00    -0.159 C  
BRANCH   5   6
HETATM    6  C   UNL     1      -7.669   8.466  66.134  1.00  0.00    -0.097 C  
BRANCH   6   7
HETATM    7  N   UNL     1      -8.142   9.277  67.286  1.00  0.00    -0.112 NA 
HETATM    8  C   UNL     1      -7.677   8.846  68.545  1.00  0.00    -0.098 A  
HETATM    9  C   UNL     1      -6.347   9.113  68.908  1.00  0.00    -0.044 A  
HETATM   10  C   UNL     1      -5.868   8.805  70.183  1.00  0.00    -0.027 A  
HETATM   11  C   UNL     1      -6.712   8.212  71.113  1.00  0.00    -0.044 A  
HETATM   12  C   UNL     1      -8.027   7.914  70.763  1.00  0.00    -0.100 A  
HETATM   13  C   UNL     1      -8.517   8.231  69.483  1.00  0.00    -0.125 A  
HETATM   14  C   UNL     1      -9.947   7.932  69.132  1.00  0.00    -0.184 C  
HETATM   15  C   UNL     1     -10.756   9.208  68.977  1.00  0.00    -0.176 C  
HETATM   16  C   UNL     1     -10.432  10.134  67.823  1.00  0.00    -0.277 A  
HETATM   17  C   UNL     1     -11.434  11.095  67.541  1.00  0.00    -0.296 A  
HETATM   18  C   UNL     1     -11.275  12.050  66.543  1.00  0.00    -0.387 A  
HETATM   19  C   UNL     1     -10.103  12.071  65.805  1.00  0.00    -0.267 A  
HETATM   20  C   UNL     1      -9.110  11.124  66.060  1.00  0.00    -0.217 A  
HETATM   21  C   UNL     1      -9.246  10.132  67.060  1.00  0.00    -0.146 A  
ENDBRANCH   6   7
ENDBRANCH   5   6
ENDBRANCH   4   5
ENDBRANCH   2   4
TORSDOF 4
ENDMDL
MODEL      210
REMARK 921   NORMALIZED FREE ENERGY PREDICTED BY IDOCK:   -2.33 KCAL/MOL
REMARK 922        TOTAL FREE ENERGY PREDICTED BY IDOCK:   -3.53 KCAL/MOL
REMARK 923 INTER-LIGAND FREE ENERGY PREDICTED BY IDOCK:   -2.90 KCAL/MOL
REMARK 924 INTRA-LIGAND FREE ENERGY PREDICTED BY IDOCK:   -0.63 KCAL/MOL
REMARK 927      BINDING AFFINITY PREDICTED BY RF-SCORE:    0.00 PKD
ROOT
HETATM    1  C   UNL     1     -11.329  11.006  67.723  1.00  0.00    -0.292 C  
HETATM    2  N   UNL     1     -10.146  10.208  67.446  1.00  0.00    -0.194 NA 
HETATM    3  H   UNL     1      -9.894   9.634  68.250  1.00  0.00     0.000 HD 
ENDROOT
BRANCH   2   4
HETATM    4  C   UNL     1     -10.290   9.390  66.237  1.00  0.00    -0.141 C  
BRANCH   4   5
HETATM    5  C   UNL     1      -8.901   8.881  65.848  1.00  0.00    -0.215 C  
BRANCH   5   6
HETATM    6  C   UNL     1      -7.970   8.640  67.043  1.00  0.00    -0.096 C  
BRANCH   6   7
HETATM    7  N   UNL     1      -7.983   7.211  67.450  1.00  0.00    -0.111 NA 
HETATM    8  C   UNL     1      -7.497   6.314  66.478  1.00  0.00    -0.086 A  
HETATM    9  C   UNL     1      -6.113   6.233  66.255  1.00  0.00    -0.033 A  
HETATM   10  C   UNL     1      -5.573   5.286  65.384  1.00  0.00    -0.014 A  
HETATM   11  C   UNL     1      -6.413   4.408  64.710  1.00  0.00    -0.039 A  
HETATM   12  C   UNL     1      -7.791   4.490  64.897  1.00  0.00    -0.086 A  
HETATM   13  C   UNL     1      -8.339   5.437  65.781  1.00  0.00    -0.126 A  
HETATM   14  C   UNL     1      -9.826   5.491  65.995  1.00  0.00    -0.091 C  
HETATM   15  C   UNL     1     -10.200   5.025  67.392  1.00  0.00    -0.201 C  
HETATM   16  C   UNL     1      -9.774   5.870  68.574  1.00  0.00    -0.151 A  
HETATM   17  C   UNL     1     -10.447   5.572  69.783  1.00  0.00    -0.389 A  
HETATM   18  C   UNL     1     -10.143   6.223  70.974  1.00  0.00    -0.221 A  
HETATM   19  C   UNL     1      -9.149   7.188  70.983  1.00  0.00    -0.151 A  
HETATM   20  C   UNL     1      -8.483   7.505  69.799  1.00  0.00    -0.135 A  
HETATM   21  C   UNL     1      -8.777   6.869  68.569  1.00  0.00    -0.125 A  
ENDBRANCH   6   7
ENDBRANCH   5   6
ENDBRANCH   4   5
ENDBRANCH   2   4
TORSDOF 4
ENDMDL
MODEL      211
REMARK 921   NORMALIZED FREE ENERGY PREDICTED BY IDOCK:   -2.30 KCAL/MOL
REMARK 922        TOTAL FREE ENERGY PREDICTED BY IDOCK:   -3.49 KCAL/MOL
REMARK 923 INTER-LIGAND FREE ENERGY PREDICTED BY IDOCK:   -3.25 KCAL/MOL
REMARK 924 INTRA-LIGAND FREE ENERGY PREDICTED BY IDOCK:   -0.24 KCAL/MOL
REMARK 927      BINDING AFFINITY PREDICTED BY RF-SCORE:    0.00 PKD
ROOT
HETATM    1  C   UNL     1      -9.142   4.342  74.561  1.00  0.00    -0.102 C  
HETATM    2  N   UNL     1      -9.055   4.914  73.228  1.00  0.00    -0.116 NA 
HETATM    3  H   UNL     1      -8.087   5.116  72.977  1.00  0.00     0.000 HD 
ENDROOT
BRANCH   2   4
HETATM    4  C   UNL     1      -9.699   4.074  72.213  1.00  0.00    -0.156 C  
BRANCH   4   5
HETATM    5  C   UNL     1      -8.916   4.232  70.909  1.00  0.00    -0.161 C  
BRANCH   5   6
HETATM    6  C   UNL     1      -9.708   3.834  69.656  1.00  0.00    -0.107 C  
BRANCH   6   7
HETATM    7  N   UNL     1     -10.075   5.030  68.854  1.00  0.00    -0.169 NA 
HETATM    8  C   UNL     1      -9.560   5.044  67.542  1.00  0.00    -0.145 A  
HETATM    9  C   UNL     1     -10.146   4.218  66.570  1.00  0.00    -0.155 A  
HETATM   10  C   UNL     1      -9.747   4.273  65.234  1.00  0.00    -0.201 A  
HETATM   11  C   UNL     1      -8.742   5.152  64.850  1.00  0.00    -0.140 A  
HETATM   12  C   UNL     1      -8.129   5.962  65.803  1.00  0.00    -0.121 A  
HETATM   13  C   UNL     1      -8.534   5.915  67.149  1.00  0.00    -0.107 A  
HETATM   14  C   UNL     1      -7.884   6.817  68.160  1.00  0.00    -0.113 C  
HETATM   15  C   UNL     1      -8.848   7.885  68.648  1.00  0.00    -0.134 C  
HETATM   16  C   UNL     1     -10.046   7.457  69.470  1.00  0.00    -0.187 A  
HETATM   17  C   UNL     1     -10.683   8.508  70.173  1.00  0.00    -0.240 A  
HETATM   18  C   UNL     1     -11.825   8.294  70.938  1.00  0.00    -0.232 A  
HETATM   19  C   UNL     1     -12.361   7.020  71.012  1.00  0.00    -0.402 A  
HETATM   20  C   UNL     1     -11.740   5.968  70.337  1.00  0.00     0.030 A  
HETATM   21  C   UNL     1     -10.571   6.150  69.561  1.00  0.00    -0.287 A  
ENDBRANCH   6   7
ENDBRANCH   5   6
ENDBRANCH   4   5
ENDBRANCH   2   4
TORSDOF 4
ENDMDL
MODEL      212
REMARK 921   NORMALIZED FREE ENERGY PREDICTED BY IDOCK:   -2.27 KCAL/MOL
REMARK 922        TOTAL FREE ENERGY PREDICTED BY IDOCK:   -3.45 KCAL/MOL
REMARK 923 INTER-LIGAND FREE ENERGY PREDICTED BY IDOCK:   -3.39 KCAL/MOL
REMARK 924 INTRA-LIGAND FREE ENERGY PREDICTED BY IDOCK:   -0.06 KCAL/MOL
REMARK 927      BINDING AFFINITY PREDICTED BY RF-SCORE:    0.00 PKD
ROOT
HETATM    1  C   UNL     1     -12.399  13.927  64.385  1.00  0.00    -0.361 C  
HETATM    2  N   UNL     1     -12.094  12.542  64.702  1.00  0.00    -0.409 NA 
HETATM    3  H   UNL     1     -12.872  11.930  64.456  1.00  0.00     0.000 HD 
ENDROOT
BRANCH   2   4
HETATM    4  C   UNL     1     -10.847  12.085  64.080  1.00  0.00    -0.352 C  
BRANCH   4   5
HETATM    5  C   UNL     1     -10.584  10.654  64.554  1.00  0.00    -0.145 C  
BRANCH   5   6
HETATM    6  C   UNL     1      -9.131  10.196  64.373  1.00  0.00    -0.245 C  
BRANCH   6   7
HETATM    7  N   UNL     1      -8.651   9.457  65.570  1.00  0.00    -0.142 NA 
HETATM    8  C   UNL     1      -7.810   8.361  65.291  1.00  0.00    -0.111 A  
HETATM    9  C   UNL     1      -6.480   8.602  64.911  1.00  0.00    -0.065 A  
HETATM   10  C   UNL     1      -5.576   7.554  64.729  1.00  0.00    -0.033 A  
HETATM   11  C   UNL     1      -5.994   6.242  64.915  1.00  0.00    -0.026 A  
HETATM   12  C   UNL     1      -7.317   5.980  65.265  1.00  0.00    -0.076 A  
HETATM   13  C   UNL     1      -8.228   7.034  65.458  1.00  0.00    -0.135 A  
HETATM   14  C   UNL     1      -9.643   6.736  65.866  1.00  0.00     0.198 C  
HETATM   15  C   UNL     1      -9.914   7.190  67.291  1.00  0.00    -0.243 C  
HETATM   16  C   UNL     1      -9.903   8.674  67.592  1.00  0.00    -0.229 A  
HETATM   17  C   UNL     1     -10.500   9.028  68.826  1.00  0.00    -0.230 A  
HETATM   18  C   UNL     1     -10.532  10.343  69.276  1.00  0.00    -0.257 A  
HETATM   19  C   UNL     1      -9.960  11.338  68.501  1.00  0.00    -0.206 A  
HETATM   20  C   UNL     1      -9.378  11.011  67.275  1.00  0.00    -0.167 A  
HETATM   21  C   UNL     1      -9.339   9.684  66.784  1.00  0.00    -0.152 A  
ENDBRANCH   6   7
ENDBRANCH   5   6
ENDBRANCH   4   5
ENDBRANCH   2   4
TORSDOF 4
ENDMDL
MODEL      213
REMARK 921   NORMALIZED FREE ENERGY PREDICTED BY IDOCK:   -2.22 KCAL/MOL
REMARK 922        TOTAL FREE ENERGY PREDICTED BY IDOCK:   -3.39 KCAL/MOL
REMARK 923 INTER-LIGAND FREE ENERGY PREDICTED BY IDOCK:   -2.89 KCAL/MOL
REMARK 924 INTRA-LIGAND FREE ENERGY PREDICTED BY IDOCK:   -0.50 KCAL/MOL
REMARK 927      BINDING AFFINITY PREDICTED BY RF-SCORE:    0.00 PKD
ROOT
HETATM    1  C   UNL     1      -7.621   1.981  67.946  1.00  0.00    -0.055 C  
HETATM    2  N   UNL     1      -7.771   3.349  68.415  1.00  0.00    -0.056 NA 
HETATM    3  H   UNL     1      -7.861   3.381  69.431  1.00  0.00     0.000 HD 
ENDROOT
BRANCH   2   4
HETATM    4  C   UNL     1      -6.687   4.223  67.954  1.00  0.00    -0.051 C  
BRANCH   4   5
HETATM    5  C   UNL     1      -7.239   5.646  67.866  1.00  0.00    -0.072 C  
BRANCH   5   6
HETATM    6  C   UNL     1      -8.767   5.729  67.985  1.00  0.00    -0.103 C  
BRANCH   6   7
HETATM    7  N   UNL     1      -9.179   6.948  68.728  1.00  0.00    -0.132 NA 
HETATM    8  C   UNL     1      -8.811   8.165  68.119  1.00  0.00    -0.132 A  
HETATM    9  C   UNL     1      -9.528   8.611  66.997  1.00  0.00    -0.221 A  
HETATM   10  C   UNL     1      -9.276   9.859  66.424  1.00  0.00    -0.195 A  
HETATM   11  C   UNL     1      -8.290  10.678  66.960  1.00  0.00    -0.126 A  
HETATM   12  C   UNL     1      -7.549  10.243  68.056  1.00  0.00    -0.088 A  
HETATM   13  C   UNL     1      -7.806   8.991  68.642  1.00  0.00    -0.101 A  
HETATM   14  C   UNL     1      -7.018   8.549  69.844  1.00  0.00    -0.043 C  
HETATM   15  C   UNL     1      -7.887   8.513  71.090  1.00  0.00    -0.133 C  
HETATM   16  C   UNL     1      -9.001   7.490  71.166  1.00  0.00    -0.144 A  
HETATM   17  C   UNL     1      -9.522   7.283  72.466  1.00  0.00    -0.180 A  
HETATM   18  C   UNL     1     -10.579   6.412  72.704  1.00  0.00    -0.250 A  
HETATM   19  C   UNL     1     -11.147   5.729  71.641  1.00  0.00    -0.290 A  
HETATM   20  C   UNL     1     -10.639   5.910  70.353  1.00  0.00    -0.353 A  
HETATM   21  C   UNL     1      -9.557   6.780  70.080  1.00  0.00    -0.161 A  
ENDBRANCH   6   7
ENDBRANCH   5   6
ENDBRANCH   4   5
ENDBRANCH   2   4
TORSDOF 4
ENDMDL
MODEL      214
REMARK 921   NORMALIZED FREE ENERGY PREDICTED BY IDOCK:   -2.21 KCAL/MOL
REMARK 922        TOTAL FREE ENERGY PREDICTED BY IDOCK:   -3.37 KCAL/MOL
REMARK 923 INTER-LIGAND FREE ENERGY PREDICTED BY IDOCK:   -3.22 KCAL/MOL
REMARK 924 INTRA-LIGAND FREE ENERGY PREDICTED BY IDOCK:   -0.15 KCAL/MOL
REMARK 927      BINDING AFFINITY PREDICTED BY RF-SCORE:    0.00 PKD
ROOT
HETATM    1  C   UNL     1      -9.685  10.912  63.121  1.00  0.00    -0.363 C  
HETATM    2  N   UNL     1      -9.514   9.832  64.079  1.00  0.00    -0.405 NA 
HETATM    3  H   UNL     1      -8.538   9.541  64.133  1.00  0.00     0.000 HD 
ENDROOT
BRANCH   2   4
HETATM    4  C   UNL     1     -10.038  10.171  65.406  1.00  0.00    -0.272 C  
BRANCH   4   5
HETATM    5  C   UNL     1     -10.042   8.894  66.248  1.00  0.00    -0.284 C  
BRANCH   5   6
HETATM    6  C   UNL     1      -9.029   8.905  67.400  1.00  0.00    -0.132 C  
BRANCH   6   7
HETATM    7  N   UNL     1      -8.519   7.537  67.676  1.00  0.00    -0.117 NA 
HETATM    8  C   UNL     1      -9.020   6.945  68.854  1.00  0.00    -0.131 A  
HETATM    9  C   UNL     1     -10.335   6.452  68.863  1.00  0.00    -0.237 A  
HETATM   10  C   UNL     1     -10.842   5.761  69.965  1.00  0.00    -0.403 A  
HETATM   11  C   UNL     1     -10.042   5.561  71.083  1.00  0.00    -0.267 A  
HETATM   12  C   UNL     1      -8.744   6.066  71.104  1.00  0.00    -0.132 A  
HETATM   13  C   UNL     1      -8.226   6.755  69.993  1.00  0.00    -0.134 A  
HETATM   14  C   UNL     1      -6.813   7.267  70.020  1.00  0.00    -0.055 C  
HETATM   15  C   UNL     1      -5.928   6.495  69.055  1.00  0.00    -0.022 C  
HETATM   16  C   UNL     1      -6.187   6.632  67.569  1.00  0.00    -0.039 A  
HETATM   17  C   UNL     1      -5.128   6.182  66.744  1.00  0.00    -0.005 A  
HETATM   18  C   UNL     1      -5.221   6.195  65.357  1.00  0.00    -0.013 A  
HETATM   19  C   UNL     1      -6.383   6.655  64.760  1.00  0.00    -0.038 A  
HETATM   20  C   UNL     1      -7.433   7.115  65.557  1.00  0.00    -0.083 A  
HETATM   21  C   UNL     1      -7.365   7.126  66.970  1.00  0.00    -0.089 A  
ENDBRANCH   6   7
ENDBRANCH   5   6
ENDBRANCH   4   5
ENDBRANCH   2   4
TORSDOF 4
ENDMDL
MODEL      215
REMARK 921   NORMALIZED FREE ENERGY PREDICTED BY IDOCK:   -2.16 KCAL/MOL
REMARK 922        TOTAL FREE ENERGY PREDICTED BY IDOCK:   -3.32 KCAL/MOL
REMARK 923 INTER-LIGAND FREE ENERGY PREDICTED BY IDOCK:   -3.08 KCAL/MOL
REMARK 924 INTRA-LIGAND FREE ENERGY PREDICTED BY IDOCK:   -0.24 KCAL/MOL
REMARK 927      BINDING AFFINITY PREDICTED BY RF-SCORE:    0.00 PKD
ROOT
HETATM    1  C   UNL     1     -10.820   3.368  62.778  1.00  0.00    -0.144 C  
HETATM    2  N   UNL     1     -10.287   3.142  64.111  1.00  0.00    -0.351 NA 
HETATM    3  H   UNL     1     -10.549   2.219  64.459  1.00  0.00     0.000 HD 
ENDROOT
BRANCH   2   4
HETATM    4  C   UNL     1      -8.835   3.339  64.178  1.00  0.00    -0.097 C  
BRANCH   4   5
HETATM    5  C   UNL     1      -8.551   4.818  63.915  1.00  0.00    -0.137 C  
BRANCH   5   6
HETATM    6  C   UNL     1      -7.723   5.497  65.014  1.00  0.00    -0.093 C  
BRANCH   6   7
HETATM    7  N   UNL     1      -8.285   6.827  65.363  1.00  0.00    -0.133 NA 
HETATM    8  C   UNL     1      -7.723   7.911  64.659  1.00  0.00    -0.120 A  
HETATM    9  C   UNL     1      -8.085   8.115  63.317  1.00  0.00    -0.121 A  
HETATM   10  C   UNL     1      -7.642   9.233  62.608  1.00  0.00    -0.111 A  
HETATM   11  C   UNL     1      -6.818  10.162  63.229  1.00  0.00    -0.128 A  
HETATM   12  C   UNL     1      -6.425   9.965  64.551  1.00  0.00    -0.120 A  
HETATM   13  C   UNL     1      -6.875   8.845  65.272  1.00  0.00    -0.072 A  
HETATM   14  C   UNL     1      -6.467   8.662  66.707  1.00  0.00    -0.060 C  
HETATM   15  C   UNL     1      -7.648   8.849  67.644  1.00  0.00    -0.093 C  
HETATM   16  C   UNL     1      -8.773   7.835  67.602  1.00  0.00    -0.126 A  
HETATM   17  C   UNL     1      -9.641   7.873  68.720  1.00  0.00    -0.152 A  
HETATM   18  C   UNL     1     -10.751   7.041  68.817  1.00  0.00    -0.226 A  
HETATM   19  C   UNL     1     -11.023   6.153  67.790  1.00  0.00    -0.400 A  
HETATM   20  C   UNL     1     -10.172   6.092  66.685  1.00  0.00    -0.246 A  
HETATM   21  C   UNL     1      -9.029   6.916  66.562  1.00  0.00    -0.150 A  
ENDBRANCH   6   7
ENDBRANCH   5   6
ENDBRANCH   4   5
ENDBRANCH   2   4
TORSDOF 4
ENDMDL
MODEL      216
REMARK 921   NORMALIZED FREE ENERGY PREDICTED BY IDOCK:   -2.07 KCAL/MOL
REMARK 922        TOTAL FREE ENERGY PREDICTED BY IDOCK:   -3.20 KCAL/MOL
REMARK 923 INTER-LIGAND FREE ENERGY PREDICTED BY IDOCK:   -2.53 KCAL/MOL
REMARK 924 INTRA-LIGAND FREE ENERGY PREDICTED BY IDOCK:   -0.67 KCAL/MOL
REMARK 927      BINDING AFFINITY PREDICTED BY RF-SCORE:    0.00 PKD
ROOT
HETATM    1  C   UNL     1      -6.169  11.653  68.722  1.00  0.00    -0.052 C  
HETATM    2  N   UNL     1      -7.258  10.998  68.016  1.00  0.00    -0.084 NA 
HETATM    3  H   UNL     1      -8.126  11.523  68.112  1.00  0.00     0.000 HD 
ENDROOT
BRANCH   2   4
HETATM    4  C   UNL     1      -6.944  10.750  66.605  1.00  0.00    -0.129 C  
BRANCH   4   5
HETATM    5  C   UNL     1      -7.438   9.346  66.255  1.00  0.00    -0.096 C  
BRANCH   5   6
HETATM    6  C   UNL     1      -6.559   8.220  66.814  1.00  0.00    -0.057 C  
BRANCH   6   7
HETATM    7  N   UNL     1      -7.314   7.383  67.783  1.00  0.00    -0.090 NA 
HETATM    8  C   UNL     1      -8.099   6.367  67.202  1.00  0.00    -0.113 A  
HETATM    9  C   UNL     1      -7.467   5.215  66.706  1.00  0.00    -0.087 A  
HETATM   10  C   UNL     1      -8.205   4.135  66.220  1.00  0.00    -0.105 A  
HETATM   11  C   UNL     1      -9.592   4.194  66.212  1.00  0.00    -0.209 A  
HETATM   12  C   UNL     1     -10.239   5.339  66.674  1.00  0.00    -0.291 A  
HETATM   13  C   UNL     1      -9.499   6.426  67.173  1.00  0.00    -0.145 A  
HETATM   14  C   UNL     1     -10.213   7.641  67.696  1.00  0.00    -0.277 C  
HETATM   15  C   UNL     1     -10.059   7.765  69.203  1.00  0.00    -0.196 C  
HETATM   16  C   UNL     1      -8.684   8.053  69.769  1.00  0.00    -0.136 A  
HETATM   17  C   UNL     1      -8.683   8.498  71.112  1.00  0.00    -0.215 A  
HETATM   18  C   UNL     1      -7.502   8.762  71.798  1.00  0.00    -0.080 A  
HETATM   19  C   UNL     1      -6.290   8.580  71.154  1.00  0.00    -0.043 A  
HETATM   20  C   UNL     1      -6.271   8.154  69.824  1.00  0.00    -0.029 A  
HETATM   21  C   UNL     1      -7.455   7.888  69.096  1.00  0.00    -0.093 A  
ENDBRANCH   6   7
ENDBRANCH   5   6
ENDBRANCH   4   5
ENDBRANCH   2   4
TORSDOF 4
ENDMDL
MODEL      217
REMARK 921   NORMALIZED FREE ENERGY PREDICTED BY IDOCK:   -1.97 KCAL/MOL
REMARK 922        TOTAL FREE ENERGY PREDICTED BY IDOCK:   -3.08 KCAL/MOL
REMARK 923 INTER-LIGAND FREE ENERGY PREDICTED BY IDOCK:   -4.18 KCAL/MOL
REMARK 924 INTRA-LIGAND FREE ENERGY PREDICTED BY IDOCK:    1.10 KCAL/MOL
REMARK 927      BINDING AFFINITY PREDICTED BY RF-SCORE:    0.00 PKD
ROOT
HETATM    1  C   UNL     1     -10.843  16.199  69.225  1.00  0.00    -0.310 C  
HETATM    2  N   UNL     1      -9.822  15.464  69.953  1.00  0.00    -0.429 NA 
HETATM    3  H   UNL     1     -10.216  14.638  70.404  1.00  0.00     0.000 HD 
ENDROOT
BRANCH   2   4
HETATM    4  C   UNL     1      -8.677  15.108  69.108  1.00  0.00    -0.216 C  
BRANCH   4   5
HETATM    5  C   UNL     1      -9.077  15.347  67.652  1.00  0.00    -0.183 C  
BRANCH   5   6
HETATM    6  C   UNL     1      -9.655  14.108  66.955  1.00  0.00    -0.270 C  
BRANCH   6   7
HETATM    7  N   UNL     1      -9.197  12.860  67.618  1.00  0.00    -0.184 NA 
HETATM    8  C   UNL     1      -7.910  12.425  67.240  1.00  0.00    -0.166 A  
HETATM    9  C   UNL     1      -6.787  13.100  67.744  1.00  0.00    -0.149 A  
HETATM   10  C   UNL     1      -5.492  12.644  67.488  1.00  0.00    -0.110 A  
HETATM   11  C   UNL     1      -5.301  11.509  66.711  1.00  0.00    -0.127 A  
HETATM   12  C   UNL     1      -6.401  10.841  66.179  1.00  0.00    -0.134 A  
HETATM   13  C   UNL     1      -7.707  11.291  66.441  1.00  0.00    -0.089 A  
HETATM   14  C   UNL     1      -8.885  10.541  65.885  1.00  0.00    -0.180 C  
HETATM   15  C   UNL     1      -9.667   9.846  66.987  1.00  0.00    -0.230 C  
HETATM   16  C   UNL     1     -10.404  10.699  67.999  1.00  0.00    -0.208 A  
HETATM   17  C   UNL     1     -11.375  10.003  68.758  1.00  0.00    -0.117 A  
HETATM   18  C   UNL     1     -12.109  10.627  69.761  1.00  0.00    -0.343 A  
HETATM   19  C   UNL     1     -11.882  11.966  70.034  1.00  0.00    -0.407 A  
HETATM   20  C   UNL     1     -10.938  12.672  69.287  1.00  0.00    -0.123 A  
HETATM   21  C   UNL     1     -10.184  12.069  68.252  1.00  0.00    -0.206 A  
ENDBRANCH   6   7
ENDBRANCH   5   6
ENDBRANCH   4   5
ENDBRANCH   2   4
TORSDOF 4
ENDMDL
MODEL      218
REMARK 921   NORMALIZED FREE ENERGY PREDICTED BY IDOCK:   -1.91 KCAL/MOL
REMARK 922        TOTAL FREE ENERGY PREDICTED BY IDOCK:   -3.00 KCAL/MOL
REMARK 923 INTER-LIGAND FREE ENERGY PREDICTED BY IDOCK:   -2.37 KCAL/MOL
REMARK 924 INTRA-LIGAND FREE ENERGY PREDICTED BY IDOCK:   -0.63 KCAL/MOL
REMARK 927      BINDING AFFINITY PREDICTED BY RF-SCORE:    0.00 PKD
ROOT
HETATM    1  C   UNL     1      -9.274   9.350  69.506  1.00  0.00    -0.176 C  
HETATM    2  N   UNL     1      -9.854   8.774  68.304  1.00  0.00    -0.159 NA 
HETATM    3  H   UNL     1      -9.516   9.251  67.468  1.00  0.00     0.000 HD 
ENDROOT
BRANCH   2   4
HETATM    4  C   UNL     1      -9.633   7.327  68.211  1.00  0.00    -0.148 C  
BRANCH   4   5
HETATM    5  C   UNL     1      -9.970   6.892  66.784  1.00  0.00    -0.248 C  
BRANCH   5   6
HETATM    6  C   UNL     1     -10.541   5.472  66.685  1.00  0.00    -0.299 C  
BRANCH   6   7
HETATM    7  N   UNL     1      -9.471   4.485  66.388  1.00  0.00    -0.157 NA 
HETATM    8  C   UNL     1      -8.890   3.881  67.521  1.00  0.00    -0.118 A  
HETATM    9  C   UNL     1      -9.608   2.889  68.209  1.00  0.00    -0.118 A  
HETATM   10  C   UNL     1      -9.036   2.185  69.270  1.00  0.00    -0.178 A  
HETATM   11  C   UNL     1      -7.737   2.471  69.668  1.00  0.00    -0.046 A  
HETATM   12  C   UNL     1      -7.017   3.470  69.017  1.00  0.00    -0.046 A  
HETATM   13  C   UNL     1      -7.586   4.176  67.942  1.00  0.00    -0.068 A  
HETATM   14  C   UNL     1      -6.785   5.230  67.230  1.00  0.00    -0.055 C  
HETATM   15  C   UNL     1      -6.424   4.790  65.821  1.00  0.00    -0.040 C  
HETATM   16  C   UNL     1      -7.536   4.631  64.805  1.00  0.00    -0.076 A  
HETATM   17  C   UNL     1      -7.100   4.570  63.460  1.00  0.00    -0.045 A  
HETATM   18  C   UNL     1      -7.988   4.380  62.407  1.00  0.00    -0.066 A  
HETATM   19  C   UNL     1      -9.339   4.238  62.678  1.00  0.00    -0.123 A  
HETATM   20  C   UNL     1      -9.790   4.309  63.997  1.00  0.00    -0.059 A  
HETATM   21  C   UNL     1      -8.914   4.513  65.088  1.00  0.00    -0.147 A  
ENDBRANCH   6   7
ENDBRANCH   5   6
ENDBRANCH   4   5
ENDBRANCH   2   4
TORSDOF 4
ENDMDL
MODEL      219
REMARK 921   NORMALIZED FREE ENERGY PREDICTED BY IDOCK:   -1.88 KCAL/MOL
REMARK 922        TOTAL FREE ENERGY PREDICTED BY IDOCK:   -2.96 KCAL/MOL
REMARK 923 INTER-LIGAND FREE ENERGY PREDICTED BY IDOCK:   -2.93 KCAL/MOL
REMARK 924 INTRA-LIGAND FREE ENERGY PREDICTED BY IDOCK:   -0.04 KCAL/MOL
REMARK 927      BINDING AFFINITY PREDICTED BY RF-SCORE:    0.00 PKD
ROOT
HETATM    1  C   UNL     1     -10.501  14.444  65.009  1.00  0.00    -0.430 C  
HETATM    2  N   UNL     1     -10.198  13.027  65.120  1.00  0.00    -0.378 NA 
HETATM    3  H   UNL     1      -9.540  12.735  64.397  1.00  0.00     0.000 HD 
ENDROOT
BRANCH   2   4
HETATM    4  C   UNL     1      -9.714  12.658  66.454  1.00  0.00    -0.258 C  
BRANCH   4   5
HETATM    5  C   UNL     1     -10.274  11.276  66.790  1.00  0.00    -0.263 C  
BRANCH   5   6
HETATM    6  C   UNL     1      -9.762  10.703  68.118  1.00  0.00    -0.156 C  
BRANCH   6   7
HETATM    7  N   UNL     1      -8.438  10.051  67.943  1.00  0.00    -0.117 NA 
HETATM    8  C   UNL     1      -8.477   8.792  67.311  1.00  0.00    -0.111 A  
HETATM    9  C   UNL     1      -8.685   8.731  65.924  1.00  0.00    -0.198 A  
HETATM   10  C   UNL     1      -8.624   7.519  65.234  1.00  0.00    -0.023 A  
HETATM   11  C   UNL     1      -8.364   6.343  65.925  1.00  0.00    -0.143 A  
HETATM   12  C   UNL     1      -8.182   6.378  67.306  1.00  0.00    -0.113 A  
HETATM   13  C   UNL     1      -8.233   7.598  68.004  1.00  0.00    -0.124 A  
HETATM   14  C   UNL     1      -8.004   7.622  69.489  1.00  0.00    -0.125 C  
HETATM   15  C   UNL     1      -6.688   8.300  69.833  1.00  0.00    -0.043 C  
HETATM   16  C   UNL     1      -6.545   9.783  69.561  1.00  0.00    -0.051 A  
HETATM   17  C   UNL     1      -5.454  10.399  70.219  1.00  0.00    -0.056 A  
HETATM   18  C   UNL     1      -5.154  11.746  70.041  1.00  0.00    -0.075 A  
HETATM   19  C   UNL     1      -5.938  12.508  69.192  1.00  0.00    -0.085 A  
HETATM   20  C   UNL     1      -7.026  11.921  68.544  1.00  0.00    -0.085 A  
HETATM   21  C   UNL     1      -7.365  10.558  68.713  1.00  0.00    -0.092 A  
ENDBRANCH   6   7
ENDBRANCH   5   6
ENDBRANCH   4   5
ENDBRANCH   2   4
TORSDOF 4
ENDMDL
MODEL      220
REMARK 921   NORMALIZED FREE ENERGY PREDICTED BY IDOCK:   -1.87 KCAL/MOL
REMARK 922        TOTAL FREE ENERGY PREDICTED BY IDOCK:   -2.96 KCAL/MOL
REMARK 923 INTER-LIGAND FREE ENERGY PREDICTED BY IDOCK:   -3.10 KCAL/MOL
REMARK 924 INTRA-LIGAND FREE ENERGY PREDICTED BY IDOCK:    0.14 KCAL/MOL
REMARK 927      BINDING AFFINITY PREDICTED BY RF-SCORE:    0.00 PKD
ROOT
HETATM    1  C   UNL     1      -9.845   3.658  65.573  1.00  0.00    -0.066 C  
HETATM    2  N   UNL     1      -9.472   5.042  65.336  1.00  0.00    -0.285 NA 
HETATM    3  H   UNL     1     -10.183   5.525  64.787  1.00  0.00     0.000 HD 
ENDROOT
BRANCH   2   4
HETATM    4  C   UNL     1      -9.182   5.766  66.578  1.00  0.00    -0.143 C  
BRANCH   4   5
HETATM    5  C   UNL     1      -9.386   7.258  66.309  1.00  0.00    -0.160 C  
BRANCH   5   6
HETATM    6  C   UNL     1     -10.431   7.917  67.219  1.00  0.00    -0.320 C  
BRANCH   6   7
HETATM    7  N   UNL     1      -9.794   8.886  68.148  1.00  0.00    -0.162 NA 
HETATM    8  C   UNL     1      -8.387   8.940  68.076  1.00  0.00    -0.121 A  
HETATM    9  C   UNL     1      -7.785   9.593  66.988  1.00  0.00    -0.095 A  
HETATM   10  C   UNL     1      -6.402   9.769  66.924  1.00  0.00    -0.065 A  
HETATM   11  C   UNL     1      -5.596   9.282  67.946  1.00  0.00    -0.038 A  
HETATM   12  C   UNL     1      -6.171   8.608  69.020  1.00  0.00    -0.044 A  
HETATM   13  C   UNL     1      -7.565   8.436  69.093  1.00  0.00    -0.087 A  
HETATM   14  C   UNL     1      -8.173   7.733  70.274  1.00  0.00    -0.125 C  
HETATM   15  C   UNL     1      -8.963   8.698  71.143  1.00  0.00    -0.253 C  
HETATM   16  C   UNL     1     -10.225   9.315  70.577  1.00  0.00    -0.309 A  
HETATM   17  C   UNL     1     -11.076   9.904  71.543  1.00  0.00    -0.068 A  
HETATM   18  C   UNL     1     -12.253  10.554  71.186  1.00  0.00    -0.496 A  
HETATM   19  C   UNL     1     -12.603  10.635  69.849  1.00  0.00    -0.168 A  
HETATM   20  C   UNL     1     -11.784  10.048  68.883  1.00  0.00     0.135 A  
HETATM   21  C   UNL     1     -10.587   9.370  69.214  1.00  0.00    -0.225 A  
ENDBRANCH   6   7
ENDBRANCH   5   6
ENDBRANCH   4   5
ENDBRANCH   2   4
TORSDOF 4
ENDMDL
MODEL      221
REMARK 921   NORMALIZED FREE ENERGY PREDICTED BY IDOCK:   -1.84 KCAL/MOL
REMARK 922        TOTAL FREE ENERGY PREDICTED BY IDOCK:   -2.92 KCAL/MOL
REMARK 923 INTER-LIGAND FREE ENERGY PREDICTED BY IDOCK:   -3.62 KCAL/MOL
REMARK 924 INTRA-LIGAND FREE ENERGY PREDICTED BY IDOCK:    0.70 KCAL/MOL
REMARK 927      BINDING AFFINITY PREDICTED BY RF-SCORE:    0.00 PKD
ROOT
HETATM    1  C   UNL     1      -9.142   8.288  72.172  1.00  0.00    -0.212 C  
HETATM    2  N   UNL     1     -10.172   8.180  71.153  1.00  0.00    -0.192 NA 
HETATM    3  H   UNL     1     -10.734   9.030  71.107  1.00  0.00     0.000 HD 
ENDROOT
BRANCH   2   4
HETATM    4  C   UNL     1      -9.625   7.838  69.836  1.00  0.00    -0.164 C  
BRANCH   4   5
HETATM    5  C   UNL     1      -8.155   8.256  69.816  1.00  0.00    -0.118 C  
BRANCH   5   6
HETATM    6  C   UNL     1      -7.683   8.808  68.464  1.00  0.00    -0.099 C  
BRANCH   6   7
HETATM    7  N   UNL     1      -8.660   8.495  67.389  1.00  0.00    -0.126 NA 
HETATM    8  C   UNL     1      -8.448   7.265  66.735  1.00  0.00    -0.121 A  
HETATM    9  C   UNL     1      -8.795   6.074  67.392  1.00  0.00    -0.106 A  
HETATM   10  C   UNL     1      -8.707   4.838  66.748  1.00  0.00    -0.107 A  
HETATM   11  C   UNL     1      -8.256   4.774  65.436  1.00  0.00    -0.118 A  
HETATM   12  C   UNL     1      -7.880   5.941  64.776  1.00  0.00    -0.113 A  
HETATM   13  C   UNL     1      -7.976   7.189  65.417  1.00  0.00    -0.125 A  
HETATM   14  C   UNL     1      -7.595   8.443  64.680  1.00  0.00    -0.104 C  
HETATM   15  C   UNL     1      -8.814   9.301  64.385  1.00  0.00    -0.197 C  
HETATM   16  C   UNL     1      -9.548   9.939  65.546  1.00  0.00    -0.341 A  
HETATM   17  C   UNL     1     -10.430  10.984  65.181  1.00  0.00    -0.329 A  
HETATM   18  C   UNL     1     -11.215  11.645  66.120  1.00  0.00    -0.314 A  
HETATM   19  C   UNL     1     -11.140  11.269  67.451  1.00  0.00    -0.358 A  
HETATM   20  C   UNL     1     -10.266  10.249  67.832  1.00  0.00    -0.217 A  
HETATM   21  C   UNL     1      -9.446   9.566  66.903  1.00  0.00    -0.158 A  
ENDBRANCH   6   7
ENDBRANCH   5   6
ENDBRANCH   4   5
ENDBRANCH   2   4
TORSDOF 4
ENDMDL
MODEL      222
REMARK 921   NORMALIZED FREE ENERGY PREDICTED BY IDOCK:   -1.82 KCAL/MOL
REMARK 922        TOTAL FREE ENERGY PREDICTED BY IDOCK:   -2.89 KCAL/MOL
REMARK 923 INTER-LIGAND FREE ENERGY PREDICTED BY IDOCK:   -2.55 KCAL/MOL
REMARK 924 INTRA-LIGAND FREE ENERGY PREDICTED BY IDOCK:   -0.34 KCAL/MOL
REMARK 927      BINDING AFFINITY PREDICTED BY RF-SCORE:    0.00 PKD
ROOT
HETATM    1  C   UNL     1     -10.213  17.831  65.603  1.00  0.00    -0.010 C  
HETATM    2  N   UNL     1     -11.231  17.067  66.305  1.00  0.00     0.426 NA 
HETATM    3  H   UNL     1     -12.128  17.551  66.290  1.00  0.00     0.000 HD 
ENDROOT
BRANCH   2   4
HETATM    4  C   UNL     1     -11.359  15.698  65.794  1.00  0.00     0.023 C  
BRANCH   4   5
HETATM    5  C   UNL     1      -9.962  15.207  65.414  1.00  0.00    -0.365 C  
BRANCH   5   6
HETATM    6  C   UNL     1      -9.772  13.692  65.568  1.00  0.00    -0.059 C  
BRANCH   6   7
HETATM    7  N   UNL     1      -9.362  13.343  66.953  1.00  0.00    -0.245 NA 
HETATM    8  C   UNL     1     -10.053  12.253  67.519  1.00  0.00    -0.201 A  
HETATM    9  C   UNL     1      -9.733  10.951  67.100  1.00  0.00    -0.199 A  
HETATM   10  C   UNL     1     -10.309   9.833  67.705  1.00  0.00    -0.281 A  
HETATM   11  C   UNL     1     -11.227  10.000  68.734  1.00  0.00    -0.173 A  
HETATM   12  C   UNL     1     -11.579  11.283  69.145  1.00  0.00    -0.387 A  
HETATM   13  C   UNL     1     -10.994  12.413  68.545  1.00  0.00    -0.277 A  
HETATM   14  C   UNL     1     -11.361  13.790  69.022  1.00  0.00    -0.333 C  
HETATM   15  C   UNL     1     -10.198  14.454  69.740  1.00  0.00     0.279 C  
HETATM   16  C   UNL     1      -8.965  14.817  68.938  1.00  0.00    -0.167 A  
HETATM   17  C   UNL     1      -8.095  15.729  69.581  1.00  0.00    -0.022 A  
HETATM   18  C   UNL     1      -6.895  16.132  69.002  1.00  0.00    -0.176 A  
HETATM   19  C   UNL     1      -6.536  15.622  67.766  1.00  0.00    -0.181 A  
HETATM   20  C   UNL     1      -7.387  14.731  67.111  1.00  0.00    -0.020 A  
HETATM   21  C   UNL     1      -8.619  14.312  67.667  1.00  0.00    -0.183 A  
ENDBRANCH   6   7
ENDBRANCH   5   6
ENDBRANCH   4   5
ENDBRANCH   2   4
TORSDOF 4
ENDMDL
MODEL      223
REMARK 921   NORMALIZED FREE ENERGY PREDICTED BY IDOCK:   -1.81 KCAL/MOL
REMARK 922        TOTAL FREE ENERGY PREDICTED BY IDOCK:   -2.88 KCAL/MOL
REMARK 923 INTER-LIGAND FREE ENERGY PREDICTED BY IDOCK:   -3.20 KCAL/MOL
REMARK 924 INTRA-LIGAND FREE ENERGY PREDICTED BY IDOCK:    0.32 KCAL/MOL
REMARK 927      BINDING AFFINITY PREDICTED BY RF-SCORE:    0.00 PKD
ROOT
HETATM    1  C   UNL     1     -11.175  10.882  67.190  1.00  0.00    -0.184 C  
HETATM    2  N   UNL     1     -11.164  11.154  65.763  1.00  0.00    -0.026 NA 
HETATM    3  H   UNL     1     -11.779  10.512  65.262  1.00  0.00     0.000 HD 
ENDROOT
BRANCH   2   4
HETATM    4  C   UNL     1     -11.495  12.549  65.454  1.00  0.00    -0.344 C  
BRANCH   4   5
HETATM    5  C   UNL     1     -10.571  13.443  66.282  1.00  0.00    -0.292 C  
BRANCH   5   6
HETATM    6  C   UNL     1     -11.306  14.535  67.070  1.00  0.00    -0.349 C  
BRANCH   6   7
HETATM    7  N   UNL     1     -10.620  14.819  68.357  1.00  0.00    -0.237 NA 
HETATM    8  C   UNL     1     -11.474  14.931  69.473  1.00  0.00    -0.297 A  
HETATM    9  C   UNL     1     -12.025  13.766  70.029  1.00  0.00    -0.407 A  
HETATM   10  C   UNL     1     -12.788  13.810  71.197  1.00  0.00    -0.409 A  
HETATM   11  C   UNL     1     -13.023  15.028  71.822  1.00  0.00    -0.429 A  
HETATM   12  C   UNL     1     -12.508  16.200  71.271  1.00  0.00    -0.091 A  
HETATM   13  C   UNL     1     -11.731  16.158  70.100  1.00  0.00    -0.193 A  
HETATM   14  C   UNL     1     -11.157  17.427  69.535  1.00  0.00     0.730 C  
HETATM   15  C   UNL     1      -9.645  17.463  69.684  1.00  0.00     0.515 C  
HETATM   16  C   UNL     1      -8.817  16.472  68.892  1.00  0.00    -0.244 A  
HETATM   17  C   UNL     1      -7.441  16.792  68.808  1.00  0.00    -0.231 A  
HETATM   18  C   UNL     1      -6.532  15.964  68.157  1.00  0.00    -0.135 A  
HETATM   19  C   UNL     1      -6.981  14.789  67.579  1.00  0.00    -0.198 A  
HETATM   20  C   UNL     1      -8.337  14.463  67.640  1.00  0.00    -0.186 A  
HETATM   21  C   UNL     1      -9.288  15.290  68.285  1.00  0.00    -0.194 A  
ENDBRANCH   6   7
ENDBRANCH   5   6
ENDBRANCH   4   5
ENDBRANCH   2   4
TORSDOF 4
ENDMDL
MODEL      224
REMARK 921   NORMALIZED FREE ENERGY PREDICTED BY IDOCK:   -1.80 KCAL/MOL
REMARK 922        TOTAL FREE ENERGY PREDICTED BY IDOCK:   -2.86 KCAL/MOL
REMARK 923 INTER-LIGAND FREE ENERGY PREDICTED BY IDOCK:   -2.36 KCAL/MOL
REMARK 924 INTRA-LIGAND FREE ENERGY PREDICTED BY IDOCK:   -0.50 KCAL/MOL
REMARK 927      BINDING AFFINITY PREDICTED BY RF-SCORE:    0.00 PKD
ROOT
HETATM    1  C   UNL     1      -7.724   8.143  74.092  1.00  0.00    -0.219 C  
HETATM    2  N   UNL     1      -8.038   6.727  74.181  1.00  0.00    -0.118 NA 
HETATM    3  H   UNL     1      -8.936   6.522  73.742  1.00  0.00     0.000 HD 
ENDROOT
BRANCH   2   4
HETATM    4  C   UNL     1      -6.976   5.879  73.628  1.00  0.00    -0.081 C  
BRANCH   4   5
HETATM    5  C   UNL     1      -7.273   5.663  72.144  1.00  0.00    -0.089 C  
BRANCH   5   6
HETATM    6  C   UNL     1      -6.449   6.558  71.208  1.00  0.00    -0.050 C  
BRANCH   6   7
HETATM    7  N   UNL     1      -7.145   6.757  69.911  1.00  0.00    -0.069 NA 
HETATM    8  C   UNL     1      -8.222   7.665  69.949  1.00  0.00    -0.130 A  
HETATM    9  C   UNL     1      -7.952   9.042  70.011  1.00  0.00    -0.113 A  
HETATM   10  C   UNL     1      -8.978   9.986  69.942  1.00  0.00    -0.178 A  
HETATM   11  C   UNL     1     -10.296   9.566  69.821  1.00  0.00    -0.251 A  
HETATM   12  C   UNL     1     -10.588   8.204  69.785  1.00  0.00    -0.231 A  
HETATM   13  C   UNL     1      -9.557   7.249  69.846  1.00  0.00    -0.163 A  
HETATM   14  C   UNL     1      -9.886   5.785  69.775  1.00  0.00    -0.232 C  
HETATM   15  C   UNL     1      -9.406   5.174  68.469  1.00  0.00    -0.161 C  
HETATM   16  C   UNL     1      -7.915   5.080  68.219  1.00  0.00    -0.086 A  
HETATM   17  C   UNL     1      -7.549   4.200  67.172  1.00  0.00    -0.077 A  
HETATM   18  C   UNL     1      -6.225   4.032  66.783  1.00  0.00    -0.032 A  
HETATM   19  C   UNL     1      -5.232   4.749  67.430  1.00  0.00    -0.011 A  
HETATM   20  C   UNL     1      -5.572   5.612  68.473  1.00  0.00    -0.008 A  
HETATM   21  C   UNL     1      -6.909   5.796  68.900  1.00  0.00    -0.066 A  
ENDBRANCH   6   7
ENDBRANCH   5   6
ENDBRANCH   4   5
ENDBRANCH   2   4
TORSDOF 4
ENDMDL
MODEL      225
REMARK 921   NORMALIZED FREE ENERGY PREDICTED BY IDOCK:   -1.68 KCAL/MOL
REMARK 922        TOTAL FREE ENERGY PREDICTED BY IDOCK:   -2.72 KCAL/MOL
REMARK 923 INTER-LIGAND FREE ENERGY PREDICTED BY IDOCK:   -2.16 KCAL/MOL
REMARK 924 INTRA-LIGAND FREE ENERGY PREDICTED BY IDOCK:   -0.56 KCAL/MOL
REMARK 927      BINDING AFFINITY PREDICTED BY RF-SCORE:    0.00 PKD
ROOT
HETATM    1  C   UNL     1      -7.827   7.984  73.157  1.00  0.00    -0.156 C  
HETATM    2  N   UNL     1      -8.704   6.991  73.754  1.00  0.00    -0.147 NA 
HETATM    3  H   UNL     1      -9.683   7.205  73.564  1.00  0.00     0.000 HD 
ENDROOT
BRANCH   2   4
HETATM    4  C   UNL     1      -8.372   5.625  73.335  1.00  0.00    -0.116 C  
BRANCH   4   5
HETATM    5  C   UNL     1      -8.589   5.532  71.825  1.00  0.00    -0.135 C  
BRANCH   5   6
HETATM    6  C   UNL     1      -7.301   5.296  71.025  1.00  0.00    -0.078 C  
BRANCH   6   7
HETATM    7  N   UNL     1      -7.435   5.802  69.634  1.00  0.00    -0.074 NA 
HETATM    8  C   UNL     1      -7.262   7.194  69.491  1.00  0.00    -0.080 A  
HETATM    9  C   UNL     1      -5.966   7.730  69.557  1.00  0.00    -0.030 A  
HETATM   10  C   UNL     1      -5.727   9.084  69.315  1.00  0.00    -0.035 A  
HETATM   11  C   UNL     1      -6.788   9.928  69.013  1.00  0.00    -0.054 A  
HETATM   12  C   UNL     1      -8.085   9.421  68.969  1.00  0.00    -0.106 A  
HETATM   13  C   UNL     1      -8.329   8.057  69.204  1.00  0.00    -0.132 A  
HETATM   14  C   UNL     1      -9.730   7.520  69.123  1.00  0.00    -0.166 C  
HETATM   15  C   UNL     1      -9.904   6.612  67.917  1.00  0.00    -0.138 C  
HETATM   16  C   UNL     1      -9.159   5.293  67.891  1.00  0.00    -0.117 A  
HETATM   17  C   UNL     1      -9.636   4.368  66.932  1.00  0.00    -0.219 A  
HETATM   18  C   UNL     1      -9.035   3.127  66.746  1.00  0.00    -0.172 A  
HETATM   19  C   UNL     1      -7.933   2.787  67.513  1.00  0.00    -0.068 A  
HETATM   20  C   UNL     1      -7.456   3.681  68.472  1.00  0.00    -0.054 A  
HETATM   21  C   UNL     1      -8.053   4.945  68.694  1.00  0.00    -0.084 A  
ENDBRANCH   6   7
ENDBRANCH   5   6
ENDBRANCH   4   5
ENDBRANCH   2   4
TORSDOF 4
ENDMDL
MODEL      226
REMARK 921   NORMALIZED FREE ENERGY PREDICTED BY IDOCK:   -1.65 KCAL/MOL
REMARK 922        TOTAL FREE ENERGY PREDICTED BY IDOCK:   -2.69 KCAL/MOL
REMARK 923 INTER-LIGAND FREE ENERGY PREDICTED BY IDOCK:   -3.15 KCAL/MOL
REMARK 924 INTRA-LIGAND FREE ENERGY PREDICTED BY IDOCK:    0.46 KCAL/MOL
REMARK 927      BINDING AFFINITY PREDICTED BY RF-SCORE:    0.00 PKD
ROOT
HETATM    1  C   UNL     1      -8.187   8.019  71.792  1.00  0.00    -0.122 C  
HETATM    2  N   UNL     1      -9.068   8.592  70.788  1.00  0.00    -0.154 NA 
HETATM    3  H   UNL     1      -8.790   9.545  70.557  1.00  0.00     0.000 HD 
ENDROOT
BRANCH   2   4
HETATM    4  C   UNL     1      -9.162   7.761  69.583  1.00  0.00    -0.153 C  
BRANCH   4   5
HETATM    5  C   UNL     1     -10.589   7.219  69.497  1.00  0.00    -0.244 C  
BRANCH   5   6
HETATM    6  C   UNL     1     -10.711   5.912  68.703  1.00  0.00    -0.269 C  
BRANCH   6   7
HETATM    7  N   UNL     1      -9.563   5.010  68.979  1.00  0.00    -0.137 NA 
HETATM    8  C   UNL     1      -8.647   4.874  67.916  1.00  0.00    -0.103 A  
HETATM    9  C   UNL     1      -7.753   5.922  67.648  1.00  0.00    -0.097 A  
HETATM   10  C   UNL     1      -6.755   5.796  66.680  1.00  0.00    -0.058 A  
HETATM   11  C   UNL     1      -6.645   4.617  65.953  1.00  0.00    -0.045 A  
HETATM   12  C   UNL     1      -7.539   3.575  66.185  1.00  0.00    -0.081 A  
HETATM   13  C   UNL     1      -8.540   3.695  67.166  1.00  0.00    -0.115 A  
HETATM   14  C   UNL     1      -9.478   2.549  67.425  1.00  0.00    -0.068 C  
HETATM   15  C   UNL     1      -9.219   1.921  68.784  1.00  0.00    -0.215 C  
HETATM   16  C   UNL     1      -9.514   2.736  70.026  1.00  0.00    -0.168 A  
HETATM   17  C   UNL     1      -9.587   1.980  71.221  1.00  0.00    -0.214 A  
HETATM   18  C   UNL     1      -9.805   2.579  72.457  1.00  0.00    -0.208 A  
HETATM   19  C   UNL     1      -9.948   3.955  72.527  1.00  0.00    -0.225 A  
HETATM   20  C   UNL     1      -9.893   4.716  71.357  1.00  0.00    -0.264 A  
HETATM   21  C   UNL     1      -9.684   4.135  70.084  1.00  0.00    -0.208 A  
ENDBRANCH   6   7
ENDBRANCH   5   6
ENDBRANCH   4   5
ENDBRANCH   2   4
TORSDOF 4
ENDMDL
MODEL      227
REMARK 921   NORMALIZED FREE ENERGY PREDICTED BY IDOCK:   -1.54 KCAL/MOL
REMARK 922        TOTAL FREE ENERGY PREDICTED BY IDOCK:   -2.54 KCAL/MOL
REMARK 923 INTER-LIGAND FREE ENERGY PREDICTED BY IDOCK:   -2.44 KCAL/MOL
REMARK 924 INTRA-LIGAND FREE ENERGY PREDICTED BY IDOCK:   -0.10 KCAL/MOL
REMARK 927      BINDING AFFINITY PREDICTED BY RF-SCORE:    0.00 PKD
ROOT
HETATM    1  C   UNL     1      -8.302   6.473  65.602  1.00  0.00    -0.144 C  
HETATM    2  N   UNL     1      -7.704   7.760  65.919  1.00  0.00    -0.090 NA 
HETATM    3  H   UNL     1      -8.094   8.499  65.334  1.00  0.00     0.000 HD 
ENDROOT
BRANCH   2   4
HETATM    4  C   UNL     1      -7.817   8.097  67.341  1.00  0.00    -0.106 C  
BRANCH   4   5
HETATM    5  C   UNL     1      -9.038   7.366  67.901  1.00  0.00    -0.129 C  
BRANCH   5   6
HETATM    6  C   UNL     1      -9.287   7.621  69.393  1.00  0.00    -0.152 C  
BRANCH   6   7
HETATM    7  N   UNL     1      -8.449   6.728  70.235  1.00  0.00    -0.134 NA 
HETATM    8  C   UNL     1      -8.865   5.382  70.267  1.00  0.00    -0.128 A  
HETATM    9  C   UNL     1      -8.613   4.563  69.155  1.00  0.00    -0.103 A  
HETATM   10  C   UNL     1      -8.906   3.199  69.177  1.00  0.00    -0.154 A  
HETATM   11  C   UNL     1      -9.470   2.632  70.313  1.00  0.00    -0.171 A  
HETATM   12  C   UNL     1      -9.753   3.433  71.417  1.00  0.00    -0.234 A  
HETATM   13  C   UNL     1      -9.451   4.806  71.402  1.00  0.00    -0.213 A  
HETATM   14  C   UNL     1      -9.736   5.649  72.614  1.00  0.00    -0.171 C  
HETATM   15  C   UNL     1      -8.450   6.101  73.285  1.00  0.00    -0.116 C  
HETATM   16  C   UNL     1      -7.548   7.068  72.546  1.00  0.00    -0.089 A  
HETATM   17  C   UNL     1      -6.578   7.704  73.357  1.00  0.00    -0.073 A  
HETATM   18  C   UNL     1      -5.642   8.587  72.828  1.00  0.00    -0.063 A  
HETATM   19  C   UNL     1      -5.652   8.849  71.469  1.00  0.00    -0.050 A  
HETATM   20  C   UNL     1      -6.609   8.241  70.655  1.00  0.00    -0.037 A  
HETATM   21  C   UNL     1      -7.582   7.349  71.164  1.00  0.00    -0.082 A  
ENDBRANCH   6   7
ENDBRANCH   5   6
ENDBRANCH   4   5
ENDBRANCH   2   4
TORSDOF 4
ENDMDL
MODEL      228
REMARK 921   NORMALIZED FREE ENERGY PREDICTED BY IDOCK:   -1.53 KCAL/MOL
REMARK 922        TOTAL FREE ENERGY PREDICTED BY IDOCK:   -2.54 KCAL/MOL
REMARK 923 INTER-LIGAND FREE ENERGY PREDICTED BY IDOCK:   -2.90 KCAL/MOL
REMARK 924 INTRA-LIGAND FREE ENERGY PREDICTED BY IDOCK:    0.36 KCAL/MOL
REMARK 927      BINDING AFFINITY PREDICTED BY RF-SCORE:    0.00 PKD
ROOT
HETATM    1  C   UNL     1     -10.491   5.725  66.147  1.00  0.00     0.034 C  
HETATM    2  N   UNL     1      -9.732   4.574  66.610  1.00  0.00    -0.189 NA 
HETATM    3  H   UNL     1     -10.052   3.718  66.157  1.00  0.00     0.000 HD 
ENDROOT
BRANCH   2   4
HETATM    4  C   UNL     1      -8.286   4.751  66.444  1.00  0.00    -0.107 C  
BRANCH   4   5
HETATM    5  C   UNL     1      -7.835   5.846  67.412  1.00  0.00    -0.102 C  
BRANCH   5   6
HETATM    6  C   UNL     1      -8.545   5.806  68.771  1.00  0.00    -0.109 C  
BRANCH   6   7
HETATM    7  N   UNL     1      -9.033   7.155  69.159  1.00  0.00    -0.138 NA 
HETATM    8  C   UNL     1      -8.131   8.208  68.902  1.00  0.00    -0.116 A  
HETATM    9  C   UNL     1      -7.960   8.654  67.582  1.00  0.00    -0.107 A  
HETATM   10  C   UNL     1      -7.164   9.761  67.287  1.00  0.00    -0.086 A  
HETATM   11  C   UNL     1      -6.513  10.436  68.313  1.00  0.00    -0.059 A  
HETATM   12  C   UNL     1      -6.647   9.993  69.626  1.00  0.00    -0.062 A  
HETATM   13  C   UNL     1      -7.455   8.883  69.929  1.00  0.00    -0.058 A  
HETATM   14  C   UNL     1      -7.614   8.437  71.355  1.00  0.00    -0.109 C  
HETATM   15  C   UNL     1      -9.021   8.701  71.863  1.00  0.00    -0.301 C  
HETATM   16  C   UNL     1     -10.168   7.919  71.256  1.00  0.00    -0.218 A  
HETATM   17  C   UNL     1     -11.368   7.957  72.006  1.00  0.00    -0.343 A  
HETATM   18  C   UNL     1     -12.529   7.330  71.567  1.00  0.00    -0.408 A  
HETATM   19  C   UNL     1     -12.519   6.654  70.359  1.00  0.00     0.159 A  
HETATM   20  C   UNL     1     -11.341   6.594  69.611  1.00  0.00    -0.387 A  
HETATM   21  C   UNL     1     -10.141   7.211  70.036  1.00  0.00    -0.188 A  
ENDBRANCH   6   7
ENDBRANCH   5   6
ENDBRANCH   4   5
ENDBRANCH   2   4
TORSDOF 4
ENDMDL
MODEL      229
REMARK 921   NORMALIZED FREE ENERGY PREDICTED BY IDOCK:   -1.40 KCAL/MOL
REMARK 922        TOTAL FREE ENERGY PREDICTED BY IDOCK:   -2.38 KCAL/MOL
REMARK 923 INTER-LIGAND FREE ENERGY PREDICTED BY IDOCK:   -1.91 KCAL/MOL
REMARK 924 INTRA-LIGAND FREE ENERGY PREDICTED BY IDOCK:   -0.46 KCAL/MOL
REMARK 927      BINDING AFFINITY PREDICTED BY RF-SCORE:    0.00 PKD
ROOT
HETATM    1  C   UNL     1      -7.617   9.348  67.441  1.00  0.00    -0.095 C  
HETATM    2  N   UNL     1      -8.520   8.618  68.315  1.00  0.00    -0.130 NA 
HETATM    3  H   UNL     1      -9.380   9.143  68.476  1.00  0.00     0.000 HD 
ENDROOT
BRANCH   2   4
HETATM    4  C   UNL     1      -8.811   7.268  67.821  1.00  0.00    -0.124 C  
BRANCH   4   5
HETATM    5  C   UNL     1      -8.338   6.270  68.879  1.00  0.00    -0.120 C  
BRANCH   5   6
HETATM    6  C   UNL     1      -9.461   5.400  69.458  1.00  0.00    -0.133 C  
BRANCH   6   7
HETATM    7  N   UNL     1      -8.928   4.429  70.448  1.00  0.00    -0.087 NA 
HETATM    8  C   UNL     1      -9.425   4.584  71.758  1.00  0.00    -0.149 A  
HETATM    9  C   UNL     1     -10.730   4.155  72.048  1.00  0.00     0.129 A  
HETATM   10  C   UNL     1     -11.231   4.186  73.350  1.00  0.00    -0.339 A  
HETATM   11  C   UNL     1     -10.435   4.659  74.385  1.00  0.00    -0.330 A  
HETATM   12  C   UNL     1      -9.147   5.114  74.115  1.00  0.00    -0.114 A  
HETATM   13  C   UNL     1      -8.634   5.077  72.806  1.00  0.00    -0.119 A  
HETATM   14  C   UNL     1      -7.231   5.543  72.536  1.00  0.00    -0.093 C  
HETATM   15  C   UNL     1      -6.327   4.381  72.160  1.00  0.00    -0.022 C  
HETATM   16  C   UNL     1      -6.578   3.662  70.851  1.00  0.00    -0.031 A  
HETATM   17  C   UNL     1      -5.506   2.848  70.412  1.00  0.00    -0.012 A  
HETATM   18  C   UNL     1      -5.591   2.084  69.253  1.00  0.00    -0.017 A  
HETATM   19  C   UNL     1      -6.758   2.111  68.507  1.00  0.00    -0.029 A  
HETATM   20  C   UNL     1      -7.821   2.918  68.917  1.00  0.00    -0.051 A  
HETATM   21  C   UNL     1      -7.762   3.716  70.084  1.00  0.00    -0.047 A  
ENDBRANCH   6   7
ENDBRANCH   5   6
ENDBRANCH   4   5
ENDBRANCH   2   4
TORSDOF 4
ENDMDL
MODEL      230
REMARK 921   NORMALIZED FREE ENERGY PREDICTED BY IDOCK:   -1.25 KCAL/MOL
REMARK 922        TOTAL FREE ENERGY PREDICTED BY IDOCK:   -2.19 KCAL/MOL
REMARK 923 INTER-LIGAND FREE ENERGY PREDICTED BY IDOCK:   -2.70 KCAL/MOL
REMARK 924 INTRA-LIGAND FREE ENERGY PREDICTED BY IDOCK:    0.52 KCAL/MOL
REMARK 927      BINDING AFFINITY PREDICTED BY RF-SCORE:    0.00 PKD
ROOT
HETATM    1  C   UNL     1      -8.269   2.674  73.524  1.00  0.00    -0.064 C  
HETATM    2  N   UNL     1      -8.789   3.516  72.460  1.00  0.00    -0.085 NA 
HETATM    3  H   UNL     1      -8.049   4.082  72.046  1.00  0.00     0.000 HD 
ENDROOT
BRANCH   2   4
HETATM    4  C   UNL     1      -9.504   2.749  71.435  1.00  0.00    -0.146 C  
BRANCH   4   5
HETATM    5  C   UNL     1      -9.297   3.454  70.094  1.00  0.00    -0.244 C  
BRANCH   5   6
HETATM    6  C   UNL     1      -9.078   4.968  70.215  1.00  0.00    -0.121 C  
BRANCH   6   7
HETATM    7  N   UNL     1      -8.844   5.582  68.882  1.00  0.00    -0.107 NA 
HETATM    8  C   UNL     1      -8.810   6.991  68.878  1.00  0.00    -0.130 A  
HETATM    9  C   UNL     1      -7.673   7.648  69.375  1.00  0.00    -0.107 A  
HETATM   10  C   UNL     1      -7.543   9.035  69.294  1.00  0.00    -0.079 A  
HETATM   11  C   UNL     1      -8.558   9.792  68.721  1.00  0.00    -0.127 A  
HETATM   12  C   UNL     1      -9.706   9.162  68.247  1.00  0.00    -0.171 A  
HETATM   13  C   UNL     1      -9.838   7.764  68.319  1.00  0.00    -0.185 A  
HETATM   14  C   UNL     1     -11.070   7.097  67.774  1.00  0.00    -0.095 C  
HETATM   15  C   UNL     1     -10.754   6.289  66.526  1.00  0.00    -0.177 C  
HETATM   16  C   UNL     1      -9.877   5.061  66.662  1.00  0.00    -0.215 A  
HETATM   17  C   UNL     1      -9.921   4.183  65.553  1.00  0.00    -0.209 A  
HETATM   18  C   UNL     1      -9.142   3.032  65.496  1.00  0.00    -0.150 A  
HETATM   19  C   UNL     1      -8.292   2.737  66.550  1.00  0.00    -0.093 A  
HETATM   20  C   UNL     1      -8.246   3.584  67.658  1.00  0.00    -0.088 A  
HETATM   21  C   UNL     1      -9.034   4.755  67.751  1.00  0.00    -0.111 A  
ENDBRANCH   6   7
ENDBRANCH   5   6
ENDBRANCH   4   5
ENDBRANCH   2   4
TORSDOF 4
ENDMDL
MODEL      231
REMARK 921   NORMALIZED FREE ENERGY PREDICTED BY IDOCK:   -1.09 KCAL/MOL
REMARK 922        TOTAL FREE ENERGY PREDICTED BY IDOCK:   -1.99 KCAL/MOL
REMARK 923 INTER-LIGAND FREE ENERGY PREDICTED BY IDOCK:   -1.41 KCAL/MOL
REMARK 924 INTRA-LIGAND FREE ENERGY PREDICTED BY IDOCK:   -0.58 KCAL/MOL
REMARK 927      BINDING AFFINITY PREDICTED BY RF-SCORE:    0.00 PKD
ROOT
HETATM    1  C   UNL     1      -8.193   2.589  73.595  1.00  0.00    -0.063 C  
HETATM    2  N   UNL     1      -8.531   3.818  72.897  1.00  0.00    -0.093 NA 
HETATM    3  H   UNL     1      -7.717   4.201  72.415  1.00  0.00     0.000 HD 
ENDROOT
BRANCH   2   4
HETATM    4  C   UNL     1      -9.659   3.648  71.975  1.00  0.00    -0.144 C  
BRANCH   4   5
HETATM    5  C   UNL     1      -9.579   4.760  70.928  1.00  0.00    -0.245 C  
BRANCH   5   6
HETATM    6  C   UNL     1      -8.682   5.935  71.337  1.00  0.00    -0.133 C  
BRANCH   6   7
HETATM    7  N   UNL     1      -8.910   7.113  70.459  1.00  0.00    -0.153 NA 
HETATM    8  C   UNL     1      -9.993   7.932  70.838  1.00  0.00    -0.182 A  
HETATM    9  C   UNL     1      -9.847   8.788  71.941  1.00  0.00    -0.395 A  
HETATM   10  C   UNL     1     -10.846   9.697  72.292  1.00  0.00     1.257 A  
HETATM   11  C   UNL     1     -12.018   9.756  71.548  1.00  0.00    -0.488 A  
HETATM   12  C   UNL     1     -12.194   8.896  70.466  1.00  0.00     0.137 A  
HETATM   13  C   UNL     1     -11.186   7.985  70.104  1.00  0.00    -0.145 A  
HETATM   14  C   UNL     1     -11.379   7.086  68.915  1.00  0.00     0.065 C  
HETATM   15  C   UNL     1     -10.450   7.471  67.776  1.00  0.00    -0.288 C  
HETATM   16  C   UNL     1      -8.959   7.278  67.961  1.00  0.00    -0.131 A  
HETATM   17  C   UNL     1      -8.207   7.319  66.762  1.00  0.00    -0.121 A  
HETATM   18  C   UNL     1      -6.821   7.205  66.760  1.00  0.00    -0.068 A  
HETATM   19  C   UNL     1      -6.152   7.053  67.963  1.00  0.00    -0.034 A  
HETATM   20  C   UNL     1      -6.877   6.998  69.154  1.00  0.00    -0.061 A  
HETATM   21  C   UNL     1      -8.288   7.099  69.189  1.00  0.00    -0.129 A  
ENDBRANCH   6   7
ENDBRANCH   5   6
ENDBRANCH   4   5
ENDBRANCH   2   4
TORSDOF 4
ENDMDL
MODEL      232
REMARK 921   NORMALIZED FREE ENERGY PREDICTED BY IDOCK:   -1.07 KCAL/MOL
REMARK 922        TOTAL FREE ENERGY PREDICTED BY IDOCK:   -1.97 KCAL/MOL
REMARK 923 INTER-LIGAND FREE ENERGY PREDICTED BY IDOCK:   -2.45 KCAL/MOL
REMARK 924 INTRA-LIGAND FREE ENERGY PREDICTED BY IDOCK:    0.48 KCAL/MOL
REMARK 927      BINDING AFFINITY PREDICTED BY RF-SCORE:    0.00 PKD
ROOT
HETATM    1  C   UNL     1      -6.744   5.876  63.690  1.00  0.00    -0.037 C  
HETATM    2  N   UNL     1      -6.134   7.099  64.182  1.00  0.00    -0.036 NA 
HETATM    3  H   UNL     1      -6.392   7.897  63.602  1.00  0.00     0.000 HD 
ENDROOT
BRANCH   2   4
HETATM    4  C   UNL     1      -6.442   7.352  65.594  1.00  0.00    -0.045 C  
BRANCH   4   5
HETATM    5  C   UNL     1      -7.691   6.545  65.952  1.00  0.00    -0.090 C  
BRANCH   5   6
HETATM    6  C   UNL     1      -8.683   7.300  66.846  1.00  0.00    -0.126 C  
BRANCH   6   7
HETATM    7  N   UNL     1      -8.243   7.285  68.265  1.00  0.00    -0.124 NA 
HETATM    8  C   UNL     1      -8.832   6.280  69.058  1.00  0.00    -0.124 A  
HETATM    9  C   UNL     1      -8.396   4.953  68.913  1.00  0.00    -0.082 A  
HETATM   10  C   UNL     1      -8.868   3.939  69.748  1.00  0.00    -0.143 A  
HETATM   11  C   UNL     1      -9.797   4.236  70.737  1.00  0.00    -0.265 A  
HETATM   12  C   UNL     1     -10.264   5.540  70.879  1.00  0.00    -0.293 A  
HETATM   13  C   UNL     1      -9.784   6.567  70.046  1.00  0.00    -0.178 A  
HETATM   14  C   UNL     1     -10.274   7.975  70.233  1.00  0.00    -0.200 C  
HETATM   15  C   UNL     1      -9.176   8.875  70.775  1.00  0.00    -0.272 C  
HETATM   16  C   UNL     1      -7.981   9.170  69.892  1.00  0.00    -0.104 A  
HETATM   17  C   UNL     1      -7.197  10.270  70.314  1.00  0.00    -0.077 A  
HETATM   18  C   UNL     1      -6.039  10.648  69.642  1.00  0.00    -0.061 A  
HETATM   19  C   UNL     1      -5.634   9.925  68.532  1.00  0.00    -0.039 A  
HETATM   20  C   UNL     1      -6.402   8.845  68.093  1.00  0.00    -0.055 A  
HETATM   21  C   UNL     1      -7.591   8.444  68.748  1.00  0.00    -0.101 A  
ENDBRANCH   6   7
ENDBRANCH   5   6
ENDBRANCH   4   5
ENDBRANCH   2   4
TORSDOF 4
ENDMDL
MODEL      233
REMARK 921   NORMALIZED FREE ENERGY PREDICTED BY IDOCK:    0.81 KCAL/MOL
REMARK 922        TOTAL FREE ENERGY PREDICTED BY IDOCK:    0.35 KCAL/MOL
REMARK 923 INTER-LIGAND FREE ENERGY PREDICTED BY IDOCK:   -2.30 KCAL/MOL
REMARK 924 INTRA-LIGAND FREE ENERGY PREDICTED BY IDOCK:    2.65 KCAL/MOL
REMARK 927      BINDING AFFINITY PREDICTED BY RF-SCORE:    0.00 PKD
ROOT
HETATM    1  C   UNL     1      -7.564  14.993  69.068  1.00  0.00    -0.160 C  
HETATM    2  N   UNL     1      -6.145  15.251  69.248  1.00  0.00    -0.106 NA 
HETATM    3  H   UNL     1      -5.583  14.486  68.875  1.00  0.00     0.000 HD 
ENDROOT
BRANCH   2   4
HETATM    4  C   UNL     1      -5.731  16.537  68.678  1.00  0.00    -0.117 C  
BRANCH   4   5
HETATM    5  C   UNL     1      -5.774  17.580  69.795  1.00  0.00    -0.238 C  
BRANCH   5   6
HETATM    6  C   UNL     1      -6.797  18.699  69.562  1.00  0.00    -0.097 C  
BRANCH   6   7
HETATM    7  N   UNL     1      -7.617  18.430  68.352  1.00  0.00    -0.283 NA 
HETATM    8  C   UNL     1      -7.055  18.887  67.142  1.00  0.00    -0.204 A  
HETATM    9  C   UNL     1      -5.988  18.173  66.573  1.00  0.00    -0.197 A  
HETATM   10  C   UNL     1      -5.468  18.518  65.325  1.00  0.00    -0.232 A  
HETATM   11  C   UNL     1      -6.002  19.595  64.629  1.00  0.00    -0.310 A  
HETATM   12  C   UNL     1      -7.043  20.334  65.188  1.00  0.00    -0.170 A  
HETATM   13  C   UNL     1      -7.575  19.983  66.442  1.00  0.00    -0.320 A  
HETATM   14  C   UNL     1      -8.719  20.771  67.017  1.00  0.00    -0.192 C  
HETATM   15  C   UNL     1      -9.997  19.951  67.041  1.00  0.00    -0.559 C  
HETATM   16  C   UNL     1     -10.069  18.750  67.961  1.00  0.00    -0.417 A  
HETATM   17  C   UNL     1     -11.378  18.262  68.189  1.00  0.00     0.843 A  
HETATM   18  C   UNL     1     -11.617  17.137  68.972  1.00  0.00     0.934 A  
HETATM   19  C   UNL     1     -10.546  16.469  69.542  1.00  0.00    -0.321 A  
HETATM   20  C   UNL     1      -9.249  16.943  69.339  1.00  0.00     0.139 A  
HETATM   21  C   UNL     1      -8.974  18.090  68.558  1.00  0.00    -0.289 A  
ENDBRANCH   6   7
ENDBRANCH   5   6
ENDBRANCH   4   5
ENDBRANCH   2   4
TORSDOF 4
ENDMDL
MODEL      234
REMARK 921   NORMALIZED FREE ENERGY PREDICTED BY IDOCK:    1.30 KCAL/MOL
REMARK 922        TOTAL FREE ENERGY PREDICTED BY IDOCK:    0.95 KCAL/MOL
REMARK 923 INTER-LIGAND FREE ENERGY PREDICTED BY IDOCK:    0.18 KCAL/MOL
REMARK 924 INTRA-LIGAND FREE ENERGY PREDICTED BY IDOCK:    0.77 KCAL/MOL
REMARK 927      BINDING AFFINITY PREDICTED BY RF-SCORE:    0.00 PKD
ROOT
HETATM    1  C   UNL     1      -8.725  20.638  71.062  1.00  0.00     2.389 C  
HETATM    2  N   UNL     1      -9.900  19.792  70.932  1.00  0.00     0.631 NA 
HETATM    3  H   UNL     1     -10.750  20.352  70.864  1.00  0.00     0.000 HD 
ENDROOT
BRANCH   2   4
HETATM    4  C   UNL     1      -9.795  18.853  69.810  1.00  0.00     0.515 C  
BRANCH   4   5
HETATM    5  C   UNL     1     -10.012  19.643  68.518  1.00  0.00    -0.542 C  
BRANCH   5   6
HETATM    6  C   UNL     1      -8.723  19.916  67.732  1.00  0.00    -0.317 C  
BRANCH   6   7
HETATM    7  N   UNL     1      -8.473  18.850  66.728  1.00  0.00    -0.287 NA 
HETATM    8  C   UNL     1      -9.179  17.650  66.950  1.00  0.00    -0.263 A  
HETATM    9  C   UNL     1     -10.551  17.601  66.653  1.00  0.00    -0.211 A  
HETATM   10  C   UNL     1     -11.272  16.410  66.750  1.00  0.00     0.278 A  
HETATM   11  C   UNL     1     -10.633  15.247  67.159  1.00  0.00    -0.302 A  
HETATM   12  C   UNL     1      -9.279  15.280  67.485  1.00  0.00    -0.202 A  
HETATM   13  C   UNL     1      -8.546  16.476  67.379  1.00  0.00    -0.193 A  
HETATM   14  C   UNL     1      -7.078  16.487  67.704  1.00  0.00    -0.155 C  
HETATM   15  C   UNL     1      -6.238  16.697  66.456  1.00  0.00     0.099 C  
HETATM   16  C   UNL     1      -6.320  18.033  65.745  1.00  0.00    -0.287 A  
HETATM   17  C   UNL     1      -5.271  18.274  64.826  1.00  0.00    -0.091 A  
HETATM   18  C   UNL     1      -5.220  19.432  64.057  1.00  0.00    -0.253 A  
HETATM   19  C   UNL     1      -6.226  20.375  64.185  1.00  0.00    -0.302 A  
HETATM   20  C   UNL     1      -7.262  20.161  65.096  1.00  0.00    -0.087 A  
HETATM   21  C   UNL     1      -7.335  18.999  65.901  1.00  0.00    -0.239 A  
ENDBRANCH   6   7
ENDBRANCH   5   6
ENDBRANCH   4   5
ENDBRANCH   2   4
TORSDOF 4
ENDMDL
MODEL      235
REMARK 921   NORMALIZED FREE ENERGY PREDICTED BY IDOCK:    1.94 KCAL/MOL
REMARK 922        TOTAL FREE ENERGY PREDICTED BY IDOCK:    1.75 KCAL/MOL
REMARK 923 INTER-LIGAND FREE ENERGY PREDICTED BY IDOCK:    0.99 KCAL/MOL
REMARK 924 INTRA-LIGAND FREE ENERGY PREDICTED BY IDOCK:    0.76 KCAL/MOL
REMARK 927      BINDING AFFINITY PREDICTED BY RF-SCORE:    0.00 PKD
ROOT
HETATM    1  C   UNL     1      -9.654  19.759  70.287  1.00  0.00     0.908 C  
HETATM    2  N   UNL     1     -10.698  18.851  69.841  1.00  0.00     0.765 NA 
HETATM    3  H   UNL     1     -11.494  19.365  69.463  1.00  0.00     0.000 HD 
ENDROOT
BRANCH   2   4
HETATM    4  C   UNL     1     -10.206  17.859  68.880  1.00  0.00    -0.330 C  
BRANCH   4   5
HETATM    5  C   UNL     1      -9.296  16.888  69.634  1.00  0.00     0.477 C  
BRANCH   5   6
HETATM    6  C   UNL     1      -9.324  15.456  69.085  1.00  0.00    -0.246 C  
BRANCH   6   7
HETATM    7  N   UNL     1      -8.627  15.372  67.775  1.00  0.00    -0.154 NA 
HETATM    8  C   UNL     1      -7.755  16.445  67.499  1.00  0.00    -0.142 A  
HETATM    9  C   UNL     1      -6.513  16.500  68.152  1.00  0.00    -0.141 A  
HETATM   10  C   UNL     1      -5.570  17.479  67.835  1.00  0.00    -0.139 A  
HETATM   11  C   UNL     1      -5.860  18.429  66.864  1.00  0.00    -0.166 A  
HETATM   12  C   UNL     1      -7.097  18.408  66.224  1.00  0.00    -0.287 A  
HETATM   13  C   UNL     1      -8.047  17.418  66.534  1.00  0.00    -0.312 A  
HETATM   14  C   UNL     1      -9.365  17.392  65.812  1.00  0.00     0.147 C  
HETATM   15  C   UNL     1      -9.464  16.188  64.889  1.00  0.00     1.602 C  
HETATM   16  C   UNL     1      -9.519  14.806  65.505  1.00  0.00    -0.015 A  
HETATM   17  C   UNL     1      -9.960  13.788  64.627  1.00  0.00    -0.032 A  
HETATM   18  C   UNL     1     -10.026  12.455  65.020  1.00  0.00    -0.219 A  
HETATM   19  C   UNL     1      -9.643  12.109  66.305  1.00  0.00    -0.246 A  
HETATM   20  C   UNL     1      -9.217  13.101  67.190  1.00  0.00    -0.227 A  
HETATM   21  C   UNL     1      -9.151  14.466  66.824  1.00  0.00    -0.257 A  
ENDBRANCH   6   7
ENDBRANCH   5   6
ENDBRANCH   4   5
ENDBRANCH   2   4
TORSDOF 4
ENDMDL
MODEL      236
REMARK 921   NORMALIZED FREE ENERGY PREDICTED BY IDOCK:    2.92 KCAL/MOL
REMARK 922        TOTAL FREE ENERGY PREDICTED BY IDOCK:    2.96 KCAL/MOL
REMARK 923 INTER-LIGAND FREE ENERGY PREDICTED BY IDOCK:    0.27 KCAL/MOL
REMARK 924 INTRA-LIGAND FREE ENERGY PREDICTED BY IDOCK:    2.69 KCAL/MOL
REMARK 927      BINDING AFFINITY PREDICTED BY RF-SCORE:    0.00 PKD
ROOT
HETATM    1  C   UNL     1     -10.897  14.633  68.479  1.00  0.00    -0.250 C  
HETATM    2  N   UNL     1     -10.704  15.016  69.868  1.00  0.00    -0.374 NA 
HETATM    3  H   UNL     1     -10.766  14.205  70.483  1.00  0.00     0.000 HD 
ENDROOT
BRANCH   2   4
HETATM    4  C   UNL     1      -9.450  15.746  70.081  1.00  0.00     0.407 C  
BRANCH   4   5
HETATM    5  C   UNL     1      -8.425  15.217  69.077  1.00  0.00    -0.221 C  
BRANCH   5   6
HETATM    6  C   UNL     1      -8.460  13.694  68.895  1.00  0.00     0.165 C  
BRANCH   6   7
HETATM    7  N   UNL     1      -8.164  13.317  67.489  1.00  0.00    -0.173 NA 
HETATM    8  C   UNL     1      -8.866  14.057  66.516  1.00  0.00    -0.020 A  
HETATM    9  C   UNL     1      -8.466  15.375  66.242  1.00  0.00    -0.047 A  
HETATM   10  C   UNL     1      -9.056  16.113  65.215  1.00  0.00     1.028 A  
HETATM   11  C   UNL     1     -10.068  15.546  64.450  1.00  0.00     1.477 A  
HETATM   12  C   UNL     1     -10.498  14.249  64.724  1.00  0.00    -0.421 A  
HETATM   13  C   UNL     1      -9.900  13.499  65.752  1.00  0.00    -0.218 A  
HETATM   14  C   UNL     1     -10.354  12.090  66.014  1.00  0.00    -0.271 C  
HETATM   15  C   UNL     1      -9.283  11.084  65.628  1.00  0.00    -0.231 C  
HETATM   16  C   UNL     1      -7.996  11.055  66.427  1.00  0.00    -0.161 A  
HETATM   17  C   UNL     1      -7.218   9.888  66.245  1.00  0.00    -0.102 A  
HETATM   18  C   UNL     1      -5.986   9.721  66.869  1.00  0.00    -0.055 A  
HETATM   19  C   UNL     1      -5.500  10.727  67.687  1.00  0.00    -0.043 A  
HETATM   20  C   UNL     1      -6.259  11.881  67.889  1.00  0.00    -0.061 A  
HETATM   21  C   UNL     1      -7.521  12.075  67.279  1.00  0.00    -0.158 A  
ENDBRANCH   6   7
ENDBRANCH   5   6
ENDBRANCH   4   5
ENDBRANCH   2   4
TORSDOF 4
ENDMDL
MODEL      237
REMARK 921   NORMALIZED FREE ENERGY PREDICTED BY IDOCK:   11.93 KCAL/MOL
REMARK 922        TOTAL FREE ENERGY PREDICTED BY IDOCK:   14.08 KCAL/MOL
REMARK 923 INTER-LIGAND FREE ENERGY PREDICTED BY IDOCK:   -2.43 KCAL/MOL
REMARK 924 INTRA-LIGAND FREE ENERGY PREDICTED BY IDOCK:   16.51 KCAL/MOL
REMARK 927      BINDING AFFINITY PREDICTED BY RF-SCORE:    0.00 PKD
ROOT
HETATM    1  C   UNL     1      -9.268   6.315  70.389  1.00  0.00    -0.154 C  
HETATM    2  N   UNL     1      -8.164   5.962  71.266  1.00  0.00    -0.121 NA 
HETATM    3  H   UNL     1      -8.427   6.065  72.246  1.00  0.00     0.000 HD 
ENDROOT
BRANCH   2   4
HETATM    4  C   UNL     1      -7.641   4.618  70.998  1.00  0.00    -0.072 C  
BRANCH   4   5
HETATM    5  C   UNL     1      -8.804   3.751  70.515  1.00  0.00    -0.140 C  
BRANCH   5   6
HETATM    6  C   UNL     1      -9.629   4.388  69.390  1.00  0.00    -0.199 C  
BRANCH   6   7
HETATM    7  N   UNL     1      -8.816   5.363  68.618  1.00  0.00    -0.103 NA 
HETATM    8  C   UNL     1      -9.364   6.660  68.539  1.00  0.00    -0.125 A  
HETATM    9  C   UNL     1      -9.296   7.499  69.663  1.00  0.00    -0.153 A  
HETATM   10  C   UNL     1      -9.725   8.826  69.604  1.00  0.00    -0.173 A  
HETATM   11  C   UNL     1     -10.242   9.333  68.419  1.00  0.00    -0.231 A  
HETATM   12  C   UNL     1     -10.343   8.509  67.300  1.00  0.00    -0.372 A  
HETATM   13  C   UNL     1      -9.904   7.174  67.352  1.00  0.00    -0.200 A  
HETATM   14  C   UNL     1      -9.992   6.308  66.127  1.00  0.00     0.061 C  
HETATM   15  C   UNL     1      -8.612   5.992  65.575  1.00  0.00    -0.145 C  
HETATM   16  C   UNL     1      -7.685   5.121  66.397  1.00  0.00    -0.092 A  
HETATM   17  C   UNL     1      -6.587   4.590  65.680  1.00  0.00    -0.041 A  
HETATM   18  C   UNL     1      -5.616   3.808  66.296  1.00  0.00    -0.018 A  
HETATM   19  C   UNL     1      -5.718   3.544  67.651  1.00  0.00    -0.022 A  
HETATM   20  C   UNL     1      -6.801   4.049  68.373  1.00  0.00    -0.047 A  
HETATM   21  C   UNL     1      -7.811   4.837  67.773  1.00  0.00    -0.086 A  
ENDBRANCH   6   7
ENDBRANCH   5   6
ENDBRANCH   4   5
ENDBRANCH   2   4
TORSDOF 4
ENDMDL
MODEL      238
REMARK 921   NORMALIZED FREE ENERGY PREDICTED BY IDOCK:   21.36 KCAL/MOL
REMARK 922        TOTAL FREE ENERGY PREDICTED BY IDOCK:   25.71 KCAL/MOL
REMARK 923 INTER-LIGAND FREE ENERGY PREDICTED BY IDOCK:   24.08 KCAL/MOL
REMARK 924 INTRA-LIGAND FREE ENERGY PREDICTED BY IDOCK:    1.63 KCAL/MOL
REMARK 927      BINDING AFFINITY PREDICTED BY RF-SCORE:    0.00 PKD
ROOT
HETATM    1  C   UNL     1     -10.533  10.740  62.444  1.00  0.00     0.939 C  
HETATM    2  N   UNL     1     -11.719   9.900  62.441  1.00  0.00     3.603 NA 
HETATM    3  H   UNL     1     -11.491   8.945  62.163  1.00  0.00     0.000 HD 
ENDROOT
BRANCH   2   4
HETATM    4  C   UNL     1     -12.426   9.921  63.725  1.00  0.00     9.825 C  
BRANCH   4   5
HETATM    5  C   UNL     1     -11.720  10.930  64.632  1.00  0.00     1.121 C  
BRANCH   5   6
HETATM    6  C   UNL     1     -10.772  10.289  65.655  1.00  0.00     0.152 C  
BRANCH   6   7
HETATM    7  N   UNL     1      -9.428  10.922  65.608  1.00  0.00    -0.204 NA 
HETATM    8  C   UNL     1      -9.436  12.331  65.635  1.00  0.00    -0.068 A  
HETATM    9  C   UNL     1      -9.698  12.989  66.847  1.00  0.00    -0.238 A  
HETATM   10  C   UNL     1      -9.611  14.378  66.953  1.00  0.00    -0.263 A  
HETATM   11  C   UNL     1      -9.269  15.135  65.840  1.00  0.00    -0.193 A  
HETATM   12  C   UNL     1      -9.032  14.504  64.620  1.00  0.00     3.926 A  
HETATM   13  C   UNL     1      -9.110  13.104  64.512  1.00  0.00     1.863 A  
HETATM   14  C   UNL     1      -8.821  12.437  63.196  1.00  0.00     2.186 C  
HETATM   15  C   UNL     1      -7.524  11.647  63.252  1.00  0.00     1.930 C  
HETATM   16  C   UNL     1      -7.461  10.422  64.142  1.00  0.00     0.005 A  
HETATM   17  C   UNL     1      -6.372   9.558  63.875  1.00  0.00    -0.099 A  
HETATM   18  C   UNL     1      -6.141   8.413  64.630  1.00  0.00    -0.064 A  
HETATM   19  C   UNL     1      -6.994   8.109  65.678  1.00  0.00    -0.066 A  
HETATM   20  C   UNL     1      -8.080   8.943  65.949  1.00  0.00    -0.109 A  
HETATM   21  C   UNL     1      -8.349  10.108  65.192  1.00  0.00    -0.161 A  
ENDBRANCH   6   7
ENDBRANCH   5   6
ENDBRANCH   4   5
ENDBRANCH   2   4
TORSDOF 4
ENDMDL
