MODEL        1
REMARK 921   NORMALIZED FREE ENERGY PREDICTED BY IDOCK:   -6.04 KCAL/MOL
REMARK 922        TOTAL FREE ENERGY PREDICTED BY IDOCK:   -6.01 KCAL/MOL
REMARK 923 INTER-LIGAND FREE ENERGY PREDICTED BY IDOCK:   -9.56 KCAL/MOL
REMARK 924 INTRA-LIGAND FREE ENERGY PREDICTED BY IDOCK:    3.56 KCAL/MOL
REMARK 927      BINDING AFFINITY PREDICTED BY RF-SCORE:    0.00 PKD
ROOT
HETATM    1  C   UNL     1     -11.404  10.308  70.517  1.00  0.00    -0.422 C  
HETATM    2  C   UNL     1     -10.206  10.302  69.538  1.00  0.00    -0.236 C  
HETATM    3  O   UNL     1      -9.072   9.966  70.396  1.00  0.00    -0.170 OA 
HETATM    4  C   UNL     1      -8.040   9.028  69.982  1.00  0.00    -0.124 C  
HETATM    5  C   UNL     1     -10.481   9.450  68.239  1.00  0.00    -0.217 C  
HETATM    6  C   UNL     1      -7.944   9.121  68.462  1.00  0.00    -0.102 C  
HETATM    7  C   UNL     1      -9.214   8.730  67.724  1.00  0.00    -0.134 C  
HETATM    8  H   UNL     1      -9.748   8.718  65.872  1.00  0.00     0.000 HD 
HETATM    9  O   UNL     1      -8.954   8.962  66.333  1.00  0.00    -0.141 OA 
ENDROOT
BRANCH   4  10
HETATM   10  O   UNL     1      -8.144   7.754  70.724  1.00  0.00    -0.099 OA 
BRANCH  10  11
HETATM   11  C   UNL     1      -9.371   7.061  71.107  1.00  0.00    -0.158 C  
HETATM   12  C   UNL     1     -10.156   2.248  70.872  1.00  0.00     0.301 C  
HETATM   13  C   UNL     1     -10.914   5.011  71.362  1.00  0.00     0.092 C  
HETATM   14  C   UNL     1      -9.721   5.649  70.525  1.00  0.00    -0.233 C  
HETATM   15  C   UNL     1      -6.504   3.659  69.987  1.00  0.00    -0.032 C  
HETATM   16  C   UNL     1     -10.396   4.207  72.602  1.00  0.00    -0.233 C  
HETATM   17  C   UNL     1      -9.492   5.253  73.345  1.00  0.00    -0.141 C  
HETATM   18  H   UNL     1      -8.947   2.571  67.947  1.00  0.00     0.000 HD 
HETATM   19  C   UNL     1     -11.488   3.826  73.679  1.00  0.00    -0.154 C  
HETATM   20  C   UNL     1      -9.365   6.781  72.660  1.00  0.00    -0.152 C  
HETATM   21  C   UNL     1      -7.182   1.543  68.574  1.00  0.00    -0.039 C  
HETATM   22  C   UNL     1      -8.526   4.491  74.320  1.00  0.00    -0.104 C  
HETATM   23  O   UNL     1      -9.623   2.652  68.610  1.00  0.00    -0.165 OA 
HETATM   24  C   UNL     1      -7.995   3.053  73.891  1.00  0.00    -0.068 C  
HETATM   25  C   UNL     1      -5.227   2.802  70.038  1.00  0.00    -0.008 C  
HETATM   26  C   UNL     1      -7.531   2.348  70.022  1.00  0.00    -0.043 C  
HETATM   27  C   UNL     1      -8.164   2.764  72.346  1.00  0.00    -0.055 C  
HETATM   28  C   UNL     1      -5.664   1.469  70.720  1.00  0.00    -0.016 C  
HETATM   29  C   UNL     1      -9.087   2.119  69.825  1.00  0.00    -0.105 C  
HETATM   30  C   UNL     1      -7.163   1.613  71.454  1.00  0.00    -0.032 C  
HETATM   31  C   UNL     1      -9.701   2.772  72.195  1.00  0.00    -0.223 C  
HETATM   32  H   UNL     1      -5.780   0.996  72.156  1.00  0.00     0.000 HD 
HETATM   33  O   UNL     1      -6.318   1.615  72.635  1.00  0.00    -0.009 OA 
BRANCH  15  34
HETATM   34  C   UNL     1      -6.170   4.865  70.995  1.00  0.00    -0.019 C  
HETATM   35  C   UNL     1      -6.273   4.959  72.328  1.00  0.00    -0.029 C  
HETATM   36  O   UNL     1      -5.722   7.086  71.692  1.00  0.00    -0.036 OA 
HETATM   37  C   UNL     1      -5.702   6.281  72.768  1.00  0.00    -0.038 C  
HETATM   38  C   UNL     1      -5.648   6.205  70.611  1.00  0.00    -0.018 C  
HETATM   39  O   UNL     1      -5.265   6.625  73.824  1.00  0.00    -0.040 OA 
ENDBRANCH  15  34
ENDBRANCH  10  11
ENDBRANCH   4  10
BRANCH   5  40
HETATM   40  O   UNL     1     -11.233  10.193  67.213  1.00  0.00    -0.218 OA 
BRANCH  40  41
HETATM   41  C   UNL     1     -10.461  10.726  66.099  1.00  0.00    -0.214 C  
HETATM   42  C   UNL     1     -10.188  13.134  68.291  1.00  0.00    -0.250 C  
HETATM   43  C   UNL     1      -9.872  13.037  66.789  1.00  0.00    -0.243 C  
HETATM   44  H   UNL     1     -13.711  13.559  65.461  1.00  0.00     0.000 HD 
HETATM   45  O   UNL     1      -9.460  11.692  66.495  1.00  0.00    -0.194 OA 
HETATM   46  O   UNL     1     -13.250  12.855  65.023  1.00  0.00    -0.765 OA 
HETATM   47  C   UNL     1     -11.062  13.590  65.955  1.00  0.00    -0.293 C  
HETATM   48  C   UNL     1     -12.073  12.472  65.719  1.00  0.00    -0.378 C  
HETATM   49  C   UNL     1     -11.337  11.348  65.020  1.00  0.00    -0.090 C  
BRANCH  47  50
HETATM   50  O   UNL     1     -10.640  14.252  64.731  1.00  0.00    -0.418 OA 
BRANCH  50  51
HETATM   51  C   UNL     1     -10.310  15.655  64.925  1.00  0.00    -0.129 C  
HETATM   52  C   UNL     1     -10.912  15.845  67.258  1.00  0.00    -0.234 C  
HETATM   53  H   UNL     1     -11.762  15.674  69.028  1.00  0.00     0.000 HD 
HETATM   54  C   UNL     1      -8.593  16.378  66.624  1.00  0.00    -0.260 C  
HETATM   55  C   UNL     1      -9.732  16.742  67.618  1.00  0.00    -0.251 C  
HETATM   56  C   UNL     1     -11.310  16.300  65.864  1.00  0.00     0.400 C  
HETATM   57  O   UNL     1      -8.946  15.819  65.343  1.00  0.00    -0.022 OA 
HETATM   58  C   UNL     1      -7.640  15.344  67.226  1.00  0.00    -0.246 C  
HETATM   59  O   UNL     1     -12.011  15.959  68.156  1.00  0.00    -0.130 OA 
BRANCH  55  60
HETATM   60  O   UNL     1     -10.238  18.089  67.472  1.00  0.00    -0.335 OA 
BRANCH  60  61
HETATM   61  C   UNL     1      -9.350  19.180  67.594  1.00  0.00    -0.303 C  
HETATM   62  C   UNL     1      -7.350  20.108  66.691  1.00  0.00    -0.268 C  
HETATM   63  H   UNL     1      -7.723  20.350  71.126  1.00  0.00     0.000 HD 
HETATM   64  O   UNL     1      -8.322  19.061  66.624  1.00  0.00    -0.278 OA 
HETATM   65  O   UNL     1      -9.784  19.296  70.044  1.00  0.00     0.215 OA 
HETATM   66  C   UNL     1      -6.668  20.152  68.061  1.00  0.00    -0.286 C  
HETATM   67  H   UNL     1      -5.312  21.261  69.017  1.00  0.00     0.000 HD 
HETATM   68  O   UNL     1      -7.069  20.265  70.442  1.00  0.00    -0.048 OA 
HETATM   69  C   UNL     1      -8.764  19.166  69.040  1.00  0.00    -0.203 C  
HETATM   70  H   UNL     1      -9.428  19.287  70.925  1.00  0.00     0.000 HD 
HETATM   71  C   UNL     1      -7.722  20.289  69.166  1.00  0.00     0.337 C  
HETATM   72  O   UNL     1      -5.736  21.233  68.167  1.00  0.00    -0.322 OA 
BRANCH  62  73
HETATM   73  C   UNL     1      -6.352  19.829  65.568  1.00  0.00    -0.236 C  
HETATM   74  H   UNL     1      -6.160  18.490  64.159  1.00  0.00     0.000 HD 
HETATM   75  O   UNL     1      -6.780  18.664  64.857  1.00  0.00    -0.501 OA 
ENDBRANCH  62  73
ENDBRANCH  60  61
ENDBRANCH  55  60
ENDBRANCH  50  51
ENDBRANCH  47  50
ENDBRANCH  40  41
ENDBRANCH   5  40
TORSDOF 10
ENDMDL
MODEL        2
REMARK 921   NORMALIZED FREE ENERGY PREDICTED BY IDOCK:   -5.57 KCAL/MOL
REMARK 922        TOTAL FREE ENERGY PREDICTED BY IDOCK:   -5.27 KCAL/MOL
REMARK 923 INTER-LIGAND FREE ENERGY PREDICTED BY IDOCK:   -6.57 KCAL/MOL
REMARK 924 INTRA-LIGAND FREE ENERGY PREDICTED BY IDOCK:    1.30 KCAL/MOL
REMARK 927      BINDING AFFINITY PREDICTED BY RF-SCORE:    0.00 PKD
ROOT
HETATM    1  C   UNL     1     -10.873   9.872  67.454  1.00  0.00    -0.293 C  
HETATM    2  C   UNL     1     -10.483   9.813  65.958  1.00  0.00    -0.006 C  
HETATM    3  O   UNL     1     -10.910  11.113  65.447  1.00  0.00    -0.234 OA 
HETATM    4  C   UNL     1     -10.093  11.890  64.527  1.00  0.00    -0.271 C  
HETATM    5  C   UNL     1      -8.997   9.335  65.731  1.00  0.00    -0.192 C  
HETATM    6  C   UNL     1      -9.282  10.891  63.708  1.00  0.00    -0.233 C  
HETATM    7  C   UNL     1      -8.330  10.031  64.522  1.00  0.00    -0.167 C  
HETATM    8  H   UNL     1      -7.137   8.575  64.106  1.00  0.00     0.000 HD 
HETATM    9  O   UNL     1      -7.732   9.114  63.597  1.00  0.00    -0.110 OA 
ENDROOT
BRANCH   4  10
HETATM   10  O   UNL     1      -9.511  13.072  65.196  1.00  0.00     0.117 OA 
BRANCH  10  11
HETATM   11  C   UNL     1      -8.491  13.074  66.242  1.00  0.00     0.572 C  
HETATM   12  C   UNL     1      -6.556  17.017  68.375  1.00  0.00    -0.157 C  
HETATM   13  C   UNL     1      -6.816  14.166  67.869  1.00  0.00    -0.173 C  
HETATM   14  C   UNL     1      -7.577  14.323  66.481  1.00  0.00     1.375 C  
HETATM   15  C   UNL     1      -9.557  17.509  65.755  1.00  0.00     0.112 C  
HETATM   16  C   UNL     1      -7.653  14.734  69.065  1.00  0.00    -0.141 C  
HETATM   17  C   UNL     1      -9.023  13.983  68.921  1.00  0.00     0.059 C  
HETATM   18  H   UNL     1      -6.256  18.031  65.374  1.00  0.00     0.000 HD 
HETATM   19  C   UNL     1      -7.154  14.327  70.508  1.00  0.00     0.616 C  
HETATM   20  C   UNL     1      -9.172  12.893  67.654  1.00  0.00    -0.193 C  
HETATM   21  C   UNL     1      -7.799  19.470  65.717  1.00  0.00    -0.161 C  
HETATM   22  C   UNL     1     -10.122  14.770  69.721  1.00  0.00     0.059 C  
HETATM   23  O   UNL     1      -6.022  17.504  66.128  1.00  0.00    -0.201 OA 
HETATM   24  C   UNL     1     -10.019  16.357  69.791  1.00  0.00     0.012 C  
HETATM   25  C   UNL     1     -10.454  18.760  65.715  1.00  0.00    -0.317 C  
HETATM   26  C   UNL     1      -8.391  18.227  66.703  1.00  0.00    -0.281 C  
HETATM   27  C   UNL     1      -9.068  16.967  68.685  1.00  0.00    -0.265 C  
HETATM   28  C   UNL     1     -10.090  19.557  67.005  1.00  0.00    -0.509 C  
HETATM   29  C   UNL     1      -6.927  17.851  67.181  1.00  0.00    -0.180 C  
HETATM   30  C   UNL     1      -9.209  18.621  68.081  1.00  0.00    -0.313 C  
HETATM   31  C   UNL     1      -7.699  16.379  69.094  1.00  0.00    -0.220 C  
HETATM   32  H   UNL     1     -10.564  19.526  68.445  1.00  0.00     0.000 HD 
HETATM   33  O   UNL     1     -10.488  18.636  68.769  1.00  0.00    -0.245 OA 
BRANCH  15  34
HETATM   34  C   UNL     1     -10.611  16.316  65.963  1.00  0.00    -0.288 C  
HETATM   35  C   UNL     1     -10.903  15.569  67.037  1.00  0.00    -0.314 C  
HETATM   36  O   UNL     1     -12.112  14.580  65.367  1.00  0.00    -0.365 OA 
HETATM   37  C   UNL     1     -12.067  14.673  66.707  1.00  0.00    -0.200 C  
HETATM   38  C   UNL     1     -11.530  15.770  64.926  1.00  0.00    -0.193 C  
HETATM   39  O   UNL     1     -12.863  14.139  67.418  1.00  0.00     0.381 OA 
ENDBRANCH  15  34
ENDBRANCH  10  11
ENDBRANCH   4  10
BRANCH   5  40
HETATM   40  O   UNL     1      -8.852   7.869  65.760  1.00  0.00    -0.163 OA 
BRANCH  40  41
HETATM   41  C   UNL     1      -8.968   7.230  67.064  1.00  0.00    -0.130 C  
HETATM   42  C   UNL     1      -6.184   5.934  65.950  1.00  0.00    -0.037 C  
HETATM   43  C   UNL     1      -7.109   5.587  67.127  1.00  0.00    -0.074 C  
HETATM   44  H   UNL     1      -9.906   3.536  64.948  1.00  0.00     0.000 HD 
HETATM   45  O   UNL     1      -7.702   6.802  67.615  1.00  0.00    -0.106 OA 
HETATM   46  O   UNL     1     -10.281   4.145  65.573  1.00  0.00    -0.210 OA 
HETATM   47  C   UNL     1      -8.094   4.456  66.719  1.00  0.00    -0.102 C  
HETATM   48  C   UNL     1      -9.323   5.073  66.058  1.00  0.00    -0.157 C  
HETATM   49  C   UNL     1      -9.922   6.044  67.055  1.00  0.00    -0.197 C  
BRANCH  47  50
HETATM   50  O   UNL     1      -8.420   3.561  67.818  1.00  0.00    -0.090 OA 
BRANCH  50  51
HETATM   51  C   UNL     1      -8.308   4.195  69.123  1.00  0.00    -0.073 C  
HETATM   52  C   UNL     1      -8.915   2.299  70.494  1.00  0.00    -0.088 C  
HETATM   53  H   UNL     1      -9.716   0.654  71.226  1.00  0.00     0.000 HD 
HETATM   54  C   UNL     1      -6.710   3.330  70.871  1.00  0.00    -0.032 C  
HETATM   55  C   UNL     1      -7.884   2.595  71.579  1.00  0.00    -0.047 C  
HETATM   56  C   UNL     1      -9.388   3.673  70.049  1.00  0.00    -0.248 C  
HETATM   57  O   UNL     1      -6.983   4.060  69.658  1.00  0.00    -0.041 OA 
HETATM   58  C   UNL     1      -5.605   2.351  70.470  1.00  0.00    -0.016 C  
HETATM   59  O   UNL     1     -10.012   1.514  70.948  1.00  0.00    -0.081 OA 
BRANCH  55  60
HETATM   60  O   UNL     1      -8.592   3.406  72.545  1.00  0.00    -0.083 OA 
BRANCH  60  61
HETATM   61  C   UNL     1      -8.408   4.806  72.543  1.00  0.00    -0.115 C  
HETATM   62  C   UNL     1      -7.029   6.539  73.420  1.00  0.00    -0.077 C  
HETATM   63  H   UNL     1     -11.391   7.449  73.324  1.00  0.00     0.000 HD 
HETATM   64  O   UNL     1      -7.277   5.133  73.334  1.00  0.00    -0.083 OA 
HETATM   65  O   UNL     1     -10.865   5.156  72.326  1.00  0.00    -0.218 OA 
HETATM   66  C   UNL     1      -8.224   7.283  74.023  1.00  0.00    -0.152 C  
HETATM   67  H   UNL     1      -8.759   9.160  74.434  1.00  0.00     0.000 HD 
HETATM   68  O   UNL     1     -10.607   7.635  73.827  1.00  0.00    -0.248 OA 
HETATM   69  C   UNL     1      -9.703   5.462  73.114  1.00  0.00    -0.149 C  
HETATM   70  H   UNL     1     -11.654   5.555  72.673  1.00  0.00     0.000 HD 
HETATM   71  C   UNL     1      -9.490   6.982  73.211  1.00  0.00    -0.166 C  
HETATM   72  O   UNL     1      -8.017   8.698  74.061  1.00  0.00    -0.397 OA 
BRANCH  62  73
HETATM   73  C   UNL     1      -5.773   6.693  74.278  1.00  0.00    -0.056 C  
HETATM   74  H   UNL     1      -4.450   5.488  75.062  1.00  0.00     0.000 HD 
HETATM   75  O   UNL     1      -5.230   5.393  74.528  1.00  0.00    -0.021 OA 
ENDBRANCH  62  73
ENDBRANCH  60  61
ENDBRANCH  55  60
ENDBRANCH  50  51
ENDBRANCH  47  50
ENDBRANCH  40  41
ENDBRANCH   5  40
TORSDOF 10
ENDMDL
MODEL        3
REMARK 921   NORMALIZED FREE ENERGY PREDICTED BY IDOCK:   -4.24 KCAL/MOL
REMARK 922        TOTAL FREE ENERGY PREDICTED BY IDOCK:   -3.17 KCAL/MOL
REMARK 923 INTER-LIGAND FREE ENERGY PREDICTED BY IDOCK:   -5.62 KCAL/MOL
REMARK 924 INTRA-LIGAND FREE ENERGY PREDICTED BY IDOCK:    2.45 KCAL/MOL
REMARK 927      BINDING AFFINITY PREDICTED BY RF-SCORE:    0.00 PKD
ROOT
HETATM    1  C   UNL     1     -10.871  10.124  67.164  1.00  0.00    -0.257 C  
HETATM    2  C   UNL     1     -10.636  10.272  65.642  1.00  0.00     0.026 C  
HETATM    3  O   UNL     1     -11.156  11.605  65.350  1.00  0.00    -0.294 OA 
HETATM    4  C   UNL     1     -10.465  12.529  64.464  1.00  0.00    -0.341 C  
HETATM    5  C   UNL     1      -9.165   9.897  65.211  1.00  0.00    -0.226 C  
HETATM    6  C   UNL     1      -9.709  11.681  63.446  1.00  0.00    -0.369 C  
HETATM    7  C   UNL     1      -8.650  10.770  64.043  1.00  0.00    -0.028 C  
HETATM    8  H   UNL     1      -7.458   9.436  63.327  1.00  0.00     0.000 HD 
HETATM    9  O   UNL     1      -8.120  10.006  62.953  1.00  0.00    -0.131 OA 
ENDROOT
BRANCH   4  10
HETATM   10  O   UNL     1      -9.857  13.643  65.221  1.00  0.00    -0.223 OA 
BRANCH  10  11
HETATM   11  C   UNL     1      -8.747  13.558  66.166  1.00  0.00     0.577 C  
HETATM   12  C   UNL     1      -6.398  17.323  68.202  1.00  0.00    -0.155 C  
HETATM   13  C   UNL     1      -6.868  14.507  67.656  1.00  0.00    -0.203 C  
HETATM   14  C   UNL     1      -7.744  14.747  66.349  1.00  0.00     1.235 C  
HETATM   15  C   UNL     1      -9.593  18.058  65.886  1.00  0.00     0.059 C  
HETATM   16  C   UNL     1      -7.558  15.086  68.938  1.00  0.00    -0.144 C  
HETATM   17  C   UNL     1      -8.977  14.418  68.904  1.00  0.00    -0.067 C  
HETATM   18  H   UNL     1      -6.316  18.405  65.211  1.00  0.00     0.000 HD 
HETATM   19  C   UNL     1      -6.953  14.610  70.317  1.00  0.00     0.107 C  
HETATM   20  C   UNL     1      -9.305  13.374  67.631  1.00  0.00    -0.217 C  
HETATM   21  C   UNL     1      -7.734  19.917  65.731  1.00  0.00    -0.275 C  
HETATM   22  C   UNL     1      -9.950  15.241  69.822  1.00  0.00    -0.210 C  
HETATM   23  O   UNL     1      -6.044  17.844  65.928  1.00  0.00    -0.205 OA 
HETATM   24  C   UNL     1      -9.748  16.817  69.919  1.00  0.00     0.571 C  
HETATM   25  C   UNL     1     -10.415  19.358  65.960  1.00  0.00    -0.596 C  
HETATM   26  C   UNL     1      -8.304  18.682  66.738  1.00  0.00    -0.287 C  
HETATM   27  C   UNL     1      -8.868  17.404  68.744  1.00  0.00    -0.220 C  
HETATM   28  C   UNL     1      -9.887  20.095  67.229  1.00  0.00    -0.580 C  
HETATM   29  C   UNL     1      -6.827  18.210  67.069  1.00  0.00    -0.185 C  
HETATM   30  C   UNL     1      -8.968  19.081  68.196  1.00  0.00    -0.314 C  
HETATM   31  C   UNL     1      -7.505  16.730  69.010  1.00  0.00    -0.228 C  
HETATM   32  H   UNL     1     -10.229  20.049  68.705  1.00  0.00     0.000 HD 
HETATM   33  O   UNL     1     -10.175  19.147  69.000  1.00  0.00    -0.358 OA 
BRANCH  15  34
HETATM   34  C   UNL     1     -10.691  16.920  66.164  1.00  0.00    -0.109 C  
HETATM   35  C   UNL     1     -11.367  16.118  65.330  1.00  0.00     0.060 C  
HETATM   36  O   UNL     1     -12.329  15.692  67.360  1.00  0.00     0.675 OA 
HETATM   37  C   UNL     1     -12.183  15.147  66.141  1.00  0.00     0.409 C  
HETATM   38  C   UNL     1     -11.207  16.512  67.500  1.00  0.00     0.021 C  
HETATM   39  O   UNL     1     -12.624  14.075  65.856  1.00  0.00    -0.488 OA 
ENDBRANCH  15  34
ENDBRANCH  10  11
ENDBRANCH   4  10
BRANCH   5  40
HETATM   40  O   UNL     1      -8.969   8.448  65.034  1.00  0.00    -0.058 OA 
BRANCH  40  41
HETATM   41  C   UNL     1      -8.670   7.681  66.236  1.00  0.00    -0.152 C  
HETATM   42  C   UNL     1      -5.729   8.891  65.488  1.00  0.00    -0.047 C  
HETATM   43  C   UNL     1      -6.200   7.795  66.457  1.00  0.00    -0.046 C  
HETATM   44  H   UNL     1      -6.609   4.830  63.661  1.00  0.00     0.000 HD 
HETATM   45  O   UNL     1      -7.503   8.150  66.949  1.00  0.00    -0.088 OA 
HETATM   46  O   UNL     1      -7.338   4.884  64.268  1.00  0.00    -0.057 OA 
HETATM   47  C   UNL     1      -6.075   6.398  65.788  1.00  0.00    -0.030 C  
HETATM   48  C   UNL     1      -7.342   6.106  64.990  1.00  0.00    -0.073 C  
HETATM   49  C   UNL     1      -8.505   6.193  65.957  1.00  0.00    -0.141 C  
BRANCH  47  50
HETATM   50  O   UNL     1      -5.732   5.344  66.729  1.00  0.00    -0.016 OA 
BRANCH  50  51
HETATM   51  C   UNL     1      -6.840   4.969  67.594  1.00  0.00    -0.060 C  
HETATM   52  C   UNL     1      -5.715   3.275  68.901  1.00  0.00    -0.022 C  
HETATM   53  H   UNL     1      -4.566   1.804  69.530  1.00  0.00     0.000 HD 
HETATM   54  C   UNL     1      -6.684   5.196  70.101  1.00  0.00    -0.043 C  
HETATM   55  C   UNL     1      -6.374   3.676  70.217  1.00  0.00    -0.027 C  
HETATM   56  C   UNL     1      -6.808   3.478  67.864  1.00  0.00    -0.050 C  
HETATM   57  O   UNL     1      -6.864   5.766  68.789  1.00  0.00    -0.061 OA 
HETATM   58  C   UNL     1      -5.567   6.039  70.718  1.00  0.00    -0.017 C  
HETATM   59  O   UNL     1      -5.249   1.930  68.882  1.00  0.00    -0.011 OA 
BRANCH  55  60
HETATM   60  O   UNL     1      -7.549   2.838  70.309  1.00  0.00    -0.043 OA 
BRANCH  60  61
HETATM   61  C   UNL     1      -8.651   3.271  71.078  1.00  0.00    -0.071 C  
HETATM   62  C   UNL     1     -10.411   4.876  71.135  1.00  0.00    -0.152 C  
HETATM   63  H   UNL     1      -8.416   4.104  75.046  1.00  0.00     0.000 HD 
HETATM   64  O   UNL     1      -9.296   4.346  70.413  1.00  0.00    -0.120 OA 
HETATM   65  O   UNL     1      -7.471   2.638  73.178  1.00  0.00    -0.040 OA 
HETATM   66  C   UNL     1      -9.991   5.392  72.514  1.00  0.00    -0.168 C  
HETATM   67  H   UNL     1     -10.844   6.191  74.131  1.00  0.00     0.000 HD 
HETATM   68  O   UNL     1      -8.850   4.796  74.560  1.00  0.00    -0.111 OA 
HETATM   69  C   UNL     1      -8.120   3.711  72.477  1.00  0.00    -0.077 C  
HETATM   70  H   UNL     1      -7.147   2.905  74.030  1.00  0.00     0.000 HD 
HETATM   71  C   UNL     1      -9.291   4.276  73.299  1.00  0.00    -0.112 C  
HETATM   72  O   UNL     1     -11.104   5.871  73.275  1.00  0.00    -0.252 OA 
BRANCH  62  73
HETATM   73  C   UNL     1     -10.985   5.992  70.262  1.00  0.00    -0.342 C  
HETATM   74  H   UNL     1     -10.593   6.741  68.501  1.00  0.00     0.000 HD 
HETATM   75  O   UNL     1     -10.237   6.047  69.044  1.00  0.00    -0.161 OA 
ENDBRANCH  62  73
ENDBRANCH  60  61
ENDBRANCH  55  60
ENDBRANCH  50  51
ENDBRANCH  47  50
ENDBRANCH  40  41
ENDBRANCH   5  40
TORSDOF 10
ENDMDL
MODEL        4
REMARK 921   NORMALIZED FREE ENERGY PREDICTED BY IDOCK:   -3.99 KCAL/MOL
REMARK 922        TOTAL FREE ENERGY PREDICTED BY IDOCK:   -2.77 KCAL/MOL
REMARK 923 INTER-LIGAND FREE ENERGY PREDICTED BY IDOCK:   -4.61 KCAL/MOL
REMARK 924 INTRA-LIGAND FREE ENERGY PREDICTED BY IDOCK:    1.85 KCAL/MOL
REMARK 927      BINDING AFFINITY PREDICTED BY RF-SCORE:    0.00 PKD
ROOT
HETATM    1  C   UNL     1     -11.894  13.086  70.610  1.00  0.00    -0.069 C  
HETATM    2  C   UNL     1     -12.242  12.431  69.252  1.00  0.00    -0.037 C  
HETATM    3  O   UNL     1     -12.335  13.571  68.343  1.00  0.00    -0.218 OA 
HETATM    4  C   UNL     1     -11.773  13.539  67.001  1.00  0.00    -0.383 C  
HETATM    5  C   UNL     1     -11.294  11.223  68.894  1.00  0.00    -0.275 C  
HETATM    6  C   UNL     1     -11.829  12.087  66.536  1.00  0.00    -0.237 C  
HETATM    7  C   UNL     1     -11.012  11.122  67.377  1.00  0.00    -0.290 C  
HETATM    8  H   UNL     1     -10.747   9.212  67.365  1.00  0.00     0.000 HD 
HETATM    9  O   UNL     1     -11.258   9.816  66.839  1.00  0.00     0.080 OA 
ENDROOT
BRANCH   4  10
HETATM   10  O   UNL     1     -10.569  14.389  66.904  1.00  0.00    -0.274 OA 
BRANCH  10  11
HETATM   11  C   UNL     1      -9.180  13.964  67.060  1.00  0.00    -0.250 C  
HETATM   12  C   UNL     1      -5.249  16.858  66.952  1.00  0.00    -0.162 C  
HETATM   13  C   UNL     1      -6.624  14.302  67.106  1.00  0.00     0.560 C  
HETATM   14  C   UNL     1      -7.999  14.829  66.503  1.00  0.00     0.530 C  
HETATM   15  C   UNL     1      -8.892  18.534  66.775  1.00  0.00    -0.285 C  
HETATM   16  C   UNL     1      -6.283  14.985  68.473  1.00  0.00    -0.094 C  
HETATM   17  C   UNL     1      -7.575  14.726  69.326  1.00  0.00    -0.144 C  
HETATM   18  H   UNL     1      -6.637  18.016  64.334  1.00  0.00     0.000 HD 
HETATM   19  C   UNL     1      -5.136  14.300  69.316  1.00  0.00    -0.078 C  
HETATM   20  C   UNL     1      -8.820  13.870  68.594  1.00  0.00    -0.076 C  
HETATM   21  C   UNL     1      -7.073  19.828  65.379  1.00  0.00    -0.262 C  
HETATM   22  C   UNL     1      -7.604  15.738  70.526  1.00  0.00     1.450 C  
HETATM   23  O   UNL     1      -6.151  17.370  64.833  1.00  0.00     0.763 OA 
HETATM   24  C   UNL     1      -7.002  17.195  70.306  1.00  0.00     1.340 C  
HETATM   25  C   UNL     1      -9.171  20.002  67.145  1.00  0.00    -0.483 C  
HETATM   26  C   UNL     1      -7.243  18.747  66.670  1.00  0.00    -0.235 C  
HETATM   27  C   UNL     1      -6.846  17.577  68.779  1.00  0.00    -0.233 C  
HETATM   28  C   UNL     1      -7.848  20.510  67.797  1.00  0.00    -0.214 C  
HETATM   29  C   UNL     1      -6.016  17.880  66.163  1.00  0.00    -0.213 C  
HETATM   30  C   UNL     1      -6.826  19.242  68.188  1.00  0.00    -0.257 C  
HETATM   31  C   UNL     1      -5.796  16.548  68.307  1.00  0.00    -0.118 C  
HETATM   32  H   UNL     1      -7.278  20.489  69.201  1.00  0.00     0.000 HD 
HETATM   33  O   UNL     1      -7.290  19.594  69.518  1.00  0.00    -0.308 OA 
BRANCH  15  34
HETATM   34  C   UNL     1      -9.870  17.722  67.757  1.00  0.00    -0.295 C  
HETATM   35  C   UNL     1      -9.700  17.281  69.010  1.00  0.00    -0.201 C  
HETATM   36  O   UNL     1     -11.711  16.375  68.404  1.00  0.00    -0.205 OA 
HETATM   37  C   UNL     1     -10.995  16.687  69.498  1.00  0.00    -0.228 C  
HETATM   38  C   UNL     1     -11.252  17.270  67.435  1.00  0.00     0.253 C  
HETATM   39  O   UNL     1     -11.403  16.519  70.607  1.00  0.00    -0.312 OA 
ENDBRANCH  15  34
ENDBRANCH  10  11
ENDBRANCH   4  10
BRANCH   5  40
HETATM   40  O   UNL     1     -11.704   9.961  69.534  1.00  0.00    -0.078 OA 
BRANCH  40  41
HETATM   41  C   UNL     1     -10.929   8.776  69.190  1.00  0.00     0.043 C  
HETATM   42  C   UNL     1     -13.053   7.558  71.353  1.00  0.00    -0.373 C  
HETATM   43  C   UNL     1     -11.761   7.011  70.725  1.00  0.00    -0.349 C  
HETATM   44  H   UNL     1      -9.158   9.024  73.165  1.00  0.00     0.000 HD 
HETATM   45  O   UNL     1     -11.644   7.536  69.392  1.00  0.00     0.233 OA 
HETATM   46  O   UNL     1      -8.918   9.052  72.247  1.00  0.00    -0.360 OA 
HETATM   47  C   UNL     1     -10.555   7.267  71.673  1.00  0.00    -0.206 C  
HETATM   48  C   UNL     1      -9.987   8.657  71.401  1.00  0.00    -0.254 C  
HETATM   49  C   UNL     1      -9.604   8.702  69.937  1.00  0.00    -0.174 C  
BRANCH  47  50
HETATM   50  O   UNL     1      -9.553   6.216  71.615  1.00  0.00    -0.152 OA 
BRANCH  50  51
HETATM   51  C   UNL     1      -8.734   6.272  70.414  1.00  0.00    -0.146 C  
HETATM   52  C   UNL     1      -7.117   4.575  71.003  1.00  0.00    -0.037 C  
HETATM   53  H   UNL     1      -5.868   3.377  71.945  1.00  0.00     0.000 HD 
HETATM   54  C   UNL     1      -8.423   4.250  68.940  1.00  0.00    -0.082 C  
HETATM   55  C   UNL     1      -7.039   3.985  69.598  1.00  0.00    -0.046 C  
HETATM   56  C   UNL     1      -7.275   6.068  70.769  1.00  0.00    -0.077 C  
HETATM   57  O   UNL     1      -9.211   5.361  69.412  1.00  0.00    -0.112 OA 
HETATM   58  C   UNL     1      -9.352   3.046  69.099  1.00  0.00    -0.220 C  
HETATM   59  O   UNL     1      -5.966   4.311  71.798  1.00  0.00    -0.015 OA 
BRANCH  55  60
HETATM   60  O   UNL     1      -5.941   4.684  68.969  1.00  0.00    -0.023 OA 
BRANCH  60  61
HETATM   61  C   UNL     1      -5.987   4.942  67.581  1.00  0.00    -0.023 C  
HETATM   62  C   UNL     1      -6.881   6.441  65.959  1.00  0.00    -0.057 C  
HETATM   63  H   UNL     1      -6.976   2.132  64.820  1.00  0.00     0.000 HD 
HETATM   64  O   UNL     1      -6.749   6.115  67.346  1.00  0.00    -0.057 OA 
HETATM   65  O   UNL     1      -5.871   2.502  67.095  1.00  0.00    -0.021 OA 
HETATM   66  C   UNL     1      -7.555   5.308  65.179  1.00  0.00    -0.082 C  
HETATM   67  H   UNL     1      -8.058   4.888  63.295  1.00  0.00     0.000 HD 
HETATM   68  O   UNL     1      -7.458   2.942  64.696  1.00  0.00    -0.071 OA 
HETATM   69  C   UNL     1      -6.629   3.704  66.882  1.00  0.00    -0.042 C  
HETATM   70  H   UNL     1      -6.261   1.748  66.670  1.00  0.00     0.000 HD 
HETATM   71  C   UNL     1      -6.777   4.001  65.380  1.00  0.00    -0.052 C  
HETATM   72  O   UNL     1      -7.640   5.591  63.779  1.00  0.00    -0.061 OA 
BRANCH  62  73
HETATM   73  C   UNL     1      -7.699   7.731  65.906  1.00  0.00    -0.094 C  
HETATM   74  H   UNL     1      -9.557   8.232  66.244  1.00  0.00     0.000 HD 
HETATM   75  O   UNL     1      -9.048   7.431  66.277  1.00  0.00    -0.166 OA 
ENDBRANCH  62  73
ENDBRANCH  60  61
ENDBRANCH  55  60
ENDBRANCH  50  51
ENDBRANCH  47  50
ENDBRANCH  40  41
ENDBRANCH   5  40
TORSDOF 10
ENDMDL
MODEL        5
REMARK 921   NORMALIZED FREE ENERGY PREDICTED BY IDOCK:   -2.32 KCAL/MOL
REMARK 922        TOTAL FREE ENERGY PREDICTED BY IDOCK:   -0.12 KCAL/MOL
REMARK 923 INTER-LIGAND FREE ENERGY PREDICTED BY IDOCK:   -6.89 KCAL/MOL
REMARK 924 INTRA-LIGAND FREE ENERGY PREDICTED BY IDOCK:    6.77 KCAL/MOL
REMARK 927      BINDING AFFINITY PREDICTED BY RF-SCORE:    0.00 PKD
ROOT
HETATM    1  C   UNL     1     -11.706  10.849  70.822  1.00  0.00    -0.355 C  
HETATM    2  C   UNL     1     -10.539  10.597  69.839  1.00  0.00    -0.151 C  
HETATM    3  O   UNL     1      -9.411  10.311  70.722  1.00  0.00     0.430 OA 
HETATM    4  C   UNL     1      -8.463   9.242  70.445  1.00  0.00    -0.206 C  
HETATM    5  C   UNL     1     -10.912   9.579  68.693  1.00  0.00    -0.072 C  
HETATM    6  C   UNL     1      -8.402   9.090  68.928  1.00  0.00    -0.125 C  
HETATM    7  C   UNL     1      -9.716   8.690  68.279  1.00  0.00    -0.155 C  
HETATM    8  H   UNL     1     -10.299   8.433  66.460  1.00  0.00     0.000 HD 
HETATM    9  O   UNL     1      -9.477   8.682  66.866  1.00  0.00    -0.157 OA 
ENDROOT
BRANCH   4  10
HETATM   10  O   UNL     1      -8.643   8.111  71.379  1.00  0.00    -0.119 OA 
BRANCH  10  11
HETATM   11  C   UNL     1      -9.555   6.981  71.223  1.00  0.00    -0.164 C  
HETATM   12  C   UNL     1      -9.586   3.789  67.529  1.00  0.00    -0.205 C  
HETATM   13  C   UNL     1     -10.584   4.961  69.994  1.00  0.00     0.046 C  
HETATM   14  C   UNL     1      -9.839   6.356  69.816  1.00  0.00    -0.189 C  
HETATM   15  C   UNL     1      -6.685   6.561  67.669  1.00  0.00    -0.067 C  
HETATM   16  C   UNL     1      -9.574   3.774  70.153  1.00  0.00    -0.258 C  
HETATM   17  C   UNL     1      -8.663   4.246  71.340  1.00  0.00    -0.139 C  
HETATM   18  H   UNL     1      -9.442   6.421  65.747  1.00  0.00     0.000 HD 
HETATM   19  C   UNL     1     -10.189   2.415  70.673  1.00  0.00     0.718 C  
HETATM   20  C   UNL     1      -9.008   5.738  72.028  1.00  0.00    -0.140 C  
HETATM   21  C   UNL     1      -7.427   5.942  65.220  1.00  0.00    -0.082 C  
HETATM   22  C   UNL     1      -7.326   3.422  71.314  1.00  0.00    -0.033 C  
HETATM   23  O   UNL     1      -9.875   5.785  66.304  1.00  0.00    -0.153 OA 
HETATM   24  C   UNL     1      -6.735   2.979  69.905  1.00  0.00    -0.034 C  
HETATM   25  C   UNL     1      -5.337   6.417  66.939  1.00  0.00    -0.012 C  
HETATM   26  C   UNL     1      -7.421   5.343  66.803  1.00  0.00    -0.088 C  
HETATM   27  C   UNL     1      -7.339   3.796  68.694  1.00  0.00    -0.054 C  
HETATM   28  C   UNL     1      -5.313   4.946  66.425  1.00  0.00    -0.009 C  
HETATM   29  C   UNL     1      -8.901   4.795  66.647  1.00  0.00    -0.110 C  
HETATM   30  C   UNL     1      -6.503   4.017  67.153  1.00  0.00    -0.041 C  
HETATM   31  C   UNL     1      -8.824   3.375  68.744  1.00  0.00    -0.164 C  
HETATM   32  H   UNL     1      -4.888   3.618  67.019  1.00  0.00     0.000 HD 
HETATM   33  O   UNL     1      -5.337   3.500  67.847  1.00  0.00    -0.011 OA 
BRANCH  15  34
HETATM   34  C   UNL     1      -6.247   6.756  69.202  1.00  0.00    -0.027 C  
HETATM   35  C   UNL     1      -6.327   5.935  70.258  1.00  0.00    -0.032 C  
HETATM   36  O   UNL     1      -5.618   7.905  71.178  1.00  0.00    -0.033 OA 
HETATM   37  C   UNL     1      -5.649   6.586  71.434  1.00  0.00    -0.027 C  
HETATM   38  C   UNL     1      -5.625   7.978  69.784  1.00  0.00    -0.023 C  
HETATM   39  O   UNL     1      -5.175   6.108  72.419  1.00  0.00    -0.025 OA 
ENDBRANCH  15  34
ENDBRANCH  10  11
ENDBRANCH   4  10
BRANCH   5  40
HETATM   40  O   UNL     1     -11.633  10.209  67.574  1.00  0.00    -0.155 OA 
BRANCH  40  41
HETATM   41  C   UNL     1     -10.828  10.624  66.433  1.00  0.00    -0.062 C  
HETATM   42  C   UNL     1     -10.268  13.056  68.542  1.00  0.00    -0.218 C  
HETATM   43  C   UNL     1      -9.990  12.881  67.040  1.00  0.00    -0.244 C  
HETATM   44  H   UNL     1     -13.776  13.761  65.749  1.00  0.00     0.000 HD 
HETATM   45  O   UNL     1      -9.726  11.491  66.784  1.00  0.00    -0.194 OA 
HETATM   46  O   UNL     1     -13.398  12.999  65.327  1.00  0.00    -0.534 OA 
HETATM   47  C   UNL     1     -11.130  13.529  66.205  1.00  0.00    -0.300 C  
HETATM   48  C   UNL     1     -12.256  12.516  66.019  1.00  0.00    -0.190 C  
HETATM   49  C   UNL     1     -11.653  11.300  65.347  1.00  0.00     0.282 C  
BRANCH  47  50
HETATM   50  O   UNL     1     -10.662  14.105  64.955  1.00  0.00    -0.382 OA 
BRANCH  50  51
HETATM   51  C   UNL     1     -10.125  15.448  65.110  1.00  0.00    -0.264 C  
HETATM   52  C   UNL     1     -10.888  15.880  67.362  1.00  0.00    -0.291 C  
HETATM   53  H   UNL     1     -11.906  15.961  69.047  1.00  0.00     0.000 HD 
HETATM   54  C   UNL     1      -8.467  15.998  66.927  1.00  0.00    -0.241 C  
HETATM   55  C   UNL     1      -9.613  16.600  67.789  1.00  0.00    -0.236 C  
HETATM   56  C   UNL     1     -11.084  16.302  65.915  1.00  0.00     0.094 C  
HETATM   57  O   UNL     1      -8.794  15.421  65.648  1.00  0.00     0.060 OA 
HETATM   58  C   UNL     1      -7.752  14.867  67.669  1.00  0.00    -0.197 C  
HETATM   59  O   UNL     1     -12.028  16.225  68.143  1.00  0.00     0.035 OA 
BRANCH  55  60
HETATM   60  O   UNL     1      -9.877  17.998  67.528  1.00  0.00    -0.291 OA 
BRANCH  60  61
HETATM   61  C   UNL     1      -8.859  18.950  67.753  1.00  0.00    -0.292 C  
HETATM   62  C   UNL     1      -6.523  19.329  67.480  1.00  0.00    -0.204 C  
HETATM   63  H   UNL     1      -8.238  20.749  71.341  1.00  0.00     0.000 HD 
HETATM   64  O   UNL     1      -7.626  18.445  67.266  1.00  0.00    -0.218 OA 
HETATM   65  O   UNL     1     -10.020  19.750  69.806  1.00  0.00    -0.403 OA 
HETATM   66  C   UNL     1      -6.324  19.628  68.968  1.00  0.00    -0.297 C  
HETATM   67  H   UNL     1      -5.139  20.745  70.120  1.00  0.00     0.000 HD 
HETATM   68  O   UNL     1      -7.435  20.402  70.971  1.00  0.00     0.352 OA 
HETATM   69  C   UNL     1      -8.787  19.226  69.287  1.00  0.00    -0.000 C  
HETATM   70  H   UNL     1      -9.977  19.918  70.740  1.00  0.00     0.000 HD 
HETATM   71  C   UNL     1      -7.621  20.189  69.566  1.00  0.00     0.300 C  
HETATM   72  O   UNL     1      -5.263  20.559  69.197  1.00  0.00    -0.221 OA 
BRANCH  62  73
HETATM   73  C   UNL     1      -5.304  18.635  66.873  1.00  0.00    -0.130 C  
HETATM   74  H   UNL     1      -4.957  16.939  65.967  1.00  0.00     0.000 HD 
HETATM   75  O   UNL     1      -5.715  17.371  66.344  1.00  0.00    -0.186 OA 
ENDBRANCH  62  73
ENDBRANCH  60  61
ENDBRANCH  55  60
ENDBRANCH  50  51
ENDBRANCH  47  50
ENDBRANCH  40  41
ENDBRANCH   5  40
TORSDOF 10
ENDMDL
MODEL        6
REMARK 921   NORMALIZED FREE ENERGY PREDICTED BY IDOCK:   -1.11 KCAL/MOL
REMARK 922        TOTAL FREE ENERGY PREDICTED BY IDOCK:    1.80 KCAL/MOL
REMARK 923 INTER-LIGAND FREE ENERGY PREDICTED BY IDOCK:   -2.25 KCAL/MOL
REMARK 924 INTRA-LIGAND FREE ENERGY PREDICTED BY IDOCK:    4.05 KCAL/MOL
REMARK 927      BINDING AFFINITY PREDICTED BY RF-SCORE:    0.00 PKD
ROOT
HETATM    1  C   UNL     1     -12.241   7.670  71.386  1.00  0.00    -0.351 C  
HETATM    2  C   UNL     1     -10.988   8.113  70.593  1.00  0.00    -0.244 C  
HETATM    3  O   UNL     1      -9.941   7.228  71.097  1.00  0.00    -0.186 OA 
HETATM    4  C   UNL     1      -8.962   6.607  70.217  1.00  0.00    -0.152 C  
HETATM    5  C   UNL     1     -11.248   8.208  69.040  1.00  0.00     0.417 C  
HETATM    6  C   UNL     1      -8.765   7.556  69.039  1.00  0.00    -0.136 C  
HETATM    7  C   UNL     1     -10.012   7.798  68.207  1.00  0.00    -0.178 C  
HETATM    8  H   UNL     1     -10.429   8.919  66.695  1.00  0.00     0.000 HD 
HETATM    9  O   UNL     1      -9.648   8.767  67.215  1.00  0.00    -0.151 OA 
ENDROOT
BRANCH   4  10
HETATM   10  O   UNL     1      -9.214   5.158  70.075  1.00  0.00    -0.125 OA 
BRANCH  10  11
HETATM   11  C   UNL     1     -10.009   4.504  69.039  1.00  0.00    -0.081 C  
HETATM   12  C   UNL     1      -9.399   4.959  64.216  1.00  0.00     0.107 C  
HETATM   13  C   UNL     1     -10.737   4.009  66.615  1.00  0.00     1.357 C  
HETATM   14  C   UNL     1     -10.095   5.091  67.590  1.00  0.00    -0.192 C  
HETATM   15  C   UNL     1      -6.765   6.727  66.677  1.00  0.00    -0.053 C  
HETATM   16  C   UNL     1      -9.655   3.055  66.005  1.00  0.00     0.077 C  
HETATM   17  C   UNL     1      -8.911   2.511  67.275  1.00  0.00    -0.182 C  
HETATM   18  H   UNL     1      -9.290   8.065  64.901  1.00  0.00     0.000 HD 
HETATM   19  C   UNL     1     -10.206   1.750  65.306  1.00  0.00     1.075 C  
HETATM   20  C   UNL     1      -9.447   3.053  68.770  1.00  0.00    -0.185 C  
HETATM   21  C   UNL     1      -7.199   8.078  64.459  1.00  0.00    -0.084 C  
HETATM   22  C   UNL     1      -7.516   1.936  66.840  1.00  0.00    -0.060 C  
HETATM   23  O   UNL     1      -9.724   7.230  64.770  1.00  0.00     1.892 OA 
HETATM   24  C   UNL     1      -6.749   2.635  65.634  1.00  0.00    -0.039 C  
HETATM   25  C   UNL     1      -5.343   7.132  66.250  1.00  0.00    -0.023 C  
HETATM   26  C   UNL     1      -7.306   6.522  65.115  1.00  0.00    -0.078 C  
HETATM   27  C   UNL     1      -7.291   4.085  65.312  1.00  0.00    -0.072 C  
HETATM   28  C   UNL     1      -5.145   6.483  64.845  1.00  0.00    -0.018 C  
HETATM   29  C   UNL     1      -8.712   6.279  64.423  1.00  0.00     0.364 C  
HETATM   30  C   UNL     1      -6.322   5.335  64.523  1.00  0.00    -0.033 C  
HETATM   31  C   UNL     1      -8.733   3.782  64.851  1.00  0.00    -0.115 C  
HETATM   32  H   UNL     1      -4.675   5.128  64.356  1.00  0.00     0.000 HD 
HETATM   33  O   UNL     1      -5.196   4.456  64.780  1.00  0.00    -0.011 OA 
BRANCH  15  34
HETATM   34  C   UNL     1      -6.504   5.750  67.924  1.00  0.00    -0.043 C  
HETATM   35  C   UNL     1      -6.766   4.447  68.099  1.00  0.00    -0.047 C  
HETATM   36  O   UNL     1      -6.042   5.118  70.162  1.00  0.00    -0.017 OA 
HETATM   37  C   UNL     1      -6.194   4.007  69.420  1.00  0.00    -0.028 C  
HETATM   38  C   UNL     1      -5.876   6.134  69.218  1.00  0.00    -0.020 C  
HETATM   39  O   UNL     1      -5.876   2.924  69.807  1.00  0.00    -0.021 OA 
ENDBRANCH  15  34
ENDBRANCH  10  11
ENDBRANCH   4  10
BRANCH   5  40
HETATM   40  O   UNL     1     -11.873   9.480  68.638  1.00  0.00     0.603 OA 
BRANCH  40  41
HETATM   41  C   UNL     1     -11.733  10.595  69.565  1.00  0.00    -0.284 C  
HETATM   42  C   UNL     1     -12.408  12.153  66.774  1.00  0.00     0.661 C  
HETATM   43  C   UNL     1     -11.885  12.622  68.141  1.00  0.00    -0.315 C  
HETATM   44  H   UNL     1      -7.980  11.533  67.556  1.00  0.00     0.000 HD 
HETATM   45  O   UNL     1     -12.452  11.782  69.160  1.00  0.00    -0.142 OA 
HETATM   46  O   UNL     1      -8.320  11.288  68.409  1.00  0.00    -0.138 OA 
HETATM   47  C   UNL     1     -10.334  12.721  68.115  1.00  0.00    -0.239 C  
HETATM   48  C   UNL     1      -9.736  11.360  68.460  1.00  0.00    -0.197 C  
HETATM   49  C   UNL     1     -10.279  10.969  69.819  1.00  0.00     0.199 C  
BRANCH  47  50
HETATM   50  O   UNL     1      -9.819  13.801  68.942  1.00  0.00    -0.137 OA 
BRANCH  50  51
HETATM   51  C   UNL     1      -9.050  14.780  68.190  1.00  0.00    -0.180 C  
HETATM   52  C   UNL     1     -10.816  15.594  66.754  1.00  0.00    -0.277 C  
HETATM   53  H   UNL     1     -12.406  15.779  65.605  1.00  0.00     0.000 HD 
HETATM   54  C   UNL     1      -9.668  17.225  68.200  1.00  0.00    -0.284 C  
HETATM   55  C   UNL     1     -10.370  17.051  66.823  1.00  0.00    -0.302 C  
HETATM   56  C   UNL     1      -9.515  14.809  66.748  1.00  0.00    -0.271 C  
HETATM   57  O   UNL     1      -9.078  16.067  68.825  1.00  0.00    -0.198 OA 
HETATM   58  C   UNL     1     -10.640  17.756  69.255  1.00  0.00     0.170 C  
HETATM   59  O   UNL     1     -11.592  15.288  65.601  1.00  0.00    -0.205 OA 
BRANCH  55  60
HETATM   60  O   UNL     1      -9.492  17.220  65.686  1.00  0.00    -0.515 OA 
BRANCH  60  61
HETATM   61  C   UNL     1      -8.294  17.950  65.838  1.00  0.00     0.091 C  
HETATM   62  C   UNL     1      -6.149  17.884  66.874  1.00  0.00    -0.153 C  
HETATM   63  H   UNL     1      -8.184  21.848  66.975  1.00  0.00     0.000 HD 
HETATM   64  O   UNL     1      -7.387  17.207  66.636  1.00  0.00    -0.195 OA 
HETATM   65  O   UNL     1      -9.553  20.096  65.714  1.00  0.00    -0.536 OA 
HETATM   66  C   UNL     1      -6.371  19.223  67.582  1.00  0.00    -0.207 C  
HETATM   67  H   UNL     1      -5.286  20.774  68.213  1.00  0.00     0.000 HD 
HETATM   68  O   UNL     1      -7.584  21.312  67.478  1.00  0.00    -0.373 OA 
HETATM   69  C   UNL     1      -8.643  19.316  66.506  1.00  0.00    -0.334 C  
HETATM   70  H   UNL     1      -9.766  20.928  66.121  1.00  0.00     0.000 HD 
HETATM   71  C   UNL     1      -7.340  20.090  66.769  1.00  0.00    -0.247 C  
HETATM   72  O   UNL     1      -5.149  19.942  67.774  1.00  0.00    -0.174 OA 
BRANCH  62  73
HETATM   73  C   UNL     1      -5.303  16.929  67.717  1.00  0.00    -0.122 C  
HETATM   74  H   UNL     1      -5.199  14.995  67.972  1.00  0.00     0.000 HD 
HETATM   75  O   UNL     1      -5.724  15.589  67.448  1.00  0.00    -0.313 OA 
ENDBRANCH  62  73
ENDBRANCH  60  61
ENDBRANCH  55  60
ENDBRANCH  50  51
ENDBRANCH  47  50
ENDBRANCH  40  41
ENDBRANCH   5  40
TORSDOF 10
ENDMDL
MODEL        7
REMARK 921   NORMALIZED FREE ENERGY PREDICTED BY IDOCK:   -0.50 KCAL/MOL
REMARK 922        TOTAL FREE ENERGY PREDICTED BY IDOCK:    2.77 KCAL/MOL
REMARK 923 INTER-LIGAND FREE ENERGY PREDICTED BY IDOCK:    0.54 KCAL/MOL
REMARK 924 INTRA-LIGAND FREE ENERGY PREDICTED BY IDOCK:    2.23 KCAL/MOL
REMARK 927      BINDING AFFINITY PREDICTED BY RF-SCORE:    0.00 PKD
ROOT
HETATM    1  C   UNL     1     -12.154  12.928  70.599  1.00  0.00    -0.321 C  
HETATM    2  C   UNL     1     -12.066  12.243  69.215  1.00  0.00    -0.166 C  
HETATM    3  O   UNL     1     -11.978  13.368  68.287  1.00  0.00    -0.345 OA 
HETATM    4  C   UNL     1     -11.064  13.369  67.155  1.00  0.00    -0.286 C  
HETATM    5  C   UNL     1     -10.976  11.104  69.164  1.00  0.00    -0.242 C  
HETATM    6  C   UNL     1     -10.890  11.915  66.729  1.00  0.00    -0.307 C  
HETATM    7  C   UNL     1     -10.276  11.015  67.789  1.00  0.00    -0.183 C  
HETATM    8  H   UNL     1      -9.890   9.130  67.899  1.00  0.00     0.000 HD 
HETATM    9  O   UNL     1     -10.274   9.692  67.236  1.00  0.00    -0.203 OA 
ENDROOT
BRANCH   4  10
HETATM   10  O   UNL     1      -9.941  14.303  67.374  1.00  0.00    -0.238 OA 
BRANCH  10  11
HETATM   11  C   UNL     1      -9.082  14.898  66.353  1.00  0.00    -0.258 C  
HETATM   12  C   UNL     1      -8.028  19.641  65.875  1.00  0.00    -0.265 C  
HETATM   13  C   UNL     1      -7.957  16.843  65.089  1.00  0.00     3.138 C  
HETATM   14  C   UNL     1      -9.218  16.406  65.956  1.00  0.00    -0.328 C  
HETATM   15  C   UNL     1     -10.204  18.449  69.031  1.00  0.00    -0.199 C  
HETATM   16  C   UNL     1      -6.772  17.339  65.985  1.00  0.00    -0.114 C  
HETATM   17  C   UNL     1      -6.565  16.145  66.983  1.00  0.00    -0.150 C  
HETATM   18  H   UNL     1     -11.174  19.989  66.202  1.00  0.00     0.000 HD 
HETATM   19  C   UNL     1      -5.373  17.469  65.263  1.00  0.00     0.472 C  
HETATM   20  C   UNL     1      -7.573  14.815  66.809  1.00  0.00     0.443 C  
HETATM   21  C   UNL     1     -10.868  20.837  68.140  1.00  0.00     0.834 C  
HETATM   22  C   UNL     1      -5.764  16.659  68.232  1.00  0.00    -0.118 C  
HETATM   23  O   UNL     1     -10.380  19.762  65.731  1.00  0.00    -0.476 OA 
HETATM   24  C   UNL     1      -6.002  18.154  68.724  1.00  0.00    -0.198 C  
HETATM   25  C   UNL     1     -10.334  19.266  70.330  1.00  0.00     1.193 C  
HETATM   26  C   UNL     1      -9.593  19.724  68.149  1.00  0.00    -0.483 C  
HETATM   27  C   UNL     1      -7.334  18.790  68.155  1.00  0.00    -0.281 C  
HETATM   28  C   UNL     1      -9.282  20.409  70.193  1.00  0.00     1.345 C  
HETATM   29  C   UNL     1      -9.283  20.000  66.618  1.00  0.00    -0.376 C  
HETATM   30  C   UNL     1      -8.201  20.109  68.949  1.00  0.00     0.246 C  
HETATM   31  C   UNL     1      -7.038  18.825  66.640  1.00  0.00    -0.231 C  
HETATM   32  H   UNL     1      -7.806  20.541  70.512  1.00  0.00     0.000 HD 
HETATM   33  O   UNL     1      -7.341  19.832  70.085  1.00  0.00     0.044 OA 
BRANCH  15  34
HETATM   34  C   UNL     1      -9.621  17.044  69.544  1.00  0.00     0.205 C  
HETATM   35  C   UNL     1      -8.379  16.542  69.533  1.00  0.00     0.270 C  
HETATM   36  O   UNL     1      -9.648  14.782  70.255  1.00  0.00     0.401 OA 
HETATM   37  C   UNL     1      -8.378  15.223  70.259  1.00  0.00     0.828 C  
HETATM   38  C   UNL     1     -10.410  15.949  70.174  1.00  0.00    -0.175 C  
HETATM   39  O   UNL     1      -7.490  14.630  70.792  1.00  0.00     0.730 OA 
ENDBRANCH  15  34
ENDBRANCH  10  11
ENDBRANCH   4  10
BRANCH   5  40
HETATM   40  O   UNL     1     -11.461   9.819  69.698  1.00  0.00    -0.175 OA 
BRANCH  40  41
HETATM   41  C   UNL     1     -10.593   8.666  69.506  1.00  0.00    -0.213 C  
HETATM   42  C   UNL     1     -12.980   7.384  71.330  1.00  0.00    -0.403 C  
HETATM   43  C   UNL     1     -11.582   6.888  70.927  1.00  0.00    -0.337 C  
HETATM   44  H   UNL     1      -9.488   9.050  73.705  1.00  0.00     0.000 HD 
HETATM   45  O   UNL     1     -11.277   7.398  69.618  1.00  0.00    -0.171 OA 
HETATM   46  O   UNL     1      -9.106   9.075  72.836  1.00  0.00    -0.090 OA 
HETATM   47  C   UNL     1     -10.555   7.211  72.048  1.00  0.00    -0.210 C  
HETATM   48  C   UNL     1     -10.010   8.621  71.840  1.00  0.00    -0.322 C  
HETATM   49  C   UNL     1      -9.401   8.663  70.454  1.00  0.00    -0.191 C  
BRANCH  47  50
HETATM   50  O   UNL     1      -9.512   6.205  72.172  1.00  0.00    -0.152 OA 
BRANCH  50  51
HETATM   51  C   UNL     1      -8.727   6.043  70.958  1.00  0.00    -0.132 C  
HETATM   52  C   UNL     1      -7.171   4.376  71.758  1.00  0.00    -0.063 C  
HETATM   53  H   UNL     1      -5.949   3.273  72.841  1.00  0.00     0.000 HD 
HETATM   54  C   UNL     1      -8.548   3.813  69.796  1.00  0.00    -0.065 C  
HETATM   55  C   UNL     1      -7.159   3.582  70.456  1.00  0.00    -0.034 C  
HETATM   56  C   UNL     1      -7.269   5.825  71.307  1.00  0.00    -0.074 C  
HETATM   57  O   UNL     1      -9.273   5.018  70.114  1.00  0.00    -0.124 OA 
HETATM   58  C   UNL     1      -9.525   2.691  70.154  1.00  0.00    -0.161 C  
HETATM   59  O   UNL     1      -6.010   4.179  72.559  1.00  0.00    -0.014 OA 
BRANCH  55  60
HETATM   60  O   UNL     1      -6.050   4.127  69.705  1.00  0.00    -0.022 OA 
BRANCH  60  61
HETATM   61  C   UNL     1      -6.095   4.115  68.293  1.00  0.00    -0.031 C  
HETATM   62  C   UNL     1      -6.972   5.289  66.415  1.00  0.00    -0.067 C  
HETATM   63  H   UNL     1      -7.131   0.844  66.120  1.00  0.00     0.000 HD 
HETATM   64  O   UNL     1      -6.841   5.233  67.838  1.00  0.00    -0.057 OA 
HETATM   65  O   UNL     1      -6.016   1.625  68.283  1.00  0.00    -0.022 OA 
HETATM   66  C   UNL     1      -7.663   4.038  65.865  1.00  0.00    -0.090 C  
HETATM   67  H   UNL     1      -8.177   3.273  64.096  1.00  0.00     0.000 HD 
HETATM   68  O   UNL     1      -7.601   1.622  65.843  1.00  0.00    -0.063 OA 
HETATM   69  C   UNL     1      -6.756   2.776  67.844  1.00  0.00    -0.040 C  
HETATM   70  H   UNL     1      -6.418   0.810  68.009  1.00  0.00     0.000 HD 
HETATM   71  C   UNL     1      -6.904   2.783  66.313  1.00  0.00    -0.048 C  
HETATM   72  O   UNL     1      -7.748   4.049  64.437  1.00  0.00    -0.081 OA 
BRANCH  62  73
HETATM   73  C   UNL     1      -7.771   6.557  66.115  1.00  0.00    -0.092 C  
HETATM   74  H   UNL     1      -9.012   7.701  67.099  1.00  0.00     0.000 HD 
HETATM   75  O   UNL     1      -8.515   6.913  67.284  1.00  0.00    -0.120 OA 
ENDBRANCH  62  73
ENDBRANCH  60  61
ENDBRANCH  55  60
ENDBRANCH  50  51
ENDBRANCH  47  50
ENDBRANCH  40  41
ENDBRANCH   5  40
TORSDOF 10
ENDMDL
MODEL        8
REMARK 921   NORMALIZED FREE ENERGY PREDICTED BY IDOCK:    2.89 KCAL/MOL
REMARK 922        TOTAL FREE ENERGY PREDICTED BY IDOCK:    8.14 KCAL/MOL
REMARK 923 INTER-LIGAND FREE ENERGY PREDICTED BY IDOCK:    6.30 KCAL/MOL
REMARK 924 INTRA-LIGAND FREE ENERGY PREDICTED BY IDOCK:    1.84 KCAL/MOL
REMARK 927      BINDING AFFINITY PREDICTED BY RF-SCORE:    0.00 PKD
ROOT
HETATM    1  C   UNL     1     -12.164  13.628  70.054  1.00  0.00    -0.395 C  
HETATM    2  C   UNL     1     -11.683  13.358  68.609  1.00  0.00    -0.349 C  
HETATM    3  O   UNL     1     -12.472  14.293  67.812  1.00  0.00    -0.122 OA 
HETATM    4  C   UNL     1     -11.893  15.062  66.721  1.00  0.00    -0.082 C  
HETATM    5  C   UNL     1     -10.111  13.355  68.478  1.00  0.00    -0.207 C  
HETATM    6  C   UNL     1     -10.753  14.224  66.149  1.00  0.00    -0.295 C  
HETATM    7  C   UNL     1      -9.628  13.934  67.128  1.00  0.00    -0.247 C  
HETATM    8  H   UNL     1      -8.007  12.895  67.050  1.00  0.00     0.000 HD 
HETATM    9  O   UNL     1      -8.710  13.077  66.437  1.00  0.00    -0.010 OA 
ENDROOT
BRANCH   4  10
HETATM   10  O   UNL     1     -11.765  16.490  67.081  1.00  0.00     0.541 OA 
BRANCH  10  11
HETATM   11  C   UNL     1     -11.495  17.039  68.408  1.00  0.00     0.292 C  
HETATM   12  C   UNL     1      -7.138  18.410  70.131  1.00  0.00     0.956 C  
HETATM   13  C   UNL     1      -9.996  17.912  70.314  1.00  0.00     1.595 C  
HETATM   14  C   UNL     1     -10.069  16.954  69.047  1.00  0.00    -0.292 C  
HETATM   15  C   UNL     1      -7.424  17.235  66.303  1.00  0.00    -0.354 C  
HETATM   16  C   UNL     1      -9.573  19.369  69.924  1.00  0.00     0.436 C  
HETATM   17  C   UNL     1     -10.609  19.748  68.809  1.00  0.00     0.004 C  
HETATM   18  H   UNL     1      -6.213  15.592  68.977  1.00  0.00     0.000 HD 
HETATM   19  C   UNL     1      -9.799  20.471  71.034  1.00  0.00     2.018 C  
HETATM   20  C   UNL     1     -11.760  18.595  68.405  1.00  0.00     2.551 C  
HETATM   21  C   UNL     1      -5.132  16.593  67.429  1.00  0.00    -0.157 C  
HETATM   22  C   UNL     1     -10.046  20.958  67.980  1.00  0.00     0.117 C  
HETATM   23  O   UNL     1      -6.644  16.164  69.602  1.00  0.00    -0.199 OA 
HETATM   24  C   UNL     1      -8.474  21.058  67.757  1.00  0.00     0.167 C  
HETATM   25  C   UNL     1      -6.401  17.618  65.218  1.00  0.00     0.465 C  
HETATM   26  C   UNL     1      -6.429  17.672  67.566  1.00  0.00    -0.177 C  
HETATM   27  C   UNL     1      -7.720  19.695  68.029  1.00  0.00    -0.332 C  
HETATM   28  C   UNL     1      -5.489  18.692  65.886  1.00  0.00    -0.198 C  
HETATM   29  C   UNL     1      -6.457  17.506  69.143  1.00  0.00    -0.240 C  
HETATM   30  C   UNL     1      -6.164  19.280  67.304  1.00  0.00    -0.186 C  
HETATM   31  C   UNL     1      -7.977  19.494  69.539  1.00  0.00     0.133 C  
HETATM   32  H   UNL     1      -5.561  20.198  66.047  1.00  0.00     0.000 HD 
HETATM   33  O   UNL     1      -6.398  20.420  66.437  1.00  0.00    -0.192 OA 
BRANCH  15  34
HETATM   34  C   UNL     1      -8.808  17.789  65.706  1.00  0.00     0.318 C  
HETATM   35  C   UNL     1      -9.477  18.928  65.932  1.00  0.00     0.088 C  
HETATM   36  O   UNL     1     -10.915  17.727  64.620  1.00  0.00    -0.707 OA 
HETATM   37  C   UNL     1     -10.663  18.989  65.006  1.00  0.00     1.265 C  
HETATM   38  C   UNL     1      -9.676  17.090  64.718  1.00  0.00     2.652 C  
HETATM   39  O   UNL     1     -11.292  19.923  64.610  1.00  0.00     0.211 OA 
ENDBRANCH  15  34
ENDBRANCH  10  11
ENDBRANCH   4  10
BRANCH   5  40
HETATM   40  O   UNL     1      -9.504  12.065  68.851  1.00  0.00    -0.030 OA 
BRANCH  40  41
HETATM   41  C   UNL     1     -10.019  10.884  68.172  1.00  0.00    -0.174 C  
HETATM   42  C   UNL     1      -8.191   9.538  70.521  1.00  0.00    -0.203 C  
HETATM   43  C   UNL     1      -8.851   8.978  69.251  1.00  0.00    -0.139 C  
HETATM   44  H   UNL     1      -5.992  10.270  66.618  1.00  0.00     0.000 HD 
HETATM   45  O   UNL     1     -10.066   9.707  69.009  1.00  0.00    -0.172 OA 
HETATM   46  O   UNL     1      -6.881  10.430  66.324  1.00  0.00    -0.102 OA 
HETATM   47  C   UNL     1      -7.825   8.945  68.084  1.00  0.00    -0.101 C  
HETATM   48  C   UNL     1      -7.825  10.296  67.375  1.00  0.00    -0.102 C  
HETATM   49  C   UNL     1      -9.242  10.550  66.905  1.00  0.00    -0.173 C  
BRANCH  47  50
HETATM   50  O   UNL     1      -8.025   7.822  67.182  1.00  0.00    -0.113 OA 
BRANCH  50  51
HETATM   51  C   UNL     1      -7.083   6.736  67.404  1.00  0.00    -0.084 C  
HETATM   52  C   UNL     1      -8.313   5.538  69.105  1.00  0.00    -0.098 C  
HETATM   53  H   UNL     1      -9.451   5.026  70.630  1.00  0.00     0.000 HD 
HETATM   54  C   UNL     1      -7.742   4.330  67.036  1.00  0.00    -0.092 C  
HETATM   55  C   UNL     1      -7.956   4.156  68.567  1.00  0.00    -0.073 C  
HETATM   56  C   UNL     1      -7.057   6.362  68.872  1.00  0.00    -0.082 C  
HETATM   57  O   UNL     1      -7.352   5.624  66.536  1.00  0.00    -0.076 OA 
HETATM   58  C   UNL     1      -9.018   4.004  66.258  1.00  0.00    -0.127 C  
HETATM   59  O   UNL     1      -8.665   5.540  70.485  1.00  0.00    -0.130 OA 
BRANCH  55  60
HETATM   60  O   UNL     1      -6.763   3.778  69.292  1.00  0.00    -0.039 OA 
BRANCH  60  61
HETATM   61  C   UNL     1      -6.883   3.217  70.582  1.00  0.00    -0.033 C  
HETATM   62  C   UNL     1      -8.442   2.202  72.071  1.00  0.00    -0.057 C  
HETATM   63  H   UNL     1      -5.614   5.085  73.957  1.00  0.00     0.000 HD 
HETATM   64  O   UNL     1      -8.212   2.760  70.774  1.00  0.00    -0.049 OA 
HETATM   65  O   UNL     1      -5.163   4.791  71.459  1.00  0.00    -0.004 OA 
HETATM   66  C   UNL     1      -8.156   3.221  73.177  1.00  0.00    -0.073 C  
HETATM   67  H   UNL     1      -8.145   3.294  75.171  1.00  0.00     0.000 HD 
HETATM   68  O   UNL     1      -6.500   4.754  74.043  1.00  0.00    -0.057 OA 
HETATM   69  C   UNL     1      -6.510   4.316  71.623  1.00  0.00    -0.019 C  
HETATM   70  H   UNL     1      -4.936   5.461  72.092  1.00  0.00     0.000 HD 
HETATM   71  C   UNL     1      -6.726   3.756  73.039  1.00  0.00    -0.038 C  
HETATM   72  O   UNL     1      -8.322   2.662  74.484  1.00  0.00    -0.066 OA 
BRANCH  62  73
HETATM   73  C   UNL     1      -9.901   1.747  72.081  1.00  0.00    -0.127 C  
HETATM   74  H   UNL     1     -11.583   2.435  72.797  1.00  0.00     0.000 HD 
HETATM   75  O   UNL     1     -10.676   2.718  72.790  1.00  0.00    -0.135 OA 
ENDBRANCH  62  73
ENDBRANCH  60  61
ENDBRANCH  55  60
ENDBRANCH  50  51
ENDBRANCH  47  50
ENDBRANCH  40  41
ENDBRANCH   5  40
TORSDOF 10
ENDMDL
MODEL        9
REMARK 921   NORMALIZED FREE ENERGY PREDICTED BY IDOCK:    3.46 KCAL/MOL
REMARK 922        TOTAL FREE ENERGY PREDICTED BY IDOCK:    9.03 KCAL/MOL
REMARK 923 INTER-LIGAND FREE ENERGY PREDICTED BY IDOCK:   -9.39 KCAL/MOL
REMARK 924 INTRA-LIGAND FREE ENERGY PREDICTED BY IDOCK:   18.43 KCAL/MOL
REMARK 927      BINDING AFFINITY PREDICTED BY RF-SCORE:    0.00 PKD
ROOT
HETATM    1  C   UNL     1      -9.839  10.215  69.567  1.00  0.00    -0.255 C  
HETATM    2  C   UNL     1     -11.324  10.220  70.002  1.00  0.00    -0.301 C  
HETATM    3  O   UNL     1     -11.685   8.805  69.982  1.00  0.00     0.040 OA 
HETATM    4  C   UNL     1     -12.490   8.196  71.030  1.00  0.00    -0.099 C  
HETATM    5  C   UNL     1     -11.576  11.071  71.306  1.00  0.00     0.577 C  
HETATM    6  C   UNL     1     -13.406   9.289  71.572  1.00  0.00    -0.436 C  
HETATM    7  C   UNL     1     -12.681  10.466  72.203  1.00  0.00    -0.134 C  
HETATM    8  H   UNL     1     -13.243  12.146  72.963  1.00  0.00     0.000 HD 
HETATM    9  O   UNL     1     -13.696  11.409  72.569  1.00  0.00     0.105 OA 
ENDROOT
BRANCH   4  10
HETATM   10  O   UNL     1     -11.675   7.306  71.883  1.00  0.00    -0.270 OA 
BRANCH  10  11
HETATM   11  C   UNL     1     -10.625   7.707  72.816  1.00  0.00    -0.325 C  
HETATM   12  C   UNL     1      -6.614   5.150  73.915  1.00  0.00    -0.073 C  
HETATM   13  C   UNL     1      -8.456   7.383  74.172  1.00  0.00    -0.242 C  
HETATM   14  C   UNL     1      -9.690   6.646  73.489  1.00  0.00    -0.213 C  
HETATM   15  C   UNL     1      -9.068   3.768  71.055  1.00  0.00    -0.180 C  
HETATM   16  C   UNL     1      -7.266   7.582  73.173  1.00  0.00    -0.089 C  
HETATM   17  C   UNL     1      -7.944   8.312  71.961  1.00  0.00    -0.176 C  
HETATM   18  H   UNL     1      -8.683   2.755  74.239  1.00  0.00     0.000 HD 
HETATM   19  C   UNL     1      -6.142   8.591  73.637  1.00  0.00    -0.130 C  
HETATM   20  C   UNL     1      -9.585   8.640  72.083  1.00  0.00    -0.378 C  
HETATM   21  C   UNL     1      -7.913   1.861  72.457  1.00  0.00    -0.052 C  
HETATM   22  C   UNL     1      -7.028   8.156  70.695  1.00  0.00    -0.037 C  
HETATM   23  O   UNL     1      -8.250   3.556  74.508  1.00  0.00    -0.079 OA 
HETATM   24  C   UNL     1      -6.191   6.813  70.525  1.00  0.00    -0.031 C  
HETATM   25  C   UNL     1      -8.628   2.773  69.965  1.00  0.00    -0.108 C  
HETATM   26  C   UNL     1      -7.739   3.487  72.018  1.00  0.00    -0.058 C  
HETATM   27  C   UNL     1      -6.722   5.632  71.433  1.00  0.00    -0.060 C  
HETATM   28  C   UNL     1      -7.077   2.685  70.104  1.00  0.00    -0.033 C  
HETATM   29  C   UNL     1      -7.299   3.882  73.490  1.00  0.00    -0.069 C  
HETATM   30  C   UNL     1      -6.471   3.924  71.056  1.00  0.00    -0.026 C  
HETATM   31  C   UNL     1      -6.458   6.185  72.850  1.00  0.00    -0.064 C  
HETATM   32  H   UNL     1      -5.912   3.479  69.547  1.00  0.00     0.000 HD 
HETATM   33  O   UNL     1      -6.048   4.397  69.750  1.00  0.00    -0.021 OA 
BRANCH  15  34
HETATM   34  C   UNL     1      -9.608   5.018  70.204  1.00  0.00    -0.257 C  
HETATM   35  C   UNL     1      -8.966   5.921  69.451  1.00  0.00    -0.122 C  
HETATM   36  O   UNL     1     -11.113   6.708  69.495  1.00  0.00    -0.286 OA 
HETATM   37  C   UNL     1      -9.981   6.805  68.776  1.00  0.00    -0.147 C  
HETATM   38  C   UNL     1     -11.030   5.445  70.085  1.00  0.00    -0.006 C  
HETATM   39  O   UNL     1      -9.899   7.466  67.786  1.00  0.00    -0.142 OA 
ENDBRANCH  15  34
ENDBRANCH  10  11
ENDBRANCH   4  10
BRANCH   5  40
HETATM   40  O   UNL     1     -11.718  12.512  71.035  1.00  0.00     0.331 OA 
BRANCH  40  41
HETATM   41  C   UNL     1     -12.400  12.877  69.800  1.00  0.00    -0.055 C  
HETATM   42  C   UNL     1      -9.917  11.084  68.664  1.00  0.00    -0.205 C  
HETATM   43  C   UNL     1     -10.929  12.025  67.991  1.00  0.00    -0.223 C  
HETATM   44  H   UNL     1      -9.041  15.527  68.965  1.00  0.00     0.000 HD 
HETATM   45  O   UNL     1     -12.169  11.953  68.713  1.00  0.00    -0.318 OA 
HETATM   46  O   UNL     1      -9.980  15.548  69.109  1.00  0.00    -0.215 OA 
HETATM   47  C   UNL     1     -10.312  13.442  67.824  1.00  0.00    -0.241 C  
HETATM   48  C   UNL     1     -10.551  14.249  69.097  1.00  0.00    -0.186 C  
HETATM   49  C   UNL     1     -12.048  14.282  69.328  1.00  0.00    -0.351 C  
BRANCH  47  50
HETATM   50  O   UNL     1     -10.765  14.121  66.620  1.00  0.00    -0.285 OA 
BRANCH  50  51
HETATM   51  C   UNL     1      -9.957  13.811  65.451  1.00  0.00    -0.229 C  
HETATM   52  C   UNL     1     -10.402  11.439  65.328  1.00  0.00    -0.282 C  
HETATM   53  H   UNL     1     -10.768   9.545  65.728  1.00  0.00     0.000 HD 
HETATM   54  C   UNL     1     -10.981  12.820  63.372  1.00  0.00    -0.158 C  
HETATM   55  C   UNL     1     -10.490  11.408  63.805  1.00  0.00    -0.399 C  
HETATM   56  C   UNL     1      -9.306  12.453  65.614  1.00  0.00     0.045 C  
HETATM   57  O   UNL     1     -10.718  13.940  64.240  1.00  0.00    -0.339 OA 
HETATM   58  C   UNL     1     -12.500  12.845  63.188  1.00  0.00    -0.166 C  
HETATM   59  O   UNL     1     -10.082  10.179  65.907  1.00  0.00    -0.258 OA 
BRANCH  55  60
HETATM   60  O   UNL     1      -9.150  11.088  63.367  1.00  0.00    -0.213 OA 
BRANCH  60  61
HETATM   61  C   UNL     1      -8.437  10.054  64.013  1.00  0.00    -0.177 C  
HETATM   62  C   UNL     1      -6.446   9.603  65.240  1.00  0.00    -0.083 C  
HETATM   63  H   UNL     1      -7.581   6.496  62.253  1.00  0.00     0.000 HD 
HETATM   64  O   UNL     1      -7.255  10.586  64.588  1.00  0.00    -0.065 OA 
HETATM   65  O   UNL     1      -9.285   8.397  62.358  1.00  0.00    -0.443 OA 
HETATM   66  C   UNL     1      -6.012   8.501  64.270  1.00  0.00    -0.066 C  
HETATM   67  H   UNL     1      -4.983   6.793  64.316  1.00  0.00     0.000 HD 
HETATM   68  O   UNL     1      -6.817   6.886  62.661  1.00  0.00    -0.049 OA 
HETATM   69  C   UNL     1      -8.105   8.962  62.951  1.00  0.00    -0.174 C  
HETATM   70  H   UNL     1      -9.083   7.732  61.711  1.00  0.00     0.000 HD 
HETATM   71  C   UNL     1      -7.245   7.870  63.611  1.00  0.00    -0.090 C  
HETATM   72  O   UNL     1      -5.253   7.477  64.918  1.00  0.00    -0.028 OA 
BRANCH  62  73
HETATM   73  C   UNL     1      -5.247  10.358  65.814  1.00  0.00    -0.075 C  
HETATM   74  H   UNL     1      -4.928  12.140  66.548  1.00  0.00     0.000 HD 
HETATM   75  O   UNL     1      -5.673  11.671  66.192  1.00  0.00    -0.215 OA 
ENDBRANCH  62  73
ENDBRANCH  60  61
ENDBRANCH  55  60
ENDBRANCH  50  51
ENDBRANCH  47  50
ENDBRANCH  40  41
ENDBRANCH   5  40
TORSDOF 10
ENDMDL
MODEL       10
REMARK 921   NORMALIZED FREE ENERGY PREDICTED BY IDOCK:    3.49 KCAL/MOL
REMARK 922        TOTAL FREE ENERGY PREDICTED BY IDOCK:    9.10 KCAL/MOL
REMARK 923 INTER-LIGAND FREE ENERGY PREDICTED BY IDOCK:    6.71 KCAL/MOL
REMARK 924 INTRA-LIGAND FREE ENERGY PREDICTED BY IDOCK:    2.38 KCAL/MOL
REMARK 927      BINDING AFFINITY PREDICTED BY RF-SCORE:    0.00 PKD
ROOT
HETATM    1  C   UNL     1     -11.854  14.381  70.632  1.00  0.00    -0.361 C  
HETATM    2  C   UNL     1     -11.613  13.469  69.406  1.00  0.00    -0.312 C  
HETATM    3  O   UNL     1     -11.785  14.375  68.273  1.00  0.00    -0.310 OA 
HETATM    4  C   UNL     1     -10.896  14.352  67.121  1.00  0.00    -0.292 C  
HETATM    5  C   UNL     1     -10.292  12.615  69.528  1.00  0.00     0.689 C  
HETATM    6  C   UNL     1     -10.395  12.918  66.980  1.00  0.00    -0.245 C  
HETATM    7  C   UNL     1      -9.591  12.410  68.166  1.00  0.00    -0.218 C  
HETATM    8  H   UNL     1      -8.786  10.720  68.625  1.00  0.00     0.000 HD 
HETATM    9  O   UNL     1      -9.288  11.038  67.883  1.00  0.00    -0.152 OA 
ENDROOT
BRANCH   4  10
HETATM   10  O   UNL     1     -10.015  15.538  67.101  1.00  0.00    -0.237 OA 
BRANCH  10  11
HETATM   11  C   UNL     1     -10.231  16.779  66.361  1.00  0.00    -0.323 C  
HETATM   12  C   UNL     1      -8.963  21.262  67.818  1.00  0.00     0.355 C  
HETATM   13  C   UNL     1     -10.190  19.334  66.022  1.00  0.00    -0.512 C  
HETATM   14  C   UNL     1     -10.283  18.162  67.093  1.00  0.00    -0.376 C  
HETATM   15  C   UNL     1      -7.887  18.118  70.070  1.00  0.00     1.664 C  
HETATM   16  C   UNL     1      -8.706  19.724  65.707  1.00  0.00     0.003 C  
HETATM   17  C   UNL     1      -8.060  18.350  65.310  1.00  0.00     1.499 C  
HETATM   18  H   UNL     1     -10.347  20.364  70.538  1.00  0.00     0.000 HD 
HETATM   19  C   UNL     1      -8.490  20.623  64.426  1.00  0.00     2.519 C  
HETATM   20  C   UNL     1      -9.055  16.999  65.331  1.00  0.00     1.025 C  
HETATM   21  C   UNL     1      -8.428  20.279  71.475  1.00  0.00     2.152 C  
HETATM   22  C   UNL     1      -6.499  18.468  65.433  1.00  0.00    -0.282 C  
HETATM   23  O   UNL     1     -10.342  20.653  69.634  1.00  0.00     0.137 OA 
HETATM   24  C   UNL     1      -5.895  19.399  66.573  1.00  0.00    -0.171 C  
HETATM   25  C   UNL     1      -6.728  18.156  71.082  1.00  0.00     2.815 C  
HETATM   26  C   UNL     1      -7.973  19.776  69.924  1.00  0.00     0.613 C  
HETATM   27  C   UNL     1      -6.940  19.746  67.709  1.00  0.00    -0.289 C  
HETATM   28  C   UNL     1      -6.002  19.510  70.813  1.00  0.00    -0.170 C  
HETATM   29  C   UNL     1      -8.972  20.806  69.249  1.00  0.00     1.739 C  
HETATM   30  C   UNL     1      -6.478  20.187  69.356  1.00  0.00    -0.295 C  
HETATM   31  C   UNL     1      -7.989  20.565  66.926  1.00  0.00    -0.295 C  
HETATM   32  H   UNL     1      -4.906  19.959  69.868  1.00  0.00     0.000 HD 
HETATM   33  O   UNL     1      -5.154  19.722  68.982  1.00  0.00    -0.177 OA 
BRANCH  15  34
HETATM   34  C   UNL     1      -7.472  16.914  69.091  1.00  0.00    -0.180 C  
HETATM   35  C   UNL     1      -6.592  16.856  68.082  1.00  0.00    -0.148 C  
HETATM   36  O   UNL     1      -7.646  14.829  67.977  1.00  0.00    -0.106 OA 
HETATM   37  C   UNL     1      -6.513  15.436  67.586  1.00  0.00    -0.165 C  
HETATM   38  C   UNL     1      -8.031  15.534  69.119  1.00  0.00    -0.222 C  
HETATM   39  O   UNL     1      -5.649  14.869  66.990  1.00  0.00     0.030 OA 
ENDBRANCH  15  34
ENDBRANCH  10  11
ENDBRANCH   4  10
BRANCH   5  40
HETATM   40  O   UNL     1     -10.471  11.389  70.324  1.00  0.00     0.706 OA 
BRANCH  40  41
HETATM   41  C   UNL     1      -9.985  10.151  69.730  1.00  0.00    -0.220 C  
HETATM   42  C   UNL     1     -12.789   9.163  71.084  1.00  0.00    -0.251 C  
HETATM   43  C   UNL     1     -11.583   8.413  70.498  1.00  0.00    -0.128 C  
HETATM   44  H   UNL     1      -9.159   8.766  73.780  1.00  0.00     0.000 HD 
HETATM   45  O   UNL     1     -11.032   9.201  69.429  1.00  0.00    -0.197 OA 
HETATM   46  O   UNL     1      -8.718   8.954  72.960  1.00  0.00    -0.285 OA 
HETATM   47  C   UNL     1     -10.600   8.009  71.632  1.00  0.00    -0.227 C  
HETATM   48  C   UNL     1      -9.635   9.161  71.896  1.00  0.00     0.040 C  
HETATM   49  C   UNL     1      -8.933   9.461  70.588  1.00  0.00    -0.285 C  
BRANCH  47  50
HETATM   50  O   UNL     1      -9.929   6.744  71.380  1.00  0.00    -0.180 OA 
BRANCH  50  51
HETATM   51  C   UNL     1      -9.577   6.553  69.981  1.00  0.00    -0.159 C  
HETATM   52  C   UNL     1      -7.522   5.319  70.296  1.00  0.00    -0.071 C  
HETATM   53  H   UNL     1      -5.803   4.615  70.951  1.00  0.00     0.000 HD 
HETATM   54  C   UNL     1      -9.318   4.247  68.995  1.00  0.00    -0.160 C  
HETATM   55  C   UNL     1      -7.773   4.362  69.135  1.00  0.00    -0.055 C  
HETATM   56  C   UNL     1      -8.075   6.647  69.806  1.00  0.00    -0.126 C  
HETATM   57  O   UNL     1     -10.138   5.337  69.462  1.00  0.00    -0.207 OA 
HETATM   58  C   UNL     1      -9.854   3.032  69.756  1.00  0.00     0.217 C  
HETATM   59  O   UNL     1      -6.148   5.446  70.645  1.00  0.00    -0.020 OA 
BRANCH  55  60
HETATM   60  O   UNL     1      -7.122   4.981  68.002  1.00  0.00    -0.060 OA 
BRANCH  60  61
HETATM   61  C   UNL     1      -7.866   5.239  66.830  1.00  0.00    -0.100 C  
HETATM   62  C   UNL     1      -8.669   4.221  64.831  1.00  0.00    -0.130 C  
HETATM   63  H   UNL     1      -7.122   8.375  64.358  1.00  0.00     0.000 HD 
HETATM   64  O   UNL     1      -7.958   4.051  66.060  1.00  0.00    -0.093 OA 
HETATM   65  O   UNL     1      -7.041   7.589  66.788  1.00  0.00    -0.078 OA 
HETATM   66  C   UNL     1      -8.006   5.277  63.942  1.00  0.00    -0.105 C  
HETATM   67  H   UNL     1      -8.328   6.160  62.182  1.00  0.00     0.000 HD 
HETATM   68  O   UNL     1      -7.201   7.556  63.883  1.00  0.00    -0.071 OA 
HETATM   69  C   UNL     1      -7.139   6.369  66.036  1.00  0.00    -0.067 C  
HETATM   70  H   UNL     1      -6.598   8.277  66.306  1.00  0.00     0.000 HD 
HETATM   71  C   UNL     1      -7.879   6.600  64.708  1.00  0.00    -0.115 C  
HETATM   72  O   UNL     1      -8.739   5.505  62.734  1.00  0.00    -0.074 OA 
BRANCH  62  73
HETATM   73  C   UNL     1      -8.688   2.847  64.162  1.00  0.00    -0.094 C  
HETATM   74  H   UNL     1      -8.630   0.990  64.764  1.00  0.00     0.000 HD 
HETATM   75  O   UNL     1      -8.619   1.844  65.179  1.00  0.00    -0.096 OA 
ENDBRANCH  62  73
ENDBRANCH  60  61
ENDBRANCH  55  60
ENDBRANCH  50  51
ENDBRANCH  47  50
ENDBRANCH  40  41
ENDBRANCH   5  40
TORSDOF 10
ENDMDL
MODEL       11
REMARK 921   NORMALIZED FREE ENERGY PREDICTED BY IDOCK:    5.14 KCAL/MOL
REMARK 922        TOTAL FREE ENERGY PREDICTED BY IDOCK:   11.70 KCAL/MOL
REMARK 923 INTER-LIGAND FREE ENERGY PREDICTED BY IDOCK:    3.79 KCAL/MOL
REMARK 924 INTRA-LIGAND FREE ENERGY PREDICTED BY IDOCK:    7.91 KCAL/MOL
REMARK 927      BINDING AFFINITY PREDICTED BY RF-SCORE:    0.00 PKD
ROOT
HETATM    1  C   UNL     1     -13.622  10.775  69.206  1.00  0.00     3.409 C  
HETATM    2  C   UNL     1     -12.159  10.460  68.813  1.00  0.00     0.387 C  
HETATM    3  O   UNL     1     -11.696   9.602  69.900  1.00  0.00    -0.117 OA 
HETATM    4  C   UNL     1     -10.889   8.414  69.660  1.00  0.00    -0.148 C  
HETATM    5  C   UNL     1     -12.019   9.971  67.320  1.00  0.00     2.929 C  
HETATM    6  C   UNL     1     -10.077   8.682  68.397  1.00  0.00    -0.217 C  
HETATM    7  C   UNL     1     -10.909   8.909  67.146  1.00  0.00     0.001 C  
HETATM    8  H   UNL     1     -10.501   9.366  65.318  1.00  0.00     0.000 HD 
HETATM    9  O   UNL     1      -9.980   9.223  66.101  1.00  0.00    -0.279 OA 
ENDROOT
BRANCH   4  10
HETATM   10  O   UNL     1     -11.671   7.182  69.891  1.00  0.00    -0.129 OA 
BRANCH  10  11
HETATM   11  C   UNL     1     -11.252   5.812  69.605  1.00  0.00    -0.090 C  
HETATM   12  C   UNL     1      -6.652   4.219  69.232  1.00  0.00    -0.040 C  
HETATM   13  C   UNL     1      -9.543   3.945  69.111  1.00  0.00    -0.218 C  
HETATM   14  C   UNL     1      -9.842   5.504  68.997  1.00  0.00    -0.220 C  
HETATM   15  C   UNL     1      -7.301   8.025  70.332  1.00  0.00    -0.063 C  
HETATM   16  C   UNL     1      -8.872   3.576  70.477  1.00  0.00    -0.142 C  
HETATM   17  C   UNL     1      -9.862   4.185  71.531  1.00  0.00    -0.255 C  
HETATM   18  H   UNL     1      -6.314   6.776  67.369  1.00  0.00     0.000 HD 
HETATM   19  C   UNL     1      -8.845   2.037  70.836  1.00  0.00    -0.126 C  
HETATM   20  C   UNL     1     -11.222   4.972  70.941  1.00  0.00     0.722 C  
HETATM   21  C   UNL     1      -5.126   7.708  68.881  1.00  0.00    -0.018 C  
HETATM   22  C   UNL     1      -9.116   4.333  72.905  1.00  0.00    -0.125 C  
HETATM   23  O   UNL     1      -6.606   5.895  67.571  1.00  0.00    -0.052 OA 
HETATM   24  C   UNL     1      -7.562   4.677  72.892  1.00  0.00    -0.087 C  
HETATM   25  C   UNL     1      -6.267   8.878  71.090  1.00  0.00    -0.057 C  
HETATM   26  C   UNL     1      -6.194   6.863  69.887  1.00  0.00    -0.031 C  
HETATM   27  C   UNL     1      -7.066   5.252  71.505  1.00  0.00    -0.067 C  
HETATM   28  C   UNL     1      -5.146   7.877  71.505  1.00  0.00    -0.030 C  
HETATM   29  C   UNL     1      -6.190   5.612  68.911  1.00  0.00    -0.029 C  
HETATM   30  C   UNL     1      -5.643   6.286  71.332  1.00  0.00    -0.026 C  
HETATM   31  C   UNL     1      -7.297   4.047  70.568  1.00  0.00    -0.041 C  
HETATM   32  H   UNL     1      -4.929   6.952  72.686  1.00  0.00     0.000 HD 
HETATM   33  O   UNL     1      -5.694   6.396  72.779  1.00  0.00    -0.037 OA 
BRANCH  15  34
HETATM   34  C   UNL     1      -8.579   8.060  71.303  1.00  0.00    -0.145 C  
HETATM   35  C   UNL     1      -9.233   7.080  71.942  1.00  0.00    -0.147 C  
HETATM   36  O   UNL     1     -10.533   8.921  72.334  1.00  0.00    -0.264 OA 
HETATM   37  C   UNL     1     -10.290   7.692  72.822  1.00  0.00    -0.295 C  
HETATM   38  C   UNL     1      -9.338   9.276  71.705  1.00  0.00     0.119 C  
HETATM   39  O   UNL     1     -10.833   7.266  73.796  1.00  0.00    -0.300 OA 
ENDBRANCH  15  34
ENDBRANCH  10  11
ENDBRANCH   4  10
BRANCH   5  40
HETATM   40  O   UNL     1     -11.972  11.081  66.352  1.00  0.00     0.272 OA 
BRANCH  40  41
HETATM   41  C   UNL     1     -10.683  11.347  65.730  1.00  0.00    -0.251 C  
HETATM   42  C   UNL     1     -10.361  12.908  68.582  1.00  0.00    -0.202 C  
HETATM   43  C   UNL     1      -9.549  12.922  67.277  1.00  0.00    -0.220 C  
HETATM   44  H   UNL     1     -12.006  15.468  65.214  1.00  0.00     0.000 HD 
HETATM   45  O   UNL     1      -9.625  11.618  66.677  1.00  0.00    -0.195 OA 
HETATM   46  O   UNL     1     -11.731  14.713  64.709  1.00  0.00    -0.391 OA 
HETATM   47  C   UNL     1      -9.990  14.117  66.385  1.00  0.00    -0.293 C  
HETATM   48  C   UNL     1     -11.180  13.693  65.529  1.00  0.00    -0.293 C  
HETATM   49  C   UNL     1     -10.740  12.488  64.723  1.00  0.00    -0.333 C  
BRANCH  47  50
HETATM   50  O   UNL     1      -8.897  14.683  65.611  1.00  0.00     0.450 OA 
BRANCH  50  51
HETATM   51  C   UNL     1      -8.484  15.996  66.080  1.00  0.00    -0.212 C  
HETATM   52  C   UNL     1     -10.449  16.547  67.375  1.00  0.00    -0.310 C  
HETATM   53  H   UNL     1     -12.284  16.743  68.065  1.00  0.00     0.000 HD 
HETATM   54  C   UNL     1      -8.279  16.506  68.541  1.00  0.00    -0.212 C  
HETATM   55  C   UNL     1      -9.669  17.204  68.510  1.00  0.00    -0.291 C  
HETATM   56  C   UNL     1      -9.675  16.931  66.125  1.00  0.00    -0.296 C  
HETATM   57  O   UNL     1      -7.780  15.907  67.329  1.00  0.00    -0.154 OA 
HETATM   58  C   UNL     1      -8.257  15.360  69.554  1.00  0.00    -0.207 C  
HETATM   59  O   UNL     1     -11.800  16.983  67.283  1.00  0.00     0.927 OA 
BRANCH  55  60
HETATM   60  O   UNL     1      -9.620  18.605  68.157  1.00  0.00    -0.303 OA 
BRANCH  60  61
HETATM   61  C   UNL     1      -8.665  19.443  68.774  1.00  0.00    -0.337 C  
HETATM   62  C   UNL     1      -6.392  19.528  69.482  1.00  0.00    -0.320 C  
HETATM   63  H   UNL     1      -9.325  21.369  72.288  1.00  0.00     0.000 HD 
HETATM   64  O   UNL     1      -7.419  18.768  68.839  1.00  0.00    -0.312 OA 
HETATM   65  O   UNL     1     -10.445  20.495  70.164  1.00  0.00    -0.562 OA 
HETATM   66  C   UNL     1      -6.778  19.890  70.918  1.00  0.00     0.233 C  
HETATM   67  H   UNL     1      -6.028  20.928  72.448  1.00  0.00     0.000 HD 
HETATM   68  O   UNL     1      -8.494  20.908  72.283  1.00  0.00     1.355 OA 
HETATM   69  C   UNL     1      -9.187  19.800  70.200  1.00  0.00     1.021 C  
HETATM   70  H   UNL     1     -10.763  20.712  71.032  1.00  0.00     0.000 HD 
HETATM   71  C   UNL     1      -8.119  20.634  70.927  1.00  0.00     2.480 C  
HETATM   72  O   UNL     1      -5.788  20.703  71.557  1.00  0.00    -0.609 OA 
BRANCH  62  73
HETATM   73  C   UNL     1      -5.135  18.661  69.434  1.00  0.00    -0.186 C  
HETATM   74  H   UNL     1      -4.447  17.125  70.426  1.00  0.00     0.000 HD 
HETATM   75  O   UNL     1      -5.229  17.664  70.455  1.00  0.00    -0.232 OA 
ENDBRANCH  62  73
ENDBRANCH  60  61
ENDBRANCH  55  60
ENDBRANCH  50  51
ENDBRANCH  47  50
ENDBRANCH  40  41
ENDBRANCH   5  40
TORSDOF 10
ENDMDL
MODEL       12
REMARK 921   NORMALIZED FREE ENERGY PREDICTED BY IDOCK:    6.22 KCAL/MOL
REMARK 922        TOTAL FREE ENERGY PREDICTED BY IDOCK:   13.41 KCAL/MOL
REMARK 923 INTER-LIGAND FREE ENERGY PREDICTED BY IDOCK:   -1.15 KCAL/MOL
REMARK 924 INTRA-LIGAND FREE ENERGY PREDICTED BY IDOCK:   14.56 KCAL/MOL
REMARK 927      BINDING AFFINITY PREDICTED BY RF-SCORE:    0.00 PKD
ROOT
HETATM    1  C   UNL     1     -13.447  10.378  68.866  1.00  0.00     4.705 C  
HETATM    2  C   UNL     1     -11.950  10.029  68.688  1.00  0.00     0.768 C  
HETATM    3  O   UNL     1     -11.643   9.246  69.882  1.00  0.00    -0.074 OA 
HETATM    4  C   UNL     1     -10.829   8.041  69.829  1.00  0.00    -0.194 C  
HETATM    5  C   UNL     1     -11.625   9.438  67.262  1.00  0.00     1.957 C  
HETATM    6  C   UNL     1      -9.856   8.218  68.667  1.00  0.00    -0.186 C  
HETATM    7  C   UNL     1     -10.516   8.361  67.306  1.00  0.00    -0.303 C  
HETATM    8  H   UNL     1      -9.869   8.689  65.521  1.00  0.00     0.000 HD 
HETATM    9  O   UNL     1      -9.456   8.598  66.372  1.00  0.00    -0.193 OA 
ENDROOT
BRANCH   4  10
HETATM   10  O   UNL     1     -11.650   6.831  70.040  1.00  0.00    -0.343 OA 
BRANCH  10  11
HETATM   11  C   UNL     1     -11.193   5.444  70.004  1.00  0.00     0.526 C  
HETATM   12  C   UNL     1      -6.551   3.939  69.843  1.00  0.00    -0.033 C  
HETATM   13  C   UNL     1      -9.434   3.567  69.831  1.00  0.00    -0.254 C  
HETATM   14  C   UNL     1      -9.783   5.068  69.437  1.00  0.00    -0.254 C  
HETATM   15  C   UNL     1      -7.302   7.864  70.231  1.00  0.00    -0.065 C  
HETATM   16  C   UNL     1      -8.732   3.476  71.229  1.00  0.00    -0.121 C  
HETATM   17  C   UNL     1      -9.726   4.243  72.170  1.00  0.00    -0.221 C  
HETATM   18  H   UNL     1      -6.319   6.114  67.532  1.00  0.00     0.000 HD 
HETATM   19  C   UNL     1      -8.652   2.032  71.865  1.00  0.00    -0.081 C  
HETATM   20  C   UNL     1     -11.118   4.868  71.472  1.00  0.00     0.287 C  
HETATM   21  C   UNL     1      -5.140   7.344  68.822  1.00  0.00    -0.018 C  
HETATM   22  C   UNL     1      -8.966   4.664  73.479  1.00  0.00    -0.104 C  
HETATM   23  O   UNL     1      -6.580   5.278  67.900  1.00  0.00    -0.046 OA 
HETATM   24  C   UNL     1      -7.424   5.043  73.372  1.00  0.00    -0.088 C  
HETATM   25  C   UNL     1      -6.285   8.871  70.798  1.00  0.00    -0.043 C  
HETATM   26  C   UNL     1      -6.166   6.670  69.987  1.00  0.00    -0.034 C  
HETATM   27  C   UNL     1      -6.965   5.365  71.893  1.00  0.00    -0.075 C  
HETATM   28  C   UNL     1      -5.128   7.996  71.369  1.00  0.00    -0.030 C  
HETATM   29  C   UNL     1      -6.138   5.261  69.261  1.00  0.00    -0.025 C  
HETATM   30  C   UNL     1      -5.578   6.387  71.503  1.00  0.00    -0.027 C  
HETATM   31  C   UNL     1      -7.172   4.000  71.200  1.00  0.00    -0.033 C  
HETATM   32  H   UNL     1      -4.866   7.313  72.696  1.00  0.00     0.000 HD 
HETATM   33  O   UNL     1      -5.612   6.763  72.905  1.00  0.00    -0.038 OA 
BRANCH  15  34
HETATM   34  C   UNL     1      -8.568   8.042  71.204  1.00  0.00    -0.145 C  
HETATM   35  C   UNL     1      -9.215   7.167  71.985  1.00  0.00    -0.146 C  
HETATM   36  O   UNL     1     -10.506   9.049  72.126  1.00  0.00    -0.321 OA 
HETATM   37  C   UNL     1     -10.258   7.903  72.783  1.00  0.00    -0.314 C  
HETATM   38  C   UNL     1      -9.319   9.307  71.437  1.00  0.00    -0.067 C  
HETATM   39  O   UNL     1     -10.789   7.622  73.814  1.00  0.00    -0.268 OA 
ENDBRANCH  15  34
ENDBRANCH  10  11
ENDBRANCH   4  10
BRANCH   5  40
HETATM   40  O   UNL     1     -11.438  10.478  66.236  1.00  0.00     0.212 OA 
BRANCH  40  41
HETATM   41  C   UNL     1     -10.064  10.860  65.939  1.00  0.00    -0.252 C  
HETATM   42  C   UNL     1     -10.573  12.412  68.769  1.00  0.00    -0.213 C  
HETATM   43  C   UNL     1      -9.475  12.510  67.698  1.00  0.00    -0.188 C  
HETATM   44  H   UNL     1     -11.572  14.859  65.079  1.00  0.00     0.000 HD 
HETATM   45  O   UNL     1      -9.293  11.211  67.110  1.00  0.00    -0.163 OA 
HETATM   46  O   UNL     1     -11.120  14.135  64.662  1.00  0.00    -0.374 OA 
HETATM   47  C   UNL     1      -9.788  13.672  66.714  1.00  0.00    -0.271 C  
HETATM   48  C   UNL     1     -10.697  13.158  65.601  1.00  0.00    -0.280 C  
HETATM   49  C   UNL     1      -9.975  12.003  64.937  1.00  0.00    -0.253 C  
BRANCH  47  50
HETATM   50  O   UNL     1      -8.594  14.337  66.220  1.00  0.00     0.129 OA 
BRANCH  50  51
HETATM   51  C   UNL     1      -8.526  15.742  66.594  1.00  0.00    -0.288 C  
HETATM   52  C   UNL     1      -8.349  15.466  68.988  1.00  0.00    -0.223 C  
HETATM   53  H   UNL     1      -8.510  14.852  70.853  1.00  0.00     0.000 HD 
HETATM   54  C   UNL     1      -6.540  16.676  67.835  1.00  0.00    -0.142 C  
HETATM   55  C   UNL     1      -7.336  16.592  69.168  1.00  0.00    -0.217 C  
HETATM   56  C   UNL     1      -9.272  15.971  67.892  1.00  0.00    -0.196 C  
HETATM   57  O   UNL     1      -7.169  16.209  66.624  1.00  0.00    -0.192 OA 
HETATM   58  C   UNL     1      -5.244  15.866  67.912  1.00  0.00    -0.138 C  
HETATM   59  O   UNL     1      -9.087  15.168  70.168  1.00  0.00     0.112 OA 
BRANCH  55  60
HETATM   60  O   UNL     1      -8.137  17.762  69.453  1.00  0.00     0.126 OA 
BRANCH  60  61
HETATM   61  C   UNL     1      -8.053  18.885  68.600  1.00  0.00    -0.347 C  
HETATM   62  C   UNL     1      -9.090  19.920  66.722  1.00  0.00    -0.367 C  
HETATM   63  H   UNL     1      -4.633  20.010  66.721  1.00  0.00     0.000 HD 
HETATM   64  O   UNL     1      -9.110  18.837  67.655  1.00  0.00    -0.279 OA 
HETATM   65  O   UNL     1      -5.572  18.907  68.826  1.00  0.00    -0.195 OA 
HETATM   66  C   UNL     1      -7.782  19.950  65.926  1.00  0.00    -0.315 C  
HETATM   67  H   UNL     1      -6.907  21.082  64.536  1.00  0.00     0.000 HD 
HETATM   68  O   UNL     1      -5.373  19.973  66.126  1.00  0.00    -0.161 OA 
HETATM   69  C   UNL     1      -6.663  18.850  67.892  1.00  0.00    -0.215 C  
HETATM   70  H   UNL     1      -4.726  18.886  68.395  1.00  0.00     0.000 HD 
HETATM   71  C   UNL     1      -6.587  20.010  66.886  1.00  0.00    -0.205 C  
HETATM   72  O   UNL     1      -7.718  21.064  65.030  1.00  0.00     0.634 OA 
BRANCH  62  73
HETATM   73  C   UNL     1     -10.302  19.716  65.813  1.00  0.00    -0.412 C  
HETATM   74  H   UNL     1     -11.161  18.197  64.936  1.00  0.00     0.000 HD 
HETATM   75  O   UNL     1     -10.408  18.324  65.501  1.00  0.00    -0.575 OA 
ENDBRANCH  62  73
ENDBRANCH  60  61
ENDBRANCH  55  60
ENDBRANCH  50  51
ENDBRANCH  47  50
ENDBRANCH  40  41
ENDBRANCH   5  40
TORSDOF 10
ENDMDL
MODEL       13
REMARK 921   NORMALIZED FREE ENERGY PREDICTED BY IDOCK:    6.92 KCAL/MOL
REMARK 922        TOTAL FREE ENERGY PREDICTED BY IDOCK:   14.52 KCAL/MOL
REMARK 923 INTER-LIGAND FREE ENERGY PREDICTED BY IDOCK:    9.68 KCAL/MOL
REMARK 924 INTRA-LIGAND FREE ENERGY PREDICTED BY IDOCK:    4.84 KCAL/MOL
REMARK 927      BINDING AFFINITY PREDICTED BY RF-SCORE:    0.00 PKD
ROOT
HETATM    1  C   UNL     1      -7.959  14.224  70.720  1.00  0.00     2.663 C  
HETATM    2  C   UNL     1      -8.391  13.346  69.522  1.00  0.00     1.190 C  
HETATM    3  O   UNL     1      -9.200  14.254  68.713  1.00  0.00    -0.185 OA 
HETATM    4  C   UNL     1      -9.093  14.305  67.263  1.00  0.00    -0.215 C  
HETATM    5  C   UNL     1      -7.183  12.579  68.859  1.00  0.00    -0.050 C  
HETATM    6  C   UNL     1      -8.686  12.909  66.803  1.00  0.00    -0.112 C  
HETATM    7  C   UNL     1      -7.340  12.438  67.327  1.00  0.00    -0.127 C  
HETATM    8  H   UNL     1      -6.336  10.798  67.188  1.00  0.00     0.000 HD 
HETATM    9  O   UNL     1      -7.178  11.092  66.860  1.00  0.00    -0.122 OA 
ENDROOT
BRANCH   4  10
HETATM   10  O   UNL     1      -8.426  15.546  66.818  1.00  0.00    -0.237 OA 
BRANCH  10  11
HETATM   11  C   UNL     1      -9.056  16.705  66.191  1.00  0.00    -0.283 C  
HETATM   12  C   UNL     1      -9.341  21.202  68.069  1.00  0.00     0.313 C  
HETATM   13  C   UNL     1      -9.878  19.146  66.086  1.00  0.00    -0.397 C  
HETATM   14  C   UNL     1      -9.557  17.918  67.045  1.00  0.00    -0.286 C  
HETATM   15  C   UNL     1      -7.241  18.409  70.044  1.00  0.00     0.846 C  
HETATM   16  C   UNL     1      -8.615  20.037  65.831  1.00  0.00    -0.139 C  
HETATM   17  C   UNL     1      -7.552  19.001  65.322  1.00  0.00     0.628 C  
HETATM   18  H   UNL     1     -10.304  19.648  70.673  1.00  0.00     0.000 HD 
HETATM   19  C   UNL     1      -8.732  21.069  64.641  1.00  0.00     2.402 C  
HETATM   20  C   UNL     1      -8.037  17.398  65.205  1.00  0.00     1.986 C  
HETATM   21  C   UNL     1      -8.453  20.126  71.630  1.00  0.00     2.296 C  
HETATM   22  C   UNL     1      -6.119  19.623  65.481  1.00  0.00    -0.237 C  
HETATM   23  O   UNL     1     -10.409  20.004  69.799  1.00  0.00    -0.130 OA 
HETATM   24  C   UNL     1      -5.845  20.595  66.711  1.00  0.00    -0.236 C  
HETATM   25  C   UNL     1      -6.147  18.740  71.075  1.00  0.00     0.456 C  
HETATM   26  C   UNL     1      -7.879  19.947  70.047  1.00  0.00     0.700 C  
HETATM   27  C   UNL     1      -6.929  20.467  67.856  1.00  0.00    -0.334 C  
HETATM   28  C   UNL     1      -5.920  20.277  70.942  1.00  0.00    -0.316 C  
HETATM   29  C   UNL     1      -9.175  20.641  69.452  1.00  0.00     1.374 C  
HETATM   30  C   UNL     1      -6.617  20.885  69.544  1.00  0.00     0.784 C  
HETATM   31  C   UNL     1      -8.203  20.955  67.134  1.00  0.00    -0.134 C  
HETATM   32  H   UNL     1      -5.052  21.152  70.059  1.00  0.00     0.000 HD 
HETATM   33  O   UNL     1      -5.220  20.926  69.152  1.00  0.00    -0.299 OA 
BRANCH  15  34
HETATM   34  C   UNL     1      -6.461  17.507  68.967  1.00  0.00    -0.227 C  
HETATM   35  C   UNL     1      -6.028  16.240  69.020  1.00  0.00    -0.134 C  
HETATM   36  O   UNL     1      -5.164  17.008  67.047  1.00  0.00    -0.132 OA 
HETATM   37  C   UNL     1      -5.469  15.859  67.676  1.00  0.00    -0.125 C  
HETATM   38  C   UNL     1      -6.039  17.941  67.607  1.00  0.00    -0.156 C  
HETATM   39  O   UNL     1      -5.320  14.788  67.171  1.00  0.00    -0.132 OA 
ENDBRANCH  15  34
ENDBRANCH  10  11
ENDBRANCH   4  10
BRANCH   5  40
HETATM   40  O   UNL     1      -6.836  11.332  69.563  1.00  0.00    -0.118 OA 
BRANCH  40  41
HETATM   41  C   UNL     1      -7.104  10.088  68.855  1.00  0.00    -0.068 C  
HETATM   42  C   UNL     1      -9.863  10.471  70.562  1.00  0.00     0.902 C  
HETATM   43  C   UNL     1      -9.268   9.292  69.776  1.00  0.00    -0.181 C  
HETATM   44  H   UNL     1      -6.664   8.047  72.681  1.00  0.00     0.000 HD 
HETATM   45  O   UNL     1      -8.512   9.816  68.671  1.00  0.00    -0.111 OA 
HETATM   46  O   UNL     1      -6.278   8.081  71.814  1.00  0.00    -0.038 OA 
HETATM   47  C   UNL     1      -8.508   8.336  70.737  1.00  0.00    -0.132 C  
HETATM   48  C   UNL     1      -7.073   8.827  70.905  1.00  0.00    -0.076 C  
HETATM   49  C   UNL     1      -6.458   8.881  69.521  1.00  0.00    -0.043 C  
BRANCH  47  50
HETATM   50  O   UNL     1      -8.595   6.941  70.339  1.00  0.00    -0.140 OA 
BRANCH  50  51
HETATM   51  C   UNL     1      -7.698   6.601  69.245  1.00  0.00    -0.102 C  
HETATM   52  C   UNL     1      -7.822   4.193  69.415  1.00  0.00    -0.056 C  
HETATM   53  H   UNL     1      -7.955   2.331  70.045  1.00  0.00     0.000 HD 
HETATM   54  C   UNL     1      -8.482   5.230  67.280  1.00  0.00    -0.106 C  
HETATM   55  C   UNL     1      -7.832   3.963  67.907  1.00  0.00    -0.074 C  
HETATM   56  C   UNL     1      -6.883   5.374  69.602  1.00  0.00    -0.060 C  
HETATM   57  O   UNL     1      -8.410   6.474  68.005  1.00  0.00    -0.115 OA 
HETATM   58  C   UNL     1      -9.980   5.026  67.047  1.00  0.00    -0.231 C  
HETATM   59  O   UNL     1      -7.368   3.070  70.162  1.00  0.00    -0.040 OA 
BRANCH  55  60
HETATM   60  O   UNL     1      -6.442   3.776  67.556  1.00  0.00    -0.036 OA 
BRANCH  60  61
HETATM   61  C   UNL     1      -6.006   4.097  66.252  1.00  0.00    -0.027 C  
HETATM   62  C   UNL     1      -5.452   5.930  64.834  1.00  0.00    -0.017 C  
HETATM   63  H   UNL     1      -7.780   2.663  62.891  1.00  0.00     0.000 HD 
HETATM   64  O   UNL     1      -5.859   5.503  66.137  1.00  0.00    -0.017 OA 
HETATM   65  O   UNL     1      -7.230   2.132  65.330  1.00  0.00    -0.054 OA 
HETATM   66  C   UNL     1      -6.457   5.498  63.763  1.00  0.00    -0.026 C  
HETATM   67  H   UNL     1      -6.659   5.595  61.781  1.00  0.00     0.000 HD 
HETATM   68  O   UNL     1      -7.653   3.603  62.855  1.00  0.00    -0.056 OA 
HETATM   69  C   UNL     1      -7.067   3.558  65.243  1.00  0.00    -0.066 C  
HETATM   70  H   UNL     1      -7.876   1.804  64.716  1.00  0.00     0.000 HD 
HETATM   71  C   UNL     1      -6.663   3.979  63.821  1.00  0.00    -0.043 C  
HETATM   72  O   UNL     1      -6.035   5.863  62.446  1.00  0.00    -0.024 OA 
BRANCH  62  73
HETATM   73  C   UNL     1      -5.322   7.450  64.911  1.00  0.00    -0.029 C  
HETATM   74  H   UNL     1      -5.563   8.815  66.288  1.00  0.00     0.000 HD 
HETATM   75  O   UNL     1      -5.643   7.869  66.240  1.00  0.00    -0.028 OA 
ENDBRANCH  62  73
ENDBRANCH  60  61
ENDBRANCH  55  60
ENDBRANCH  50  51
ENDBRANCH  47  50
ENDBRANCH  40  41
ENDBRANCH   5  40
TORSDOF 10
ENDMDL
MODEL       14
REMARK 921   NORMALIZED FREE ENERGY PREDICTED BY IDOCK:    8.01 KCAL/MOL
REMARK 922        TOTAL FREE ENERGY PREDICTED BY IDOCK:   16.25 KCAL/MOL
REMARK 923 INTER-LIGAND FREE ENERGY PREDICTED BY IDOCK:   10.09 KCAL/MOL
REMARK 924 INTRA-LIGAND FREE ENERGY PREDICTED BY IDOCK:    6.15 KCAL/MOL
REMARK 927      BINDING AFFINITY PREDICTED BY RF-SCORE:    0.00 PKD
ROOT
HETATM    1  C   UNL     1     -12.364  10.732  66.144  1.00  0.00     4.022 C  
HETATM    2  C   UNL     1     -11.444  10.798  64.902  1.00  0.00     0.963 C  
HETATM    3  O   UNL     1     -11.624  12.166  64.422  1.00  0.00    -0.332 OA 
HETATM    4  C   UNL     1     -10.508  12.981  63.966  1.00  0.00    -0.312 C  
HETATM    5  C   UNL     1      -9.990  10.258  65.189  1.00  0.00    -0.325 C  
HETATM    6  C   UNL     1      -9.467  12.022  63.397  1.00  0.00     0.036 C  
HETATM    7  C   UNL     1      -8.906  11.029  64.401  1.00  0.00     0.015 C  
HETATM    8  H   UNL     1      -7.670   9.554  64.293  1.00  0.00     0.000 HD 
HETATM    9  O   UNL     1      -8.021  10.175  63.665  1.00  0.00    -0.156 OA 
ENDROOT
BRANCH   4  10
HETATM   10  O   UNL     1     -10.198  14.053  64.934  1.00  0.00    -0.405 OA 
BRANCH  10  11
HETATM   11  C   UNL     1      -8.915  14.729  65.113  1.00  0.00     2.001 C  
HETATM   12  C   UNL     1      -7.863  18.062  68.522  1.00  0.00    -0.310 C  
HETATM   13  C   UNL     1      -7.298  16.427  66.186  1.00  0.00     0.326 C  
HETATM   14  C   UNL     1      -8.820  16.108  65.848  1.00  0.00    -0.196 C  
HETATM   15  C   UNL     1     -11.449  16.262  68.616  1.00  0.00    -0.288 C  
HETATM   16  C   UNL     1      -6.867  15.828  67.568  1.00  0.00    -0.219 C  
HETATM   17  C   UNL     1      -7.260  14.315  67.432  1.00  0.00    -0.137 C  
HETATM   18  H   UNL     1     -10.614  19.350  67.578  1.00  0.00     0.000 HD 
HETATM   19  C   UNL     1      -5.312  15.787  67.843  1.00  0.00    -0.142 C  
HETATM   20  C   UNL     1      -7.954  13.829  65.983  1.00  0.00     2.373 C  
HETATM   21  C   UNL     1     -11.511  18.766  69.428  1.00  0.00     3.954 C  
HETATM   22  C   UNL     1      -7.347  13.681  68.867  1.00  0.00    -0.060 C  
HETATM   23  O   UNL     1      -9.691  19.141  67.493  1.00  0.00    -0.302 OA 
HETATM   24  C   UNL     1      -7.853  14.592  70.069  1.00  0.00     0.443 C  
HETATM   25  C   UNL     1     -12.326  16.182  69.879  1.00  0.00     0.264 C  
HETATM   26  C   UNL     1     -10.461  17.453  69.232  1.00  0.00    -0.171 C  
HETATM   27  C   UNL     1      -8.614  15.892  69.586  1.00  0.00     0.044 C  
HETATM   28  C   UNL     1     -11.413  16.689  71.037  1.00  0.00     0.131 C  
HETATM   29  C   UNL     1      -9.322  18.393  68.656  1.00  0.00    -0.318 C  
HETATM   30  C   UNL     1      -9.804  16.748  70.572  1.00  0.00     1.890 C  
HETATM   31  C   UNL     1      -7.490  16.653  68.849  1.00  0.00    -0.232 C  
HETATM   32  H   UNL     1     -10.402  16.036  71.958  1.00  0.00     0.000 HD 
HETATM   33  O   UNL     1      -9.763  15.575  71.428  1.00  0.00     1.536 OA 
BRANCH  15  34
HETATM   34  C   UNL     1     -11.252  14.719  68.216  1.00  0.00    -0.299 C  
HETATM   35  C   UNL     1     -10.394  13.791  68.661  1.00  0.00    -0.225 C  
HETATM   36  O   UNL     1     -11.437  12.745  66.915  1.00  0.00    -0.303 OA 
HETATM   37  C   UNL     1     -10.733  12.469  68.026  1.00  0.00    -0.221 C  
HETATM   38  C   UNL     1     -12.039  13.974  67.195  1.00  0.00    -0.401 C  
HETATM   39  O   UNL     1     -10.497  11.354  68.380  1.00  0.00    -0.185 OA 
ENDBRANCH  15  34
ENDBRANCH  10  11
ENDBRANCH   4  10
BRANCH   5  40
HETATM   40  O   UNL     1      -9.893   8.791  65.101  1.00  0.00     0.358 OA 
BRANCH  40  41
HETATM   41  C   UNL     1      -9.139   8.124  66.154  1.00  0.00    -0.183 C  
HETATM   42  C   UNL     1      -7.895   6.722  63.478  1.00  0.00    -0.110 C  
HETATM   43  C   UNL     1      -7.809   6.390  64.977  1.00  0.00    -0.112 C  
HETATM   44  H   UNL     1     -11.450   4.537  65.265  1.00  0.00     0.000 HD 
HETATM   45  O   UNL     1      -7.856   7.620  65.720  1.00  0.00    -0.094 OA 
HETATM   46  O   UNL     1     -11.277   5.147  65.972  1.00  0.00    -0.045 OA 
HETATM   47  C   UNL     1      -8.872   5.320  65.350  1.00  0.00    -0.152 C  
HETATM   48  C   UNL     1     -10.192   6.014  65.676  1.00  0.00     0.759 C  
HETATM   49  C   UNL     1      -9.915   6.987  66.804  1.00  0.00    -0.266 C  
BRANCH  47  50
HETATM   50  O   UNL     1      -8.425   4.414  66.396  1.00  0.00    -0.112 OA 
BRANCH  50  51
HETATM   51  C   UNL     1      -8.619   4.949  67.736  1.00  0.00    -0.103 C  
HETATM   52  C   UNL     1      -8.005   2.980  68.997  1.00  0.00    -0.055 C  
HETATM   53  H   UNL     1      -7.724   1.139  69.640  1.00  0.00     0.000 HD 
HETATM   54  C   UNL     1      -6.724   5.046  69.397  1.00  0.00    -0.052 C  
HETATM   55  C   UNL     1      -7.258   3.754  70.079  1.00  0.00    -0.042 C  
HETATM   56  C   UNL     1      -9.182   3.877  68.647  1.00  0.00    -0.211 C  
HETATM   57  O   UNL     1      -7.416   5.551  68.237  1.00  0.00    -0.072 OA 
HETATM   58  C   UNL     1      -5.284   4.864  68.916  1.00  0.00    -0.004 C  
HETATM   59  O   UNL     1      -8.459   1.700  69.421  1.00  0.00    -0.047 OA 
BRANCH  55  60
HETATM   60  O   UNL     1      -8.248   3.994  71.106  1.00  0.00    -0.069 OA 
BRANCH  60  61
HETATM   61  C   UNL     1      -8.946   5.221  71.124  1.00  0.00    -0.139 C  
HETATM   62  C   UNL     1      -8.681   7.559  70.752  1.00  0.00    -0.140 C  
HETATM   63  H   UNL     1     -11.186   6.469  74.274  1.00  0.00     0.000 HD 
HETATM   64  O   UNL     1      -8.070   6.266  70.732  1.00  0.00    -0.116 OA 
HETATM   65  O   UNL     1     -10.381   4.410  72.992  1.00  0.00    -0.162 OA 
HETATM   66  C   UNL     1      -9.200   7.913  72.149  1.00  0.00    -0.158 C  
HETATM   67  H   UNL     1     -10.191   9.397  73.040  1.00  0.00     0.000 HD 
HETATM   68  O   UNL     1     -10.589   7.142  73.971  1.00  0.00    -0.317 OA 
HETATM   69  C   UNL     1      -9.482   5.449  72.571  1.00  0.00    -0.145 C  
HETATM   70  H   UNL     1     -10.708   4.548  73.873  1.00  0.00     0.000 HD 
HETATM   71  C   UNL     1     -10.164   6.826  72.639  1.00  0.00    -0.186 C  
HETATM   72  O   UNL     1      -9.869   9.178  72.174  1.00  0.00    -0.217 OA 
BRANCH  62  73
HETATM   73  C   UNL     1      -7.607   8.539  70.281  1.00  0.00    -0.075 C  
HETATM   74  H   UNL     1      -7.262   9.574  68.660  1.00  0.00     0.000 HD 
HETATM   75  O   UNL     1      -7.930   8.965  68.953  1.00  0.00    -0.101 OA 
ENDBRANCH  62  73
ENDBRANCH  60  61
ENDBRANCH  55  60
ENDBRANCH  50  51
ENDBRANCH  47  50
ENDBRANCH  40  41
ENDBRANCH   5  40
TORSDOF 10
ENDMDL
MODEL       15
REMARK 921   NORMALIZED FREE ENERGY PREDICTED BY IDOCK:    8.75 KCAL/MOL
REMARK 922        TOTAL FREE ENERGY PREDICTED BY IDOCK:   17.42 KCAL/MOL
REMARK 923 INTER-LIGAND FREE ENERGY PREDICTED BY IDOCK:    7.02 KCAL/MOL
REMARK 924 INTRA-LIGAND FREE ENERGY PREDICTED BY IDOCK:   10.39 KCAL/MOL
REMARK 927      BINDING AFFINITY PREDICTED BY RF-SCORE:    0.00 PKD
ROOT
HETATM    1  C   UNL     1     -10.837  14.702  70.201  1.00  0.00    -0.046 C  
HETATM    2  C   UNL     1     -11.555  14.374  68.871  1.00  0.00    -0.306 C  
HETATM    3  O   UNL     1     -11.170  15.481  67.998  1.00  0.00    -0.313 OA 
HETATM    4  C   UNL     1     -10.795  15.276  66.607  1.00  0.00    -0.310 C  
HETATM    5  C   UNL     1     -11.317  12.889  68.397  1.00  0.00    -0.294 C  
HETATM    6  C   UNL     1     -11.562  14.051  66.120  1.00  0.00    -0.374 C  
HETATM    7  C   UNL     1     -11.232  12.764  66.858  1.00  0.00    -0.296 C  
HETATM    8  H   UNL     1     -11.898  10.957  66.782  1.00  0.00     0.000 HD 
HETATM    9  O   UNL     1     -12.104  11.762  66.320  1.00  0.00    -0.446 OA 
ENDROOT
BRANCH   4  10
HETATM   10  O   UNL     1      -9.343  15.472  66.411  1.00  0.00    -0.249 OA 
BRANCH  10  11
HETATM   11  C   UNL     1      -8.700  16.459  65.548  1.00  0.00     0.793 C  
HETATM   12  C   UNL     1      -7.941  21.162  66.615  1.00  0.00     0.473 C  
HETATM   13  C   UNL     1      -7.892  18.819  64.896  1.00  0.00     2.379 C  
HETATM   14  C   UNL     1      -8.964  17.992  65.731  1.00  0.00     0.386 C  
HETATM   15  C   UNL     1      -9.485  18.761  69.437  1.00  0.00     0.107 C  
HETATM   16  C   UNL     1      -6.591  19.095  65.723  1.00  0.00    -0.280 C  
HETATM   17  C   UNL     1      -6.165  17.661  66.195  1.00  0.00    -0.268 C  
HETATM   18  H   UNL     1     -10.994  21.066  67.506  1.00  0.00     0.000 HD 
HETATM   19  C   UNL     1      -5.345  19.601  64.893  1.00  0.00    -0.201 C  
HETATM   20  C   UNL     1      -7.133  16.376  65.716  1.00  0.00     1.786 C  
HETATM   21  C   UNL     1     -10.391  21.231  69.550  1.00  0.00     1.353 C  
HETATM   22  C   UNL     1      -5.182  17.797  67.412  1.00  0.00    -0.143 C  
HETATM   23  O   UNL     1     -10.285  21.092  66.874  1.00  0.00     0.088 OA 
HETATM   24  C   UNL     1      -5.392  19.005  68.427  1.00  0.00    -0.184 C  
HETATM   25  C   UNL     1      -9.421  19.071  70.944  1.00  0.00     3.058 C  
HETATM   26  C   UNL     1      -9.089  20.313  68.979  1.00  0.00     0.417 C  
HETATM   27  C   UNL     1      -6.827  19.661  68.321  1.00  0.00    -0.324 C  
HETATM   28  C   UNL     1      -8.457  20.291  71.063  1.00  0.00     1.951 C  
HETATM   29  C   UNL     1      -9.061  21.122  67.615  1.00  0.00     0.218 C  
HETATM   30  C   UNL     1      -7.597  20.539  69.647  1.00  0.00     0.975 C  
HETATM   31  C   UNL     1      -6.800  20.238  66.889  1.00  0.00    -0.282 C  
HETATM   32  H   UNL     1      -6.955  20.452  71.185  1.00  0.00     0.000 HD 
HETATM   33  O   UNL     1      -6.542  19.980  70.472  1.00  0.00    -0.292 OA 
BRANCH  15  34
HETATM   34  C   UNL     1      -8.765  17.330  69.332  1.00  0.00     0.375 C  
HETATM   35  C   UNL     1      -9.261  16.102  69.129  1.00  0.00    -0.246 C  
HETATM   36  O   UNL     1      -7.053  15.708  69.575  1.00  0.00    -0.188 OA 
HETATM   37  C   UNL     1      -8.118  15.130  68.995  1.00  0.00    -0.191 C  
HETATM   38  C   UNL     1      -7.302  17.077  69.453  1.00  0.00    -0.019 C  
HETATM   39  O   UNL     1      -8.066  14.061  68.468  1.00  0.00    -0.139 OA 
ENDBRANCH  15  34
ENDBRANCH  10  11
ENDBRANCH   4  10
BRANCH   5  40
HETATM   40  O   UNL     1     -12.221  11.925  69.048  1.00  0.00    -0.234 OA 
BRANCH  40  41
HETATM   41  C   UNL     1     -12.079  10.530  68.652  1.00  0.00     0.334 C  
HETATM   42  C   UNL     1     -12.706  10.238  71.845  1.00  0.00    -0.478 C  
HETATM   43  C   UNL     1     -12.193   9.257  70.780  1.00  0.00    -0.134 C  
HETATM   44  H   UNL     1      -8.294  10.510  70.814  1.00  0.00     0.000 HD 
HETATM   45  O   UNL     1     -12.781   9.607  69.516  1.00  0.00     0.896 OA 
HETATM   46  O   UNL     1      -8.646  10.385  69.941  1.00  0.00    -0.072 OA 
HETATM   47  C   UNL     1     -10.641   9.185  70.821  1.00  0.00    -0.260 C  
HETATM   48  C   UNL     1     -10.062  10.291  69.944  1.00  0.00    -0.171 C  
HETATM   49  C   UNL     1     -10.624  10.093  68.551  1.00  0.00    -0.245 C  
BRANCH  47  50
HETATM   50  O   UNL     1     -10.124   7.865  70.497  1.00  0.00    -0.191 OA 
BRANCH  50  51
HETATM   51  C   UNL     1      -8.836   7.906  69.820  1.00  0.00    -0.141 C  
HETATM   52  C   UNL     1      -8.855   5.678  68.883  1.00  0.00    -0.109 C  
HETATM   53  H   UNL     1      -9.107   3.753  68.547  1.00  0.00     0.000 HD 
HETATM   54  C   UNL     1      -8.651   7.577  67.328  1.00  0.00    -0.118 C  
HETATM   55  C   UNL     1      -8.231   6.097  67.555  1.00  0.00    -0.109 C  
HETATM   56  C   UNL     1      -8.158   6.554  69.911  1.00  0.00    -0.121 C  
HETATM   57  O   UNL     1      -8.967   8.390  68.475  1.00  0.00    -0.136 OA 
HETATM   58  C   UNL     1      -9.905   7.669  66.455  1.00  0.00    -0.242 C  
HETATM   59  O   UNL     1      -8.671   4.300  69.191  1.00  0.00    -0.081 OA 
BRANCH  55  60
HETATM   60  O   UNL     1      -6.809   5.909  67.743  1.00  0.00    -0.057 OA 
BRANCH  60  61
HETATM   61  C   UNL     1      -6.086   5.123  66.820  1.00  0.00    -0.030 C  
HETATM   62  C   UNL     1      -5.536   4.936  64.509  1.00  0.00    -0.014 C  
HETATM   63  H   UNL     1      -6.441   1.085  66.564  1.00  0.00     0.000 HD 
HETATM   64  O   UNL     1      -6.212   5.685  65.524  1.00  0.00    -0.032 OA 
HETATM   65  O   UNL     1      -6.538   3.075  68.164  1.00  0.00    -0.036 OA 
HETATM   66  C   UNL     1      -6.065   3.502  64.426  1.00  0.00    -0.022 C  
HETATM   67  H   UNL     1      -5.687   1.829  63.406  1.00  0.00     0.000 HD 
HETATM   68  O   UNL     1      -6.510   1.505  65.714  1.00  0.00    -0.022 OA 
HETATM   69  C   UNL     1      -6.662   3.674  66.864  1.00  0.00    -0.046 C  
HETATM   70  H   UNL     1      -6.889   2.193  68.191  1.00  0.00     0.000 HD 
HETATM   71  C   UNL     1      -5.953   2.823  65.797  1.00  0.00    -0.023 C  
HETATM   72  O   UNL     1      -5.359   2.720  63.458  1.00  0.00    -0.008 OA 
BRANCH  62  73
HETATM   73  C   UNL     1      -5.759   5.700  63.204  1.00  0.00    -0.014 C  
HETATM   74  H   UNL     1      -5.421   7.513  62.561  1.00  0.00     0.000 HD 
HETATM   75  O   UNL     1      -5.282   7.038  63.372  1.00  0.00    -0.030 OA 
ENDBRANCH  62  73
ENDBRANCH  60  61
ENDBRANCH  55  60
ENDBRANCH  50  51
ENDBRANCH  47  50
ENDBRANCH  40  41
ENDBRANCH   5  40
TORSDOF 10
ENDMDL
MODEL       16
REMARK 921   NORMALIZED FREE ENERGY PREDICTED BY IDOCK:   12.56 KCAL/MOL
REMARK 922        TOTAL FREE ENERGY PREDICTED BY IDOCK:   23.45 KCAL/MOL
REMARK 923 INTER-LIGAND FREE ENERGY PREDICTED BY IDOCK:    3.04 KCAL/MOL
REMARK 924 INTRA-LIGAND FREE ENERGY PREDICTED BY IDOCK:   20.41 KCAL/MOL
REMARK 927      BINDING AFFINITY PREDICTED BY RF-SCORE:    0.00 PKD
ROOT
HETATM    1  C   UNL     1     -10.342   8.683  73.361  1.00  0.00     1.402 C  
HETATM    2  C   UNL     1     -10.072   8.727  71.839  1.00  0.00    -0.339 C  
HETATM    3  O   UNL     1      -8.695   8.253  71.727  1.00  0.00    -0.132 OA 
HETATM    4  C   UNL     1      -8.278   7.319  70.692  1.00  0.00    -0.116 C  
HETATM    5  C   UNL     1     -11.207   8.030  70.995  1.00  0.00    -0.266 C  
HETATM    6  C   UNL     1      -9.181   7.567  69.487  1.00  0.00    -0.146 C  
HETATM    7  C   UNL     1     -10.657   7.313  69.740  1.00  0.00    -0.235 C  
HETATM    8  H   UNL     1     -12.261   7.519  68.691  1.00  0.00     0.000 HD 
HETATM    9  O   UNL     1     -11.338   7.678  68.533  1.00  0.00     0.336 OA 
ENDROOT
BRANCH   4  10
HETATM   10  O   UNL     1      -8.007   5.981  71.256  1.00  0.00    -0.109 OA 
BRANCH  10  11
HETATM   11  C   UNL     1      -8.219   4.693  70.600  1.00  0.00    -0.083 C  
HETATM   12  C   UNL     1      -9.110   3.986  65.852  1.00  0.00    -0.143 C  
HETATM   13  C   UNL     1      -8.778   3.146  68.615  1.00  0.00    -0.145 C  
HETATM   14  C   UNL     1      -8.995   4.591  69.244  1.00  0.00    -0.142 C  
HETATM   15  C   UNL     1      -8.294   7.701  67.137  1.00  0.00    -0.121 C  
HETATM   16  C   UNL     1      -7.497   3.084  67.716  1.00  0.00    -0.057 C  
HETATM   17  C   UNL     1      -6.372   3.615  68.673  1.00  0.00    -0.033 C  
HETATM   18  H   UNL     1     -11.238   6.311  66.289  1.00  0.00     0.000 HD 
HETATM   19  C   UNL     1      -7.001   1.635  67.325  1.00  0.00    -0.039 C  
HETATM   20  C   UNL     1      -6.828   4.046  70.230  1.00  0.00    -0.034 C  
HETATM   21  C   UNL     1     -10.012   7.634  65.142  1.00  0.00     2.364 C  
HETATM   22  C   UNL     1      -5.143   4.072  67.809  1.00  0.00    -0.007 C  
HETATM   23  O   UNL     1     -10.911   5.422  66.363  1.00  0.00    -0.243 OA 
HETATM   24  C   UNL     1      -5.416   4.706  66.375  1.00  0.00    -0.013 C  
HETATM   25  C   UNL     1      -7.781   8.824  66.218  1.00  0.00    -0.098 C  
HETATM   26  C   UNL     1      -8.785   6.728  65.877  1.00  0.00    -0.147 C  
HETATM   27  C   UNL     1      -6.909   5.191  66.186  1.00  0.00    -0.062 C  
HETATM   28  C   UNL     1      -7.442   8.117  64.870  1.00  0.00    -0.092 C  
HETATM   29  C   UNL     1      -9.626   5.392  65.734  1.00  0.00    -0.050 C  
HETATM   30  C   UNL     1      -7.387   6.451  65.043  1.00  0.00    -0.078 C  
HETATM   31  C   UNL     1      -7.683   3.858  66.276  1.00  0.00    -0.089 C  
HETATM   32  H   UNL     1      -6.222   7.403  64.320  1.00  0.00     0.000 HD 
HETATM   33  O   UNL     1      -5.966   6.726  64.935  1.00  0.00    -0.034 OA 
BRANCH  15  34
HETATM   34  C   UNL     1      -7.154   7.606  68.264  1.00  0.00    -0.080 C  
HETATM   35  C   UNL     1      -6.575   8.550  69.020  1.00  0.00    -0.048 C  
HETATM   36  O   UNL     1      -5.362   6.672  69.505  1.00  0.00    -0.013 OA 
HETATM   37  C   UNL     1      -5.651   7.886  70.006  1.00  0.00    -0.023 C  
HETATM   38  C   UNL     1      -6.470   6.362  68.713  1.00  0.00    -0.046 C  
HETATM   39  O   UNL     1      -5.234   8.266  71.057  1.00  0.00    -0.029 OA 
ENDBRANCH  15  34
ENDBRANCH  10  11
ENDBRANCH   4  10
BRANCH   5  40
HETATM   40  O   UNL     1     -12.364   8.909  70.750  1.00  0.00    -0.162 OA 
BRANCH  40  41
HETATM   41  C   UNL     1     -12.242  10.287  71.205  1.00  0.00    -0.395 C  
HETATM   42  C   UNL     1     -12.300  10.678  67.962  1.00  0.00     1.655 C  
HETATM   43  C   UNL     1     -11.942  11.613  69.128  1.00  0.00    -0.313 C  
HETATM   44  H   UNL     1      -8.143  10.203  69.724  1.00  0.00     0.000 HD 
HETATM   45  O   UNL     1     -12.750  11.258  70.263  1.00  0.00    -0.195 OA 
HETATM   46  O   UNL     1      -8.635  10.321  70.527  1.00  0.00     0.198 OA 
HETATM   47  C   UNL     1     -10.405  11.623  69.355  1.00  0.00     0.178 C  
HETATM   48  C   UNL     1     -10.026  10.473  70.285  1.00  0.00     0.455 C  
HETATM   49  C   UNL     1     -10.811  10.662  71.567  1.00  0.00     2.114 C  
BRANCH  47  50
HETATM   50  O   UNL     1      -9.903  12.912  69.802  1.00  0.00     1.280 OA 
BRANCH  50  51
HETATM   51  C   UNL     1      -9.171  13.630  68.770  1.00  0.00     0.049 C  
HETATM   52  C   UNL     1     -11.054  14.597  67.603  1.00  0.00    -0.304 C  
HETATM   53  H   UNL     1     -12.807  14.951  66.776  1.00  0.00     0.000 HD 
HETATM   54  C   UNL     1      -9.361  16.132  68.523  1.00  0.00    -0.209 C  
HETATM   55  C   UNL     1     -10.370  15.938  67.355  1.00  0.00    -0.288 C  
HETATM   56  C   UNL     1      -9.934  13.580  67.461  1.00  0.00    -0.230 C  
HETATM   57  O   UNL     1      -8.844  14.963  69.191  1.00  0.00    -0.193 OA 
HETATM   58  C   UNL     1      -9.973  16.961  69.653  1.00  0.00     0.095 C  
HETATM   59  O   UNL     1     -12.106  14.315  66.687  1.00  0.00    -0.426 OA 
BRANCH  55  60
HETATM   60  O   UNL     1      -9.752  15.799  66.056  1.00  0.00    -0.293 OA 
BRANCH  60  61
HETATM   61  C   UNL     1      -8.709  16.677  65.686  1.00  0.00     0.431 C  
HETATM   62  C   UNL     1      -6.437  17.223  66.149  1.00  0.00    -0.123 C  
HETATM   63  H   UNL     1      -9.139  20.712  65.523  1.00  0.00     0.000 HD 
HETATM   64  O   UNL     1      -7.543  16.362  66.431  1.00  0.00    -0.259 OA 
HETATM   65  O   UNL     1     -10.357  18.486  65.221  1.00  0.00    -0.348 OA 
HETATM   66  C   UNL     1      -6.775  18.686  66.447  1.00  0.00    -0.207 C  
HETATM   67  H   UNL     1      -5.909  20.478  66.298  1.00  0.00     0.000 HD 
HETATM   68  O   UNL     1      -8.364  20.454  66.007  1.00  0.00    -0.118 OA 
HETATM   69  C   UNL     1      -9.183  18.135  65.971  1.00  0.00     0.013 C  
HETATM   70  H   UNL     1     -10.646  19.374  65.394  1.00  0.00     0.000 HD 
HETATM   71  C   UNL     1      -8.027  19.103  65.666  1.00  0.00     0.228 C  
HETATM   72  O   UNL     1      -5.700  19.570  66.114  1.00  0.00    -0.163 OA 
BRANCH  62  73
HETATM   73  C   UNL     1      -5.281  16.720  67.014  1.00  0.00    -0.119 C  
HETATM   74  H   UNL     1      -4.962  16.466  68.925  1.00  0.00     0.000 HD 
HETATM   75  O   UNL     1      -5.681  16.778  68.387  1.00  0.00    -0.118 OA 
ENDBRANCH  62  73
ENDBRANCH  60  61
ENDBRANCH  55  60
ENDBRANCH  50  51
ENDBRANCH  47  50
ENDBRANCH  40  41
ENDBRANCH   5  40
TORSDOF 10
ENDMDL
MODEL       17
REMARK 921   NORMALIZED FREE ENERGY PREDICTED BY IDOCK:   15.36 KCAL/MOL
REMARK 922        TOTAL FREE ENERGY PREDICTED BY IDOCK:   27.90 KCAL/MOL
REMARK 923 INTER-LIGAND FREE ENERGY PREDICTED BY IDOCK:   13.63 KCAL/MOL
REMARK 924 INTRA-LIGAND FREE ENERGY PREDICTED BY IDOCK:   14.27 KCAL/MOL
REMARK 927      BINDING AFFINITY PREDICTED BY RF-SCORE:    0.00 PKD
ROOT
HETATM    1  C   UNL     1      -6.166  10.888  71.891  1.00  0.00     1.637 C  
HETATM    2  C   UNL     1      -7.568  10.253  72.048  1.00  0.00     3.950 C  
HETATM    3  O   UNL     1      -8.404  11.061  71.164  1.00  0.00     3.777 OA 
HETATM    4  C   UNL     1      -9.409  10.470  70.293  1.00  0.00     0.836 C  
HETATM    5  C   UNL     1      -7.551   8.684  71.885  1.00  0.00    -0.064 C  
HETATM    6  C   UNL     1      -9.900   9.202  70.985  1.00  0.00    -0.366 C  
HETATM    7  C   UNL     1      -8.829   8.145  71.202  1.00  0.00    -0.146 C  
HETATM    8  H   UNL     1      -8.790   6.423  72.066  1.00  0.00     0.000 HD 
HETATM    9  O   UNL     1      -9.459   7.083  71.929  1.00  0.00    -0.142 OA 
ENDROOT
BRANCH   4  10
HETATM   10  O   UNL     1      -8.990  10.526  68.877  1.00  0.00    -0.156 OA 
BRANCH  10  11
HETATM   11  C   UNL     1      -8.032  11.455  68.282  1.00  0.00    -0.136 C  
HETATM   12  C   UNL     1      -8.912  14.543  64.605  1.00  0.00     3.926 C  
HETATM   13  C   UNL     1      -7.239  13.222  66.581  1.00  0.00     1.240 C  
HETATM   14  C   UNL     1      -8.226  11.999  66.827  1.00  0.00    -0.110 C  
HETATM   15  C   UNL     1     -11.956  12.394  66.099  1.00  0.00    -0.397 C  
HETATM   16  C   UNL     1      -7.876  14.586  67.016  1.00  0.00    -0.015 C  
HETATM   17  C   UNL     1      -8.309  14.312  68.499  1.00  0.00    -0.156 C  
HETATM   18  H   UNL     1     -10.213  11.973  63.253  1.00  0.00     0.000 HD 
HETATM   19  C   UNL     1      -6.877  15.803  67.136  1.00  0.00    -0.170 C  
HETATM   20  C   UNL     1      -7.986  12.788  69.125  1.00  0.00     0.452 C  
HETATM   21  C   UNL     1     -12.153  12.833  63.510  1.00  0.00    -0.642 C  
HETATM   22  C   UNL     1      -9.378  15.382  68.923  1.00  0.00    -0.218 C  
HETATM   23  O   UNL     1      -9.490  12.517  63.541  1.00  0.00    -0.055 OA 
HETATM   24  C   UNL     1     -10.392  15.919  67.822  1.00  0.00    -0.278 C  
HETATM   25  C   UNL     1     -13.435  12.792  65.940  1.00  0.00     2.774 C  
HETATM   26  C   UNL     1     -11.423  13.436  64.913  1.00  0.00    -0.346 C  
HETATM   27  C   UNL     1     -10.474  14.987  66.546  1.00  0.00    -0.285 C  
HETATM   28  C   UNL     1     -13.403  14.235  65.350  1.00  0.00     0.372 C  
HETATM   29  C   UNL     1     -10.056  13.683  64.149  1.00  0.00     0.587 C  
HETATM   30  C   UNL     1     -11.878  14.920  65.476  1.00  0.00    -0.155 C  
HETATM   31  C   UNL     1      -9.042  15.110  65.980  1.00  0.00    -0.196 C  
HETATM   32  H   UNL     1     -13.316  15.626  65.946  1.00  0.00     0.000 HD 
HETATM   33  O   UNL     1     -12.561  15.662  66.521  1.00  0.00     1.342 OA 
BRANCH  15  34
HETATM   34  C   UNL     1     -11.776  12.303  67.692  1.00  0.00    -0.403 C  
HETATM   35  C   UNL     1     -11.501  13.242  68.608  1.00  0.00    -0.339 C  
HETATM   36  O   UNL     1     -11.416  11.298  69.809  1.00  0.00    -0.274 OA 
HETATM   37  C   UNL     1     -11.570  12.622  69.978  1.00  0.00    -0.123 C  
HETATM   38  C   UNL     1     -11.885  11.066  68.514  1.00  0.00    -0.216 C  
HETATM   39  O   UNL     1     -11.755  13.120  71.047  1.00  0.00     0.181 OA 
ENDBRANCH  15  34
ENDBRANCH  10  11
ENDBRANCH   4  10
BRANCH   5  40
HETATM   40  O   UNL     1      -7.166   7.981  73.121  1.00  0.00    -0.103 OA 
BRANCH  40  41
HETATM   41  C   UNL     1      -6.340   6.792  72.963  1.00  0.00    -0.062 C  
HETATM   42  C   UNL     1      -5.599   8.462  70.254  1.00  0.00    -0.021 C  
HETATM   43  C   UNL     1      -5.342   7.014  70.701  1.00  0.00    -0.023 C  
HETATM   44  H   UNL     1      -9.063   5.565  69.788  1.00  0.00     0.000 HD 
HETATM   45  O   UNL     1      -5.178   6.999  72.129  1.00  0.00    -0.035 OA 
HETATM   46  O   UNL     1      -8.742   5.281  70.636  1.00  0.00    -0.121 OA 
HETATM   47  C   UNL     1      -6.437   6.073  70.125  1.00  0.00    -0.039 C  
HETATM   48  C   UNL     1      -7.633   6.053  71.073  1.00  0.00    -0.097 C  
HETATM   49  C   UNL     1      -7.121   5.601  72.425  1.00  0.00    -0.084 C  
BRANCH  47  50
HETATM   50  O   UNL     1      -5.937   4.746  69.804  1.00  0.00    -0.016 OA 
BRANCH  50  51
HETATM   51  C   UNL     1      -6.244   4.333  68.443  1.00  0.00    -0.032 C  
HETATM   52  C   UNL     1      -8.119   2.885  68.925  1.00  0.00    -0.055 C  
HETATM   53  H   UNL     1      -9.378   1.602  69.729  1.00  0.00     0.000 HD 
HETATM   54  C   UNL     1      -8.498   4.790  67.410  1.00  0.00    -0.104 C  
HETATM   55  C   UNL     1      -8.931   3.327  67.712  1.00  0.00    -0.150 C  
HETATM   56  C   UNL     1      -6.683   2.883  68.427  1.00  0.00    -0.040 C  
HETATM   57  O   UNL     1      -7.188   5.223  67.827  1.00  0.00    -0.069 OA 
HETATM   58  C   UNL     1      -9.445   5.795  68.069  1.00  0.00    -0.116 C  
HETATM   59  O   UNL     1      -8.481   1.600  69.417  1.00  0.00    -0.047 OA 
BRANCH  55  60
HETATM   60  O   UNL     1      -8.584   2.382  66.674  1.00  0.00    -0.098 OA 
BRANCH  60  61
HETATM   61  C   UNL     1      -8.137   2.859  65.422  1.00  0.00    -0.086 C  
HETATM   62  C   UNL     1      -6.498   4.252  64.399  1.00  0.00    -0.042 C  
HETATM   63  H   UNL     1     -10.597   4.559  62.674  1.00  0.00     0.000 HD 
HETATM   64  O   UNL     1      -7.005   3.692  65.613  1.00  0.00    -0.055 OA 
HETATM   65  O   UNL     1     -10.468   2.822  64.544  1.00  0.00    -0.384 OA 
HETATM   66  C   UNL     1      -7.558   5.097  63.686  1.00  0.00    -0.069 C  
HETATM   67  H   UNL     1      -7.745   6.140  61.996  1.00  0.00     0.000 HD 
HETATM   68  O   UNL     1      -9.818   5.080  62.828  1.00  0.00     0.250 OA 
HETATM   69  C   UNL     1      -9.310   3.645  64.760  1.00  0.00    -0.153 C  
HETATM   70  H   UNL     1     -11.182   3.301  64.141  1.00  0.00     0.000 HD 
HETATM   71  C   UNL     1      -8.816   4.256  63.437  1.00  0.00    -0.128 C  
HETATM   72  O   UNL     1      -7.088   5.616  62.438  1.00  0.00    -0.039 OA 
BRANCH  62  73
HETATM   73  C   UNL     1      -5.281   5.087  64.796  1.00  0.00    -0.012 C  
HETATM   74  H   UNL     1      -4.963   6.685  65.873  1.00  0.00     0.000 HD 
HETATM   75  O   UNL     1      -5.720   6.166  65.626  1.00  0.00    -0.022 OA 
ENDBRANCH  62  73
ENDBRANCH  60  61
ENDBRANCH  55  60
ENDBRANCH  50  51
ENDBRANCH  47  50
ENDBRANCH  40  41
ENDBRANCH   5  40
TORSDOF 10
ENDMDL
MODEL       18
REMARK 921   NORMALIZED FREE ENERGY PREDICTED BY IDOCK:   27.29 KCAL/MOL
REMARK 922        TOTAL FREE ENERGY PREDICTED BY IDOCK:   46.80 KCAL/MOL
REMARK 923 INTER-LIGAND FREE ENERGY PREDICTED BY IDOCK:   35.39 KCAL/MOL
REMARK 924 INTRA-LIGAND FREE ENERGY PREDICTED BY IDOCK:   11.41 KCAL/MOL
REMARK 927      BINDING AFFINITY PREDICTED BY RF-SCORE:    0.00 PKD
ROOT
HETATM    1  C   UNL     1     -10.277  13.903  70.816  1.00  0.00     3.009 C  
HETATM    2  C   UNL     1     -11.633  13.663  70.111  1.00  0.00    -0.138 C  
HETATM    3  O   UNL     1     -11.758  14.815  69.222  1.00  0.00    -0.284 OA 
HETATM    4  C   UNL     1     -12.240  14.689  67.855  1.00  0.00    -0.052 C  
HETATM    5  C   UNL     1     -11.768  12.206  69.523  1.00  0.00    -0.336 C  
HETATM    6  C   UNL     1     -13.201  13.505  67.835  1.00  0.00     3.627 C  
HETATM    7  C   UNL     1     -12.570  12.172  68.202  1.00  0.00     1.461 C  
HETATM    8  H   UNL     1     -13.241  10.381  68.438  1.00  0.00     0.000 HD 
HETATM    9  O   UNL     1     -13.636  11.214  68.208  1.00  0.00     5.026 OA 
ENDROOT
BRANCH   4  10
HETATM   10  O   UNL     1     -11.145  14.878  66.881  1.00  0.00    -0.325 OA 
BRANCH  10  11
HETATM   11  C   UNL     1     -10.935  16.032  66.010  1.00  0.00    -0.097 C  
HETATM   12  C   UNL     1      -9.082  20.349  67.341  1.00  0.00    -0.484 C  
HETATM   13  C   UNL     1     -10.285  18.470  65.478  1.00  0.00     0.275 C  
HETATM   14  C   UNL     1     -10.845  17.483  66.593  1.00  0.00     0.033 C  
HETATM   15  C   UNL     1      -9.190  17.375  70.035  1.00  0.00     1.772 C  
HETATM   16  C   UNL     1      -8.720  18.531  65.482  1.00  0.00     1.043 C  
HETATM   17  C   UNL     1      -8.310  17.021  65.362  1.00  0.00     1.506 C  
HETATM   18  H   UNL     1     -11.163  20.083  69.733  1.00  0.00     0.000 HD 
HETATM   19  C   UNL     1      -8.055  19.201  64.215  1.00  0.00     5.531 C  
HETATM   20  C   UNL     1      -9.550  15.894  65.266  1.00  0.00     0.176 C  
HETATM   21  C   UNL     1      -9.545  19.761  71.091  1.00  0.00     2.181 C  
HETATM   22  C   UNL     1      -6.820  16.859  65.832  1.00  0.00     0.489 C  
HETATM   23  O   UNL     1     -10.908  20.247  68.833  1.00  0.00     0.169 OA 
HETATM   24  C   UNL     1      -6.286  17.800  66.999  1.00  0.00    -0.191 C  
HETATM   25  C   UNL     1      -8.288  17.325  71.282  1.00  0.00     8.465 C  
HETATM   26  C   UNL     1      -8.892  18.986  69.735  1.00  0.00     0.775 C  
HETATM   27  C   UNL     1      -7.448  18.479  67.829  1.00  0.00    -0.240 C  
HETATM   28  C   UNL     1      -7.253  18.473  71.075  1.00  0.00     3.450 C  
HETATM   29  C   UNL     1      -9.487  20.090  68.764  1.00  0.00    -0.070 C  
HETATM   30  C   UNL     1      -7.259  19.034  69.496  1.00  0.00    -0.039 C  
HETATM   31  C   UNL     1      -8.113  19.373  66.760  1.00  0.00    -0.302 C  
HETATM   32  H   UNL     1      -5.913  18.584  70.375  1.00  0.00     0.000 HD 
HETATM   33  O   UNL     1      -6.015  18.286  69.479  1.00  0.00    -0.234 OA 
BRANCH  15  34
HETATM   34  C   UNL     1      -8.844  15.999  69.283  1.00  0.00    -0.227 C  
HETATM   35  C   UNL     1      -9.371  15.429  68.191  1.00  0.00    -0.197 C  
HETATM   36  O   UNL     1      -7.941  13.828  68.979  1.00  0.00    -0.017 OA 
HETATM   37  C   UNL     1      -8.578  14.194  67.854  1.00  0.00    -0.178 C  
HETATM   38  C   UNL     1      -7.796  15.022  69.689  1.00  0.00    -0.090 C  
HETATM   39  O   UNL     1      -8.452  13.610  66.821  1.00  0.00    -0.117 OA 
ENDBRANCH  15  34
ENDBRANCH  10  11
ENDBRANCH   4  10
BRANCH   5  40
HETATM   40  O   UNL     1     -12.189  11.216  70.530  1.00  0.00    -0.328 OA 
BRANCH  40  41
HETATM   41  C   UNL     1     -12.338   9.842  70.069  1.00  0.00     0.177 C  
HETATM   42  C   UNL     1     -10.867   9.404  72.953  1.00  0.00     2.523 C  
HETATM   43  C   UNL     1     -11.131   8.478  71.755  1.00  0.00    -0.307 C  
HETATM   44  H   UNL     1      -8.025   9.800  69.436  1.00  0.00     0.000 HD 
HETATM   45  O   UNL     1     -12.368   8.870  71.138  1.00  0.00    -0.294 OA 
HETATM   46  O   UNL     1      -8.842   9.707  68.960  1.00  0.00    -0.135 OA 
HETATM   47  C   UNL     1      -9.884   8.433  70.828  1.00  0.00    -0.182 C  
HETATM   48  C   UNL     1      -9.956   9.586  69.831  1.00  0.00    -0.230 C  
HETATM   49  C   UNL     1     -11.259   9.437  69.073  1.00  0.00     0.079 C  
BRANCH  47  50
HETATM   50  O   UNL     1      -9.692   7.138  70.195  1.00  0.00    -0.172 OA 
BRANCH  50  51
HETATM   51  C   UNL     1      -8.292   6.758  70.085  1.00  0.00    -0.135 C  
HETATM   52  C   UNL     1      -7.882   7.551  67.839  1.00  0.00    -0.117 C  
HETATM   53  H   UNL     1      -8.022   8.048  65.938  1.00  0.00     0.000 HD 
HETATM   54  C   UNL     1      -6.495   8.474  69.654  1.00  0.00    -0.039 C  
HETATM   55  C   UNL     1      -6.486   8.083  68.148  1.00  0.00    -0.055 C  
HETATM   56  C   UNL     1      -7.990   6.287  68.677  1.00  0.00    -0.105 C  
HETATM   57  O   UNL     1      -7.427   7.813  70.534  1.00  0.00    -0.071 OA 
HETATM   58  C   UNL     1      -6.806   9.960  69.838  1.00  0.00    -0.096 C  
HETATM   59  O   UNL     1      -8.089   7.258  66.462  1.00  0.00    -0.108 OA 
BRANCH  55  60
HETATM   60  O   UNL     1      -5.597   6.988  67.827  1.00  0.00    -0.015 OA 
BRANCH  60  61
HETATM   61  C   UNL     1      -5.265   6.737  66.478  1.00  0.00    -0.017 C  
HETATM   62  C   UNL     1      -5.575   7.560  64.264  1.00  0.00    -0.033 C  
HETATM   63  H   UNL     1      -5.776   3.127  64.688  1.00  0.00     0.000 HD 
HETATM   64  O   UNL     1      -5.831   7.747  65.658  1.00  0.00    -0.037 OA 
HETATM   65  O   UNL     1      -5.256   4.283  66.907  1.00  0.00    -0.011 OA 
HETATM   66  C   UNL     1      -6.130   6.222  63.768  1.00  0.00    -0.022 C  
HETATM   67  H   UNL     1      -6.175   5.159  62.080  1.00  0.00     0.000 HD 
HETATM   68  O   UNL     1      -6.133   3.838  64.168  1.00  0.00    -0.018 OA 
HETATM   69  C   UNL     1      -5.820   5.329  66.099  1.00  0.00    -0.018 C  
HETATM   70  H   UNL     1      -5.594   3.426  66.677  1.00  0.00     0.000 HD 
HETATM   71  C   UNL     1      -5.554   5.074  64.606  1.00  0.00    -0.014 C  
HETATM   72  O   UNL     1      -5.831   5.989  62.388  1.00  0.00    -0.021 OA 
BRANCH  62  73
HETATM   73  C   UNL     1      -6.230   8.744  63.553  1.00  0.00    -0.085 C  
HETATM   74  H   UNL     1      -6.123  10.691  63.675  1.00  0.00     0.000 HD 
HETATM   75  O   UNL     1      -5.716   9.954  64.116  1.00  0.00    -0.093 OA 
ENDBRANCH  62  73
ENDBRANCH  60  61
ENDBRANCH  55  60
ENDBRANCH  50  51
ENDBRANCH  47  50
ENDBRANCH  40  41
ENDBRANCH   5  40
TORSDOF 10
ENDMDL
MODEL       19
REMARK 921   NORMALIZED FREE ENERGY PREDICTED BY IDOCK:   28.02 KCAL/MOL
REMARK 922        TOTAL FREE ENERGY PREDICTED BY IDOCK:   47.96 KCAL/MOL
REMARK 923 INTER-LIGAND FREE ENERGY PREDICTED BY IDOCK:   11.20 KCAL/MOL
REMARK 924 INTRA-LIGAND FREE ENERGY PREDICTED BY IDOCK:   36.77 KCAL/MOL
REMARK 927      BINDING AFFINITY PREDICTED BY RF-SCORE:    0.00 PKD
ROOT
HETATM    1  C   UNL     1      -9.274  12.804  69.625  1.00  0.00     1.996 C  
HETATM    2  C   UNL     1     -10.530  11.914  69.777  1.00  0.00     0.745 C  
HETATM    3  O   UNL     1     -10.213  10.742  68.964  1.00  0.00    -0.197 OA 
HETATM    4  C   UNL     1     -10.513   9.389  69.407  1.00  0.00    -0.220 C  
HETATM    5  C   UNL     1     -10.968  11.725  71.280  1.00  0.00     3.829 C  
HETATM    6  C   UNL     1     -11.745   9.482  70.302  1.00  0.00    -0.168 C  
HETATM    7  C   UNL     1     -11.554  10.321  71.554  1.00  0.00    -0.009 C  
HETATM    8  H   UNL     1     -12.710  10.880  72.992  1.00  0.00     0.000 HD 
HETATM    9  O   UNL     1     -12.828  10.355  72.210  1.00  0.00    -0.334 OA 
ENDROOT
BRANCH   4  10
HETATM   10  O   UNL     1      -9.281   8.660  69.773  1.00  0.00    -0.150 OA 
BRANCH  10  11
HETATM   11  C   UNL     1      -8.545   8.759  71.031  1.00  0.00    -0.192 C  
HETATM   12  C   UNL     1      -7.896   5.175  74.282  1.00  0.00    -0.096 C  
HETATM   13  C   UNL     1      -7.665   7.900  73.297  1.00  0.00    -0.186 C  
HETATM   14  C   UNL     1      -8.824   7.772  72.214  1.00  0.00    -0.180 C  
HETATM   15  C   UNL     1      -9.745   4.337  70.819  1.00  0.00    -0.274 C  
HETATM   16  C   UNL     1      -6.461   6.948  72.983  1.00  0.00    -0.062 C  
HETATM   17  C   UNL     1      -6.094   7.326  71.505  1.00  0.00    -0.037 C  
HETATM   18  H   UNL     1     -11.028   4.768  73.898  1.00  0.00     0.000 HD 
HETATM   19  C   UNL     1      -5.131   7.236  73.784  1.00  0.00    -0.042 C  
HETATM   20  C   UNL     1      -7.006   8.527  70.769  1.00  0.00    -0.050 C  
HETATM   21  C   UNL     1     -10.653   2.939  72.858  1.00  0.00    -0.214 C  
HETATM   22  C   UNL     1      -5.249   6.160  70.877  1.00  0.00    -0.014 C  
HETATM   23  O   UNL     1     -10.255   5.211  74.227  1.00  0.00    -0.214 OA 
HETATM   24  C   UNL     1      -5.566   4.667  71.324  1.00  0.00    -0.012 C  
HETATM   25  C   UNL     1      -9.846   2.917  70.232  1.00  0.00     0.118 C  
HETATM   26  C   UNL     1      -9.298   3.808  72.334  1.00  0.00    -0.168 C  
HETATM   27  C   UNL     1      -6.979   4.513  72.017  1.00  0.00    -0.055 C  
HETATM   28  C   UNL     1      -8.898   2.048  71.114  1.00  0.00    -0.119 C  
HETATM   29  C   UNL     1      -9.119   4.475  73.762  1.00  0.00    -0.105 C  
HETATM   30  C   UNL     1      -7.887   2.998  72.055  1.00  0.00    -0.054 C  
HETATM   31  C   UNL     1      -6.794   5.366  73.291  1.00  0.00    -0.079 C  
HETATM   32  H   UNL     1      -7.418   1.724  71.085  1.00  0.00     0.000 HD 
HETATM   33  O   UNL     1      -6.930   2.538  71.064  1.00  0.00    -0.032 OA 
BRANCH  15  34
HETATM   34  C   UNL     1      -9.021   5.162  69.647  1.00  0.00    -0.137 C  
HETATM   35  C   UNL     1      -7.725   5.366  69.378  1.00  0.00    -0.085 C  
HETATM   36  O   UNL     1      -8.792   6.723  67.877  1.00  0.00    -0.120 OA 
HETATM   37  C   UNL     1      -7.609   6.117  68.078  1.00  0.00    -0.101 C  
HETATM   38  C   UNL     1      -9.704   5.915  68.558  1.00  0.00    -0.126 C  
HETATM   39  O   UNL     1      -6.706   6.190  67.301  1.00  0.00    -0.057 OA 
ENDBRANCH  15  34
ENDBRANCH  10  11
ENDBRANCH   4  10
BRANCH   5  40
HETATM   40  O   UNL     1     -11.779  12.845  71.788  1.00  0.00     1.403 OA 
BRANCH  40  41
HETATM   41  C   UNL     1     -12.395  13.708  70.790  1.00  0.00    -0.371 C  
HETATM   42  C   UNL     1     -13.001  10.746  69.552  1.00  0.00     0.645 C  
HETATM   43  C   UNL     1     -13.103  12.167  68.976  1.00  0.00     2.531 C  
HETATM   44  H   UNL     1      -9.123  12.623  68.123  1.00  0.00     0.000 HD 
HETATM   45  O   UNL     1     -13.453  13.067  70.041  1.00  0.00     1.188 OA 
HETATM   46  O   UNL     1      -9.510  13.380  68.546  1.00  0.00    -0.200 OA 
HETATM   47  C   UNL     1     -11.815  12.515  68.178  1.00  0.00    -0.317 C  
HETATM   48  C   UNL     1     -10.767  13.079  69.133  1.00  0.00    -0.022 C  
HETATM   49  C   UNL     1     -11.385  14.286  69.808  1.00  0.00    -0.279 C  
BRANCH  47  50
HETATM   50  O   UNL     1     -12.071  13.375  67.033  1.00  0.00    -0.381 OA 
BRANCH  50  51
HETATM   51  C   UNL     1     -10.940  13.464  66.121  1.00  0.00    -0.276 C  
HETATM   52  C   UNL     1     -11.839  12.144  64.307  1.00  0.00    -0.378 C  
HETATM   53  H   UNL     1     -12.778  10.808  63.205  1.00  0.00     0.000 HD 
HETATM   54  C   UNL     1     -11.183  14.468  63.821  1.00  0.00     0.871 C  
HETATM   55  C   UNL     1     -11.274  13.040  63.210  1.00  0.00     0.118 C  
HETATM   56  C   UNL     1     -10.764  12.153  65.382  1.00  0.00    -0.323 C  
HETATM   57  O   UNL     1     -11.058  14.600  65.251  1.00  0.00    -0.324 OA 
HETATM   58  C   UNL     1     -12.424  15.296  63.482  1.00  0.00     1.030 C  
HETATM   59  O   UNL     1     -12.106  10.813  63.877  1.00  0.00     1.424 OA 
BRANCH  55  60
HETATM   60  O   UNL     1      -9.994  12.455  62.881  1.00  0.00    -0.084 OA 
BRANCH  60  61
HETATM   61  C   UNL     1      -9.490  11.400  63.673  1.00  0.00    -0.196 C  
HETATM   62  C   UNL     1      -7.579  10.706  64.916  1.00  0.00     0.087 C  
HETATM   63  H   UNL     1      -9.538   7.511  62.504  1.00  0.00     0.000 HD 
HETATM   64  O   UNL     1      -8.188  11.733  64.128  1.00  0.00     1.170 OA 
HETATM   65  O   UNL     1     -10.775   9.740  62.331  1.00  0.00     0.875 OA 
HETATM   66  C   UNL     1      -7.455   9.398  64.130  1.00  0.00    -0.113 C  
HETATM   67  H   UNL     1      -6.825   7.529  64.435  1.00  0.00     0.000 HD 
HETATM   68  O   UNL     1      -8.685   7.777  62.826  1.00  0.00     0.135 OA 
HETATM   69  C   UNL     1      -9.467  10.109  62.798  1.00  0.00    -0.253 C  
HETATM   70  H   UNL     1     -10.761   8.955  61.798  1.00  0.00     0.000 HD 
HETATM   71  C   UNL     1      -8.832   8.967  63.610  1.00  0.00     0.015 C  
HETATM   72  O   UNL     1      -6.902   8.341  64.922  1.00  0.00    -0.069 OA 
BRANCH  62  73
HETATM   73  C   UNL     1      -6.212  11.250  65.332  1.00  0.00     0.593 C  
HETATM   74  H   UNL     1      -5.316  11.657  67.019  1.00  0.00     0.000 HD 
HETATM   75  O   UNL     1      -6.165  11.318  66.760  1.00  0.00    -0.106 OA 
ENDBRANCH  62  73
ENDBRANCH  60  61
ENDBRANCH  55  60
ENDBRANCH  50  51
ENDBRANCH  47  50
ENDBRANCH  40  41
ENDBRANCH   5  40
TORSDOF 10
ENDMDL
MODEL       20
REMARK 921   NORMALIZED FREE ENERGY PREDICTED BY IDOCK:   29.00 KCAL/MOL
REMARK 922        TOTAL FREE ENERGY PREDICTED BY IDOCK:   49.51 KCAL/MOL
REMARK 923 INTER-LIGAND FREE ENERGY PREDICTED BY IDOCK:   30.94 KCAL/MOL
REMARK 924 INTRA-LIGAND FREE ENERGY PREDICTED BY IDOCK:   18.58 KCAL/MOL
REMARK 927      BINDING AFFINITY PREDICTED BY RF-SCORE:    0.00 PKD
ROOT
HETATM    1  C   UNL     1      -6.948  14.061  68.783  1.00  0.00    -0.106 C  
HETATM    2  C   UNL     1      -7.727  12.911  68.103  1.00  0.00    -0.138 C  
HETATM    3  O   UNL     1      -8.930  13.570  67.601  1.00  0.00    -0.180 OA 
HETATM    4  C   UNL     1      -9.476  13.287  66.282  1.00  0.00    -0.184 C  
HETATM    5  C   UNL     1      -6.833  12.065  67.116  1.00  0.00    -0.136 C  
HETATM    6  C   UNL     1      -9.113  11.841  65.957  1.00  0.00    -0.159 C  
HETATM    7  C   UNL     1      -7.620  11.566  65.883  1.00  0.00     0.396 C  
HETATM    8  H   UNL     1      -6.553   9.985  65.609  1.00  0.00     0.000 HD 
HETATM    9  O   UNL     1      -7.486  10.157  65.655  1.00  0.00    -0.130 OA 
ENDROOT
BRANCH   4  10
HETATM   10  O   UNL     1      -9.257  14.419  65.359  1.00  0.00     0.233 OA 
BRANCH  10  11
HETATM   11  C   UNL     1     -10.226  15.446  64.985  1.00  0.00    -0.260 C  
HETATM   12  C   UNL     1     -11.776  19.112  67.813  1.00  0.00     1.578 C  
HETATM   13  C   UNL     1     -11.744  17.489  65.402  1.00  0.00     2.392 C  
HETATM   14  C   UNL     1     -11.037  16.231  66.072  1.00  0.00     0.114 C  
HETATM   15  C   UNL     1      -8.870  16.706  69.183  1.00  0.00    -0.136 C  
HETATM   16  C   UNL     1     -10.814  18.750  65.398  1.00  0.00     0.272 C  
HETATM   17  C   UNL     1      -9.509  18.221  64.707  1.00  0.00     4.345 C  
HETATM   18  H   UNL     1     -12.140  16.799  69.968  1.00  0.00     0.000 HD 
HETATM   19  C   UNL     1     -11.275  19.940  64.466  1.00  0.00     2.649 C  
HETATM   20  C   UNL     1      -9.496  16.615  64.216  1.00  0.00     5.726 C  
HETATM   21  C   UNL     1     -10.484  17.581  71.071  1.00  0.00     2.307 C  
HETATM   22  C   UNL     1      -8.322  19.190  65.050  1.00  0.00     2.238 C  
HETATM   23  O   UNL     1     -12.377  17.294  69.192  1.00  0.00     2.026 OA 
HETATM   24  C   UNL     1      -8.308  19.897  66.476  1.00  0.00    -0.372 C  
HETATM   25  C   UNL     1      -7.890  17.108  70.299  1.00  0.00     2.572 C  
HETATM   26  C   UNL     1      -9.938  17.942  69.509  1.00  0.00     0.167 C  
HETATM   27  C   UNL     1      -9.264  19.199  67.525  1.00  0.00    -0.344 C  
HETATM   28  C   UNL     1      -8.137  18.632  70.522  1.00  0.00     3.142 C  
HETATM   29  C   UNL     1     -11.402  18.331  69.040  1.00  0.00     2.161 C  
HETATM   30  C   UNL     1      -9.032  19.301  69.273  1.00  0.00    -0.018 C  
HETATM   31  C   UNL     1     -10.650  19.433  66.887  1.00  0.00    -0.581 C  
HETATM   32  H   UNL     1      -7.601  19.900  69.889  1.00  0.00     0.000 HD 
HETATM   33  O   UNL     1      -7.726  19.845  68.949  1.00  0.00    -0.264 OA 
BRANCH  15  34
HETATM   34  C   UNL     1      -7.895  16.343  67.959  1.00  0.00    -0.159 C  
HETATM   35  C   UNL     1      -6.926  17.048  67.361  1.00  0.00    -0.182 C  
HETATM   36  O   UNL     1      -7.104  15.184  66.048  1.00  0.00     1.984 OA 
HETATM   37  C   UNL     1      -6.244  16.174  66.343  1.00  0.00     1.109 C  
HETATM   38  C   UNL     1      -7.885  15.062  67.200  1.00  0.00    -0.190 C  
HETATM   39  O   UNL     1      -5.154  16.245  65.863  1.00  0.00     0.932 OA 
ENDBRANCH  15  34
ENDBRANCH  10  11
ENDBRANCH   4  10
BRANCH   5  40
HETATM   40  O   UNL     1      -6.036  11.033  67.803  1.00  0.00    -0.046 OA 
BRANCH  40  41
HETATM   41  C   UNL     1      -6.428   9.649  67.573  1.00  0.00    -0.069 C  
HETATM   42  C   UNL     1      -8.861  10.705  69.481  1.00  0.00     0.029 C  
HETATM   43  C   UNL     1      -8.414   9.307  69.023  1.00  0.00    -0.132 C  
HETATM   44  H   UNL     1      -5.371   8.869  71.729  1.00  0.00     0.000 HD 
HETATM   45  O   UNL     1      -7.849   9.418  67.706  1.00  0.00    -0.095 OA 
HETATM   46  O   UNL     1      -5.136   8.610  70.847  1.00  0.00    -0.024 OA 
HETATM   47  C   UNL     1      -7.512   8.652  70.106  1.00  0.00    -0.054 C  
HETATM   48  C   UNL     1      -6.065   9.084  69.884  1.00  0.00    -0.034 C  
HETATM   49  C   UNL     1      -5.689   8.671  68.476  1.00  0.00    -0.038 C  
BRANCH  47  50
HETATM   50  O   UNL     1      -7.675   7.209  70.186  1.00  0.00    -0.092 OA 
BRANCH  50  51
HETATM   51  C   UNL     1      -7.577   6.551  68.892  1.00  0.00    -0.100 C  
HETATM   52  C   UNL     1      -8.087   4.297  69.600  1.00  0.00    -0.059 C  
HETATM   53  H   UNL     1      -8.251   2.600  70.588  1.00  0.00     0.000 HD 
HETATM   54  C   UNL     1      -9.539   5.321  67.893  1.00  0.00    -0.134 C  
HETATM   55  C   UNL     1      -8.934   3.970  68.374  1.00  0.00    -0.118 C  
HETATM   56  C   UNL     1      -6.970   5.172  69.055  1.00  0.00    -0.056 C  
HETATM   57  O   UNL     1      -8.842   6.542  68.213  1.00  0.00    -0.121 OA 
HETATM   58  C   UNL     1     -10.940   5.536  68.467  1.00  0.00     0.082 C  
HETATM   59  O   UNL     1      -7.553   3.147  70.247  1.00  0.00    -0.043 OA 
BRANCH  55  60
HETATM   60  O   UNL     1      -8.009   3.371  67.438  1.00  0.00    -0.080 OA 
BRANCH  60  61
HETATM   61  C   UNL     1      -7.998   3.809  66.096  1.00  0.00    -0.090 C  
HETATM   62  C   UNL     1      -7.826   5.759  64.738  1.00  0.00    -0.114 C  
HETATM   63  H   UNL     1     -10.835   2.762  63.384  1.00  0.00     0.000 HD 
HETATM   64  O   UNL     1      -7.817   5.215  66.061  1.00  0.00    -0.100 OA 
HETATM   65  O   UNL     1      -9.562   1.978  65.456  1.00  0.00    -0.343 OA 
HETATM   66  C   UNL     1      -9.144   5.462  64.019  1.00  0.00     0.347 C  
HETATM   67  H   UNL     1      -9.966   5.761  62.226  1.00  0.00     0.000 HD 
HETATM   68  O   UNL     1     -10.673   3.698  63.390  1.00  0.00    -0.243 OA 
HETATM   69  C   UNL     1      -9.355   3.400  65.445  1.00  0.00    -0.153 C  
HETATM   70  H   UNL     1     -10.388   1.728  65.060  1.00  0.00     0.000 HD 
HETATM   71  C   UNL     1      -9.406   3.950  64.010  1.00  0.00    -0.149 C  
HETATM   72  O   UNL     1      -9.148   5.945  62.672  1.00  0.00     0.259 OA 
BRANCH  62  73
HETATM   73  C   UNL     1      -7.592   7.260  64.899  1.00  0.00    -0.102 C  
HETATM   74  H   UNL     1      -8.276   8.887  64.059  1.00  0.00     0.000 HD 
HETATM   75  O   UNL     1      -8.421   7.953  63.960  1.00  0.00     0.005 OA 
ENDBRANCH  62  73
ENDBRANCH  60  61
ENDBRANCH  55  60
ENDBRANCH  50  51
ENDBRANCH  47  50
ENDBRANCH  40  41
ENDBRANCH   5  40
TORSDOF 10
ENDMDL
MODEL       21
REMARK 921   NORMALIZED FREE ENERGY PREDICTED BY IDOCK:   35.13 KCAL/MOL
REMARK 922        TOTAL FREE ENERGY PREDICTED BY IDOCK:   59.23 KCAL/MOL
REMARK 923 INTER-LIGAND FREE ENERGY PREDICTED BY IDOCK:   26.98 KCAL/MOL
REMARK 924 INTRA-LIGAND FREE ENERGY PREDICTED BY IDOCK:   32.25 KCAL/MOL
REMARK 927      BINDING AFFINITY PREDICTED BY RF-SCORE:    0.00 PKD
ROOT
HETATM    1  C   UNL     1      -6.456  11.658  72.107  1.00  0.00     4.190 C  
HETATM    2  C   UNL     1      -7.810  10.945  71.882  1.00  0.00     7.780 C  
HETATM    3  O   UNL     1      -8.437  11.738  70.828  1.00  0.00     4.680 OA 
HETATM    4  C   UNL     1      -9.146  11.124  69.715  1.00  0.00     0.974 C  
HETATM    5  C   UNL     1      -7.657   9.385  71.698  1.00  0.00     0.516 C  
HETATM    6  C   UNL     1      -9.721   9.809  70.231  1.00  0.00    -0.279 C  
HETATM    7  C   UNL     1      -8.681   8.804  70.697  1.00  0.00    -0.180 C  
HETATM    8  H   UNL     1      -8.762   7.057  71.508  1.00  0.00     0.000 HD 
HETATM    9  O   UNL     1      -9.412   7.686  71.216  1.00  0.00    -0.153 OA 
ENDROOT
BRANCH   4  10
HETATM   10  O   UNL     1      -8.381  11.252  68.457  1.00  0.00    -0.144 OA 
BRANCH  10  11
HETATM   11  C   UNL     1      -7.916  12.488  67.835  1.00  0.00    -0.157 C  
HETATM   12  C   UNL     1      -9.845  14.638  63.898  1.00  0.00     3.913 C  
HETATM   13  C   UNL     1      -7.901  14.339  66.039  1.00  0.00     2.722 C  
HETATM   14  C   UNL     1      -8.231  12.810  66.335  1.00  0.00     0.470 C  
HETATM   15  C   UNL     1     -11.661  11.398  65.421  1.00  0.00     0.287 C  
HETATM   16  C   UNL     1      -9.123  15.271  66.341  1.00  0.00    -0.347 C  
HETATM   17  C   UNL     1      -9.489  14.899  67.822  1.00  0.00    -0.203 C  
HETATM   18  H   UNL     1      -9.717  11.696  62.692  1.00  0.00     0.000 HD 
HETATM   19  C   UNL     1      -8.807  16.817  66.411  1.00  0.00    -0.331 C  
HETATM   20  C   UNL     1      -8.549  13.730  68.575  1.00  0.00    -0.122 C  
HETATM   21  C   UNL     1     -11.848  11.571  62.800  1.00  0.00     0.706 C  
HETATM   22  C   UNL     1     -10.957  15.371  68.117  1.00  0.00    -0.297 C  
HETATM   23  O   UNL     1      -9.348  12.527  62.968  1.00  0.00     0.334 OA 
HETATM   24  C   UNL     1     -12.022  15.324  66.935  1.00  0.00     0.241 C  
HETATM   25  C   UNL     1     -13.141  11.057  65.169  1.00  0.00     5.694 C  
HETATM   26  C   UNL     1     -11.582  12.510  64.183  1.00  0.00    -0.457 C  
HETATM   27  C   UNL     1     -11.573  14.401  65.732  1.00  0.00    -0.353 C  
HETATM   28  C   UNL     1     -13.733  12.321  64.473  1.00  0.00     1.853 C  
HETATM   29  C   UNL     1     -10.429  13.325  63.461  1.00  0.00     0.805 C  
HETATM   30  C   UNL     1     -12.707  13.639  64.611  1.00  0.00    -0.149 C  
HETATM   31  C   UNL     1     -10.321  15.146  65.220  1.00  0.00    -0.425 C  
HETATM   32  H   UNL     1     -14.338  13.621  64.964  1.00  0.00     0.000 HD 
HETATM   33  O   UNL     1     -13.728  14.030  65.567  1.00  0.00    -0.415 OA 
BRANCH  15  34
HETATM   34  C   UNL     1     -11.576  11.477  67.023  1.00  0.00    -0.203 C  
HETATM   35  C   UNL     1     -11.664  12.516  67.864  1.00  0.00    -0.416 C  
HETATM   36  O   UNL     1     -11.082  10.780  69.234  1.00  0.00    -0.218 OA 
HETATM   37  C   UNL     1     -11.640  12.002  69.279  1.00  0.00    -0.321 C  
HETATM   38  C   UNL     1     -11.366  10.326  67.944  1.00  0.00    -0.105 C  
HETATM   39  O   UNL     1     -12.043  12.491  70.290  1.00  0.00    -0.349 OA 
ENDBRANCH  15  34
ENDBRANCH  10  11
ENDBRANCH   4  10
BRANCH   5  40
HETATM   40  O   UNL     1      -7.562   8.662  72.978  1.00  0.00    -0.352 OA 
BRANCH  40  41
HETATM   41  C   UNL     1      -6.968   7.333  72.931  1.00  0.00    -0.068 C  
HETATM   42  C   UNL     1      -5.343   8.854  70.541  1.00  0.00    -0.023 C  
HETATM   43  C   UNL     1      -5.476   7.378  70.948  1.00  0.00    -0.027 C  
HETATM   44  H   UNL     1      -9.115   6.723  69.187  1.00  0.00     0.000 HD 
HETATM   45  O   UNL     1      -5.634   7.311  72.375  1.00  0.00    -0.037 OA 
HETATM   46  O   UNL     1      -9.048   6.369  70.066  1.00  0.00    -0.148 OA 
HETATM   47  C   UNL     1      -6.579   6.686  70.101  1.00  0.00    -0.045 C  
HETATM   48  C   UNL     1      -7.934   6.895  70.771  1.00  0.00    -0.106 C  
HETATM   49  C   UNL     1      -7.828   6.331  72.173  1.00  0.00    -0.104 C  
BRANCH  47  50
HETATM   50  O   UNL     1      -6.288   5.290  69.818  1.00  0.00    -0.025 OA 
BRANCH  50  51
HETATM   51  C   UNL     1      -6.703   4.878  68.486  1.00  0.00    -0.050 C  
HETATM   52  C   UNL     1      -8.764   6.133  68.349  1.00  0.00    -0.115 C  
HETATM   53  H   UNL     1     -10.466   7.049  68.729  1.00  0.00     0.000 HD 
HETATM   54  C   UNL     1      -7.044   6.559  66.638  1.00  0.00    -0.068 C  
HETATM   55  C   UNL     1      -8.579   6.515  66.884  1.00  0.00    -0.114 C  
HETATM   56  C   UNL     1      -8.209   4.720  68.436  1.00  0.00    -0.084 C  
HETATM   57  O   UNL     1      -6.186   5.763  67.480  1.00  0.00    -0.028 OA 
HETATM   58  C   UNL     1      -6.498   7.979  66.795  1.00  0.00    -0.056 C  
HETATM   59  O   UNL     1     -10.119   6.166  68.782  1.00  0.00    -0.149 OA 
BRANCH  55  60
HETATM   60  O   UNL     1      -9.267   5.479  66.146  1.00  0.00    -0.152 OA 
BRANCH  60  61
HETATM   61  C   UNL     1      -8.538   4.660  65.257  1.00  0.00    -0.133 C  
HETATM   62  C   UNL     1      -7.009   2.834  65.180  1.00  0.00    -0.052 C  
HETATM   63  H   UNL     1      -6.178   6.130  62.296  1.00  0.00     0.000 HD 
HETATM   64  O   UNL     1      -7.809   3.693  65.996  1.00  0.00    -0.088 OA 
HETATM   65  O   UNL     1      -8.293   6.560  63.664  1.00  0.00    -0.322 OA 
HETATM   66  C   UNL     1      -5.989   3.630  64.361  1.00  0.00    -0.018 C  
HETATM   67  H   UNL     1      -4.587   3.286  62.983  1.00  0.00     0.000 HD 
HETATM   68  O   UNL     1      -5.732   5.470  62.814  1.00  0.00    -0.014 OA 
HETATM   69  C   UNL     1      -7.581   5.576  64.433  1.00  0.00    -0.074 C  
HETATM   70  H   UNL     1      -7.711   7.118  63.162  1.00  0.00     0.000 HD 
HETATM   71  C   UNL     1      -6.708   4.695  63.524  1.00  0.00    -0.038 C  
HETATM   72  O   UNL     1      -5.220   2.792  63.492  1.00  0.00    -0.007 OA 
BRANCH  62  73
HETATM   73  C   UNL     1      -6.329   1.856  66.137  1.00  0.00    -0.024 C  
HETATM   74  H   UNL     1      -6.832   0.908  67.770  1.00  0.00     0.000 HD 
HETATM   75  O   UNL     1      -7.255   1.516  67.174  1.00  0.00    -0.045 OA 
ENDBRANCH  62  73
ENDBRANCH  60  61
ENDBRANCH  55  60
ENDBRANCH  50  51
ENDBRANCH  47  50
ENDBRANCH  40  41
ENDBRANCH   5  40
TORSDOF 10
ENDMDL
MODEL       22
REMARK 921   NORMALIZED FREE ENERGY PREDICTED BY IDOCK:   38.01 KCAL/MOL
REMARK 922        TOTAL FREE ENERGY PREDICTED BY IDOCK:   63.79 KCAL/MOL
REMARK 923 INTER-LIGAND FREE ENERGY PREDICTED BY IDOCK:   23.31 KCAL/MOL
REMARK 924 INTRA-LIGAND FREE ENERGY PREDICTED BY IDOCK:   40.48 KCAL/MOL
REMARK 927      BINDING AFFINITY PREDICTED BY RF-SCORE:    0.00 PKD
ROOT
HETATM    1  C   UNL     1      -9.200  12.943  69.174  1.00  0.00     0.684 C  
HETATM    2  C   UNL     1     -10.469  12.062  69.264  1.00  0.00     0.132 C  
HETATM    3  O   UNL     1     -10.204  10.992  68.304  1.00  0.00    -0.165 OA 
HETATM    4  C   UNL     1     -10.517   9.600  68.591  1.00  0.00    -0.210 C  
HETATM    5  C   UNL     1     -10.858  11.699  70.749  1.00  0.00     2.306 C  
HETATM    6  C   UNL     1     -11.714   9.604  69.536  1.00  0.00     0.186 C  
HETATM    7  C   UNL     1     -11.463  10.282  70.873  1.00  0.00    -0.339 C  
HETATM    8  H   UNL     1     -12.556  10.680  72.409  1.00  0.00     0.000 HD 
HETATM    9  O   UNL     1     -12.713  10.256  71.574  1.00  0.00    -0.378 OA 
ENDROOT
BRANCH   4  10
HETATM   10  O   UNL     1      -9.288   8.813  68.821  1.00  0.00    -0.141 OA 
BRANCH  10  11
HETATM   11  C   UNL     1      -9.075   7.799  69.851  1.00  0.00    -0.147 C  
HETATM   12  C   UNL     1      -8.368   3.027  69.101  1.00  0.00    -0.086 C  
HETATM   13  C   UNL     1      -8.745   5.400  70.737  1.00  0.00    -0.139 C  
HETATM   14  C   UNL     1      -9.379   6.288  69.578  1.00  0.00    -0.147 C  
HETATM   15  C   UNL     1      -8.608   5.472  65.926  1.00  0.00    -0.141 C  
HETATM   16  C   UNL     1      -7.262   5.005  70.427  1.00  0.00    -0.054 C  
HETATM   17  C   UNL     1      -6.582   6.391  70.144  1.00  0.00    -0.045 C  
HETATM   18  H   UNL     1     -10.885   3.337  67.181  1.00  0.00     0.000 HD 
HETATM   19  C   UNL     1      -6.437   4.425  71.643  1.00  0.00    -0.019 C  
HETATM   20  C   UNL     1      -7.550   7.758  70.253  1.00  0.00    -0.087 C  
HETATM   21  C   UNL     1      -9.611   3.077  65.485  1.00  0.00     0.027 C  
HETATM   22  C   UNL     1      -5.244   6.150  69.357  1.00  0.00    -0.011 C  
HETATM   23  O   UNL     1     -10.453   3.272  68.024  1.00  0.00     1.385 OA 
HETATM   24  C   UNL     1      -5.176   4.938  68.328  1.00  0.00    -0.010 C  
HETATM   25  C   UNL     1      -8.038   5.122  64.540  1.00  0.00    -0.120 C  
HETATM   26  C   UNL     1      -8.528   3.905  66.488  1.00  0.00    -0.105 C  
HETATM   27  C   UNL     1      -6.603   4.397  67.912  1.00  0.00    -0.043 C  
HETATM   28  C   UNL     1      -7.196   3.828  64.766  1.00  0.00    -0.067 C  
HETATM   29  C   UNL     1      -9.052   3.130  67.768  1.00  0.00    -0.178 C  
HETATM   30  C   UNL     1      -6.919   3.549  66.395  1.00  0.00    -0.058 C  
HETATM   31  C   UNL     1      -7.134   3.855  69.257  1.00  0.00    -0.046 C  
HETATM   32  H   UNL     1      -5.767   3.549  65.186  1.00  0.00     0.000 HD 
HETATM   33  O   UNL     1      -5.598   4.005  66.002  1.00  0.00    -0.016 OA 
BRANCH  15  34
HETATM   34  C   UNL     1      -7.860   6.846  66.288  1.00  0.00    -0.101 C  
HETATM   35  C   UNL     1      -6.617   7.089  66.726  1.00  0.00    -0.055 C  
HETATM   36  O   UNL     1      -7.622   9.140  66.835  1.00  0.00    -0.090 OA 
HETATM   37  C   UNL     1      -6.402   8.578  66.783  1.00  0.00    -0.056 C  
HETATM   38  C   UNL     1      -8.450   8.210  66.203  1.00  0.00    -0.136 C  
HETATM   39  O   UNL     1      -5.396   9.219  66.757  1.00  0.00    -0.038 OA 
ENDBRANCH  15  34
ENDBRANCH  10  11
ENDBRANCH   4  10
BRANCH   5  40
HETATM   40  O   UNL     1     -11.627  12.762  71.418  1.00  0.00     1.207 OA 
BRANCH  40  41
HETATM   41  C   UNL     1     -12.351  13.684  70.554  1.00  0.00    -0.355 C  
HETATM   42  C   UNL     1     -13.038  10.811  69.158  1.00  0.00     1.772 C  
HETATM   43  C   UNL     1     -13.215  12.270  68.706  1.00  0.00     3.644 C  
HETATM   44  H   UNL     1      -9.346  12.869  67.503  1.00  0.00     0.000 HD 
HETATM   45  O   UNL     1     -13.469  13.079  69.866  1.00  0.00     1.387 OA 
HETATM   46  O   UNL     1      -9.699  13.584  68.019  1.00  0.00    -0.214 OA 
HETATM   47  C   UNL     1     -12.018  12.703  67.814  1.00  0.00    -0.243 C  
HETATM   48  C   UNL     1     -10.887  13.214  68.702  1.00  0.00    -0.259 C  
HETATM   49  C   UNL     1     -11.450  14.355  69.525  1.00  0.00    -0.333 C  
BRANCH  47  50
HETATM   50  O   UNL     1     -12.397  13.640  66.769  1.00  0.00    -0.387 OA 
BRANCH  50  51
HETATM   51  C   UNL     1     -11.378  13.794  65.742  1.00  0.00    -0.304 C  
HETATM   52  C   UNL     1     -12.431  12.495  63.996  1.00  0.00    -0.435 C  
HETATM   53  H   UNL     1     -13.445  11.159  62.963  1.00  0.00     0.000 HD 
HETATM   54  C   UNL     1     -11.906  14.853  63.516  1.00  0.00     1.002 C  
HETATM   55  C   UNL     1     -12.020  13.441  62.873  1.00  0.00     0.645 C  
HETATM   56  C   UNL     1     -11.244  12.511  64.946  1.00  0.00    -0.344 C  
HETATM   57  O   UNL     1     -11.627  14.949  64.927  1.00  0.00    -0.382 OA 
HETATM   58  C   UNL     1     -13.202  15.647  63.342  1.00  0.00     3.244 C  
HETATM   59  O   UNL     1     -12.702  11.169  63.556  1.00  0.00     0.456 OA 
BRANCH  55  60
HETATM   60  O   UNL     1     -10.766  12.910  62.387  1.00  0.00     2.132 OA 
BRANCH  60  61
HETATM   61  C   UNL     1     -10.079  11.943  63.154  1.00  0.00    -0.306 C  
HETATM   62  C   UNL     1      -7.906  11.304  63.894  1.00  0.00     1.020 C  
HETATM   63  H   UNL     1     -10.552   7.942  62.646  1.00  0.00     0.000 HD 
HETATM   64  O   UNL     1      -8.694  12.251  63.166  1.00  0.00     0.601 OA 
HETATM   65  O   UNL     1     -11.735  10.202  62.496  1.00  0.00     2.097 OA 
HETATM   66  C   UNL     1      -8.044   9.895  63.312  1.00  0.00    -0.154 C  
HETATM   67  H   UNL     1      -7.397   8.049  63.705  1.00  0.00     0.000 HD 
HETATM   68  O   UNL     1      -9.637   8.193  62.669  1.00  0.00     1.754 OA 
HETATM   69  C   UNL     1     -10.339  10.545  62.513  1.00  0.00     0.758 C  
HETATM   70  H   UNL     1     -11.894   9.351  62.106  1.00  0.00     0.000 HD 
HETATM   71  C   UNL     1      -9.522   9.488  63.274  1.00  0.00     0.412 C  
HETATM   72  O   UNL     1      -7.311   8.924  64.065  1.00  0.00    -0.097 OA 
BRANCH  62  73
HETATM   73  C   UNL     1      -6.466  11.810  63.820  1.00  0.00     3.644 C  
HETATM   74  H   UNL     1      -4.729  11.044  63.361  1.00  0.00     0.000 HD 
HETATM   75  O   UNL     1      -5.624  10.730  63.407  1.00  0.00    -0.143 OA 
ENDBRANCH  62  73
ENDBRANCH  60  61
ENDBRANCH  55  60
ENDBRANCH  50  51
ENDBRANCH  47  50
ENDBRANCH  40  41
ENDBRANCH   5  40
TORSDOF 10
ENDMDL
MODEL       23
REMARK 921   NORMALIZED FREE ENERGY PREDICTED BY IDOCK:   42.40 KCAL/MOL
REMARK 922        TOTAL FREE ENERGY PREDICTED BY IDOCK:   70.74 KCAL/MOL
REMARK 923 INTER-LIGAND FREE ENERGY PREDICTED BY IDOCK:   33.43 KCAL/MOL
REMARK 924 INTRA-LIGAND FREE ENERGY PREDICTED BY IDOCK:   37.31 KCAL/MOL
REMARK 927      BINDING AFFINITY PREDICTED BY RF-SCORE:    0.00 PKD
ROOT
HETATM    1  C   UNL     1     -12.918  10.943  65.917  1.00  0.00     7.513 C  
HETATM    2  C   UNL     1     -12.085  10.723  64.632  1.00  0.00     2.662 C  
HETATM    3  O   UNL     1     -12.284  11.963  63.885  1.00  0.00    -0.418 OA 
HETATM    4  C   UNL     1     -11.194  12.635  63.195  1.00  0.00     0.030 C  
HETATM    5  C   UNL     1     -10.620  10.221  64.931  1.00  0.00     0.261 C  
HETATM    6  C   UNL     1     -10.205  11.552  62.775  1.00  0.00    -0.014 C  
HETATM    7  C   UNL     1      -9.585  10.781  63.929  1.00  0.00    -0.293 C  
HETATM    8  H   UNL     1      -8.375   9.286  64.057  1.00  0.00     0.000 HD 
HETATM    9  O   UNL     1      -8.762   9.769  63.335  1.00  0.00    -0.191 OA 
ENDROOT
BRANCH   4  10
HETATM   10  O   UNL     1     -10.807  13.880  63.890  1.00  0.00     0.035 OA 
BRANCH  10  11
HETATM   11  C   UNL     1      -9.456  14.295  64.260  1.00  0.00     2.969 C  
HETATM   12  C   UNL     1      -8.215  16.899  68.198  1.00  0.00    -0.207 C  
HETATM   13  C   UNL     1      -7.699  15.527  65.689  1.00  0.00     3.433 C  
HETATM   14  C   UNL     1      -9.213  15.523  65.199  1.00  0.00     0.989 C  
HETATM   15  C   UNL     1     -12.036  15.746  67.765  1.00  0.00     0.341 C  
HETATM   16  C   UNL     1      -7.502  14.680  66.992  1.00  0.00     0.144 C  
HETATM   17  C   UNL     1      -8.117  13.290  66.602  1.00  0.00     0.401 C  
HETATM   18  H   UNL     1     -10.624  18.757  67.266  1.00  0.00     0.000 HD 
HETATM   19  C   UNL     1      -6.007  14.335  67.367  1.00  0.00     0.261 C  
HETATM   20  C   UNL     1      -8.738  13.132  65.050  1.00  0.00     2.410 C  
HETATM   21  C   UNL     1     -11.774  18.088  68.938  1.00  0.00     2.961 C  
HETATM   22  C   UNL     1      -8.440  12.490  67.914  1.00  0.00    -0.171 C  
HETATM   23  O   UNL     1      -9.742  18.407  67.217  1.00  0.00    -0.285 OA 
HETATM   24  C   UNL     1      -8.907  13.300  69.201  1.00  0.00     0.637 C  
HETATM   25  C   UNL     1     -13.030  15.645  68.935  1.00  0.00     1.431 C  
HETATM   26  C   UNL     1     -10.933  16.653  68.622  1.00  0.00    -0.328 C  
HETATM   27  C   UNL     1      -9.401  14.765  68.867  1.00  0.00    -0.184 C  
HETATM   28  C   UNL     1     -12.162  15.825  70.218  1.00  0.00    -0.367 C  
HETATM   29  C   UNL     1      -9.609  17.454  68.277  1.00  0.00    -0.292 C  
HETATM   30  C   UNL     1     -10.527  15.670  69.884  1.00  0.00    -0.320 C  
HETATM   31  C   UNL     1      -8.105  15.416  68.335  1.00  0.00    -0.140 C  
HETATM   32  H   UNL     1     -11.361  14.888  71.100  1.00  0.00     0.000 HD 
HETATM   33  O   UNL     1     -10.756  14.402  70.553  1.00  0.00     0.220 OA 
BRANCH  15  34
HETATM   34  C   UNL     1     -12.049  14.261  67.151  1.00  0.00    -0.412 C  
HETATM   35  C   UNL     1     -11.421  13.140  67.530  1.00  0.00    -0.371 C  
HETATM   36  O   UNL     1     -12.396  12.549  65.548  1.00  0.00    -0.600 OA 
HETATM   37  C   UNL     1     -11.893  12.001  66.667  1.00  0.00    -0.159 C  
HETATM   38  C   UNL     1     -12.816  13.818  65.954  1.00  0.00    -0.315 C  
HETATM   39  O   UNL     1     -11.893  10.824  66.865  1.00  0.00    -0.000 OA 
ENDBRANCH  15  34
ENDBRANCH  10  11
ENDBRANCH   4  10
BRANCH   5  40
HETATM   40  O   UNL     1     -10.545   8.766  65.152  1.00  0.00     2.232 OA 
BRANCH  40  41
HETATM   41  C   UNL     1      -9.527   8.301  66.085  1.00  0.00    -0.171 C  
HETATM   42  C   UNL     1      -9.134   6.213  63.603  1.00  0.00     1.025 C  
HETATM   43  C   UNL     1      -8.622   6.233  65.052  1.00  0.00     0.018 C  
HETATM   44  H   UNL     1     -12.050   4.817  66.790  1.00  0.00     0.000 HD 
HETATM   45  O   UNL     1      -8.433   7.602  65.450  1.00  0.00    -0.138 OA 
HETATM   46  O   UNL     1     -11.670   5.557  67.247  1.00  0.00     1.575 OA 
HETATM   47  C   UNL     1      -9.547   5.375  65.959  1.00  0.00    -0.131 C  
HETATM   48  C   UNL     1     -10.705   6.235  66.457  1.00  0.00    -0.107 C  
HETATM   49  C   UNL     1     -10.099   7.417  67.185  1.00  0.00    -0.314 C  
BRANCH  47  50
HETATM   50  O   UNL     1      -8.829   4.703  67.031  1.00  0.00    -0.110 OA 
BRANCH  50  51
HETATM   51  C   UNL     1      -8.994   5.350  68.323  1.00  0.00    -0.108 C  
HETATM   52  C   UNL     1      -6.661   5.548  68.924  1.00  0.00    -0.053 C  
HETATM   53  H   UNL     1      -4.727   5.269  69.174  1.00  0.00     0.000 HD 
HETATM   54  C   UNL     1      -7.993   7.616  68.794  1.00  0.00    -0.126 C  
HETATM   55  C   UNL     1      -6.809   6.936  69.539  1.00  0.00    -0.051 C  
HETATM   56  C   UNL     1      -7.953   4.839  69.298  1.00  0.00    -0.070 C  
HETATM   57  O   UNL     1      -9.003   6.780  68.194  1.00  0.00    -0.121 OA 
HETATM   58  C   UNL     1      -7.495   8.481  67.635  1.00  0.00    -0.094 C  
HETATM   59  O   UNL     1      -5.534   4.825  69.408  1.00  0.00    -0.007 OA 
BRANCH  55  60
HETATM   60  O   UNL     1      -7.056   6.690  70.943  1.00  0.00    -0.066 OA 
BRANCH  60  61
HETATM   61  C   UNL     1      -8.240   7.182  71.535  1.00  0.00    -0.107 C  
HETATM   62  C   UNL     1     -10.577   7.456  71.159  1.00  0.00    -0.222 C  
HETATM   63  H   UNL     1      -8.555  10.899  73.141  1.00  0.00     0.000 HD 
HETATM   64  O   UNL     1      -9.333   6.959  70.658  1.00  0.00    -0.161 OA 
HETATM   65  O   UNL     1      -6.948   8.959  72.709  1.00  0.00    -0.325 OA 
HETATM   66  C   UNL     1     -10.514   8.963  71.419  1.00  0.00    -0.305 C  
HETATM   67  H   UNL     1     -11.692  10.403  72.140  1.00  0.00     0.000 HD 
HETATM   68  O   UNL     1      -9.273  10.702  72.552  1.00  0.00     8.187 OA 
HETATM   69  C   UNL     1      -8.043   8.704  71.814  1.00  0.00    -0.114 C  
HETATM   70  H   UNL     1      -6.828   9.886  72.879  1.00  0.00     0.000 HD 
HETATM   71  C   UNL     1      -9.355   9.282  72.371  1.00  0.00     1.173 C  
HETATM   72  O   UNL     1     -11.731   9.467  71.979  1.00  0.00    -0.331 OA 
BRANCH  62  73
HETATM   73  C   UNL     1     -11.625   7.105  70.105  1.00  0.00    -0.168 C  
HETATM   74  H   UNL     1     -12.576   8.064  68.693  1.00  0.00     0.000 HD 
HETATM   75  O   UNL     1     -11.923   8.282  69.349  1.00  0.00     0.990 OA 
ENDBRANCH  62  73
ENDBRANCH  60  61
ENDBRANCH  55  60
ENDBRANCH  50  51
ENDBRANCH  47  50
ENDBRANCH  40  41
ENDBRANCH   5  40
TORSDOF 10
ENDMDL
MODEL       24
REMARK 921   NORMALIZED FREE ENERGY PREDICTED BY IDOCK:   43.13 KCAL/MOL
REMARK 922        TOTAL FREE ENERGY PREDICTED BY IDOCK:   71.91 KCAL/MOL
REMARK 923 INTER-LIGAND FREE ENERGY PREDICTED BY IDOCK:   40.47 KCAL/MOL
REMARK 924 INTRA-LIGAND FREE ENERGY PREDICTED BY IDOCK:   31.44 KCAL/MOL
REMARK 927      BINDING AFFINITY PREDICTED BY RF-SCORE:    0.00 PKD
ROOT
HETATM    1  C   UNL     1     -12.265  13.764  69.330  1.00  0.00    -0.325 C  
HETATM    2  C   UNL     1     -12.163  12.988  67.996  1.00  0.00    -0.010 C  
HETATM    3  O   UNL     1     -13.367  13.396  67.277  1.00  0.00     1.977 OA 
HETATM    4  C   UNL     1     -13.351  13.716  65.857  1.00  0.00     0.850 C  
HETATM    5  C   UNL     1     -10.753  13.141  67.305  1.00  0.00    -0.254 C  
HETATM    6  C   UNL     1     -12.242  12.877  65.230  1.00  0.00    -0.524 C  
HETATM    7  C   UNL     1     -10.850  13.170  65.762  1.00  0.00    -0.273 C  
HETATM    8  H   UNL     1      -9.102  12.418  65.454  1.00  0.00     0.000 HD 
HETATM    9  O   UNL     1      -9.972  12.236  65.120  1.00  0.00    -0.261 OA 
ENDROOT
BRANCH   4  10
HETATM   10  O   UNL     1     -13.512  15.168  65.634  1.00  0.00     0.854 OA 
BRANCH  10  11
HETATM   11  C   UNL     1     -13.312  16.233  66.613  1.00  0.00     6.398 C  
HETATM   12  C   UNL     1      -9.256  17.038  69.209  1.00  0.00     0.042 C  
HETATM   13  C   UNL     1     -12.013  17.525  68.427  1.00  0.00     2.210 C  
HETATM   14  C   UNL     1     -12.232  16.107  67.740  1.00  0.00     1.124 C  
HETATM   15  C   UNL     1      -9.226  14.156  66.415  1.00  0.00    -0.209 C  
HETATM   16  C   UNL     1     -10.924  18.374  67.685  1.00  0.00    -0.160 C  
HETATM   17  C   UNL     1     -11.434  18.377  66.201  1.00  0.00     1.579 C  
HETATM   18  H   UNL     1      -9.439  13.910  69.763  1.00  0.00     0.000 HD 
HETATM   19  C   UNL     1     -10.871  19.906  68.066  1.00  0.00    -0.110 C  
HETATM   20  C   UNL     1     -12.862  17.556  65.878  1.00  0.00     9.127 C  
HETATM   21  C   UNL     1      -7.734  13.599  68.512  1.00  0.00    -0.129 C  
HETATM   22  C   UNL     1     -10.241  18.757  65.254  1.00  0.00     0.898 C  
HETATM   23  O   UNL     1      -9.696  14.817  69.877  1.00  0.00     0.095 OA 
HETATM   24  C   UNL     1      -8.775  18.285  65.653  1.00  0.00     0.695 C  
HETATM   25  C   UNL     1      -7.939  13.609  65.772  1.00  0.00     3.295 C  
HETATM   26  C   UNL     1      -8.427  14.897  67.674  1.00  0.00    -0.176 C  
HETATM   27  C   UNL     1      -8.768  17.124  66.727  1.00  0.00    -0.270 C  
HETATM   28  C   UNL     1      -6.809  14.572  66.252  1.00  0.00     3.832 C  
HETATM   29  C   UNL     1      -8.850  15.603  69.030  1.00  0.00    -0.243 C  
HETATM   30  C   UNL     1      -7.437  15.978  66.915  1.00  0.00    -0.218 C  
HETATM   31  C   UNL     1      -9.394  17.829  67.950  1.00  0.00    -0.266 C  
HETATM   32  H   UNL     1      -6.247  15.886  65.748  1.00  0.00     0.000 HD 
HETATM   33  O   UNL     1      -6.963  16.503  65.647  1.00  0.00     0.818 OA 
BRANCH  15  34
HETATM   34  C   UNL     1     -10.071  14.670  65.150  1.00  0.00    -0.359 C  
HETATM   35  C   UNL     1     -10.788  15.786  64.957  1.00  0.00    -0.461 C  
HETATM   36  O   UNL     1     -11.234  14.547  63.087  1.00  0.00     1.651 OA 
HETATM   37  C   UNL     1     -11.272  15.815  63.532  1.00  0.00     2.212 C  
HETATM   38  C   UNL     1     -10.234  13.949  63.857  1.00  0.00     1.486 C  
HETATM   39  O   UNL     1     -11.607  16.730  62.844  1.00  0.00     3.232 OA 
ENDBRANCH  15  34
ENDBRANCH  10  11
ENDBRANCH   4  10
BRANCH   5  40
HETATM   40  O   UNL     1      -9.744  12.215  67.846  1.00  0.00    -0.188 OA 
BRANCH  40  41
HETATM   41  C   UNL     1      -9.960  10.797  67.592  1.00  0.00    -0.173 C  
HETATM   42  C   UNL     1      -9.357  10.796  70.803  1.00  0.00     2.966 C  
HETATM   43  C   UNL     1      -9.432   9.682  69.746  1.00  0.00    -0.220 C  
HETATM   44  H   UNL     1      -5.680  10.240  68.201  1.00  0.00     0.000 HD 
HETATM   45  O   UNL     1     -10.401  10.059  68.754  1.00  0.00    -0.180 OA 
HETATM   46  O   UNL     1      -6.351  10.130  67.538  1.00  0.00    -0.058 OA 
HETATM   47  C   UNL     1      -8.007   9.344  69.223  1.00  0.00    -0.093 C  
HETATM   48  C   UNL     1      -7.658  10.283  68.072  1.00  0.00    -0.088 C  
HETATM   49  C   UNL     1      -8.730  10.109  67.016  1.00  0.00    -0.137 C  
BRANCH  47  50
HETATM   50  O   UNL     1      -7.843   7.939  68.888  1.00  0.00    -0.112 OA 
BRANCH  50  51
HETATM   51  C   UNL     1      -8.353   7.043  69.915  1.00  0.00    -0.139 C  
HETATM   52  C   UNL     1     -10.474   6.499  68.893  1.00  0.00    -0.215 C  
HETATM   53  H   UNL     1     -12.178   6.533  67.903  1.00  0.00     0.000 HD 
HETATM   54  C   UNL     1      -8.933   4.645  69.396  1.00  0.00    -0.096 C  
HETATM   55  C   UNL     1     -10.437   5.031  69.304  1.00  0.00    -0.035 C  
HETATM   56  C   UNL     1      -9.849   7.229  70.070  1.00  0.00    -0.175 C  
HETATM   57  O   UNL     1      -7.969   5.684  69.661  1.00  0.00    -0.092 OA 
HETATM   58  C   UNL     1      -8.443   4.011  68.094  1.00  0.00    -0.105 C  
HETATM   59  O   UNL     1     -11.787   6.989  68.640  1.00  0.00     0.593 OA 
BRANCH  55  60
HETATM   60  O   UNL     1     -11.138   4.987  70.568  1.00  0.00     0.187 OA 
BRANCH  60  61
HETATM   61  C   UNL     1     -10.440   4.606  71.735  1.00  0.00    -0.079 C  
HETATM   62  C   UNL     1      -8.463   3.511  72.490  1.00  0.00    -0.085 C  
HETATM   63  H   UNL     1     -12.159   2.564  74.797  1.00  0.00     0.000 HD 
HETATM   64  O   UNL     1      -9.228   3.966  71.370  1.00  0.00    -0.108 OA 
HETATM   65  O   UNL     1     -12.591   4.274  72.947  1.00  0.00     0.569 OA 
HETATM   66  C   UNL     1      -9.255   2.515  73.342  1.00  0.00    -0.084 C  
HETATM   67  H   UNL     1      -9.019   1.477  75.030  1.00  0.00     0.000 HD 
HETATM   68  O   UNL     1     -11.336   2.175  74.524  1.00  0.00     0.110 OA 
HETATM   69  C   UNL     1     -11.358   3.647  72.554  1.00  0.00     0.669 C  
HETATM   70  H   UNL     1     -13.151   3.690  73.446  1.00  0.00     0.000 HD 
HETATM   71  C   UNL     1     -10.583   3.143  73.783  1.00  0.00    -0.185 C  
HETATM   72  O   UNL     1      -8.528   2.096  74.501  1.00  0.00    -0.057 OA 
BRANCH  62  73
HETATM   73  C   UNL     1      -7.198   2.881  71.909  1.00  0.00    -0.039 C  
HETATM   74  H   UNL     1      -5.610   1.998  72.626  1.00  0.00     0.000 HD 
HETATM   75  O   UNL     1      -6.397   2.389  72.987  1.00  0.00    -0.012 OA 
ENDBRANCH  62  73
ENDBRANCH  60  61
ENDBRANCH  55  60
ENDBRANCH  50  51
ENDBRANCH  47  50
ENDBRANCH  40  41
ENDBRANCH   5  40
TORSDOF 10
ENDMDL
MODEL       25
REMARK 921   NORMALIZED FREE ENERGY PREDICTED BY IDOCK:   47.51 KCAL/MOL
REMARK 922        TOTAL FREE ENERGY PREDICTED BY IDOCK:   78.84 KCAL/MOL
REMARK 923 INTER-LIGAND FREE ENERGY PREDICTED BY IDOCK:   30.61 KCAL/MOL
REMARK 924 INTRA-LIGAND FREE ENERGY PREDICTED BY IDOCK:   48.23 KCAL/MOL
REMARK 927      BINDING AFFINITY PREDICTED BY RF-SCORE:    0.00 PKD
ROOT
HETATM    1  C   UNL     1      -9.266  13.077  69.196  1.00  0.00     0.663 C  
HETATM    2  C   UNL     1     -10.778  13.098  69.520  1.00  0.00     0.283 C  
HETATM    3  O   UNL     1     -11.310  12.001  68.716  1.00  0.00    -0.232 OA 
HETATM    4  C   UNL     1     -12.301  11.070  69.234  1.00  0.00    -0.090 C  
HETATM    5  C   UNL     1     -11.072  13.143  71.069  1.00  0.00     2.633 C  
HETATM    6  C   UNL     1     -13.129  11.836  70.261  1.00  0.00     0.521 C  
HETATM    7  C   UNL     1     -12.341  12.348  71.455  1.00  0.00     0.055 C  
HETATM    8  H   UNL     1     -12.772  13.422  72.996  1.00  0.00     0.000 HD 
HETATM    9  O   UNL     1     -13.265  13.101  72.250  1.00  0.00    -0.466 OA 
ENDROOT
BRANCH   4  10
HETATM   10  O   UNL     1     -11.708   9.739  69.481  1.00  0.00    -0.023 OA 
BRANCH  10  11
HETATM   11  C   UNL     1     -11.489   8.680  68.500  1.00  0.00     1.041 C  
HETATM   12  C   UNL     1      -7.297   6.307  67.704  1.00  0.00    -0.084 C  
HETATM   13  C   UNL     1     -10.079   6.970  67.182  1.00  0.00    -0.283 C  
HETATM   14  C   UNL     1     -10.055   8.359  67.958  1.00  0.00    -0.245 C  
HETATM   15  C   UNL     1      -7.487   8.942  70.726  1.00  0.00    -0.101 C  
HETATM   16  C   UNL     1      -9.826   5.758  68.142  1.00  0.00    -0.162 C  
HETATM   17  C   UNL     1     -10.910   5.964  69.258  1.00  0.00    -0.414 C  
HETATM   18  H   UNL     1      -6.072   9.244  67.690  1.00  0.00     0.000 HD 
HETATM   19  C   UNL     1     -10.164   4.332  67.551  1.00  0.00     0.123 C  
HETATM   20  C   UNL     1     -11.927   7.290  69.106  1.00  0.00     1.090 C  
HETATM   21  C   UNL     1      -5.126   8.847  69.564  1.00  0.00    -0.034 C  
HETATM   22  C   UNL     1     -10.495   5.139  70.529  1.00  0.00    -0.278 C  
HETATM   23  O   UNL     1      -6.558   8.515  67.321  1.00  0.00    -0.057 OA 
HETATM   24  C   UNL     1      -8.946   4.982  70.859  1.00  0.00    -0.165 C  
HETATM   25  C   UNL     1      -6.524   8.927  71.928  1.00  0.00    -0.049 C  
HETATM   26  C   UNL     1      -6.535   7.939  69.798  1.00  0.00    -0.034 C  
HETATM   27  C   UNL     1      -8.041   6.038  70.108  1.00  0.00    -0.114 C  
HETATM   28  C   UNL     1      -5.733   7.590  71.793  1.00  0.00    -0.036 C  
HETATM   29  C   UNL     1      -6.528   7.459  68.286  1.00  0.00    -0.045 C  
HETATM   30  C   UNL     1      -6.455   6.553  70.692  1.00  0.00    -0.048 C  
HETATM   31  C   UNL     1      -8.259   5.641  68.632  1.00  0.00    -0.103 C  
HETATM   32  H   UNL     1      -5.972   6.162  72.241  1.00  0.00     0.000 HD 
HETATM   33  O   UNL     1      -6.825   5.886  71.927  1.00  0.00    -0.064 OA 
BRANCH  15  34
HETATM   34  C   UNL     1      -8.930   8.814  71.418  1.00  0.00    -0.307 C  
HETATM   35  C   UNL     1      -9.343   8.113  72.483  1.00  0.00    -0.329 C  
HETATM   36  O   UNL     1     -11.287   8.964  71.630  1.00  0.00    -0.288 OA 
HETATM   37  C   UNL     1     -10.780   8.460  72.768  1.00  0.00    -0.131 C  
HETATM   38  C   UNL     1     -10.176   9.498  70.973  1.00  0.00    -0.262 C  
HETATM   39  O   UNL     1     -11.415   8.374  73.774  1.00  0.00     1.201 OA 
ENDBRANCH  15  34
ENDBRANCH  10  11
ENDBRANCH   4  10
BRANCH   5  40
HETATM   40  O   UNL     1     -10.999  14.504  71.629  1.00  0.00     0.510 OA 
BRANCH  40  41
HETATM   41  C   UNL     1     -11.312  15.599  70.721  1.00  0.00    -0.371 C  
HETATM   42  C   UNL     1     -13.861  13.612  70.243  1.00  0.00     1.888 C  
HETATM   43  C   UNL     1     -13.327  14.839  69.487  1.00  0.00     1.468 C  
HETATM   44  H   UNL     1     -10.363  12.886  67.444  1.00  0.00     0.000 HD 
HETATM   45  O   UNL     1     -12.723  15.733  70.436  1.00  0.00    -0.393 OA 
HETATM   46  O   UNL     1     -10.083  13.710  67.824  1.00  0.00    -0.233 OA 
HETATM   47  C   UNL     1     -12.431  14.388  68.300  1.00  0.00     0.235 C  
HETATM   48  C   UNL     1     -11.001  14.189  68.795  1.00  0.00    -0.257 C  
HETATM   49  C   UNL     1     -10.555  15.503  69.403  1.00  0.00    -0.250 C  
BRANCH  47  50
HETATM   50  O   UNL     1     -12.523  15.272  67.149  1.00  0.00     0.540 OA 
BRANCH  50  51
HETATM   51  C   UNL     1     -11.679  14.856  66.040  1.00  0.00    -0.173 C  
HETATM   52  C   UNL     1     -13.259  13.420  64.908  1.00  0.00     0.308 C  
HETATM   53  H   UNL     1     -14.692  12.146  64.455  1.00  0.00     0.000 HD 
HETATM   54  C   UNL     1     -12.329  15.321  63.649  1.00  0.00     0.672 C  
HETATM   55  C   UNL     1     -12.847  13.862  63.507  1.00  0.00     0.840 C  
HETATM   56  C   UNL     1     -11.956  13.408  65.690  1.00  0.00    -0.439 C  
HETATM   57  O   UNL     1     -11.806  15.749  64.922  1.00  0.00    -0.058 OA 
HETATM   58  C   UNL     1     -13.435  16.334  63.347  1.00  0.00     5.661 C  
HETATM   59  O   UNL     1     -13.877  12.138  64.944  1.00  0.00     0.771 OA 
BRANCH  55  60
HETATM   60  O   UNL     1     -11.834  12.911  63.106  1.00  0.00    -0.506 OA 
BRANCH  60  61
HETATM   61  C   UNL     1     -11.221  12.097  64.084  1.00  0.00    -0.368 C  
HETATM   62  C   UNL     1      -9.247  10.845  64.544  1.00  0.00    -0.201 C  
HETATM   63  H   UNL     1     -13.059   8.913  65.811  1.00  0.00     0.000 HD 
HETATM   64  O   UNL     1      -9.936  11.704  63.631  1.00  0.00    -0.315 OA 
HETATM   65  O   UNL     1     -13.444  11.226  64.794  1.00  0.00     2.292 OA 
HETATM   66  C   UNL     1     -10.038   9.561  64.811  1.00  0.00     0.701 C  
HETATM   67  H   UNL     1      -9.883   7.921  65.936  1.00  0.00     0.000 HD 
HETATM   68  O   UNL     1     -12.188   8.698  65.499  1.00  0.00     9.875 OA 
HETATM   69  C   UNL     1     -12.138  10.858  64.324  1.00  0.00     1.956 C  
HETATM   70  H   UNL     1     -14.003  10.472  64.940  1.00  0.00     0.000 HD 
HETATM   71  C   UNL     1     -11.444   9.909  65.315  1.00  0.00     3.599 C  
HETATM   72  O   UNL     1      -9.392   8.717  65.770  1.00  0.00    -0.225 OA 
BRANCH  62  73
HETATM   73  C   UNL     1      -7.890  10.553  63.905  1.00  0.00     0.025 C  
HETATM   74  H   UNL     1      -6.942   8.962  63.283  1.00  0.00     0.000 HD 
HETATM   75  O   UNL     1      -7.786   9.144  63.680  1.00  0.00    -0.110 OA 
ENDBRANCH  62  73
ENDBRANCH  60  61
ENDBRANCH  55  60
ENDBRANCH  50  51
ENDBRANCH  47  50
ENDBRANCH  40  41
ENDBRANCH   5  40
TORSDOF 10
ENDMDL
MODEL       26
REMARK 921   NORMALIZED FREE ENERGY PREDICTED BY IDOCK:   65.42 KCAL/MOL
REMARK 922        TOTAL FREE ENERGY PREDICTED BY IDOCK:  107.23 KCAL/MOL
REMARK 923 INTER-LIGAND FREE ENERGY PREDICTED BY IDOCK:   17.74 KCAL/MOL
REMARK 924 INTRA-LIGAND FREE ENERGY PREDICTED BY IDOCK:   89.48 KCAL/MOL
REMARK 927      BINDING AFFINITY PREDICTED BY RF-SCORE:    0.00 PKD
ROOT
HETATM    1  C   UNL     1      -6.207  14.141  67.849  1.00  0.00    -0.164 C  
HETATM    2  C   UNL     1      -7.173  12.958  67.604  1.00  0.00    -0.147 C  
HETATM    3  O   UNL     1      -8.437  13.615  67.283  1.00  0.00    -0.188 OA 
HETATM    4  C   UNL     1      -9.301  13.151  66.208  1.00  0.00    -0.127 C  
HETATM    5  C   UNL     1      -6.581  11.880  66.615  1.00  0.00     0.078 C  
HETATM    6  C   UNL     1      -9.083  11.645  66.088  1.00  0.00    -0.209 C  
HETATM    7  C   UNL     1      -7.666  11.239  65.720  1.00  0.00     0.221 C  
HETATM    8  H   UNL     1      -6.759   9.551  65.510  1.00  0.00     0.000 HD 
HETATM    9  O   UNL     1      -7.645   9.805  65.740  1.00  0.00    -0.101 OA 
ENDROOT
BRANCH   4  10
HETATM   10  O   UNL     1      -9.274  14.080  65.059  1.00  0.00     0.707 OA 
BRANCH  10  11
HETATM   11  C   UNL     1      -9.712  15.474  65.049  1.00  0.00     0.264 C  
HETATM   12  C   UNL     1     -12.636  17.603  68.328  1.00  0.00     4.904 C  
HETATM   13  C   UNL     1     -11.053  17.508  65.892  1.00  0.00     0.447 C  
HETATM   14  C   UNL     1     -11.015  15.920  65.793  1.00  0.00    -0.179 C  
HETATM   15  C   UNL     1     -11.467  13.813  68.948  1.00  0.00    -0.344 C  
HETATM   16  C   UNL     1     -10.319  18.033  67.172  1.00  0.00    -0.382 C  
HETATM   17  C   UNL     1      -8.904  17.365  67.063  1.00  0.00    -0.248 C  
HETATM   18  H   UNL     1     -14.419  15.008  67.867  1.00  0.00     0.000 HD 
HETATM   19  C   UNL     1     -10.001  19.581  67.195  1.00  0.00    -0.487 C  
HETATM   20  C   UNL     1      -8.618  16.383  65.732  1.00  0.00     0.167 C  
HETATM   21  C   UNL     1     -13.900  14.317  69.821  1.00  0.00     2.850 C  
HETATM   22  C   UNL     1      -8.220  17.388  68.477  1.00  0.00    -0.268 C  
HETATM   23  O   UNL     1     -14.062  15.856  67.631  1.00  0.00     7.013 OA 
HETATM   24  C   UNL     1      -9.139  17.239  69.767  1.00  0.00     1.088 C  
HETATM   25  C   UNL     1     -11.471  13.139  70.332  1.00  0.00     0.208 C  
HETATM   26  C   UNL     1     -12.440  15.077  69.428  1.00  0.00    -0.076 C  
HETATM   27  C   UNL     1     -10.572  16.654  69.444  1.00  0.00    -0.333 C  
HETATM   28  C   UNL     1     -11.755  14.293  71.342  1.00  0.00    -0.029 C  
HETATM   29  C   UNL     1     -13.202  16.262  68.701  1.00  0.00     3.702 C  
HETATM   30  C   UNL     1     -11.565  15.797  70.628  1.00  0.00    -0.390 C  
HETATM   31  C   UNL     1     -11.169  17.767  68.556  1.00  0.00     0.603 C  
HETATM   32  H   UNL     1     -10.893  15.302  72.074  1.00  0.00     0.000 HD 
HETATM   33  O   UNL     1     -10.359  15.762  71.436  1.00  0.00     0.572 OA 
BRANCH  15  34
HETATM   34  C   UNL     1      -9.936  13.673  68.483  1.00  0.00    -0.208 C  
HETATM   35  C   UNL     1      -9.210  14.378  67.605  1.00  0.00    -0.196 C  
HETATM   36  O   UNL     1      -7.817  12.656  68.174  1.00  0.00    -0.126 OA 
HETATM   37  C   UNL     1      -7.785  13.893  67.649  1.00  0.00    -0.184 C  
HETATM   38  C   UNL     1      -8.964  12.657  68.972  1.00  0.00     0.516 C  
HETATM   39  O   UNL     1      -6.770  14.436  67.337  1.00  0.00    -0.256 OA 
ENDBRANCH  15  34
ENDBRANCH  10  11
ENDBRANCH   4  10
BRANCH   5  40
HETATM   40  O   UNL     1      -5.679  10.923  67.279  1.00  0.00    -0.044 OA 
BRANCH  40  41
HETATM   41  C   UNL     1      -6.113   9.533  67.306  1.00  0.00    -0.056 C  
HETATM   42  C   UNL     1      -8.663  11.034  68.691  1.00  0.00    -0.161 C  
HETATM   43  C   UNL     1      -8.240   9.560  68.585  1.00  0.00    -0.112 C  
HETATM   44  H   UNL     1      -5.491   9.631  71.620  1.00  0.00     0.000 HD 
HETATM   45  O   UNL     1      -7.549   9.372  67.339  1.00  0.00    -0.094 OA 
HETATM   46  O   UNL     1      -5.185   9.184  70.840  1.00  0.00    -0.027 OA 
HETATM   47  C   UNL     1      -7.476   9.128  69.867  1.00  0.00    -0.070 C  
HETATM   48  C   UNL     1      -5.996   9.465  69.709  1.00  0.00    -0.036 C  
HETATM   49  C   UNL     1      -5.508   8.751  68.466  1.00  0.00    -0.038 C  
BRANCH  47  50
HETATM   50  O   UNL     1      -7.714   7.740  70.231  1.00  0.00    -0.086 OA 
BRANCH  50  51
HETATM   51  C   UNL     1      -7.681   6.837  69.091  1.00  0.00    -0.106 C  
HETATM   52  C   UNL     1      -8.216   4.783  70.248  1.00  0.00    -0.079 C  
HETATM   53  H   UNL     1      -8.382   3.320  71.557  1.00  0.00     0.000 HD 
HETATM   54  C   UNL     1      -9.707   5.495  68.421  1.00  0.00    -0.130 C  
HETATM   55  C   UNL     1      -9.116   4.247  69.139  1.00  0.00    -0.126 C  
HETATM   56  C   UNL     1      -7.100   5.499  69.504  1.00  0.00    -0.064 C  
HETATM   57  O   UNL     1      -8.971   6.733  68.469  1.00  0.00    -0.123 OA 
HETATM   58  C   UNL     1     -11.080   5.861  68.986  1.00  0.00    -0.295 C  
HETATM   59  O   UNL     1      -7.684   3.768  71.092  1.00  0.00    -0.056 OA 
BRANCH  55  60
HETATM   60  O   UNL     1      -8.241   3.447  68.311  1.00  0.00    -0.076 OA 
BRANCH  60  61
HETATM   61  C   UNL     1      -8.216   3.665  66.916  1.00  0.00    -0.095 C  
HETATM   62  C   UNL     1      -7.421   5.166  65.245  1.00  0.00    -0.073 C  
HETATM   63  H   UNL     1     -11.541   3.596  64.585  1.00  0.00     0.000 HD 
HETATM   64  O   UNL     1      -7.475   4.842  66.637  1.00  0.00    -0.084 OA 
HETATM   65  O   UNL     1     -10.461   2.613  66.682  1.00  0.00     1.418 OA 
HETATM   66  C   UNL     1      -8.822   5.372  64.663  1.00  0.00     0.010 C  
HETATM   67  H   UNL     1      -9.660   5.764  62.895  1.00  0.00     0.000 HD 
HETATM   68  O   UNL     1     -11.008   4.366  64.425  1.00  0.00    -0.085 OA 
HETATM   69  C   UNL     1      -9.689   3.796  66.422  1.00  0.00    -0.122 C  
HETATM   70  H   UNL     1     -11.359   2.692  66.381  1.00  0.00     0.000 HD 
HETATM   71  C   UNL     1      -9.684   4.129  64.920  1.00  0.00    -0.191 C  
HETATM   72  O   UNL     1      -8.791   5.636  63.257  1.00  0.00     0.094 OA 
BRANCH  62  73
HETATM   73  C   UNL     1      -6.571   6.431  65.139  1.00  0.00    -0.039 C  
HETATM   74  H   UNL     1      -4.885   7.060  65.901  1.00  0.00     0.000 HD 
HETATM   75  O   UNL     1      -5.414   6.273  65.966  1.00  0.00    -0.013 OA 
ENDBRANCH  62  73
ENDBRANCH  60  61
ENDBRANCH  55  60
ENDBRANCH  50  51
ENDBRANCH  47  50
ENDBRANCH  40  41
ENDBRANCH   5  40
TORSDOF 10
ENDMDL
MODEL       27
REMARK 921   NORMALIZED FREE ENERGY PREDICTED BY IDOCK:   65.85 KCAL/MOL
REMARK 922        TOTAL FREE ENERGY PREDICTED BY IDOCK:  107.91 KCAL/MOL
REMARK 923 INTER-LIGAND FREE ENERGY PREDICTED BY IDOCK:   48.92 KCAL/MOL
REMARK 924 INTRA-LIGAND FREE ENERGY PREDICTED BY IDOCK:   58.99 KCAL/MOL
REMARK 927      BINDING AFFINITY PREDICTED BY RF-SCORE:    0.00 PKD
ROOT
HETATM    1  C   UNL     1     -13.948  10.324  68.690  1.00  0.00     8.943 C  
HETATM    2  C   UNL     1     -12.579   9.698  68.333  1.00  0.00     4.631 C  
HETATM    3  O   UNL     1     -12.329   8.781  69.442  1.00  0.00     1.624 OA 
HETATM    4  C   UNL     1     -11.790   7.445  69.236  1.00  0.00     0.886 C  
HETATM    5  C   UNL     1     -12.519   9.164  66.850  1.00  0.00     9.783 C  
HETATM    6  C   UNL     1     -10.916   7.512  67.987  1.00  0.00     0.004 C  
HETATM    7  C   UNL     1     -11.657   7.887  66.715  1.00  0.00     2.805 C  
HETATM    8  H   UNL     1     -11.128   8.213  64.891  1.00  0.00     0.000 HD 
HETATM    9  O   UNL     1     -10.664   7.978  65.686  1.00  0.00     2.130 OA 
ENDROOT
BRANCH   4  10
HETATM   10  O   UNL     1     -12.820   6.411  69.466  1.00  0.00     2.231 OA 
BRANCH  10  11
HETATM   11  C   UNL     1     -12.699   5.226  70.312  1.00  0.00     7.412 C  
HETATM   12  C   UNL     1      -8.551   2.939  71.496  1.00  0.00    -0.099 C  
HETATM   13  C   UNL     1     -11.436   3.292  71.457  1.00  0.00     3.547 C  
HETATM   14  C   UNL     1     -11.455   4.280  70.211  1.00  0.00     5.150 C  
HETATM   15  C   UNL     1      -8.348   6.345  69.381  1.00  0.00    -0.122 C  
HETATM   16  C   UNL     1     -10.681   3.909  72.684  1.00  0.00    -0.115 C  
HETATM   17  C   UNL     1     -11.406   5.286  72.883  1.00  0.00    -0.368 C  
HETATM   18  H   UNL     1      -7.978   3.157  68.374  1.00  0.00     0.000 HD 
HETATM   19  C   UNL     1     -10.895   3.170  74.064  1.00  0.00    -0.264 C  
HETATM   20  C   UNL     1     -12.660   5.655  71.830  1.00  0.00     0.924 C  
HETATM   21  C   UNL     1      -6.463   4.613  68.763  1.00  0.00    -0.037 C  
HETATM   22  C   UNL     1     -10.484   6.228  73.737  1.00  0.00    -0.304 C  
HETATM   23  O   UNL     1      -8.400   2.797  69.145  1.00  0.00    -0.057 OA 
HETATM   24  C   UNL     1      -8.907   6.109  73.560  1.00  0.00    -0.124 C  
HETATM   25  C   UNL     1      -7.091   7.230  69.315  1.00  0.00    -0.079 C  
HETATM   26  C   UNL     1      -7.537   5.030  70.004  1.00  0.00    -0.060 C  
HETATM   27  C   UNL     1      -8.486   5.360  72.232  1.00  0.00    -0.122 C  
HETATM   28  C   UNL     1      -6.130   6.647  70.396  1.00  0.00    -0.024 C  
HETATM   29  C   UNL     1      -7.883   3.507  70.276  1.00  0.00    -0.047 C  
HETATM   30  C   UNL     1      -6.930   5.597  71.430  1.00  0.00    -0.071 C  
HETATM   31  C   UNL     1      -9.048   3.944  72.483  1.00  0.00    -0.137 C  
HETATM   32  H   UNL     1      -5.945   6.866  71.884  1.00  0.00     0.000 HD 
HETATM   33  O   UNL     1      -6.782   6.738  72.315  1.00  0.00    -0.058 OA 
BRANCH  15  34
HETATM   34  C   UNL     1      -9.470   7.351  69.935  1.00  0.00    -0.153 C  
HETATM   35  C   UNL     1     -10.529   7.915  69.336  1.00  0.00    -0.222 C  
HETATM   36  O   UNL     1     -10.483   8.931  71.385  1.00  0.00    -0.250 OA 
HETATM   37  C   UNL     1     -11.320   8.680  70.364  1.00  0.00    -0.187 C  
HETATM   38  C   UNL     1      -9.551   7.892  71.320  1.00  0.00    -0.157 C  
HETATM   39  O   UNL     1     -12.466   9.011  70.372  1.00  0.00     0.158 OA 
ENDBRANCH  15  34
ENDBRANCH  10  11
ENDBRANCH   4  10
BRANCH   5  40
HETATM   40  O   UNL     1     -12.219  10.221  65.869  1.00  0.00     3.221 OA 
BRANCH  40  41
HETATM   41  C   UNL     1     -10.832  10.659  65.788  1.00  0.00     0.060 C  
HETATM   42  C   UNL     1     -11.558  11.370  68.893  1.00  0.00    -0.388 C  
HETATM   43  C   UNL     1     -10.388  11.752  67.972  1.00  0.00    -0.198 C  
HETATM   44  H   UNL     1     -12.323  14.751  65.963  1.00  0.00     0.000 HD 
HETATM   45  O   UNL     1     -10.150  10.665  67.062  1.00  0.00    -0.195 OA 
HETATM   46  O   UNL     1     -11.834  14.167  65.396  1.00  0.00    -0.338 OA 
HETATM   47  C   UNL     1     -10.645  13.143  67.329  1.00  0.00    -0.246 C  
HETATM   48  C   UNL     1     -11.467  12.965  66.055  1.00  0.00    -0.340 C  
HETATM   49  C   UNL     1     -10.686  12.034  65.150  1.00  0.00    -0.332 C  
BRANCH  47  50
HETATM   50  O   UNL     1      -9.427  13.910  67.124  1.00  0.00    -0.229 OA 
BRANCH  50  51
HETATM   51  C   UNL     1      -9.598  15.333  67.372  1.00  0.00    -0.207 C  
HETATM   52  C   UNL     1      -9.485  15.291  69.786  1.00  0.00    -0.097 C  
HETATM   53  H   UNL     1      -9.628  14.818  71.693  1.00  0.00     0.000 HD 
HETATM   54  C   UNL     1      -7.842  16.677  68.582  1.00  0.00    -0.234 C  
HETATM   55  C   UNL     1      -8.672  16.578  69.894  1.00  0.00     1.032 C  
HETATM   56  C   UNL     1     -10.428  15.547  68.622  1.00  0.00    -0.237 C  
HETATM   57  O   UNL     1      -8.335  16.015  67.401  1.00  0.00    -0.155 OA 
HETATM   58  C   UNL     1      -6.439  16.096  68.770  1.00  0.00    -0.122 C  
HETATM   59  O   UNL     1     -10.217  14.978  70.965  1.00  0.00     0.314 OA 
BRANCH  55  60
HETATM   60  O   UNL     1      -9.660  17.623  70.049  1.00  0.00     0.896 OA 
BRANCH  60  61
HETATM   61  C   UNL     1     -10.423  18.027  68.931  1.00  0.00    -0.107 C  
HETATM   62  C   UNL     1     -10.754  17.610  66.609  1.00  0.00    -0.117 C  
HETATM   63  H   UNL     1     -10.840  21.905  67.798  1.00  0.00     0.000 HD 
HETATM   64  O   UNL     1     -10.055  17.249  67.804  1.00  0.00    -0.286 OA 
HETATM   65  O   UNL     1     -10.523  20.357  69.807  1.00  0.00    -0.525 OA 
HETATM   66  C   UNL     1     -10.510  19.075  66.239  1.00  0.00    -0.457 C  
HETATM   67  H   UNL     1     -11.100  20.380  64.849  1.00  0.00     0.000 HD 
HETATM   68  O   UNL     1     -10.601  21.343  67.071  1.00  0.00     1.652 OA 
HETATM   69  C   UNL     1     -10.149  19.542  68.684  1.00  0.00    -0.442 C  
HETATM   70  H   UNL     1     -10.356  21.280  69.657  1.00  0.00     0.000 HD 
HETATM   71  C   UNL     1     -10.895  19.983  67.413  1.00  0.00    -0.121 C  
HETATM   72  O   UNL     1     -11.251  19.471  65.080  1.00  0.00    -0.176 OA 
BRANCH  62  73
HETATM   73  C   UNL     1     -10.251  16.659  65.524  1.00  0.00    -0.202 C  
HETATM   74  H   UNL     1      -8.572  16.384  64.563  1.00  0.00     0.000 HD 
HETATM   75  O   UNL     1      -8.885  16.975  65.238  1.00  0.00     0.320 OA 
ENDBRANCH  62  73
ENDBRANCH  60  61
ENDBRANCH  55  60
ENDBRANCH  50  51
ENDBRANCH  47  50
ENDBRANCH  40  41
ENDBRANCH   5  40
TORSDOF 10
ENDMDL
MODEL       28
REMARK 921   NORMALIZED FREE ENERGY PREDICTED BY IDOCK:   74.33 KCAL/MOL
REMARK 922        TOTAL FREE ENERGY PREDICTED BY IDOCK:  121.35 KCAL/MOL
REMARK 923 INTER-LIGAND FREE ENERGY PREDICTED BY IDOCK:   48.35 KCAL/MOL
REMARK 924 INTRA-LIGAND FREE ENERGY PREDICTED BY IDOCK:   73.00 KCAL/MOL
REMARK 927      BINDING AFFINITY PREDICTED BY RF-SCORE:    0.00 PKD
ROOT
HETATM    1  C   UNL     1      -9.704   9.775  73.658  1.00  0.00     8.002 C  
HETATM    2  C   UNL     1      -9.668   9.853  72.113  1.00  0.00     3.377 C  
HETATM    3  O   UNL     1      -8.240   9.927  71.813  1.00  0.00     0.973 OA 
HETATM    4  C   UNL     1      -7.638   9.176  70.722  1.00  0.00    -0.133 C  
HETATM    5  C   UNL     1     -10.553   8.744  71.424  1.00  0.00    -0.279 C  
HETATM    6  C   UNL     1      -8.713   9.014  69.653  1.00  0.00    -0.143 C  
HETATM    7  C   UNL     1      -9.938   8.234  70.100  1.00  0.00    -0.187 C  
HETATM    8  H   UNL     1     -11.620   7.777  69.278  1.00  0.00     0.000 HD 
HETATM    9  O   UNL     1     -10.854   8.264  68.998  1.00  0.00    -0.131 OA 
ENDROOT
BRANCH   4  10
HETATM   10  O   UNL     1      -6.809   8.063  71.232  1.00  0.00    -0.044 OA 
BRANCH  10  11
HETATM   11  C   UNL     1      -6.956   6.645  70.917  1.00  0.00    -0.067 C  
HETATM   12  C   UNL     1     -10.323   4.676  67.981  1.00  0.00     0.082 C  
HETATM   13  C   UNL     1      -8.095   4.595  69.846  1.00  0.00    -0.068 C  
HETATM   14  C   UNL     1      -8.322   6.060  70.422  1.00  0.00    -0.124 C  
HETATM   15  C   UNL     1     -10.133   8.672  68.302  1.00  0.00    -0.225 C  
HETATM   16  C   UNL     1      -7.721   4.614  68.325  1.00  0.00    -0.081 C  
HETATM   17  C   UNL     1      -6.494   5.591  68.279  1.00  0.00    -0.043 C  
HETATM   18  H   UNL     1     -12.315   6.502  69.660  1.00  0.00     0.000 HD 
HETATM   19  C   UNL     1      -7.146   3.263  67.742  1.00  0.00    -0.050 C  
HETATM   20  C   UNL     1      -5.987   6.257  69.733  1.00  0.00    -0.018 C  
HETATM   21  C   UNL     1     -12.580   7.763  67.954  1.00  0.00     7.762 C  
HETATM   22  C   UNL     1      -6.302   6.097  66.805  1.00  0.00    -0.045 C  
HETATM   23  O   UNL     1     -11.750   5.751  69.521  1.00  0.00     0.307 OA 
HETATM   24  C   UNL     1      -7.594   6.304  65.899  1.00  0.00    -0.084 C  
HETATM   25  C   UNL     1     -10.700   9.637  67.245  1.00  0.00    -0.284 C  
HETATM   26  C   UNL     1     -10.956   7.350  67.711  1.00  0.00    -0.099 C  
HETATM   27  C   UNL     1      -8.932   6.386  66.736  1.00  0.00    -0.134 C  
HETATM   28  C   UNL     1     -11.071   8.732  66.031  1.00  0.00     2.506 C  
HETATM   29  C   UNL     1     -11.216   5.864  68.199  1.00  0.00     0.196 C  
HETATM   30  C   UNL     1     -10.390   7.207  66.167  1.00  0.00     0.604 C  
HETATM   31  C   UNL     1      -9.000   4.972  67.353  1.00  0.00    -0.111 C  
HETATM   32  H   UNL     1     -10.315   8.201  64.829  1.00  0.00     0.000 HD 
HETATM   33  O   UNL     1      -9.531   7.760  65.136  1.00  0.00     0.611 OA 
BRANCH  15  34
HETATM   34  C   UNL     1      -8.587   9.100  68.388  1.00  0.00    -0.129 C  
HETATM   35  C   UNL     1      -7.464   8.369  68.369  1.00  0.00    -0.095 C  
HETATM   36  O   UNL     1      -6.710  10.479  68.830  1.00  0.00    -0.052 OA 
HETATM   37  C   UNL     1      -6.279   9.298  68.355  1.00  0.00    -0.053 C  
HETATM   38  C   UNL     1      -8.071  10.491  68.519  1.00  0.00    -0.121 C  
HETATM   39  O   UNL     1      -5.158   9.121  67.984  1.00  0.00    -0.034 OA 
ENDBRANCH  15  34
ENDBRANCH  10  11
ENDBRANCH   4  10
BRANCH   5  40
HETATM   40  O   UNL     1     -11.977   9.111  71.344  1.00  0.00    -0.297 OA 
BRANCH  40  41
HETATM   41  C   UNL     1     -12.317  10.480  71.709  1.00  0.00    -0.167 C  
HETATM   42  C   UNL     1     -11.511  10.828  68.563  1.00  0.00    -0.362 C  
HETATM   43  C   UNL     1     -11.739  11.828  69.707  1.00  0.00    -0.335 C  
HETATM   44  H   UNL     1      -8.062  11.392  71.459  1.00  0.00     0.000 HD 
HETATM   45  O   UNL     1     -12.738  11.292  70.590  1.00  0.00    -0.291 OA 
HETATM   46  O   UNL     1      -8.781  11.391  72.079  1.00  0.00    11.648 OA 
HETATM   47  C   UNL     1     -10.381  12.214  70.359  1.00  0.00     3.052 C  
HETATM   48  C   UNL     1     -10.035  11.197  71.443  1.00  0.00     6.678 C  
HETATM   49  C   UNL     1     -11.183  11.195  72.431  1.00  0.00     6.396 C  
BRANCH  47  50
HETATM   50  O   UNL     1     -10.346  13.590  70.829  1.00  0.00     2.697 OA 
BRANCH  50  51
HETATM   51  C   UNL     1      -9.548  14.463  69.983  1.00  0.00     1.003 C  
HETATM   52  C   UNL     1     -10.622  13.991  67.870  1.00  0.00    -0.244 C  
HETATM   53  H   UNL     1     -11.536  13.146  66.343  1.00  0.00     0.000 HD 
HETATM   54  C   UNL     1     -10.604  16.327  68.653  1.00  0.00    -0.297 C  
HETATM   55  C   UNL     1     -10.569  15.435  67.379  1.00  0.00    -0.289 C  
HETATM   56  C   UNL     1      -9.320  13.813  68.634  1.00  0.00    -0.081 C  
HETATM   57  O   UNL     1     -10.124  15.776  69.895  1.00  0.00    -0.275 OA 
HETATM   58  C   UNL     1     -12.031  16.775  68.976  1.00  0.00     0.924 C  
HETATM   59  O   UNL     1     -10.722  13.034  66.821  1.00  0.00    -0.260 OA 
BRANCH  55  60
HETATM   60  O   UNL     1      -9.335  15.522  66.630  1.00  0.00    -0.230 OA 
BRANCH  60  61
HETATM   61  C   UNL     1      -8.842  16.790  66.250  1.00  0.00    -0.299 C  
HETATM   62  C   UNL     1      -7.452  18.581  66.982  1.00  0.00    -0.217 C  
HETATM   63  H   UNL     1     -11.223  19.812  64.947  1.00  0.00     0.000 HD 
HETATM   64  O   UNL     1      -7.978  17.281  67.262  1.00  0.00    -0.180 OA 
HETATM   65  O   UNL     1     -10.951  17.271  65.015  1.00  0.00    -0.648 OA 
HETATM   66  C   UNL     1      -8.571  19.613  66.812  1.00  0.00    -0.320 C  
HETATM   67  H   UNL     1      -8.760  21.548  66.366  1.00  0.00     0.000 HD 
HETATM   68  O   UNL     1     -10.619  20.098  65.622  1.00  0.00    -0.404 OA 
HETATM   69  C   UNL     1     -10.063  17.739  66.043  1.00  0.00    -0.247 C  
HETATM   70  H   UNL     1     -11.694  17.849  64.888  1.00  0.00     0.000 HD 
HETATM   71  C   UNL     1      -9.546  19.152  65.722  1.00  0.00     0.198 C  
HETATM   72  O   UNL     1      -8.066  20.907  66.471  1.00  0.00     0.072 OA 
BRANCH  62  73
HETATM   73  C   UNL     1      -6.535  18.926  68.155  1.00  0.00    -0.216 C  
HETATM   74  H   UNL     1      -6.455  18.480  70.055  1.00  0.00     0.000 HD 
HETATM   75  O   UNL     1      -7.025  18.265  69.326  1.00  0.00    -0.250 OA 
ENDBRANCH  62  73
ENDBRANCH  60  61
ENDBRANCH  55  60
ENDBRANCH  50  51
ENDBRANCH  47  50
ENDBRANCH  40  41
ENDBRANCH   5  40
TORSDOF 10
ENDMDL
MODEL       29
REMARK 921   NORMALIZED FREE ENERGY PREDICTED BY IDOCK:   78.41 KCAL/MOL
REMARK 922        TOTAL FREE ENERGY PREDICTED BY IDOCK:  127.81 KCAL/MOL
REMARK 923 INTER-LIGAND FREE ENERGY PREDICTED BY IDOCK:   85.37 KCAL/MOL
REMARK 924 INTRA-LIGAND FREE ENERGY PREDICTED BY IDOCK:   42.44 KCAL/MOL
REMARK 927      BINDING AFFINITY PREDICTED BY RF-SCORE:    0.00 PKD
ROOT
HETATM    1  C   UNL     1      -6.365  12.861  72.625  1.00  0.00     3.469 C  
HETATM    2  C   UNL     1      -7.896  12.728  72.456  1.00  0.00    14.856 C  
HETATM    3  O   UNL     1      -8.236  13.844  71.577  1.00  0.00     5.048 OA 
HETATM    4  C   UNL     1      -9.178  13.704  70.476  1.00  0.00     4.591 C  
HETATM    5  C   UNL     1      -8.344  11.265  72.068  1.00  0.00    13.029 C  
HETATM    6  C   UNL     1     -10.174  12.623  70.884  1.00  0.00     6.207 C  
HETATM    7  C   UNL     1      -9.560  11.252  71.115  1.00  0.00     6.875 C  
HETATM    8  H   UNL     1     -10.243   9.550  71.710  1.00  0.00     0.000 HD 
HETATM    9  O   UNL     1     -10.627  10.407  71.566  1.00  0.00     0.991 OA 
ENDROOT
BRANCH   4  10
HETATM   10  O   UNL     1      -8.486  13.735  69.172  1.00  0.00     0.167 OA 
BRANCH  10  11
HETATM   11  C   UNL     1      -8.292  14.898  68.309  1.00  0.00    -0.148 C  
HETATM   12  C   UNL     1      -9.863  15.372  63.711  1.00  0.00     6.084 C  
HETATM   13  C   UNL     1      -8.443  16.220  66.101  1.00  0.00    -0.313 C  
HETATM   14  C   UNL     1      -8.350  14.771  66.750  1.00  0.00    -0.114 C  
HETATM   15  C   UNL     1     -10.902  12.095  65.784  1.00  0.00    -0.319 C  
HETATM   16  C   UNL     1      -9.925  16.710  65.968  1.00  0.00    -0.346 C  
HETATM   17  C   UNL     1     -10.478  16.551  67.428  1.00  0.00    -0.310 C  
HETATM   18  H   UNL     1      -8.587  12.477  63.373  1.00  0.00     0.000 HD 
HETATM   19  C   UNL     1     -10.115  18.248  65.662  1.00  0.00     0.166 C  
HETATM   20  C   UNL     1      -9.419  15.966  68.592  1.00  0.00    -0.214 C  
HETATM   21  C   UNL     1     -10.549  11.643  63.214  1.00  0.00    -0.420 C  
HETATM   22  C   UNL     1     -12.047  16.533  67.379  1.00  0.00     1.496 C  
HETATM   23  O   UNL     1      -8.557  13.422  63.463  1.00  0.00     5.042 OA 
HETATM   24  C   UNL     1     -12.759  15.873  66.118  1.00  0.00     2.731 C  
HETATM   25  C   UNL     1     -12.115  11.216  65.431  1.00  0.00     1.587 C  
HETATM   26  C   UNL     1     -10.892  12.882  64.315  1.00  0.00    -0.423 C  
HETATM   27  C   UNL     1     -11.798  14.935  65.283  1.00  0.00    -0.217 C  
HETATM   28  C   UNL     1     -12.892  12.021  64.344  1.00  0.00    -0.114 C  
HETATM   29  C   UNL     1      -9.910  13.878  63.567  1.00  0.00     4.228 C  
HETATM   30  C   UNL     1     -12.371  13.611  64.263  1.00  0.00    -0.335 C  
HETATM   31  C   UNL     1     -10.750  15.945  64.767  1.00  0.00    -0.255 C  
HETATM   32  H   UNL     1     -13.956  13.100  64.378  1.00  0.00     0.000 HD 
HETATM   33  O   UNL     1     -13.647  13.812  64.926  1.00  0.00     0.052 OA 
BRANCH  15  34
HETATM   34  C   UNL     1     -11.200  12.530  67.301  1.00  0.00    -0.347 C  
HETATM   35  C   UNL     1     -12.153  13.312  67.827  1.00  0.00    -0.281 C  
HETATM   36  O   UNL     1     -10.785  12.881  69.609  1.00  0.00     0.188 OA 
HETATM   37  C   UNL     1     -12.038  13.278  69.328  1.00  0.00    -0.242 C  
HETATM   38  C   UNL     1     -10.416  12.119  68.498  1.00  0.00    -0.233 C  
HETATM   39  O   UNL     1     -12.848  13.506  70.174  1.00  0.00    -0.077 OA 
ENDBRANCH  15  34
ENDBRANCH  10  11
ENDBRANCH   4  10
BRANCH   5  40
HETATM   40  O   UNL     1      -8.459  10.371  73.234  1.00  0.00     7.198 OA 
BRANCH  40  41
HETATM   41  C   UNL     1      -8.365   8.942  72.969  1.00  0.00     0.580 C  
HETATM   42  C   UNL     1      -5.947  10.108  71.107  1.00  0.00     0.011 C  
HETATM   43  C   UNL     1      -6.649   8.743  71.186  1.00  0.00    -0.071 C  
HETATM   44  H   UNL     1      -9.952   9.777  68.996  1.00  0.00     0.000 HD 
HETATM   45  O   UNL     1      -7.050   8.515  72.548  1.00  0.00    -0.170 OA 
HETATM   46  O   UNL     1     -10.156   9.289  69.784  1.00  0.00    -0.185 OA 
HETATM   47  C   UNL     1      -7.772   8.655  70.115  1.00  0.00    -0.081 C  
HETATM   48  C   UNL     1      -9.059   9.244  70.684  1.00  0.00    -0.253 C  
HETATM   49  C   UNL     1      -9.385   8.466  71.942  1.00  0.00    -0.313 C  
BRANCH  47  50
HETATM   50  O   UNL     1      -7.942   7.314  69.578  1.00  0.00    -0.122 OA 
BRANCH  50  51
HETATM   51  C   UNL     1      -8.176   7.299  68.142  1.00  0.00    -0.124 C  
HETATM   52  C   UNL     1      -6.414   8.813  67.476  1.00  0.00    -0.057 C  
HETATM   53  H   UNL     1      -5.094  10.272  67.368  1.00  0.00     0.000 HD 
HETATM   54  C   UNL     1      -6.395   6.540  66.527  1.00  0.00    -0.042 C  
HETATM   55  C   UNL     1      -6.039   8.024  66.226  1.00  0.00    -0.045 C  
HETATM   56  C   UNL     1      -7.926   8.675  67.560  1.00  0.00    -0.106 C  
HETATM   57  O   UNL     1      -7.422   6.260  67.499  1.00  0.00    -0.085 OA 
HETATM   58  C   UNL     1      -5.177   5.773  67.047  1.00  0.00    -0.005 C  
HETATM   59  O   UNL     1      -6.039  10.185  67.420  1.00  0.00    -0.056 OA 
BRANCH  55  60
HETATM   60  O   UNL     1      -6.825   8.618  65.168  1.00  0.00    -0.067 OA 
BRANCH  60  61
HETATM   61  C   UNL     1      -8.232   8.494  65.196  1.00  0.00    -0.152 C  
HETATM   62  C   UNL     1     -10.129   8.735  66.616  1.00  0.00    -0.288 C  
HETATM   63  H   UNL     1     -10.206   5.177  63.932  1.00  0.00     0.000 HD 
HETATM   64  O   UNL     1      -8.711   8.860  66.480  1.00  0.00    -0.122 OA 
HETATM   65  O   UNL     1      -8.128   6.617  63.561  1.00  0.00    -0.232 OA 
HETATM   66  C   UNL     1     -10.591   7.297  66.362  1.00  0.00     0.382 C  
HETATM   67  H   UNL     1     -12.301   6.274  66.277  1.00  0.00     0.000 HD 
HETATM   68  O   UNL     1     -10.502   5.465  64.787  1.00  0.00     0.959 OA 
HETATM   69  C   UNL     1      -8.592   7.013  64.862  1.00  0.00     0.171 C  
HETATM   70  H   UNL     1      -8.346   5.716  63.357  1.00  0.00     0.000 HD 
HETATM   71  C   UNL     1     -10.115   6.832  64.981  1.00  0.00     2.971 C  
HETATM   72  O   UNL     1     -12.014   7.165  66.434  1.00  0.00     2.591 OA 
BRANCH  62  73
HETATM   73  C   UNL     1     -10.457   9.193  68.037  1.00  0.00    -0.224 C  
HETATM   74  H   UNL     1     -11.957   8.984  69.270  1.00  0.00     0.000 HD 
HETATM   75  O   UNL     1     -11.753   8.699  68.388  1.00  0.00     1.211 OA 
ENDBRANCH  62  73
ENDBRANCH  60  61
ENDBRANCH  55  60
ENDBRANCH  50  51
ENDBRANCH  47  50
ENDBRANCH  40  41
ENDBRANCH   5  40
TORSDOF 10
ENDMDL
MODEL       30
REMARK 921   NORMALIZED FREE ENERGY PREDICTED BY IDOCK:  134.47 KCAL/MOL
REMARK 922        TOTAL FREE ENERGY PREDICTED BY IDOCK:  216.63 KCAL/MOL
REMARK 923 INTER-LIGAND FREE ENERGY PREDICTED BY IDOCK:  107.81 KCAL/MOL
REMARK 924 INTRA-LIGAND FREE ENERGY PREDICTED BY IDOCK:  108.83 KCAL/MOL
REMARK 927      BINDING AFFINITY PREDICTED BY RF-SCORE:    0.00 PKD
ROOT
HETATM    1  C   UNL     1     -13.305  10.806  65.797  1.00  0.00    10.821 C  
HETATM    2  C   UNL     1     -12.553  10.007  64.707  1.00  0.00     9.876 C  
HETATM    3  O   UNL     1     -12.372  10.985  63.637  1.00  0.00     0.695 OA 
HETATM    4  C   UNL     1     -11.122  11.104  62.900  1.00  0.00     0.618 C  
HETATM    5  C   UNL     1     -11.302   9.229  65.273  1.00  0.00     5.494 C  
HETATM    6  C   UNL     1     -10.485   9.718  62.888  1.00  0.00     2.496 C  
HETATM    7  C   UNL     1     -10.134   9.172  64.262  1.00  0.00     2.329 C  
HETATM    8  H   UNL     1      -9.413   7.505  64.906  1.00  0.00     0.000 HD 
HETATM    9  O   UNL     1      -9.632   7.847  64.047  1.00  0.00     2.240 OA 
ENDROOT
BRANCH   4  10
HETATM   10  O   UNL     1     -10.401  12.340  63.267  1.00  0.00    -0.413 OA 
BRANCH  10  11
HETATM   11  C   UNL     1      -9.160  12.437  64.032  1.00  0.00     1.037 C  
HETATM   12  C   UNL     1      -8.687  14.245  68.542  1.00  0.00    -0.175 C  
HETATM   13  C   UNL     1      -7.706  13.120  66.048  1.00  0.00     2.483 C  
HETATM   14  C   UNL     1      -9.004  13.470  65.199  1.00  0.00     1.684 C  
HETATM   15  C   UNL     1     -12.363  13.913  66.965  1.00  0.00    -0.287 C  
HETATM   16  C   UNL     1      -8.012  12.096  67.194  1.00  0.00    -0.170 C  
HETATM   17  C   UNL     1      -8.698  10.910  66.429  1.00  0.00    -0.174 C  
HETATM   18  H   UNL     1     -10.426  16.634  67.363  1.00  0.00     0.000 HD 
HETATM   19  C   UNL     1      -6.752  11.426  67.871  1.00  0.00    -0.064 C  
HETATM   20  C   UNL     1      -8.878  11.069  64.767  1.00  0.00    -0.041 C  
HETATM   21  C   UNL     1     -12.086  15.998  68.550  1.00  0.00     0.218 C  
HETATM   22  C   UNL     1      -9.493  10.032  67.459  1.00  0.00    -0.169 C  
HETATM   23  O   UNL     1      -9.630  16.128  67.479  1.00  0.00    -0.227 OA 
HETATM   24  C   UNL     1     -10.171  10.751  68.706  1.00  0.00    -0.207 C  
HETATM   25  C   UNL     1     -13.649  13.862  67.811  1.00  0.00     6.263 C  
HETATM   26  C   UNL     1     -11.419  14.478  68.216  1.00  0.00    -0.336 C  
HETATM   27  C   UNL     1     -10.323  12.314  68.514  1.00  0.00    -0.234 C  
HETATM   28  C   UNL     1     -13.157  13.711  69.283  1.00  0.00     1.625 C  
HETATM   29  C   UNL     1      -9.945  15.045  68.359  1.00  0.00    -0.225 C  
HETATM   30  C   UNL     1     -11.537  13.286  69.352  1.00  0.00    -0.305 C  
HETATM   31  C   UNL     1      -8.847  12.763  68.446  1.00  0.00    -0.117 C  
HETATM   32  H   UNL     1     -12.787  12.535  70.165  1.00  0.00     0.000 HD 
HETATM   33  O   UNL     1     -12.134  12.013  69.714  1.00  0.00    -0.294 OA 
BRANCH  15  34
HETATM   34  C   UNL     1     -12.431  12.547  66.123  1.00  0.00     0.248 C  
HETATM   35  C   UNL     1     -12.199  11.276  66.477  1.00  0.00     1.842 C  
HETATM   36  O   UNL     1     -12.493  11.144  64.213  1.00  0.00     0.625 OA 
HETATM   37  C   UNL     1     -12.533  10.377  65.316  1.00  0.00     6.644 C  
HETATM   38  C   UNL     1     -12.787  12.426  64.682  1.00  0.00    -0.159 C  
HETATM   39  O   UNL     1     -12.822   9.220  65.288  1.00  0.00    13.667 OA 
ENDBRANCH  15  34
ENDBRANCH  10  11
ENDBRANCH   4  10
BRANCH   5  40
HETATM   40  O   UNL     1     -11.657   7.937  65.884  1.00  0.00     4.268 OA 
BRANCH  40  41
HETATM   41  C   UNL     1     -10.633   7.302  66.703  1.00  0.00    -0.075 C  
HETATM   42  C   UNL     1     -12.693   4.817  66.199  1.00  0.00     9.314 C  
HETATM   43  C   UNL     1     -11.512   5.026  67.160  1.00  0.00     2.710 C  
HETATM   44  H   UNL     1     -13.547   7.236  69.944  1.00  0.00     0.000 HD 
HETATM   45  O   UNL     1     -10.544   5.872  66.516  1.00  0.00    -0.243 OA 
HETATM   46  O   UNL     1     -12.694   7.591  69.725  1.00  0.00     1.246 OA 
HETATM   47  C   UNL     1     -12.027   5.503  68.546  1.00  0.00     4.217 C  
HETATM   48  C   UNL     1     -12.166   7.022  68.537  1.00  0.00     2.846 C  
HETATM   49  C   UNL     1     -10.805   7.590  68.188  1.00  0.00    -0.070 C  
BRANCH  47  50
HETATM   50  O   UNL     1     -11.226   5.005  69.653  1.00  0.00     0.791 OA 
BRANCH  50  51
HETATM   51  C   UNL     1     -10.410   6.036  70.276  1.00  0.00    -0.222 C  
HETATM   52  C   UNL     1      -8.231   5.108  69.792  1.00  0.00    -0.089 C  
HETATM   53  H   UNL     1      -6.696   3.916  69.470  1.00  0.00     0.000 HD 
HETATM   54  C   UNL     1      -8.732   7.366  68.945  1.00  0.00    -0.132 C  
HETATM   55  C   UNL     1      -7.589   6.456  69.480  1.00  0.00    -0.095 C  
HETATM   56  C   UNL     1      -9.193   5.412  70.929  1.00  0.00    -0.183 C  
HETATM   57  O   UNL     1     -10.087   7.081  69.346  1.00  0.00    -0.163 OA 
HETATM   58  C   UNL     1      -8.788   7.345  67.417  1.00  0.00    -0.123 C  
HETATM   59  O   UNL     1      -7.297   4.106  70.181  1.00  0.00    -0.045 OA 
BRANCH  55  60
HETATM   60  O   UNL     1      -7.024   6.893  70.737  1.00  0.00    -0.063 OA 
BRANCH  60  61
HETATM   61  C   UNL     1      -7.455   8.112  71.305  1.00  0.00    -0.074 C  
HETATM   62  C   UNL     1      -9.375   9.488  71.610  1.00  0.00     0.725 C  
HETATM   63  H   UNL     1      -5.616  11.667  70.618  1.00  0.00     0.000 HD 
HETATM   64  O   UNL     1      -8.850   8.261  71.096  1.00  0.00    -0.132 OA 
HETATM   65  O   UNL     1      -5.240   9.149  70.830  1.00  0.00    -0.027 OA 
HETATM   66  C   UNL     1      -8.697  10.700  70.968  1.00  0.00     3.804 C  
HETATM   67  H   UNL     1      -8.746  12.689  71.115  1.00  0.00     0.000 HD 
HETATM   68  O   UNL     1      -6.557  11.722  70.498  1.00  0.00    -0.058 OA 
HETATM   69  C   UNL     1      -6.657   9.268  70.626  1.00  0.00    -0.079 C  
HETATM   70  H   UNL     1      -4.754   9.852  70.417  1.00  0.00     0.000 HD 
HETATM   71  C   UNL     1      -7.178  10.613  71.160  1.00  0.00     2.119 C  
HETATM   72  O   UNL     1      -9.167  11.937  71.514  1.00  0.00    10.967 OA 
BRANCH  62  73
HETATM   73  C   UNL     1     -10.875   9.457  71.320  1.00  0.00    -0.361 C  
HETATM   74  H   UNL     1     -12.071  10.272  70.007  1.00  0.00     0.000 HD 
HETATM   75  O   UNL     1     -11.138  10.290  70.187  1.00  0.00    -0.276 OA 
ENDBRANCH  62  73
ENDBRANCH  60  61
ENDBRANCH  55  60
ENDBRANCH  50  51
ENDBRANCH  47  50
ENDBRANCH  40  41
ENDBRANCH   5  40
TORSDOF 10
ENDMDL
