MODEL        1
REMARK 921   NORMALIZED FREE ENERGY PREDICTED BY IDOCK:   -7.98 KCAL/MOL
REMARK 922        TOTAL FREE ENERGY PREDICTED BY IDOCK:   -8.17 KCAL/MOL
REMARK 923 INTER-LIGAND FREE ENERGY PREDICTED BY IDOCK:   -8.91 KCAL/MOL
REMARK 924 INTRA-LIGAND FREE ENERGY PREDICTED BY IDOCK:    0.74 KCAL/MOL
REMARK 927      BINDING AFFINITY PREDICTED BY RF-SCORE:    0.00 PKD
ROOT
HETATM    1  C   UNL     1      -9.036  13.516  66.939  1.00  0.00    -0.219 C  
HETATM    2  C   UNL     1      -9.412  13.490  68.306  1.00  0.00    -0.212 C  
HETATM    3  C   UNL     1     -10.584  13.981  67.492  1.00  0.00    -0.260 C  
HETATM    4  C   UNL     1     -10.276  13.851  65.463  1.00  0.00    -0.348 C  
HETATM    5  C   UNL     1     -11.817  13.587  68.540  1.00  0.00    -0.398 C  
HETATM    6  C   UNL     1     -10.528  18.501  67.913  1.00  0.00    -0.419 C  
HETATM    7  C   UNL     1     -10.799  13.000  66.368  1.00  0.00    -0.294 C  
HETATM    8  C   UNL     1     -11.058  11.506  66.380  1.00  0.00    -0.328 C  
HETATM    9  C   UNL     1     -12.022  14.455  65.992  1.00  0.00    -0.377 C  
HETATM   10  C   UNL     1      -9.340  17.908  67.040  1.00  0.00    -0.267 C  
HETATM   11  C   UNL     1      -9.126  18.968  65.971  1.00  0.00    -0.062 C  
HETATM   12  O   UNL     1      -6.614  20.968  67.644  1.00  0.00    -0.332 OA 
HETATM   13  C   UNL     1     -11.155  16.059  65.925  1.00  0.00    -0.002 C  
HETATM   14  C   UNL     1      -8.273  19.999  66.205  1.00  0.00    -0.324 C  
HETATM   15  O   UNL     1     -10.899  16.336  64.531  1.00  0.00    -0.867 OA 
HETATM   16  C   UNL     1      -9.712  16.380  66.858  1.00  0.00    -0.251 C  
HETATM   17  C   UNL     1      -8.551  15.243  66.588  1.00  0.00    -0.305 C  
HETATM   18  F   UNL     1      -9.949  16.200  68.248  1.00  0.00    -0.215 F  
HETATM   19  H   UNL     1     -10.448  17.171  64.496  1.00  0.00     0.000 HD 
HETATM   20  C   UNL     1      -7.276  15.563  67.387  1.00  0.00    -0.241 C  
HETATM   21  C   UNL     1      -6.909  17.038  67.293  1.00  0.00    -0.195 C  
HETATM   22  C   UNL     1      -8.019  17.908  67.854  1.00  0.00    -0.235 C  
HETATM   23  C   UNL     1      -7.685  19.032  68.517  1.00  0.00    -0.368 C  
HETATM   24  C   UNL     1      -7.434  20.079  67.463  1.00  0.00    -0.287 C  
ENDROOT
BRANCH   4  25
HETATM   25  C   UNL     1     -10.965  13.119  64.111  1.00  0.00    -0.390 C  
HETATM   26  O   UNL     1     -12.054  13.366  63.588  1.00  0.00    -0.527 OA 
BRANCH  25  27
HETATM   27  C   UNL     1     -10.127  12.005  63.459  1.00  0.00    -0.424 C  
HETATM   28  O   UNL     1     -10.962  11.038  62.827  1.00  0.00    -0.765 OA 
HETATM   29  H   UNL     1     -10.445  10.350  62.425  1.00  0.00     0.000 HD 
ENDBRANCH  25  27
ENDBRANCH   4  25
TORSDOF 2
ENDMDL
MODEL        2
REMARK 921   NORMALIZED FREE ENERGY PREDICTED BY IDOCK:   -7.51 KCAL/MOL
REMARK 922        TOTAL FREE ENERGY PREDICTED BY IDOCK:   -7.65 KCAL/MOL
REMARK 923 INTER-LIGAND FREE ENERGY PREDICTED BY IDOCK:   -8.31 KCAL/MOL
REMARK 924 INTRA-LIGAND FREE ENERGY PREDICTED BY IDOCK:    0.66 KCAL/MOL
REMARK 927      BINDING AFFINITY PREDICTED BY RF-SCORE:    0.00 PKD
ROOT
HETATM    1  C   UNL     1     -11.218  13.006  67.605  1.00  0.00    -0.315 C  
HETATM    2  C   UNL     1     -10.242  13.594  68.447  1.00  0.00    -0.245 C  
HETATM    3  C   UNL     1      -9.541  12.740  67.420  1.00  0.00    -0.199 C  
HETATM    4  C   UNL     1     -10.806  12.004  65.975  1.00  0.00    -0.329 C  
HETATM    5  C   UNL     1      -8.048  13.477  67.436  1.00  0.00    -0.184 C  
HETATM    6  C   UNL     1      -8.584   8.847  69.550  1.00  0.00    -0.134 C  
HETATM    7  C   UNL     1     -10.072  13.132  66.064  1.00  0.00    -0.286 C  
HETATM    8  C   UNL     1     -10.109  14.469  65.353  1.00  0.00    -0.394 C  
HETATM    9  C   UNL     1      -8.946  11.591  65.726  1.00  0.00    -0.120 C  
HETATM   10  C   UNL     1     -10.129   9.072  69.256  1.00  0.00    -0.197 C  
HETATM   11  C   UNL     1     -10.639   7.669  68.966  1.00  0.00    -0.186 C  
HETATM   12  O   UNL     1     -11.634   6.717  72.314  1.00  0.00    -0.271 OA 
HETATM   13  C   UNL     1      -9.436  10.163  66.749  1.00  0.00    -0.168 C  
HETATM   14  C   UNL     1     -11.076   6.885  69.986  1.00  0.00    -0.344 C  
HETATM   15  O   UNL     1     -10.279   9.330  65.923  1.00  0.00    -0.330 OA 
HETATM   16  C   UNL     1     -10.169  10.352  68.325  1.00  0.00    -0.160 C  
HETATM   17  C   UNL     1     -11.497  11.324  68.263  1.00  0.00    -0.378 C  
HETATM   18  F   UNL     1      -9.328  11.097  69.196  1.00  0.00    -0.179 F  
HETATM   19  H   UNL     1     -10.535   8.586  66.455  1.00  0.00     0.000 HD 
HETATM   20  C   UNL     1     -12.150  11.446  69.652  1.00  0.00    -0.373 C  
HETATM   21  C   UNL     1     -12.248  10.096  70.348  1.00  0.00    -0.300 C  
HETATM   22  C   UNL     1     -10.870   9.492  70.553  1.00  0.00    -0.352 C  
HETATM   23  C   UNL     1     -10.638   8.780  71.673  1.00  0.00    -0.401 C  
HETATM   24  C   UNL     1     -11.176   7.398  71.407  1.00  0.00    -0.246 C  
ENDROOT
BRANCH   4  25
HETATM   25  C   UNL     1     -10.996  12.047  64.301  1.00  0.00    -0.346 C  
HETATM   26  O   UNL     1     -10.130  11.894  63.436  1.00  0.00    -0.410 OA 
BRANCH  25  27
HETATM   27  C   UNL     1     -12.426  12.316  63.802  1.00  0.00    -0.515 C  
HETATM   28  O   UNL     1     -12.479  13.497  63.007  1.00  0.00    -0.950 OA 
HETATM   29  H   UNL     1     -13.362  13.663  62.698  1.00  0.00     0.000 HD 
ENDBRANCH  25  27
ENDBRANCH   4  25
TORSDOF 2
ENDMDL
MODEL        3
REMARK 921   NORMALIZED FREE ENERGY PREDICTED BY IDOCK:   -7.31 KCAL/MOL
REMARK 922        TOTAL FREE ENERGY PREDICTED BY IDOCK:   -7.43 KCAL/MOL
REMARK 923 INTER-LIGAND FREE ENERGY PREDICTED BY IDOCK:   -8.09 KCAL/MOL
REMARK 924 INTRA-LIGAND FREE ENERGY PREDICTED BY IDOCK:    0.66 KCAL/MOL
REMARK 927      BINDING AFFINITY PREDICTED BY RF-SCORE:    0.00 PKD
ROOT
HETATM    1  C   UNL     1      -8.894  12.744  66.885  1.00  0.00    -0.194 C  
HETATM    2  C   UNL     1      -9.238  12.629  68.255  1.00  0.00    -0.184 C  
HETATM    3  C   UNL     1     -10.458  13.073  67.487  1.00  0.00    -0.229 C  
HETATM    4  C   UNL     1     -10.186  13.059  65.449  1.00  0.00    -0.301 C  
HETATM    5  C   UNL     1     -11.638  12.547  68.538  1.00  0.00    -0.364 C  
HETATM    6  C   UNL     1     -10.706  17.562  68.120  1.00  0.00    -0.330 C  
HETATM    7  C   UNL     1     -10.629  12.132  66.323  1.00  0.00    -0.285 C  
HETATM    8  C   UNL     1     -10.784  10.625  66.268  1.00  0.00    -0.172 C  
HETATM    9  C   UNL     1     -11.958  13.514  66.038  1.00  0.00    -0.449 C  
HETATM   10  C   UNL     1      -9.499  17.094  67.198  1.00  0.00    -0.249 C  
HETATM   11  C   UNL     1      -9.382  18.215  66.177  1.00  0.00    -0.147 C  
HETATM   12  O   UNL     1      -6.979  20.308  67.895  1.00  0.00    -0.271 OA 
HETATM   13  C   UNL     1     -11.206  15.176  66.031  1.00  0.00    -0.275 C  
HETATM   14  C   UNL     1      -8.597  19.292  66.443  1.00  0.00    -0.355 C  
HETATM   15  O   UNL     1     -11.000  15.534  64.647  1.00  0.00    -0.604 OA 
HETATM   16  C   UNL     1      -9.768  15.554  66.951  1.00  0.00    -0.233 C  
HETATM   17  C   UNL     1      -8.538  14.515  66.606  1.00  0.00    -0.092 C  
HETATM   18  F   UNL     1      -9.961  15.294  68.335  1.00  0.00    -0.207 F  
HETATM   19  H   UNL     1     -10.608  16.399  64.643  1.00  0.00     0.000 HD 
HETATM   20  C   UNL     1      -7.270  14.887  67.396  1.00  0.00    -0.213 C  
HETATM   21  C   UNL     1      -7.009  16.386  67.365  1.00  0.00    -0.196 C  
HETATM   22  C   UNL     1      -8.164  17.150  67.987  1.00  0.00    -0.216 C  
HETATM   23  C   UNL     1      -7.894  18.263  68.696  1.00  0.00    -0.313 C  
HETATM   24  C   UNL     1      -7.739  19.372  67.688  1.00  0.00    -0.264 C  
ENDROOT
BRANCH   4  25
HETATM   25  C   UNL     1     -10.852  12.343  64.077  1.00  0.00    -0.397 C  
HETATM   26  O   UNL     1     -12.043  12.272  63.761  1.00  0.00    -0.447 OA 
BRANCH  25  27
HETATM   27  C   UNL     1      -9.845  11.698  63.108  1.00  0.00    -0.382 C  
HETATM   28  O   UNL     1     -10.396  10.538  62.492  1.00  0.00    -0.722 OA 
HETATM   29  H   UNL     1      -9.774  10.140  61.894  1.00  0.00     0.000 HD 
ENDBRANCH  25  27
ENDBRANCH   4  25
TORSDOF 2
ENDMDL
MODEL        4
REMARK 921   NORMALIZED FREE ENERGY PREDICTED BY IDOCK:   -7.24 KCAL/MOL
REMARK 922        TOTAL FREE ENERGY PREDICTED BY IDOCK:   -7.35 KCAL/MOL
REMARK 923 INTER-LIGAND FREE ENERGY PREDICTED BY IDOCK:   -7.99 KCAL/MOL
REMARK 924 INTRA-LIGAND FREE ENERGY PREDICTED BY IDOCK:    0.64 KCAL/MOL
REMARK 927      BINDING AFFINITY PREDICTED BY RF-SCORE:    0.00 PKD
ROOT
HETATM    1  C   UNL     1      -8.806   9.073  66.213  1.00  0.00    -0.180 C  
HETATM    2  C   UNL     1      -7.579   9.779  66.299  1.00  0.00    -0.100 C  
HETATM    3  C   UNL     1      -8.302   9.906  67.617  1.00  0.00    -0.114 C  
HETATM    4  C   UNL     1      -9.991   8.740  67.733  1.00  0.00    -0.243 C  
HETATM    5  C   UNL     1      -6.998  10.221  68.604  1.00  0.00    -0.066 C  
HETATM    6  C   UNL     1     -10.285  13.988  67.506  1.00  0.00    -0.244 C  
HETATM    7  C   UNL     1      -8.700   8.519  68.053  1.00  0.00    -0.142 C  
HETATM    8  C   UNL     1      -7.875   7.271  68.293  1.00  0.00    -0.122 C  
HETATM    9  C   UNL     1      -9.544   9.700  69.337  1.00  0.00    -0.200 C  
HETATM   10  C   UNL     1     -10.926  12.920  66.520  1.00  0.00    -0.300 C  
HETATM   11  C   UNL     1     -12.406  13.268  66.539  1.00  0.00    -0.311 C  
HETATM   12  O   UNL     1     -12.488  15.575  63.750  1.00  0.00    -0.592 OA 
HETATM   13  C   UNL     1     -10.581  10.954  68.514  1.00  0.00    -0.190 C  
HETATM   14  C   UNL     1     -12.895  14.184  65.663  1.00  0.00    -0.402 C  
HETATM   15  O   UNL     1     -11.939  10.462  68.553  1.00  0.00    -0.747 OA 
HETATM   16  C   UNL     1     -10.225  11.555  66.911  1.00  0.00    -0.217 C  
HETATM   17  C   UNL     1     -10.077  10.328  65.824  1.00  0.00    -0.325 C  
HETATM   18  F   UNL     1      -8.925  12.126  66.854  1.00  0.00    -0.175 F  
HETATM   19  H   UNL     1     -12.479  11.115  68.125  1.00  0.00     0.000 HD 
HETATM   20  C   UNL     1      -9.802  10.878  64.412  1.00  0.00    -0.365 C  
HETATM   21  C   UNL     1     -10.705  12.057  64.084  1.00  0.00    -0.405 C  
HETATM   22  C   UNL     1     -10.482  13.199  65.060  1.00  0.00    -0.358 C  
HETATM   23  C   UNL     1     -10.565  14.463  64.603  1.00  0.00    -0.331 C  
HETATM   24  C   UNL     1     -12.033  14.803  64.583  1.00  0.00    -0.440 C  
ENDROOT
BRANCH   4  25
HETATM   25  C   UNL     1     -10.623   7.499  68.682  1.00  0.00    -0.142 C  
HETATM   26  O   UNL     1     -10.856   7.514  69.893  1.00  0.00    -0.248 OA 
BRANCH  25  27
HETATM   27  C   UNL     1     -10.942   6.190  67.938  1.00  0.00    -0.304 C  
HETATM   28  O   UNL     1     -11.306   6.444  66.584  1.00  0.00    -0.726 OA 
HETATM   29  H   UNL     1     -11.503   5.636  66.125  1.00  0.00     0.000 HD 
ENDBRANCH  25  27
ENDBRANCH   4  25
TORSDOF 2
ENDMDL
MODEL        5
REMARK 921   NORMALIZED FREE ENERGY PREDICTED BY IDOCK:   -6.94 KCAL/MOL
REMARK 922        TOTAL FREE ENERGY PREDICTED BY IDOCK:   -7.01 KCAL/MOL
REMARK 923 INTER-LIGAND FREE ENERGY PREDICTED BY IDOCK:   -7.69 KCAL/MOL
REMARK 924 INTRA-LIGAND FREE ENERGY PREDICTED BY IDOCK:    0.67 KCAL/MOL
REMARK 927      BINDING AFFINITY PREDICTED BY RF-SCORE:    0.00 PKD
ROOT
HETATM    1  C   UNL     1     -11.430  15.218  68.455  1.00  0.00    -0.355 C  
HETATM    2  C   UNL     1     -10.457  15.510  69.445  1.00  0.00    -0.253 C  
HETATM    3  C   UNL     1      -9.753  15.275  68.132  1.00  0.00    -0.212 C  
HETATM    4  C   UNL     1     -11.043  15.072  66.543  1.00  0.00    -0.329 C  
HETATM    5  C   UNL     1      -8.349  16.119  68.429  1.00  0.00    -0.179 C  
HETATM    6  C   UNL     1      -8.229  11.003  68.336  1.00  0.00    -0.137 C  
HETATM    7  C   UNL     1     -10.426  16.137  67.094  1.00  0.00    -0.305 C  
HETATM    8  C   UNL     1     -10.660  17.633  67.035  1.00  0.00    -0.254 C  
HETATM    9  C   UNL     1      -9.174  15.048  66.093  1.00  0.00    -0.294 C  
HETATM   10  C   UNL     1      -9.808  11.132  68.207  1.00  0.00    -0.195 C  
HETATM   11  C   UNL     1     -10.189   9.935  67.349  1.00  0.00    -0.275 C  
HETATM   12  O   UNL     1     -10.814   7.523  69.976  1.00  0.00    -0.247 OA 
HETATM   13  C   UNL     1      -9.431  13.270  66.406  1.00  0.00    -0.217 C  
HETATM   14  C   UNL     1     -10.460   8.742  67.938  1.00  0.00    -0.275 C  
HETATM   15  O   UNL     1     -10.243  12.769  65.321  1.00  0.00    -0.285 OA 
HETATM   16  C   UNL     1     -10.055  12.670  67.925  1.00  0.00    -0.222 C  
HETATM   17  C   UNL     1     -11.478  13.395  68.324  1.00  0.00    -0.350 C  
HETATM   18  F   UNL     1      -9.231  13.072  69.012  1.00  0.00     0.032 F  
HETATM   19  H   UNL     1     -10.377  11.844  65.484  1.00  0.00     0.000 HD 
HETATM   20  C   UNL     1     -12.029  12.827  69.645  1.00  0.00    -0.354 C  
HETATM   21  C   UNL     1     -11.930  11.309  69.687  1.00  0.00    -0.423 C  
HETATM   22  C   UNL     1     -10.485  10.857  69.575  1.00  0.00    -0.176 C  
HETATM   23  C   UNL     1     -10.093   9.771  70.269  1.00  0.00    -0.323 C  
HETATM   24  C   UNL     1     -10.502   8.579  69.443  1.00  0.00    -0.218 C  
ENDROOT
BRANCH   4  25
HETATM   25  C   UNL     1     -11.366  15.803  65.059  1.00  0.00    -0.220 C  
HETATM   26  O   UNL     1     -10.735  16.706  64.505  1.00  0.00    -0.741 OA 
BRANCH  25  27
HETATM   27  C   UNL     1     -12.604  15.274  64.314  1.00  0.00     0.186 C  
HETATM   28  O   UNL     1     -12.288  14.115  63.548  1.00  0.00    -1.065 OA 
HETATM   29  H   UNL     1     -13.052  13.789  63.088  1.00  0.00     0.000 HD 
ENDBRANCH  25  27
ENDBRANCH   4  25
TORSDOF 2
ENDMDL
MODEL        6
REMARK 921   NORMALIZED FREE ENERGY PREDICTED BY IDOCK:   -6.87 KCAL/MOL
REMARK 922        TOTAL FREE ENERGY PREDICTED BY IDOCK:   -6.94 KCAL/MOL
REMARK 923 INTER-LIGAND FREE ENERGY PREDICTED BY IDOCK:   -7.54 KCAL/MOL
REMARK 924 INTRA-LIGAND FREE ENERGY PREDICTED BY IDOCK:    0.61 KCAL/MOL
REMARK 927      BINDING AFFINITY PREDICTED BY RF-SCORE:    0.00 PKD
ROOT
HETATM    1  C   UNL     1      -9.423  18.611  66.096  1.00  0.00    -0.185 C  
HETATM    2  C   UNL     1     -10.604  19.113  66.699  1.00  0.00    -0.520 C  
HETATM    3  C   UNL     1      -9.573  18.884  67.776  1.00  0.00    -0.357 C  
HETATM    4  C   UNL     1      -7.723  18.378  67.036  1.00  0.00    -0.234 C  
HETATM    5  C   UNL     1     -10.152  19.942  68.925  1.00  0.00    -0.438 C  
HETATM    6  C   UNL     1     -10.676  14.904  69.661  1.00  0.00    -0.245 C  
HETATM    7  C   UNL     1      -8.299  19.560  67.338  1.00  0.00    -0.330 C  
HETATM    8  C   UNL     1      -8.008  20.998  66.960  1.00  0.00    -0.024 C  
HETATM    9  C   UNL     1      -7.815  18.590  68.944  1.00  0.00    -0.245 C  
HETATM   10  C   UNL     1     -10.100  14.794  68.184  1.00  0.00    -0.221 C  
HETATM   11  C   UNL     1      -9.311  13.494  68.210  1.00  0.00    -0.205 C  
HETATM   12  O   UNL     1     -11.917  11.222  67.133  1.00  0.00    -0.470 OA 
HETATM   13  C   UNL     1      -8.244  16.822  68.816  1.00  0.00    -0.250 C  
HETATM   14  C   UNL     1      -9.934  12.321  67.920  1.00  0.00    -0.202 C  
HETATM   15  O   UNL     1      -7.041  16.129  68.417  1.00  0.00    -0.124 OA 
HETATM   16  C   UNL     1      -9.588  16.255  67.852  1.00  0.00    -0.227 C  
HETATM   17  C   UNL     1      -9.492  16.796  66.300  1.00  0.00    -0.314 C  
HETATM   18  F   UNL     1     -10.808  16.852  68.272  1.00  0.00    -0.328 F  
HETATM   19  H   UNL     1      -7.264  15.209  68.351  1.00  0.00     0.000 HD 
HETATM   20  C   UNL     1     -10.662  16.256  65.459  1.00  0.00    -0.326 C  
HETATM   21  C   UNL     1     -10.902  14.775  65.717  1.00  0.00    -0.334 C  
HETATM   22  C   UNL     1     -11.248  14.529  67.174  1.00  0.00    -0.341 C  
HETATM   23  C   UNL     1     -12.142  13.566  67.472  1.00  0.00    -0.340 C  
HETATM   24  C   UNL     1     -11.376  12.268  67.462  1.00  0.00    -0.325 C  
ENDROOT
BRANCH   4  25
HETATM   25  C   UNL     1      -6.135  18.941  67.075  1.00  0.00    -0.166 C  
HETATM   26  O   UNL     1      -5.498  19.349  68.050  1.00  0.00    -0.189 OA 
BRANCH  25  27
HETATM   27  C   UNL     1      -5.398  18.947  65.724  1.00  0.00    -0.150 C  
HETATM   28  O   UNL     1      -6.289  18.649  64.652  1.00  0.00    -0.457 OA 
HETATM   29  H   UNL     1      -5.834  18.652  63.818  1.00  0.00     0.000 HD 
ENDBRANCH  25  27
ENDBRANCH   4  25
TORSDOF 2
ENDMDL
MODEL        7
REMARK 921   NORMALIZED FREE ENERGY PREDICTED BY IDOCK:   -6.83 KCAL/MOL
REMARK 922        TOTAL FREE ENERGY PREDICTED BY IDOCK:   -6.89 KCAL/MOL
REMARK 923 INTER-LIGAND FREE ENERGY PREDICTED BY IDOCK:   -7.65 KCAL/MOL
REMARK 924 INTRA-LIGAND FREE ENERGY PREDICTED BY IDOCK:    0.76 KCAL/MOL
REMARK 927      BINDING AFFINITY PREDICTED BY RF-SCORE:    0.00 PKD
ROOT
HETATM    1  C   UNL     1     -11.277  14.959  66.349  1.00  0.00    -0.331 C  
HETATM    2  C   UNL     1     -10.501  14.591  65.221  1.00  0.00    -0.411 C  
HETATM    3  C   UNL     1      -9.874  13.989  66.454  1.00  0.00    -0.306 C  
HETATM    4  C   UNL     1     -11.015  14.234  68.147  1.00  0.00    -0.259 C  
HETATM    5  C   UNL     1      -9.047  12.730  65.743  1.00  0.00     0.310 C  
HETATM    6  C   UNL     1      -6.439  16.756  67.527  1.00  0.00    -0.178 C  
HETATM    7  C   UNL     1     -10.961  13.267  67.209  1.00  0.00    -0.284 C  
HETATM    8  C   UNL     1     -11.902  12.155  66.789  1.00  0.00    -0.304 C  
HETATM    9  C   UNL     1      -9.416  13.192  68.377  1.00  0.00    -0.166 C  
HETATM   10  C   UNL     1      -7.882  17.375  67.774  1.00  0.00    -0.205 C  
HETATM   11  C   UNL     1      -7.691  18.228  69.017  1.00  0.00    -0.151 C  
HETATM   12  O   UNL     1      -6.850  21.372  67.430  1.00  0.00    -0.573 OA 
HETATM   13  C   UNL     1      -8.743  14.855  68.706  1.00  0.00    -0.182 C  
HETATM   14  C   UNL     1      -7.295  19.522  68.893  1.00  0.00    -0.398 C  
HETATM   15  O   UNL     1      -9.284  15.280  69.975  1.00  0.00    -0.420 OA 
HETATM   16  C   UNL     1      -8.873  16.160  67.550  1.00  0.00    -0.189 C  
HETATM   17  C   UNL     1     -10.434  16.404  67.085  1.00  0.00    -0.297 C  
HETATM   18  F   UNL     1      -8.273  15.809  66.310  1.00  0.00    -0.297 F  
HETATM   19  H   UNL     1      -8.934  16.146  70.146  1.00  0.00     0.000 HD 
HETATM   20  C   UNL     1     -10.533  17.580  66.098  1.00  0.00    -0.288 C  
HETATM   21  C   UNL     1      -9.699  18.769  66.554  1.00  0.00    -0.380 C  
HETATM   22  C   UNL     1      -8.231  18.393  66.656  1.00  0.00    -0.283 C  
HETATM   23  C   UNL     1      -7.305  19.314  66.327  1.00  0.00    -0.278 C  
HETATM   24  C   UNL     1      -7.138  20.188  67.543  1.00  0.00    -0.276 C  
ENDROOT
BRANCH   4  25
HETATM   25  C   UNL     1     -11.768  13.295  69.327  1.00  0.00    -0.326 C  
HETATM   26  O   UNL     1     -11.830  12.064  69.391  1.00  0.00    -0.306 OA 
BRANCH  25  27
HETATM   27  C   UNL     1     -12.463  14.077  70.455  1.00  0.00    -0.359 C  
HETATM   28  O   UNL     1     -11.511  14.623  71.364  1.00  0.00    -0.511 OA 
HETATM   29  H   UNL     1     -11.940  15.105  72.061  1.00  0.00     0.000 HD 
ENDBRANCH  25  27
ENDBRANCH   4  25
TORSDOF 2
ENDMDL
MODEL        8
REMARK 921   NORMALIZED FREE ENERGY PREDICTED BY IDOCK:   -6.74 KCAL/MOL
REMARK 922        TOTAL FREE ENERGY PREDICTED BY IDOCK:   -6.78 KCAL/MOL
REMARK 923 INTER-LIGAND FREE ENERGY PREDICTED BY IDOCK:   -7.41 KCAL/MOL
REMARK 924 INTRA-LIGAND FREE ENERGY PREDICTED BY IDOCK:    0.63 KCAL/MOL
REMARK 927      BINDING AFFINITY PREDICTED BY RF-SCORE:    0.00 PKD
ROOT
HETATM    1  C   UNL     1     -10.862  10.961  68.476  1.00  0.00    -0.262 C  
HETATM    2  C   UNL     1     -11.910  11.172  67.546  1.00  0.00     0.070 C  
HETATM    3  C   UNL     1     -10.800  12.150  67.251  1.00  0.00    -0.286 C  
HETATM    4  C   UNL     1      -9.105  11.814  68.365  1.00  0.00    -0.176 C  
HETATM    5  C   UNL     1     -11.135  12.455  65.648  1.00  0.00    -0.343 C  
HETATM    6  C   UNL     1     -12.111  16.061  69.148  1.00  0.00    -0.065 C  
HETATM    7  C   UNL     1      -9.516  11.366  67.161  1.00  0.00    -0.186 C  
HETATM    8  C   UNL     1      -9.116  10.198  66.282  1.00  0.00    -0.180 C  
HETATM    9  C   UNL     1      -8.967  13.222  67.063  1.00  0.00    -0.230 C  
HETATM   10  C   UNL     1     -11.713  14.927  70.188  1.00  0.00    -0.340 C  
HETATM   11  C   UNL     1     -11.069  15.705  71.325  1.00  0.00    -0.315 C  
HETATM   12  O   UNL     1     -14.003  16.256  73.374  1.00  0.00    -0.500 OA 
HETATM   13  C   UNL     1      -9.594  14.182  68.481  1.00  0.00    -0.214 C  
HETATM   14  C   UNL     1     -11.841  16.186  72.335  1.00  0.00    -0.637 C  
HETATM   15  O   UNL     1      -8.521  14.248  69.446  1.00  0.00    -0.358 OA 
HETATM   16  C   UNL     1     -11.087  13.778  69.296  1.00  0.00    -0.208 C  
HETATM   17  C   UNL     1     -11.101  12.208  69.791  1.00  0.00     0.042 C  
HETATM   18  F   UNL     1     -12.184  13.788  68.392  1.00  0.00    -0.384 F  
HETATM   19  H   UNL     1      -8.847  14.748  70.185  1.00  0.00     0.000 HD 
HETATM   20  C   UNL     1     -12.407  11.882  70.539  1.00  0.00    -0.372 C  
HETATM   21  C   UNL     1     -12.774  12.977  71.530  1.00  0.00    -0.349 C  
HETATM   22  C   UNL     1     -12.985  14.302  70.819  1.00  0.00    -0.368 C  
HETATM   23  C   UNL     1     -13.939  15.135  71.277  1.00  0.00    -0.548 C  
HETATM   24  C   UNL     1     -13.321  15.883  72.430  1.00  0.00    -0.379 C  
ENDROOT
BRANCH   4  25
HETATM   25  C   UNL     1      -7.471  11.473  68.132  1.00  0.00    -0.101 C  
HETATM   26  O   UNL     1      -6.823  11.544  67.085  1.00  0.00    -0.116 OA 
BRANCH  25  27
HETATM   27  C   UNL     1      -6.703  11.015  69.384  1.00  0.00    -0.112 C  
HETATM   28  O   UNL     1      -6.608  12.065  70.343  1.00  0.00    -0.489 OA 
HETATM   29  H   UNL     1      -6.134  11.782  71.115  1.00  0.00     0.000 HD 
ENDBRANCH  25  27
ENDBRANCH   4  25
TORSDOF 2
ENDMDL
MODEL        9
REMARK 921   NORMALIZED FREE ENERGY PREDICTED BY IDOCK:   -6.72 KCAL/MOL
REMARK 922        TOTAL FREE ENERGY PREDICTED BY IDOCK:   -6.76 KCAL/MOL
REMARK 923 INTER-LIGAND FREE ENERGY PREDICTED BY IDOCK:   -7.37 KCAL/MOL
REMARK 924 INTRA-LIGAND FREE ENERGY PREDICTED BY IDOCK:    0.61 KCAL/MOL
REMARK 927      BINDING AFFINITY PREDICTED BY RF-SCORE:    0.00 PKD
ROOT
HETATM    1  C   UNL     1     -11.417  11.911  67.759  1.00  0.00    -0.389 C  
HETATM    2  C   UNL     1     -11.769  12.097  66.399  1.00  0.00    -0.394 C  
HETATM    3  C   UNL     1     -10.279  11.880  66.486  1.00  0.00    -0.232 C  
HETATM    4  C   UNL     1      -9.642  11.359  68.371  1.00  0.00    -0.197 C  
HETATM    5  C   UNL     1      -9.999  11.333  64.938  1.00  0.00    -0.323 C  
HETATM    6  C   UNL     1      -8.447  16.028  66.260  1.00  0.00    -0.337 C  
HETATM    7  C   UNL     1     -10.048  10.637  67.307  1.00  0.00    -0.238 C  
HETATM    8  C   UNL     1     -10.538   9.214  67.127  1.00  0.00    -0.286 C  
HETATM    9  C   UNL     1      -8.278  11.371  67.018  1.00  0.00    -0.160 C  
HETATM   10  C   UNL     1      -9.224  15.726  67.614  1.00  0.00    -0.200 C  
HETATM   11  C   UNL     1      -8.411  16.474  68.659  1.00  0.00    -0.243 C  
HETATM   12  O   UNL     1     -10.178  19.634  68.602  1.00  0.00    -0.433 OA 
HETATM   13  C   UNL     1      -8.174  13.108  67.566  1.00  0.00    -0.183 C  
HETATM   14  C   UNL     1      -8.698  17.774  68.932  1.00  0.00    -0.118 C  
HETATM   15  O   UNL     1      -7.604  13.092  68.893  1.00  0.00    -0.275 OA 
HETATM   16  C   UNL     1      -9.555  14.180  67.539  1.00  0.00    -0.223 C  
HETATM   17  C   UNL     1     -10.835  13.539  68.352  1.00  0.00    -0.286 C  
HETATM   18  F   UNL     1     -10.095  14.288  66.228  1.00  0.00    -0.262 F  
HETATM   19  H   UNL     1      -7.550  13.996  69.179  1.00  0.00     0.000 HD 
HETATM   20  C   UNL     1     -12.028  14.512  68.350  1.00  0.00    -0.309 C  
HETATM   21  C   UNL     1     -11.590  15.937  68.656  1.00  0.00    -0.383 C  
HETATM   22  C   UNL     1     -10.603  16.436  67.615  1.00  0.00    -0.313 C  
HETATM   23  C   UNL     1     -10.648  17.733  67.252  1.00  0.00    -0.322 C  
HETATM   24  C   UNL     1      -9.877  18.486  68.305  1.00  0.00    -0.363 C  
ENDROOT
BRANCH   4  25
HETATM   25  C   UNL     1      -8.832  10.099  69.142  1.00  0.00    -0.175 C  
HETATM   26  O   UNL     1      -7.729   9.623  68.862  1.00  0.00    -0.074 OA 
BRANCH  25  27
HETATM   27  C   UNL     1      -9.567   9.469  70.338  1.00  0.00    -0.269 C  
HETATM   28  O   UNL     1     -10.653  10.288  70.763  1.00  0.00    -0.387 OA 
HETATM   29  H   UNL     1     -11.107   9.899  71.501  1.00  0.00     0.000 HD 
ENDBRANCH  25  27
ENDBRANCH   4  25
TORSDOF 2
ENDMDL
MODEL       10
REMARK 921   NORMALIZED FREE ENERGY PREDICTED BY IDOCK:   -6.62 KCAL/MOL
REMARK 922        TOTAL FREE ENERGY PREDICTED BY IDOCK:   -6.65 KCAL/MOL
REMARK 923 INTER-LIGAND FREE ENERGY PREDICTED BY IDOCK:   -7.35 KCAL/MOL
REMARK 924 INTRA-LIGAND FREE ENERGY PREDICTED BY IDOCK:    0.69 KCAL/MOL
REMARK 927      BINDING AFFINITY PREDICTED BY RF-SCORE:    0.00 PKD
ROOT
HETATM    1  C   UNL     1      -8.660   8.695  66.769  1.00  0.00    -0.126 C  
HETATM    2  C   UNL     1      -7.430   9.346  66.500  1.00  0.00    -0.093 C  
HETATM    3  C   UNL     1      -7.903   9.758  67.872  1.00  0.00    -0.090 C  
HETATM    4  C   UNL     1      -9.558   8.717  68.508  1.00  0.00    -0.162 C  
HETATM    5  C   UNL     1      -6.439  10.196  68.536  1.00  0.00    -0.049 C  
HETATM    6  C   UNL     1      -9.825  13.831  67.303  1.00  0.00    -0.241 C  
HETATM    7  C   UNL     1      -8.233   8.501  68.635  1.00  0.00    -0.122 C  
HETATM    8  C   UNL     1      -7.393   7.285  68.971  1.00  0.00    -0.091 C  
HETATM    9  C   UNL     1      -8.818   9.945  69.787  1.00  0.00    -0.229 C  
HETATM   10  C   UNL     1     -10.645  12.625  66.674  1.00  0.00    -0.267 C  
HETATM   11  C   UNL     1     -12.093  13.039  66.880  1.00  0.00    -0.349 C  
HETATM   12  O   UNL     1     -12.646  14.768  63.748  1.00  0.00    -0.806 OA 
HETATM   13  C   UNL     1      -9.972  11.065  68.926  1.00  0.00    -0.188 C  
HETATM   14  C   UNL     1     -12.721  13.792  65.939  1.00  0.00    -0.452 C  
HETATM   15  O   UNL     1     -11.306  10.654  69.296  1.00  0.00    -0.244 OA 
HETATM   16  C   UNL     1      -9.902  11.329  67.199  1.00  0.00    -0.190 C  
HETATM   17  C   UNL     1      -9.965   9.910  66.367  1.00  0.00    -0.309 C  
HETATM   18  F   UNL     1      -8.626  11.817  66.806  1.00  0.00    -0.163 F  
HETATM   19  H   UNL     1     -11.907  11.237  68.848  1.00  0.00     0.000 HD 
HETATM   20  C   UNL     1      -9.941  10.165  64.849  1.00  0.00    -0.358 C  
HETATM   21  C   UNL     1     -10.875  11.300  64.455  1.00  0.00    -0.354 C  
HETATM   22  C   UNL     1     -10.467  12.596  65.133  1.00  0.00    -0.319 C  
HETATM   23  C   UNL     1     -10.616  13.752  64.457  1.00  0.00    -0.405 C  
HETATM   24  C   UNL     1     -12.059  14.150  64.625  1.00  0.00    -0.452 C  
ENDROOT
BRANCH   4  25
HETATM   25  C   UNL     1     -10.024   7.712  69.778  1.00  0.00    -0.184 C  
HETATM   26  O   UNL     1      -9.722   7.807  70.970  1.00  0.00    -0.163 OA 
BRANCH  25  27
HETATM   27  C   UNL     1     -10.935   6.533  69.393  1.00  0.00    -0.337 C  
HETATM   28  O   UNL     1     -12.203   6.632  70.036  1.00  0.00    -0.605 OA 
HETATM   29  H   UNL     1     -12.765   5.904  69.798  1.00  0.00     0.000 HD 
ENDBRANCH  25  27
ENDBRANCH   4  25
TORSDOF 2
ENDMDL
MODEL       11
REMARK 921   NORMALIZED FREE ENERGY PREDICTED BY IDOCK:   -6.53 KCAL/MOL
REMARK 922        TOTAL FREE ENERGY PREDICTED BY IDOCK:   -6.55 KCAL/MOL
REMARK 923 INTER-LIGAND FREE ENERGY PREDICTED BY IDOCK:   -7.26 KCAL/MOL
REMARK 924 INTRA-LIGAND FREE ENERGY PREDICTED BY IDOCK:    0.70 KCAL/MOL
REMARK 927      BINDING AFFINITY PREDICTED BY RF-SCORE:    0.00 PKD
ROOT
HETATM    1  C   UNL     1     -10.063  13.375  64.869  1.00  0.00    -0.256 C  
HETATM    2  C   UNL     1     -11.305  12.864  64.416  1.00  0.00    -0.402 C  
HETATM    3  C   UNL     1     -11.529  13.592  65.718  1.00  0.00    -0.326 C  
HETATM    4  C   UNL     1      -9.864  14.595  66.386  1.00  0.00    -0.302 C  
HETATM    5  C   UNL     1     -13.148  13.946  65.548  1.00  0.00    -0.232 C  
HETATM    6  C   UNL     1     -11.703  10.350  68.891  1.00  0.00    -0.138 C  
HETATM    7  C   UNL     1     -10.894  14.953  65.592  1.00  0.00    -0.347 C  
HETATM    8  C   UNL     1     -11.112  16.071  64.593  1.00  0.00    -0.346 C  
HETATM    9  C   UNL     1     -11.448  14.837  67.446  1.00  0.00    -0.376 C  
HETATM   10  C   UNL     1     -10.261  10.579  68.265  1.00  0.00    -0.185 C  
HETATM   11  C   UNL     1      -9.325  10.335  69.438  1.00  0.00    -0.217 C  
HETATM   12  O   UNL     1      -8.732   6.794  68.969  1.00  0.00    -0.130 OA 
HETATM   13  C   UNL     1     -10.764  13.355  68.259  1.00  0.00    -0.258 C  
HETATM   14  C   UNL     1      -8.877   9.077  69.693  1.00  0.00    -0.145 C  
HETATM   15  O   UNL     1      -9.581  13.779  68.971  1.00  0.00    -0.407 OA 
HETATM   16  C   UNL     1     -10.420  11.883  67.381  1.00  0.00    -0.217 C  
HETATM   17  C   UNL     1      -9.439  12.165  66.088  1.00  0.00    -0.231 C  
HETATM   18  F   UNL     1     -11.584  11.387  66.734  1.00  0.00    -0.363 F  
HETATM   19  H   UNL     1      -9.225  13.007  69.395  1.00  0.00     0.000 HD 
HETATM   20  C   UNL     1      -9.116  10.853  65.351  1.00  0.00    -0.218 C  
HETATM   21  C   UNL     1      -8.764   9.735  66.321  1.00  0.00    -0.152 C  
HETATM   22  C   UNL     1      -9.923   9.447  67.259  1.00  0.00    -0.252 C  
HETATM   23  C   UNL     1     -10.143   8.174  67.641  1.00  0.00    -0.267 C  
HETATM   24  C   UNL     1      -9.192   7.912  68.780  1.00  0.00    -0.143 C  
ENDROOT
BRANCH   4  25
HETATM   25  C   UNL     1      -9.390  16.164  66.779  1.00  0.00    -0.234 C  
HETATM   26  O   UNL     1     -10.071  17.055  67.293  1.00  0.00    -0.279 OA 
BRANCH  25  27
HETATM   27  C   UNL     1      -7.929  16.519  66.450  1.00  0.00    -0.317 C  
HETATM   28  O   UNL     1      -7.834  17.819  65.875  1.00  0.00    -0.515 OA 
HETATM   29  H   UNL     1      -6.933  18.039  65.672  1.00  0.00     0.000 HD 
ENDBRANCH  25  27
ENDBRANCH   4  25
TORSDOF 2
ENDMDL
MODEL       12
REMARK 921   NORMALIZED FREE ENERGY PREDICTED BY IDOCK:   -6.47 KCAL/MOL
REMARK 922        TOTAL FREE ENERGY PREDICTED BY IDOCK:   -6.48 KCAL/MOL
REMARK 923 INTER-LIGAND FREE ENERGY PREDICTED BY IDOCK:   -7.40 KCAL/MOL
REMARK 924 INTRA-LIGAND FREE ENERGY PREDICTED BY IDOCK:    0.91 KCAL/MOL
REMARK 927      BINDING AFFINITY PREDICTED BY RF-SCORE:    0.00 PKD
ROOT
HETATM    1  C   UNL     1      -9.019  14.571  67.844  1.00  0.00    -0.187 C  
HETATM    2  C   UNL     1      -8.673  15.130  66.588  1.00  0.00    -0.308 C  
HETATM    3  C   UNL     1     -10.136  14.765  66.566  1.00  0.00    -0.281 C  
HETATM    4  C   UNL     1     -10.850  14.157  68.396  1.00  0.00    -0.266 C  
HETATM    5  C   UNL     1     -10.650  15.801  65.368  1.00  0.00    -0.441 C  
HETATM    6  C   UNL     1     -10.345  10.787  64.388  1.00  0.00    -0.405 C  
HETATM    7  C   UNL     1     -10.773  15.362  67.795  1.00  0.00    -0.289 C  
HETATM    8  C   UNL     1     -10.838  16.792  68.294  1.00  0.00    -0.366 C  
HETATM    9  C   UNL     1     -12.165  14.273  66.999  1.00  0.00    -0.338 C  
HETATM   10  C   UNL     1      -9.683  10.712  65.830  1.00  0.00    -0.273 C  
HETATM   11  C   UNL     1     -10.131   9.355  66.351  1.00  0.00    -0.332 C  
HETATM   12  O   UNL     1      -7.342   7.352  65.202  1.00  0.00    -0.070 OA 
HETATM   13  C   UNL     1     -11.612  12.553  66.751  1.00  0.00    -0.382 C  
HETATM   14  C   UNL     1      -9.383   8.251  66.088  1.00  0.00    -0.254 C  
HETATM   15  O   UNL     1     -12.101  11.792  67.876  1.00  0.00    -0.592 OA 
HETATM   16  C   UNL     1      -9.938  12.144  66.454  1.00  0.00    -0.225 C  
HETATM   17  C   UNL     1      -8.949  12.758  67.619  1.00  0.00    -0.191 C  
HETATM   18  F   UNL     1      -9.443  12.811  65.300  1.00  0.00    -0.129 F  
HETATM   19  H   UNL     1     -11.814  10.896  67.747  1.00  0.00     0.000 HD 
HETATM   20  C   UNL     1      -7.486  12.356  67.362  1.00  0.00    -0.157 C  
HETATM   21  C   UNL     1      -7.366  10.886  66.983  1.00  0.00    -0.118 C  
HETATM   22  C   UNL     1      -8.141  10.590  65.712  1.00  0.00    -0.158 C  
HETATM   23  C   UNL     1      -7.642   9.685  64.847  1.00  0.00    -0.117 C  
HETATM   24  C   UNL     1      -8.049   8.335  65.378  1.00  0.00    -0.135 C  
ENDROOT
BRANCH   4  25
HETATM   25  C   UNL     1     -12.034  14.592  69.514  1.00  0.00    -0.319 C  
HETATM   26  O   UNL     1     -12.634  15.667  69.603  1.00  0.00    -0.189 OA 
BRANCH  25  27
HETATM   27  C   UNL     1     -12.402  13.513  70.547  1.00  0.00    -0.342 C  
HETATM   28  O   UNL     1     -11.538  12.384  70.441  1.00  0.00    -0.530 OA 
HETATM   29  H   UNL     1     -11.765  11.718  71.078  1.00  0.00     0.000 HD 
ENDBRANCH  25  27
ENDBRANCH   4  25
TORSDOF 2
ENDMDL
MODEL       13
REMARK 921   NORMALIZED FREE ENERGY PREDICTED BY IDOCK:   -6.39 KCAL/MOL
REMARK 922        TOTAL FREE ENERGY PREDICTED BY IDOCK:   -6.40 KCAL/MOL
REMARK 923 INTER-LIGAND FREE ENERGY PREDICTED BY IDOCK:   -7.10 KCAL/MOL
REMARK 924 INTRA-LIGAND FREE ENERGY PREDICTED BY IDOCK:    0.71 KCAL/MOL
REMARK 927      BINDING AFFINITY PREDICTED BY RF-SCORE:    0.00 PKD
ROOT
HETATM    1  C   UNL     1      -9.411  14.501  69.041  1.00  0.00    -0.087 C  
HETATM    2  C   UNL     1     -10.058  15.102  70.150  1.00  0.00    -0.043 C  
HETATM    3  C   UNL     1     -10.925  15.284  68.929  1.00  0.00    -0.261 C  
HETATM    4  C   UNL     1     -10.237  14.261  67.284  1.00  0.00    -0.252 C  
HETATM    5  C   UNL     1     -12.399  15.486  69.679  1.00  0.00    -0.221 C  
HETATM    6  C   UNL     1     -10.115  19.516  67.501  1.00  0.00    -0.524 C  
HETATM    7  C   UNL     1     -11.085  13.933  68.280  1.00  0.00    -0.280 C  
HETATM    8  C   UNL     1     -11.614  12.619  68.820  1.00  0.00    -0.355 C  
HETATM    9  C   UNL     1     -11.910  15.174  67.042  1.00  0.00    -0.026 C  
HETATM   10  C   UNL     1      -8.905  18.508  67.288  1.00  0.00    -0.276 C  
HETATM   11  C   UNL     1      -8.282  18.977  65.983  1.00  0.00    -0.149 C  
HETATM   12  O   UNL     1      -5.839  21.294  67.313  1.00  0.00    -0.271 OA 
HETATM   13  C   UNL     1     -10.765  16.513  66.570  1.00  0.00    -0.144 C  
HETATM   14  C   UNL     1      -7.318  19.934  66.001  1.00  0.00    -0.324 C  
HETATM   15  O   UNL     1     -10.181  16.134  65.305  1.00  0.00    -0.520 OA 
HETATM   16  C   UNL     1      -9.509  17.089  67.643  1.00  0.00    -0.236 C  
HETATM   17  C   UNL     1      -8.551  15.857  68.169  1.00  0.00    -0.169 C  
HETATM   18  F   UNL     1     -10.056  17.551  68.871  1.00  0.00    -0.298 F  
HETATM   19  H   UNL     1      -9.584  16.831  65.059  1.00  0.00     0.000 HD 
HETATM   20  C   UNL     1      -7.430  16.389  69.080  1.00  0.00    -0.228 C  
HETATM   21  C   UNL     1      -6.784  17.640  68.504  1.00  0.00    -0.208 C  
HETATM   22  C   UNL     1      -7.803  18.755  68.352  1.00  0.00    -0.351 C  
HETATM   23  C   UNL     1      -7.408  20.024  68.572  1.00  0.00    -0.263 C  
HETATM   24  C   UNL     1      -6.755  20.484  67.294  1.00  0.00    -0.273 C  
ENDROOT
BRANCH   4  25
HETATM   25  C   UNL     1     -10.758  13.072  66.209  1.00  0.00    -0.276 C  
HETATM   26  O   UNL     1     -11.901  12.880  65.787  1.00  0.00    -0.373 OA 
BRANCH  25  27
HETATM   27  C   UNL     1      -9.669  12.112  65.700  1.00  0.00    -0.207 C  
HETATM   28  O   UNL     1      -9.497  12.229  64.291  1.00  0.00    -0.487 OA 
HETATM   29  H   UNL     1      -8.824  11.636  63.977  1.00  0.00     0.000 HD 
ENDBRANCH  25  27
ENDBRANCH   4  25
TORSDOF 2
ENDMDL
MODEL       14
REMARK 921   NORMALIZED FREE ENERGY PREDICTED BY IDOCK:   -6.35 KCAL/MOL
REMARK 922        TOTAL FREE ENERGY PREDICTED BY IDOCK:   -6.35 KCAL/MOL
REMARK 923 INTER-LIGAND FREE ENERGY PREDICTED BY IDOCK:   -7.03 KCAL/MOL
REMARK 924 INTRA-LIGAND FREE ENERGY PREDICTED BY IDOCK:    0.68 KCAL/MOL
REMARK 927      BINDING AFFINITY PREDICTED BY RF-SCORE:    0.00 PKD
ROOT
HETATM    1  C   UNL     1     -11.545   8.224  71.918  1.00  0.00    -0.377 C  
HETATM    2  C   UNL     1     -12.385   7.567  70.983  1.00  0.00    -0.265 C  
HETATM    3  C   UNL     1     -10.947   7.286  70.621  1.00  0.00    -0.278 C  
HETATM    4  C   UNL     1      -9.607   7.975  72.020  1.00  0.00    -0.262 C  
HETATM    5  C   UNL     1     -11.161   5.873  69.766  1.00  0.00    -0.422 C  
HETATM    6  C   UNL     1      -9.974  10.171  67.253  1.00  0.00    -0.241 C  
HETATM    7  C   UNL     1     -10.251   6.800  71.867  1.00  0.00    -0.206 C  
HETATM    8  C   UNL     1     -10.551   5.637  72.790  1.00  0.00    -0.266 C  
HETATM    9  C   UNL     1      -8.837   6.997  70.557  1.00  0.00    -0.154 C  
HETATM   10  C   UNL     1     -10.159  10.859  68.674  1.00  0.00    -0.200 C  
HETATM   11  C   UNL     1      -9.151  11.997  68.647  1.00  0.00    -0.030 C  
HETATM   12  O   UNL     1     -11.281  14.617  67.341  1.00  0.00    -0.317 OA 
HETATM   13  C   UNL     1      -8.810   8.675  69.844  1.00  0.00    -0.144 C  
HETATM   14  C   UNL     1      -9.515  13.209  68.153  1.00  0.00    -0.222 C  
HETATM   15  O   UNL     1      -7.807   9.419  70.570  1.00  0.00    -0.140 OA 
HETATM   16  C   UNL     1     -10.256   9.646  69.687  1.00  0.00    -0.222 C  
HETATM   17  C   UNL     1     -11.046   9.792  71.124  1.00  0.00    -0.414 C  
HETATM   18  F   UNL     1     -11.238   8.980  68.904  1.00  0.00    -0.107 F  
HETATM   19  H   UNL     1      -7.793  10.294  70.199  1.00  0.00     0.000 HD 
HETATM   20  C   UNL     1     -12.294  10.681  70.974  1.00  0.00    -0.507 C  
HETATM   21  C   UNL     1     -11.998  11.931  70.157  1.00  0.00    -0.413 C  
HETATM   22  C   UNL     1     -11.538  11.566  68.757  1.00  0.00    -0.379 C  
HETATM   23  C   UNL     1     -11.907  12.355  67.730  1.00  0.00    -0.362 C  
HETATM   24  C   UNL     1     -10.935  13.507  67.720  1.00  0.00    -0.266 C  
ENDROOT
BRANCH   4  25
HETATM   25  C   UNL     1      -8.392   7.381  73.026  1.00  0.00    -0.118 C  
HETATM   26  O   UNL     1      -7.588   6.476  72.790  1.00  0.00    -0.096 OA 
BRANCH  25  27
HETATM   27  C   UNL     1      -8.284   8.053  74.406  1.00  0.00    -0.229 C  
HETATM   28  O   UNL     1      -7.368   9.144  74.375  1.00  0.00    -0.393 OA 
HETATM   29  H   UNL     1      -7.301   9.559  75.227  1.00  0.00     0.000 HD 
ENDBRANCH  25  27
ENDBRANCH   4  25
TORSDOF 2
ENDMDL
MODEL       15
REMARK 921   NORMALIZED FREE ENERGY PREDICTED BY IDOCK:   -6.28 KCAL/MOL
REMARK 922        TOTAL FREE ENERGY PREDICTED BY IDOCK:   -6.27 KCAL/MOL
REMARK 923 INTER-LIGAND FREE ENERGY PREDICTED BY IDOCK:   -6.86 KCAL/MOL
REMARK 924 INTRA-LIGAND FREE ENERGY PREDICTED BY IDOCK:    0.59 KCAL/MOL
REMARK 927      BINDING AFFINITY PREDICTED BY RF-SCORE:    0.00 PKD
ROOT
HETATM    1  C   UNL     1      -7.874  11.094  67.586  1.00  0.00    -0.115 C  
HETATM    2  C   UNL     1      -8.768  10.753  68.632  1.00  0.00    -0.152 C  
HETATM    3  C   UNL     1      -9.461  10.525  67.312  1.00  0.00    -0.179 C  
HETATM    4  C   UNL     1      -8.217  10.748  65.691  1.00  0.00    -0.127 C  
HETATM    5  C   UNL     1     -10.598   9.410  67.800  1.00  0.00    -0.317 C  
HETATM    6  C   UNL     1     -12.078  14.181  66.685  1.00  0.00    -0.480 C  
HETATM    7  C   UNL     1      -8.545   9.688  66.456  1.00  0.00    -0.135 C  
HETATM    8  C   UNL     1      -7.918   8.329  66.694  1.00  0.00    -0.098 C  
HETATM    9  C   UNL     1     -10.006  10.179  65.281  1.00  0.00    -0.381 C  
HETATM   10  C   UNL     1     -10.519  14.459  66.555  1.00  0.00    -0.289 C  
HETATM   11  C   UNL     1     -10.441  15.520  65.468  1.00  0.00    -0.407 C  
HETATM   12  O   UNL     1     -10.579  18.481  67.546  1.00  0.00    -0.409 OA 
HETATM   13  C   UNL     1     -10.245  11.986  65.226  1.00  0.00    -0.271 C  
HETATM   14  C   UNL     1     -10.521  16.834  65.801  1.00  0.00    -0.305 C  
HETATM   15  O   UNL     1      -9.558  12.462  64.048  1.00  0.00    -0.554 OA 
HETATM   16  C   UNL     1      -9.860  13.020  66.583  1.00  0.00    -0.252 C  
HETATM   17  C   UNL     1      -8.310  12.798  67.092  1.00  0.00    -0.164 C  
HETATM   18  F   UNL     1     -10.585  12.635  67.743  1.00  0.00    -0.209 F  
HETATM   19  H   UNL     1      -9.682  13.403  64.020  1.00  0.00     0.000 HD 
HETATM   20  C   UNL     1      -7.978  13.744  68.261  1.00  0.00    -0.146 C  
HETATM   21  C   UNL     1      -8.481  15.157  68.000  1.00  0.00    -0.148 C  
HETATM   22  C   UNL     1      -9.989  15.171  67.827  1.00  0.00    -0.225 C  
HETATM   23  C   UNL     1     -10.682  16.227  68.297  1.00  0.00    -0.322 C  
HETATM   24  C   UNL     1     -10.578  17.297  67.241  1.00  0.00    -0.283 C  
ENDROOT
BRANCH   4  25
HETATM   25  C   UNL     1      -7.656   9.853  64.378  1.00  0.00    -0.143 C  
HETATM   26  O   UNL     1      -8.309   9.135  63.616  1.00  0.00    -0.169 OA 
BRANCH  25  27
HETATM   27  C   UNL     1      -6.144   9.946  64.107  1.00  0.00    -0.123 C  
HETATM   28  O   UNL     1      -5.589  11.123  64.687  1.00  0.00    -0.461 OA 
HETATM   29  H   UNL     1      -4.657  11.181  64.520  1.00  0.00     0.000 HD 
ENDBRANCH  25  27
ENDBRANCH   4  25
TORSDOF 2
ENDMDL
MODEL       16
REMARK 921   NORMALIZED FREE ENERGY PREDICTED BY IDOCK:   -6.20 KCAL/MOL
REMARK 922        TOTAL FREE ENERGY PREDICTED BY IDOCK:   -6.18 KCAL/MOL
REMARK 923 INTER-LIGAND FREE ENERGY PREDICTED BY IDOCK:   -7.72 KCAL/MOL
REMARK 924 INTRA-LIGAND FREE ENERGY PREDICTED BY IDOCK:    1.54 KCAL/MOL
REMARK 927      BINDING AFFINITY PREDICTED BY RF-SCORE:    0.00 PKD
ROOT
HETATM    1  C   UNL     1     -10.390   6.984  69.838  1.00  0.00    -0.225 C  
HETATM    2  C   UNL     1      -9.035   7.148  70.223  1.00  0.00    -0.152 C  
HETATM    3  C   UNL     1      -9.839   8.292  70.789  1.00  0.00    -0.205 C  
HETATM    4  C   UNL     1     -11.866   8.073  70.518  1.00  0.00    -0.017 C  
HETATM    5  C   UNL     1      -8.843   8.715  72.055  1.00  0.00    -0.264 C  
HETATM    6  C   UNL     1      -9.134  11.770  67.958  1.00  0.00    -0.180 C  
HETATM    7  C   UNL     1     -11.027   7.702  71.506  1.00  0.00    -0.263 C  
HETATM    8  C   UNL     1     -11.114   6.697  72.638  1.00  0.00    -0.291 C  
HETATM    9  C   UNL     1     -11.335   9.615  71.536  1.00  0.00    -0.420 C  
HETATM   10  C   UNL     1     -10.019  10.598  67.351  1.00  0.00    -0.213 C  
HETATM   11  C   UNL     1     -11.015  11.332  66.467  1.00  0.00    -0.303 C  
HETATM   12  O   UNL     1      -9.171  11.265  63.351  1.00  0.00    -0.222 OA 
HETATM   13  C   UNL     1     -11.284  10.329  69.858  1.00  0.00    -0.299 C  
HETATM   14  C   UNL     1     -10.700  11.596  65.171  1.00  0.00    -0.351 C  
HETATM   15  O   UNL     1     -12.652  10.436  69.410  1.00  0.00    -0.687 OA 
HETATM   16  C   UNL     1     -10.304   9.644  68.582  1.00  0.00    -0.203 C  
HETATM   17  C   UNL     1     -10.623   8.043  68.367  1.00  0.00    -0.150 C  
HETATM   18  F   UNL     1      -8.933   9.600  68.954  1.00  0.00    -0.129 F  
HETATM   19  H   UNL     1     -12.626  10.808  68.536  1.00  0.00     0.000 HD 
HETATM   20  C   UNL     1      -9.779   7.468  67.215  1.00  0.00    -0.217 C  
HETATM   21  C   UNL     1      -9.773   8.393  66.007  1.00  0.00    -0.146 C  
HETATM   22  C   UNL     1      -9.181   9.745  66.363  1.00  0.00    -0.200 C  
HETATM   23  C   UNL     1      -8.442  10.389  65.439  1.00  0.00    -0.173 C  
HETATM   24  C   UNL     1      -9.424  11.089  64.535  1.00  0.00    -0.233 C  
ENDROOT
BRANCH   4  25
HETATM   25  C   UNL     1     -13.275   7.981  71.438  1.00  0.00    -0.227 C  
HETATM   26  O   UNL     1     -14.145   7.108  71.406  1.00  0.00    -0.381 OA 
BRANCH  25  27
HETATM   27  C   UNL     1     -13.495   9.134  72.433  1.00  0.00    -0.476 C  
HETATM   28  O   UNL     1     -14.395   8.753  73.471  1.00  0.00    -1.095 OA 
HETATM   29  H   UNL     1     -14.531   9.464  74.084  1.00  0.00     0.000 HD 
ENDBRANCH  25  27
ENDBRANCH   4  25
TORSDOF 2
ENDMDL
MODEL       17
REMARK 921   NORMALIZED FREE ENERGY PREDICTED BY IDOCK:   -6.00 KCAL/MOL
REMARK 922        TOTAL FREE ENERGY PREDICTED BY IDOCK:   -5.96 KCAL/MOL
REMARK 923 INTER-LIGAND FREE ENERGY PREDICTED BY IDOCK:   -6.61 KCAL/MOL
REMARK 924 INTRA-LIGAND FREE ENERGY PREDICTED BY IDOCK:    0.65 KCAL/MOL
REMARK 927      BINDING AFFINITY PREDICTED BY RF-SCORE:    0.00 PKD
ROOT
HETATM    1  C   UNL     1     -11.040   8.150  71.463  1.00  0.00    -0.302 C  
HETATM    2  C   UNL     1     -11.904   7.446  70.586  1.00  0.00    -0.245 C  
HETATM    3  C   UNL     1     -10.482   7.243  70.127  1.00  0.00    -0.229 C  
HETATM    4  C   UNL     1      -9.088   8.006  71.432  1.00  0.00    -0.175 C  
HETATM    5  C   UNL     1     -10.676   5.817  69.287  1.00  0.00    -0.386 C  
HETATM    6  C   UNL     1      -9.899  10.167  66.703  1.00  0.00    -0.253 C  
HETATM    7  C   UNL     1      -9.677   6.798  71.321  1.00  0.00    -0.179 C  
HETATM    8  C   UNL     1      -9.849   5.623  72.262  1.00  0.00    -0.185 C  
HETATM    9  C   UNL     1      -8.368   7.067  69.918  1.00  0.00    -0.139 C  
HETATM   10  C   UNL     1     -10.023  10.847  68.134  1.00  0.00    -0.188 C  
HETATM   11  C   UNL     1      -9.082  12.038  68.039  1.00  0.00    -0.188 C  
HETATM   12  O   UNL     1     -11.435  14.536  66.885  1.00  0.00    -0.340 OA 
HETATM   13  C   UNL     1      -8.481   8.743  69.207  1.00  0.00    -0.122 C  
HETATM   14  C   UNL     1      -9.544  13.228  67.573  1.00  0.00    -0.218 C  
HETATM   15  O   UNL     1      -7.472   9.542  69.863  1.00  0.00    -0.083 OA 
HETATM   16  C   UNL     1      -9.984   9.634  69.150  1.00  0.00    -0.185 C  
HETATM   17  C   UNL     1     -10.681   9.741  70.638  1.00  0.00    -0.394 C  
HETATM   18  F   UNL     1     -10.981   8.914  68.436  1.00  0.00    -0.196 F  
HETATM   19  H   UNL     1      -7.531  10.415  69.493  1.00  0.00     0.000 HD 
HETATM   20  C   UNL     1     -11.982  10.561  70.575  1.00  0.00    -0.436 C  
HETATM   21  C   UNL     1     -11.811  11.822  69.740  1.00  0.00    -0.420 C  
HETATM   22  C   UNL     1     -11.429  11.479  68.312  1.00  0.00    -0.368 C  
HETATM   23  C   UNL     1     -11.910  12.245  67.313  1.00  0.00    -0.330 C  
HETATM   24  C   UNL     1     -11.004  13.447  67.238  1.00  0.00    -0.272 C  
ENDROOT
BRANCH   4  25
HETATM   25  C   UNL     1      -7.777   7.482  72.351  1.00  0.00    -0.094 C  
HETATM   26  O   UNL     1      -6.957   6.604  72.069  1.00  0.00    -0.069 OA 
BRANCH  25  27
HETATM   27  C   UNL     1      -7.591   8.186  73.706  1.00  0.00    -0.171 C  
HETATM   28  O   UNL     1      -8.703   7.949  74.565  1.00  0.00    -0.437 OA 
HETATM   29  H   UNL     1      -8.588   8.384  75.401  1.00  0.00     0.000 HD 
ENDBRANCH  25  27
ENDBRANCH   4  25
TORSDOF 2
ENDMDL
MODEL       18
REMARK 921   NORMALIZED FREE ENERGY PREDICTED BY IDOCK:   -5.96 KCAL/MOL
REMARK 922        TOTAL FREE ENERGY PREDICTED BY IDOCK:   -5.92 KCAL/MOL
REMARK 923 INTER-LIGAND FREE ENERGY PREDICTED BY IDOCK:   -6.61 KCAL/MOL
REMARK 924 INTRA-LIGAND FREE ENERGY PREDICTED BY IDOCK:    0.69 KCAL/MOL
REMARK 927      BINDING AFFINITY PREDICTED BY RF-SCORE:    0.00 PKD
ROOT
HETATM    1  C   UNL     1      -8.266  17.509  69.059  1.00  0.00    -0.065 C  
HETATM    2  C   UNL     1      -7.126  16.757  69.438  1.00  0.00    -0.143 C  
HETATM    3  C   UNL     1      -7.150  16.872  67.934  1.00  0.00    -0.162 C  
HETATM    4  C   UNL     1      -8.615  18.135  67.238  1.00  0.00    -0.240 C  
HETATM    5  C   UNL     1      -5.530  16.637  67.625  1.00  0.00    -0.161 C  
HETATM    6  C   UNL     1      -8.871  12.938  66.459  1.00  0.00    -0.026 C  
HETATM    7  C   UNL     1      -7.328  18.329  67.592  1.00  0.00    -0.211 C  
HETATM    8  C   UNL     1      -6.513  19.551  67.963  1.00  0.00    -0.260 C  
HETATM    9  C   UNL     1      -7.453  17.405  65.893  1.00  0.00    -0.121 C  
HETATM   10  C   UNL     1      -9.919  13.879  67.194  1.00  0.00    -0.239 C  
HETATM   11  C   UNL     1     -11.213  13.622  66.437  1.00  0.00    -0.317 C  
HETATM   12  O   UNL     1     -12.534  10.927  68.463  1.00  0.00    -0.375 OA 
HETATM   13  C   UNL     1      -8.728  16.102  65.930  1.00  0.00    -0.091 C  
HETATM   14  C   UNL     1     -12.034  12.612  66.829  1.00  0.00    -0.362 C  
HETATM   15  O   UNL     1      -9.921  16.669  65.347  1.00  0.00    -0.565 OA 
HETATM   16  C   UNL     1      -9.146  15.246  67.396  1.00  0.00    -0.192 C  
HETATM   17  C   UNL     1      -9.546  16.284  68.609  1.00  0.00    -0.237 C  
HETATM   18  F   UNL     1      -8.009  14.600  67.955  1.00  0.00    -0.114 F  
HETATM   19  H   UNL     1     -10.585  15.991  65.366  1.00  0.00     0.000 HD 
HETATM   20  C   UNL     1      -9.948  15.512  69.879  1.00  0.00    -0.243 C  
HETATM   21  C   UNL     1     -10.876  14.349  69.559  1.00  0.00    -0.179 C  
HETATM   22  C   UNL     1     -10.200  13.358  68.628  1.00  0.00    -0.187 C  
HETATM   23  C   UNL     1     -10.460  12.045  68.785  1.00  0.00    -0.207 C  
HETATM   24  C   UNL     1     -11.761  11.790  68.070  1.00  0.00    -0.293 C  
ENDROOT
BRANCH   4  25
HETATM   25  C   UNL     1      -8.759  19.539  66.317  1.00  0.00    -0.359 C  
HETATM   26  O   UNL     1      -7.861  20.176  65.760  1.00  0.00    -0.299 OA 
BRANCH  25  27
HETATM   27  C   UNL     1     -10.188  20.089  66.163  1.00  0.00    -0.475 C  
HETATM   28  O   UNL     1     -10.951  19.292  65.260  1.00  0.00    -0.487 OA 
HETATM   29  H   UNL     1     -11.832  19.632  65.165  1.00  0.00     0.000 HD 
ENDBRANCH  25  27
ENDBRANCH   4  25
TORSDOF 2
ENDMDL
MODEL       19
REMARK 921   NORMALIZED FREE ENERGY PREDICTED BY IDOCK:   -5.94 KCAL/MOL
REMARK 922        TOTAL FREE ENERGY PREDICTED BY IDOCK:   -5.89 KCAL/MOL
REMARK 923 INTER-LIGAND FREE ENERGY PREDICTED BY IDOCK:   -6.60 KCAL/MOL
REMARK 924 INTRA-LIGAND FREE ENERGY PREDICTED BY IDOCK:    0.71 KCAL/MOL
REMARK 927      BINDING AFFINITY PREDICTED BY RF-SCORE:    0.00 PKD
ROOT
HETATM    1  C   UNL     1     -10.827  15.147  66.443  1.00  0.00    -0.326 C  
HETATM    2  C   UNL     1     -11.838  14.558  67.244  1.00  0.00    -0.419 C  
HETATM    3  C   UNL     1     -10.581  14.681  68.068  1.00  0.00    -0.240 C  
HETATM    4  C   UNL     1      -9.089  15.734  67.122  1.00  0.00    -0.228 C  
HETATM    5  C   UNL     1     -11.260  14.677  69.589  1.00  0.00    -0.307 C  
HETATM    6  C   UNL     1      -8.681  10.559  67.981  1.00  0.00    -0.128 C  
HETATM    7  C   UNL     1     -10.093  16.102  67.943  1.00  0.00    -0.244 C  
HETATM    8  C   UNL     1     -10.771  17.423  68.248  1.00  0.00    -0.327 C  
HETATM    9  C   UNL     1      -8.694  15.185  68.921  1.00  0.00    -0.205 C  
HETATM   10  C   UNL     1      -8.624  11.338  66.597  1.00  0.00    -0.167 C  
HETATM   11  C   UNL     1      -7.289  10.909  66.007  1.00  0.00    -0.081 C  
HETATM   12  O   UNL     1      -8.401   8.039  64.101  1.00  0.00    -0.100 OA 
HETATM   13  C   UNL     1      -8.098  13.716  68.020  1.00  0.00    -0.161 C  
HETATM   14  C   UNL     1      -7.219   9.791  65.238  1.00  0.00    -0.120 C  
HETATM   15  O   UNL     1      -6.903  14.117  67.314  1.00  0.00    -0.360 OA 
HETATM   16  C   UNL     1      -9.128  12.797  66.946  1.00  0.00    -0.221 C  
HETATM   17  C   UNL     1      -9.823  13.759  65.805  1.00  0.00    -0.242 C  
HETATM   18  F   UNL     1     -10.277  12.312  67.629  1.00  0.00    -0.194 F  
HETATM   19  H   UNL     1      -6.592  13.352  66.845  1.00  0.00     0.000 HD 
HETATM   20  C   UNL     1     -10.695  12.927  64.847  1.00  0.00    -0.333 C  
HETATM   21  C   UNL     1      -9.992  11.648  64.415  1.00  0.00    -0.298 C  
HETATM   22  C   UNL     1      -9.681  10.770  65.613  1.00  0.00    -0.287 C  
HETATM   23  C   UNL     1      -9.758   9.432  65.470  1.00  0.00    -0.300 C  
HETATM   24  C   UNL     1      -8.453   9.004  64.850  1.00  0.00    -0.178 C  
ENDROOT
BRANCH   4  25
HETATM   25  C   UNL     1      -8.149  17.112  67.362  1.00  0.00    -0.177 C  
HETATM   26  O   UNL     1      -7.798  17.614  68.433  1.00  0.00    -0.249 OA 
BRANCH  25  27
HETATM   27  C   UNL     1      -7.681  17.828  66.083  1.00  0.00    -0.245 C  
HETATM   28  O   UNL     1      -8.354  19.072  65.914  1.00  0.00    -0.463 OA 
HETATM   29  H   UNL     1      -8.065  19.514  65.124  1.00  0.00     0.000 HD 
ENDBRANCH  25  27
ENDBRANCH   4  25
TORSDOF 2
ENDMDL
MODEL       20
REMARK 921   NORMALIZED FREE ENERGY PREDICTED BY IDOCK:   -5.92 KCAL/MOL
REMARK 922        TOTAL FREE ENERGY PREDICTED BY IDOCK:   -5.87 KCAL/MOL
REMARK 923 INTER-LIGAND FREE ENERGY PREDICTED BY IDOCK:   -6.48 KCAL/MOL
REMARK 924 INTRA-LIGAND FREE ENERGY PREDICTED BY IDOCK:    0.61 KCAL/MOL
REMARK 927      BINDING AFFINITY PREDICTED BY RF-SCORE:    0.00 PKD
ROOT
HETATM    1  C   UNL     1      -8.543  12.169  67.904  1.00  0.00    -0.167 C  
HETATM    2  C   UNL     1      -7.916  11.580  66.778  1.00  0.00    -0.152 C  
HETATM    3  C   UNL     1      -9.410  11.548  66.570  1.00  0.00    -0.210 C  
HETATM    4  C   UNL     1     -10.453  12.580  68.010  1.00  0.00    -0.227 C  
HETATM    5  C   UNL     1      -9.444  11.455  64.907  1.00  0.00    -0.194 C  
HETATM    6  C   UNL     1     -10.685   7.334  67.677  1.00  0.00    -0.294 C  
HETATM    7  C   UNL     1      -9.933  12.939  66.819  1.00  0.00    -0.243 C  
HETATM    8  C   UNL     1      -9.580  14.270  66.185  1.00  0.00    -0.300 C  
HETATM    9  C   UNL     1     -11.520  11.851  66.587  1.00  0.00    -0.382 C  
HETATM   10  C   UNL     1     -10.225   8.226  68.909  1.00  0.00    -0.222 C  
HETATM   11  C   UNL     1     -11.135   7.764  70.036  1.00  0.00    -0.182 C  
HETATM   12  O   UNL     1      -9.047   5.151  71.423  1.00  0.00    -0.140 OA 
HETATM   13  C   UNL     1     -11.532  10.430  67.731  1.00  0.00     0.028 C  
HETATM   14  C   UNL     1     -10.763   6.716  70.817  1.00  0.00    -0.282 C  
HETATM   15  O   UNL     1     -12.347  10.813  68.860  1.00  0.00    -0.788 OA 
HETATM   16  C   UNL     1     -10.060   9.679  68.302  1.00  0.00    -0.177 C  
HETATM   17  C   UNL     1      -9.043  10.780  68.982  1.00  0.00    -0.153 C  
HETATM   18  F   UNL     1      -9.269   9.211  67.217  1.00  0.00    -0.136 F  
HETATM   19  H   UNL     1     -12.353  10.073  69.456  1.00  0.00     0.000 HD 
HETATM   20  C   UNL     1      -7.771  10.094  69.512  1.00  0.00    -0.155 C  
HETATM   21  C   UNL     1      -8.097   8.815  70.271  1.00  0.00    -0.116 C  
HETATM   22  C   UNL     1      -8.801   7.817  69.370  1.00  0.00    -0.139 C  
HETATM   23  C   UNL     1      -8.541   6.505  69.534  1.00  0.00    -0.134 C  
HETATM   24  C   UNL     1      -9.412   6.048  70.676  1.00  0.00    -0.168 C  
ENDROOT
BRANCH   4  25
HETATM   25  C   UNL     1     -11.534  13.867  68.127  1.00  0.00    -0.312 C  
HETATM   26  O   UNL     1     -12.143  14.432  67.215  1.00  0.00    -0.406 OA 
BRANCH  25  27
HETATM   27  C   UNL     1     -11.782  14.399  69.550  1.00  0.00    -0.313 C  
HETATM   28  O   UNL     1     -11.835  13.334  70.495  1.00  0.00    -0.510 OA 
HETATM   29  H   UNL     1     -11.988  13.663  71.373  1.00  0.00     0.000 HD 
ENDBRANCH  25  27
ENDBRANCH   4  25
TORSDOF 2
ENDMDL
MODEL       21
REMARK 921   NORMALIZED FREE ENERGY PREDICTED BY IDOCK:   -5.87 KCAL/MOL
REMARK 922        TOTAL FREE ENERGY PREDICTED BY IDOCK:   -5.82 KCAL/MOL
REMARK 923 INTER-LIGAND FREE ENERGY PREDICTED BY IDOCK:   -6.77 KCAL/MOL
REMARK 924 INTRA-LIGAND FREE ENERGY PREDICTED BY IDOCK:    0.96 KCAL/MOL
REMARK 927      BINDING AFFINITY PREDICTED BY RF-SCORE:    0.00 PKD
ROOT
HETATM    1  C   UNL     1     -11.642  13.724  68.535  1.00  0.00    -0.373 C  
HETATM    2  C   UNL     1     -10.683  14.011  69.538  1.00  0.00    -0.009 C  
HETATM    3  C   UNL     1      -9.959  13.731  68.245  1.00  0.00    -0.243 C  
HETATM    4  C   UNL     1     -11.221  13.528  66.634  1.00  0.00    -0.328 C  
HETATM    5  C   UNL     1      -8.539  14.545  68.554  1.00  0.00    -0.175 C  
HETATM    6  C   UNL     1      -8.551   9.427  68.567  1.00  0.00    -0.123 C  
HETATM    7  C   UNL     1     -10.588  14.588  67.177  1.00  0.00    -0.274 C  
HETATM    8  C   UNL     1     -10.781  16.088  67.082  1.00  0.00    -0.283 C  
HETATM    9  C   UNL     1      -9.346  13.447  66.223  1.00  0.00    -0.137 C  
HETATM   10  C   UNL     1     -10.123   9.593  68.403  1.00  0.00    -0.199 C  
HETATM   11  C   UNL     1     -10.518   8.389  67.562  1.00  0.00    -0.328 C  
HETATM   12  O   UNL     1     -11.258   6.049  70.224  1.00  0.00    -0.347 OA 
HETATM   13  C   UNL     1      -9.655  11.683  66.567  1.00  0.00    -0.209 C  
HETATM   14  C   UNL     1     -10.832   7.215  68.170  1.00  0.00    -0.170 C  
HETATM   15  O   UNL     1     -10.458  11.181  65.477  1.00  0.00    -0.262 OA 
HETATM   16  C   UNL     1     -10.324  11.131  68.085  1.00  0.00    -0.187 C  
HETATM   17  C   UNL     1     -11.735  11.901  68.440  1.00  0.00    -0.387 C  
HETATM   18  F   UNL     1      -9.512  11.534  69.181  1.00  0.00    -0.127 F  
HETATM   19  H   UNL     1     -10.620  10.262  65.655  1.00  0.00     0.000 HD 
HETATM   20  C   UNL     1     -12.328  11.375  69.760  1.00  0.00    -0.250 C  
HETATM   21  C   UNL     1     -12.270   9.856  69.836  1.00  0.00     0.133 C  
HETATM   22  C   UNL     1     -10.835   9.365  69.763  1.00  0.00    -0.250 C  
HETATM   23  C   UNL     1     -10.485   8.284  70.487  1.00  0.00    -0.225 C  
HETATM   24  C   UNL     1     -10.908   7.085  69.676  1.00  0.00    -0.247 C  
ENDROOT
BRANCH   4  25
HETATM   25  C   UNL     1     -11.496  14.235  65.130  1.00  0.00    -0.351 C  
HETATM   26  O   UNL     1     -10.890  15.178  64.613  1.00  0.00    -0.377 OA 
BRANCH  25  27
HETATM   27  C   UNL     1     -12.647  13.628  64.310  1.00  0.00    -0.136 C  
HETATM   28  O   UNL     1     -12.310  13.554  62.927  1.00  0.00    -0.909 OA 
HETATM   29  H   UNL     1     -13.021  13.179  62.421  1.00  0.00     0.000 HD 
ENDBRANCH  25  27
ENDBRANCH   4  25
TORSDOF 2
ENDMDL
MODEL       22
REMARK 921   NORMALIZED FREE ENERGY PREDICTED BY IDOCK:   -5.86 KCAL/MOL
REMARK 922        TOTAL FREE ENERGY PREDICTED BY IDOCK:   -5.81 KCAL/MOL
REMARK 923 INTER-LIGAND FREE ENERGY PREDICTED BY IDOCK:   -7.11 KCAL/MOL
REMARK 924 INTRA-LIGAND FREE ENERGY PREDICTED BY IDOCK:    1.30 KCAL/MOL
REMARK 927      BINDING AFFINITY PREDICTED BY RF-SCORE:    0.00 PKD
ROOT
HETATM    1  C   UNL     1      -9.909   6.809  69.187  1.00  0.00    -0.161 C  
HETATM    2  C   UNL     1      -8.530   7.071  69.380  1.00  0.00    -0.133 C  
HETATM    3  C   UNL     1      -9.319   7.883  70.377  1.00  0.00    -0.159 C  
HETATM    4  C   UNL     1     -11.325   7.435  70.383  1.00  0.00    -0.273 C  
HETATM    5  C   UNL     1      -8.140   8.099  71.534  1.00  0.00    -0.141 C  
HETATM    6  C   UNL     1      -9.547  12.059  68.612  1.00  0.00    -0.087 C  
HETATM    7  C   UNL     1     -10.274   6.946  71.071  1.00  0.00    -0.213 C  
HETATM    8  C   UNL     1     -10.033   5.673  71.858  1.00  0.00    -0.223 C  
HETATM    9  C   UNL     1     -10.764   8.709  71.708  1.00  0.00    -0.392 C  
HETATM   10  C   UNL     1     -10.410  10.971  67.839  1.00  0.00    -0.213 C  
HETATM   11  C   UNL     1     -11.631  11.753  67.380  1.00  0.00    -0.352 C  
HETATM   12  O   UNL     1     -10.443  12.810  64.127  1.00  0.00    -0.385 OA 
HETATM   13  C   UNL     1     -11.119   9.846  70.327  1.00  0.00    -0.308 C  
HETATM   14  C   UNL     1     -11.607  12.400  66.185  1.00  0.00    -0.452 C  
HETATM   15  O   UNL     1     -12.553   9.858  70.155  1.00  0.00    -0.505 OA 
HETATM   16  C   UNL     1     -10.347   9.689  68.766  1.00  0.00    -0.213 C  
HETATM   17  C   UNL     1     -10.536   8.175  68.147  1.00  0.00    -0.225 C  
HETATM   18  F   UNL     1      -8.932   9.759  68.884  1.00  0.00    -0.126 F  
HETATM   19  H   UNL     1     -12.739  10.450  69.436  1.00  0.00     0.000 HD 
HETATM   20  C   UNL     1      -9.883   8.068  66.757  1.00  0.00    -0.327 C  
HETATM   21  C   UNL     1     -10.211   9.274  65.888  1.00  0.00    -0.054 C  
HETATM   22  C   UNL     1      -9.701  10.554  66.524  1.00  0.00    -0.237 C  
HETATM   23  C   UNL     1      -9.229  11.529  65.722  1.00  0.00    -0.210 C  
HETATM   24  C   UNL     1     -10.437  12.285  65.232  1.00  0.00    -0.282 C  
ENDROOT
BRANCH   4  25
HETATM   25  C   UNL     1     -12.508   6.883  71.450  1.00  0.00    -0.367 C  
HETATM   26  O   UNL     1     -12.400   6.011  72.316  1.00  0.00    -0.252 OA 
BRANCH  25  27
HETATM   27  C   UNL     1     -13.887   7.550  71.316  1.00  0.00    -0.256 C  
HETATM   28  O   UNL     1     -14.136   8.438  72.403  1.00  0.00    -0.565 OA 
HETATM   29  H   UNL     1     -14.988   8.850  72.321  1.00  0.00     0.000 HD 
ENDBRANCH  25  27
ENDBRANCH   4  25
TORSDOF 2
ENDMDL
MODEL       23
REMARK 921   NORMALIZED FREE ENERGY PREDICTED BY IDOCK:   -5.86 KCAL/MOL
REMARK 922        TOTAL FREE ENERGY PREDICTED BY IDOCK:   -5.81 KCAL/MOL
REMARK 923 INTER-LIGAND FREE ENERGY PREDICTED BY IDOCK:   -6.50 KCAL/MOL
REMARK 924 INTRA-LIGAND FREE ENERGY PREDICTED BY IDOCK:    0.70 KCAL/MOL
REMARK 927      BINDING AFFINITY PREDICTED BY RF-SCORE:    0.00 PKD
ROOT
HETATM    1  C   UNL     1      -8.785  14.774  68.006  1.00  0.00    -0.168 C  
HETATM    2  C   UNL     1      -8.476  15.222  66.697  1.00  0.00    -0.264 C  
HETATM    3  C   UNL     1      -9.965  14.996  66.790  1.00  0.00    -0.254 C  
HETATM    4  C   UNL     1     -10.604  14.570  68.697  1.00  0.00    -0.255 C  
HETATM    5  C   UNL     1     -10.463  16.004  65.561  1.00  0.00    -0.426 C  
HETATM    6  C   UNL     1     -10.681  10.934  64.895  1.00  0.00    -0.240 C  
HETATM    7  C   UNL     1     -10.459  15.723  68.014  1.00  0.00    -0.270 C  
HETATM    8  C   UNL     1     -10.360  17.180  68.421  1.00  0.00    -0.362 C  
HETATM    9  C   UNL     1     -11.995  14.726  67.380  1.00  0.00    -0.236 C  
HETATM   10  C   UNL     1      -9.932  10.882  66.296  1.00  0.00    -0.274 C  
HETATM   11  C   UNL     1     -10.465   9.607  66.932  1.00  0.00    -0.282 C  
HETATM   12  O   UNL     1      -7.954   7.284  65.746  1.00  0.00    -0.108 OA 
HETATM   13  C   UNL     1     -11.619  12.950  67.211  1.00  0.00    -0.360 C  
HETATM   14  C   UNL     1      -9.840   8.424  66.696  1.00  0.00    -0.343 C  
HETATM   15  O   UNL     1     -12.097  12.307  68.413  1.00  0.00    -0.321 OA 
HETATM   16  C   UNL     1     -10.013  12.367  66.839  1.00  0.00    -0.215 C  
HETATM   17  C   UNL     1      -8.896  12.953  67.897  1.00  0.00    -0.190 C  
HETATM   18  F   UNL     1      -9.540  12.914  65.615  1.00  0.00    -0.239 F  
HETATM   19  H   UNL     1     -11.901  11.382  68.325  1.00  0.00     0.000 HD 
HETATM   20  C   UNL     1      -7.496  12.398  67.576  1.00  0.00    -0.150 C  
HETATM   21  C   UNL     1      -7.536  10.905  67.288  1.00  0.00    -0.104 C  
HETATM   22  C   UNL     1      -8.419  10.608  66.089  1.00  0.00    -0.159 C  
HETATM   23  C   UNL     1      -8.065   9.610  65.257  1.00  0.00    -0.125 C  
HETATM   24  C   UNL     1      -8.555   8.338  65.900  1.00  0.00    -0.150 C  
ENDROOT
BRANCH   4  25
HETATM   25  C   UNL     1     -11.665  15.181  69.855  1.00  0.00    -0.315 C  
HETATM   26  O   UNL     1     -12.788  15.661  69.677  1.00  0.00     0.004 OA 
BRANCH  25  27
HETATM   27  C   UNL     1     -11.161  15.135  71.308  1.00  0.00    -0.275 C  
HETATM   28  O   UNL     1     -12.021  15.871  72.174  1.00  0.00    -0.424 OA 
HETATM   29  H   UNL     1     -11.710  15.843  73.071  1.00  0.00     0.000 HD 
ENDBRANCH  25  27
ENDBRANCH   4  25
TORSDOF 2
ENDMDL
MODEL       24
REMARK 921   NORMALIZED FREE ENERGY PREDICTED BY IDOCK:   -5.82 KCAL/MOL
REMARK 922        TOTAL FREE ENERGY PREDICTED BY IDOCK:   -5.76 KCAL/MOL
REMARK 923 INTER-LIGAND FREE ENERGY PREDICTED BY IDOCK:   -6.43 KCAL/MOL
REMARK 924 INTRA-LIGAND FREE ENERGY PREDICTED BY IDOCK:    0.67 KCAL/MOL
REMARK 927      BINDING AFFINITY PREDICTED BY RF-SCORE:    0.00 PKD
ROOT
HETATM    1  C   UNL     1      -9.966  18.040  66.815  1.00  0.00    -0.346 C  
HETATM    2  C   UNL     1     -11.103  18.097  67.660  1.00  0.00     0.059 C  
HETATM    3  C   UNL     1     -10.084  17.178  68.285  1.00  0.00    -0.314 C  
HETATM    4  C   UNL     1      -8.280  17.173  67.299  1.00  0.00    -0.206 C  
HETATM    5  C   UNL     1     -10.576  17.278  69.873  1.00  0.00     0.314 C  
HETATM    6  C   UNL     1     -11.456  12.979  67.239  1.00  0.00    -0.380 C  
HETATM    7  C   UNL     1      -8.768  17.912  68.316  1.00  0.00    -0.277 C  
HETATM    8  C   UNL     1      -8.377  19.240  68.932  1.00  0.00    -0.339 C  
HETATM    9  C   UNL     1      -8.342  16.114  68.901  1.00  0.00    -0.233 C  
HETATM   10  C   UNL     1     -10.900  13.814  66.007  1.00  0.00    -0.282 C  
HETATM   11  C   UNL     1     -10.207  12.763  65.154  1.00  0.00    -0.297 C  
HETATM   12  O   UNL     1     -12.977  11.848  63.010  1.00  0.00    -0.525 OA 
HETATM   13  C   UNL     1      -8.898  14.866  67.693  1.00  0.00    -0.181 C  
HETATM   14  C   UNL     1     -10.914  12.084  64.213  1.00  0.00    -0.401 C  
HETATM   15  O   UNL     1      -7.751  14.532  66.882  1.00  0.00    -0.324 OA 
HETATM   16  C   UNL     1     -10.287  15.119  66.661  1.00  0.00    -0.274 C  
HETATM   17  C   UNL     1     -10.164  16.525  65.814  1.00  0.00    -0.350 C  
HETATM   18  F   UNL     1     -11.458  15.367  67.429  1.00  0.00    -0.335 F  
HETATM   19  H   UNL     1      -8.040  13.882  66.253  1.00  0.00     0.000 HD 
HETATM   20  C   UNL     1     -11.376  16.710  64.883  1.00  0.00     0.048 C  
HETATM   21  C   UNL     1     -11.720  15.424  64.146  1.00  0.00    -0.109 C  
HETATM   22  C   UNL     1     -12.072  14.317  65.123  1.00  0.00    -0.410 C  
HETATM   23  C   UNL     1     -13.031  13.435  64.781  1.00  0.00    -0.100 C  
HETATM   24  C   UNL     1     -12.359  12.410  63.903  1.00  0.00    -0.508 C  
ENDROOT
BRANCH   4  25
HETATM   25  C   UNL     1      -6.655  17.499  67.606  1.00  0.00    -0.161 C  
HETATM   26  O   UNL     1      -5.977  17.129  68.568  1.00  0.00    -0.142 OA 
BRANCH  25  27
HETATM   27  C   UNL     1      -5.941  18.367  66.556  1.00  0.00    -0.156 C  
HETATM   28  O   UNL     1      -5.357  17.562  65.535  1.00  0.00    -0.201 OA 
HETATM   29  H   UNL     1      -4.916  18.098  64.887  1.00  0.00     0.000 HD 
ENDBRANCH  25  27
ENDBRANCH   4  25
TORSDOF 2
ENDMDL
MODEL       25
REMARK 921   NORMALIZED FREE ENERGY PREDICTED BY IDOCK:   -5.80 KCAL/MOL
REMARK 922        TOTAL FREE ENERGY PREDICTED BY IDOCK:   -5.74 KCAL/MOL
REMARK 923 INTER-LIGAND FREE ENERGY PREDICTED BY IDOCK:   -6.39 KCAL/MOL
REMARK 924 INTRA-LIGAND FREE ENERGY PREDICTED BY IDOCK:    0.66 KCAL/MOL
REMARK 927      BINDING AFFINITY PREDICTED BY RF-SCORE:    0.00 PKD
ROOT
HETATM    1  C   UNL     1     -10.535  15.693  66.889  1.00  0.00    -0.307 C  
HETATM    2  C   UNL     1     -11.580  15.195  67.707  1.00  0.00    -0.303 C  
HETATM    3  C   UNL     1     -10.309  15.230  68.518  1.00  0.00    -0.231 C  
HETATM    4  C   UNL     1      -8.749  16.150  67.544  1.00  0.00    -0.195 C  
HETATM    5  C   UNL     1     -10.969  15.298  70.045  1.00  0.00    -0.306 C  
HETATM    6  C   UNL     1      -8.738  10.971  68.467  1.00  0.00    -0.159 C  
HETATM    7  C   UNL     1      -9.713  16.606  68.369  1.00  0.00    -0.243 C  
HETATM    8  C   UNL     1     -10.282  17.980  68.663  1.00  0.00    -0.385 C  
HETATM    9  C   UNL     1      -8.379  15.595  69.346  1.00  0.00    -0.238 C  
HETATM   10  C   UNL     1      -8.635  11.725  67.072  1.00  0.00    -0.173 C  
HETATM   11  C   UNL     1      -7.344  11.186  66.476  1.00  0.00    -0.129 C  
HETATM   12  O   UNL     1      -8.698   8.388  64.619  1.00  0.00    -0.085 OA 
HETATM   13  C   UNL     1      -7.909  14.072  68.459  1.00  0.00    -0.140 C  
HETATM   14  C   UNL     1      -7.370  10.056  65.721  1.00  0.00    -0.117 C  
HETATM   15  O   UNL     1      -6.694  14.369  67.736  1.00  0.00    -0.150 OA 
HETATM   16  C   UNL     1      -9.019  13.224  67.408  1.00  0.00    -0.215 C  
HETATM   17  C   UNL     1      -9.650  14.223  66.260  1.00  0.00    -0.310 C  
HETATM   18  F   UNL     1     -10.195  12.838  68.108  1.00  0.00    -0.211 F  
HETATM   19  H   UNL     1      -6.450  13.577  67.274  1.00  0.00     0.000 HD 
HETATM   20  C   UNL     1     -10.595  13.449  65.322  1.00  0.00    -0.333 C  
HETATM   21  C   UNL     1      -9.998  12.115  64.900  1.00  0.00    -0.235 C  
HETATM   22  C   UNL     1      -9.743  11.229  66.107  1.00  0.00    -0.251 C  
HETATM   23  C   UNL     1      -9.927   9.900  65.982  1.00  0.00    -0.338 C  
HETATM   24  C   UNL     1      -8.666   9.363  65.356  1.00  0.00    -0.166 C  
ENDROOT
BRANCH   4  25
HETATM   25  C   UNL     1      -7.702  17.454  67.756  1.00  0.00    -0.195 C  
HETATM   26  O   UNL     1      -7.194  17.855  68.806  1.00  0.00    -0.262 OA 
BRANCH  25  27
HETATM   27  C   UNL     1      -7.346  18.234  66.479  1.00  0.00    -0.233 C  
HETATM   28  O   UNL     1      -8.509  18.800  65.880  1.00  0.00    -0.481 OA 
HETATM   29  H   UNL     1      -8.288  19.282  65.092  1.00  0.00     0.000 HD 
ENDBRANCH  25  27
ENDBRANCH   4  25
TORSDOF 2
ENDMDL
MODEL       26
REMARK 921   NORMALIZED FREE ENERGY PREDICTED BY IDOCK:   -5.79 KCAL/MOL
REMARK 922        TOTAL FREE ENERGY PREDICTED BY IDOCK:   -5.73 KCAL/MOL
REMARK 923 INTER-LIGAND FREE ENERGY PREDICTED BY IDOCK:   -8.01 KCAL/MOL
REMARK 924 INTRA-LIGAND FREE ENERGY PREDICTED BY IDOCK:    2.28 KCAL/MOL
REMARK 927      BINDING AFFINITY PREDICTED BY RF-SCORE:    0.00 PKD
ROOT
HETATM    1  C   UNL     1     -11.177  15.538  68.697  1.00  0.00    -0.326 C  
HETATM    2  C   UNL     1     -10.308  15.361  69.804  1.00  0.00    -0.296 C  
HETATM    3  C   UNL     1      -9.476  15.660  68.582  1.00  0.00    -0.204 C  
HETATM    4  C   UNL     1     -10.601  16.176  66.940  1.00  0.00    -0.283 C  
HETATM    5  C   UNL     1      -8.112  16.254  69.329  1.00  0.00    -0.157 C  
HETATM    6  C   UNL     1      -7.964  11.628  67.144  1.00  0.00    -0.163 C  
HETATM    7  C   UNL     1     -10.046  16.897  67.936  1.00  0.00    -0.288 C  
HETATM    8  C   UNL     1     -10.278  18.293  68.478  1.00  0.00    -0.402 C  
HETATM    9  C   UNL     1      -8.697  16.270  66.694  1.00  0.00    -0.294 C  
HETATM   10  C   UNL     1      -9.523  11.857  66.935  1.00  0.00    -0.205 C  
HETATM   11  C   UNL     1      -9.813  11.134  65.629  1.00  0.00    -0.280 C  
HETATM   12  O   UNL     1     -10.687   7.882  66.957  1.00  0.00    -0.339 OA 
HETATM   13  C   UNL     1      -8.978  14.531  66.220  1.00  0.00    -0.042 C  
HETATM   14  C   UNL     1     -10.136   9.815  65.646  1.00  0.00    -0.282 C  
HETATM   15  O   UNL     1      -9.676  14.551  64.956  1.00  0.00    -0.484 OA 
HETATM   16  C   UNL     1      -9.746  13.383  67.292  1.00  0.00    -0.232 C  
HETATM   17  C   UNL     1     -11.205  13.934  67.823  1.00  0.00    -0.316 C  
HETATM   18  F   UNL     1      -9.036  13.272  68.519  1.00  0.00    -0.185 F  
HETATM   19  H   UNL     1      -9.822  13.646  64.709  1.00  0.00     0.000 HD 
HETATM   20  C   UNL     1     -11.883  12.894  68.734  1.00  0.00    -0.353 C  
HETATM   21  C   UNL     1     -11.783  11.490  68.155  1.00  0.00    -0.357 C  
HETATM   22  C   UNL     1     -10.332  11.070  68.000  1.00  0.00    -0.209 C  
HETATM   23  C   UNL     1     -10.007   9.781  68.217  1.00  0.00    -0.175 C  
HETATM   24  C   UNL     1     -10.327   9.050  66.938  1.00  0.00    -0.254 C  
ENDROOT
BRANCH   4  25
HETATM   25  C   UNL     1     -10.778  17.464  65.867  1.00  0.00    -0.123 C  
HETATM   26  O   UNL     1     -11.039  17.416  64.662  1.00  0.00    -1.029 OA 
BRANCH  25  27
HETATM   27  C   UNL     1     -10.586  18.865  66.473  1.00  0.00    -0.389 C  
HETATM   28  O   UNL     1     -10.032  19.766  65.518  1.00  0.00    -0.346 OA 
HETATM   29  H   UNL     1      -9.913  20.631  65.892  1.00  0.00     0.000 HD 
ENDBRANCH  25  27
ENDBRANCH   4  25
TORSDOF 2
ENDMDL
MODEL       27
REMARK 921   NORMALIZED FREE ENERGY PREDICTED BY IDOCK:   -5.75 KCAL/MOL
REMARK 922        TOTAL FREE ENERGY PREDICTED BY IDOCK:   -5.68 KCAL/MOL
REMARK 923 INTER-LIGAND FREE ENERGY PREDICTED BY IDOCK:   -6.29 KCAL/MOL
REMARK 924 INTRA-LIGAND FREE ENERGY PREDICTED BY IDOCK:    0.62 KCAL/MOL
REMARK 927      BINDING AFFINITY PREDICTED BY RF-SCORE:    0.00 PKD
ROOT
HETATM    1  C   UNL     1      -8.516  12.307  67.215  1.00  0.00    -0.181 C  
HETATM    2  C   UNL     1      -8.539  11.321  66.197  1.00  0.00    -0.156 C  
HETATM    3  C   UNL     1      -9.957  11.600  66.631  1.00  0.00    -0.230 C  
HETATM    4  C   UNL     1     -10.111  13.180  67.937  1.00  0.00    -0.232 C  
HETATM    5  C   UNL     1     -10.757  11.104  65.257  1.00  0.00    -0.271 C  
HETATM    6  C   UNL     1     -11.021   8.235  69.487  1.00  0.00    -0.051 C  
HETATM    7  C   UNL     1     -10.159  13.093  66.592  1.00  0.00    -0.264 C  
HETATM    8  C   UNL     1      -9.996  14.096  65.467  1.00  0.00    -0.323 C  
HETATM    9  C   UNL     1     -11.780  12.398  67.394  1.00  0.00    -0.417 C  
HETATM   10  C   UNL     1      -9.957   9.269  70.058  1.00  0.00    -0.238 C  
HETATM   11  C   UNL     1     -10.294   9.339  71.539  1.00  0.00    -0.364 C  
HETATM   12  O   UNL     1      -8.092   6.733  72.750  1.00  0.00    -0.106 OA 
HETATM   13  C   UNL     1     -11.418  11.356  68.846  1.00  0.00    -0.298 C  
HETATM   14  C   UNL     1      -9.719   8.463  72.403  1.00  0.00    -0.376 C  
HETATM   15  O   UNL     1     -11.581  12.194  70.011  1.00  0.00    -0.468 OA 
HETATM   16  C   UNL     1      -9.936  10.439  68.991  1.00  0.00    -0.214 C  
HETATM   17  C   UNL     1      -8.611  11.396  68.796  1.00  0.00    -0.085 C  
HETATM   18  F   UNL     1      -9.782   9.538  67.903  1.00  0.00    -0.150 F  
HETATM   19  H   UNL     1     -11.392  11.652  70.767  1.00  0.00     0.000 HD 
HETATM   20  C   UNL     1      -7.317  10.579  68.966  1.00  0.00    -0.103 C  
HETATM   21  C   UNL     1      -7.393   9.649  70.168  1.00  0.00    -0.141 C  
HETATM   22  C   UNL     1      -8.532   8.657  70.014  1.00  0.00    -0.130 C  
HETATM   23  C   UNL     1      -8.366   7.406  70.485  1.00  0.00    -0.132 C  
HETATM   24  C   UNL     1      -8.661   7.474  71.961  1.00  0.00    -0.111 C  
ENDROOT
BRANCH   4  25
HETATM   25  C   UNL     1     -10.876  14.678  68.045  1.00  0.00    -0.257 C  
HETATM   26  O   UNL     1     -11.829  15.092  67.379  1.00  0.00    -0.264 OA 
BRANCH  25  27
HETATM   27  C   UNL     1     -10.307  15.640  69.102  1.00  0.00    -0.241 C  
HETATM   28  O   UNL     1     -10.148  14.988  70.358  1.00  0.00    -0.491 OA 
HETATM   29  H   UNL     1      -9.797  15.582  71.011  1.00  0.00     0.000 HD 
ENDBRANCH  25  27
ENDBRANCH   4  25
TORSDOF 2
ENDMDL
MODEL       28
REMARK 921   NORMALIZED FREE ENERGY PREDICTED BY IDOCK:   -5.73 KCAL/MOL
REMARK 922        TOTAL FREE ENERGY PREDICTED BY IDOCK:   -5.66 KCAL/MOL
REMARK 923 INTER-LIGAND FREE ENERGY PREDICTED BY IDOCK:   -6.48 KCAL/MOL
REMARK 924 INTRA-LIGAND FREE ENERGY PREDICTED BY IDOCK:    0.82 KCAL/MOL
REMARK 927      BINDING AFFINITY PREDICTED BY RF-SCORE:    0.00 PKD
ROOT
HETATM    1  C   UNL     1     -10.770  13.576  69.288  1.00  0.00    -0.039 C  
HETATM    2  C   UNL     1     -12.090  13.618  68.775  1.00  0.00    -0.332 C  
HETATM    3  C   UNL     1     -11.149  13.253  67.654  1.00  0.00    -0.292 C  
HETATM    4  C   UNL     1      -9.221  12.919  68.288  1.00  0.00    -0.187 C  
HETATM    5  C   UNL     1     -12.225  12.479  66.646  1.00  0.00    -0.012 C  
HETATM    6  C   UNL     1     -10.465  17.109  65.359  1.00  0.00    -0.096 C  
HETATM    7  C   UNL     1     -10.290  12.111  68.136  1.00  0.00    -0.214 C  
HETATM    8  C   UNL     1     -10.655  10.739  68.667  1.00  0.00    -0.226 C  
HETATM    9  C   UNL     1      -9.538  12.603  66.419  1.00  0.00    -0.248 C  
HETATM   10  C   UNL     1      -9.796  17.075  66.800  1.00  0.00    -0.283 C  
HETATM   11  C   UNL     1      -8.509  17.862  66.608  1.00  0.00    -0.281 C  
HETATM   12  O   UNL     1      -9.718  21.160  67.483  1.00  0.00    -0.333 OA 
HETATM   13  C   UNL     1      -9.110  14.375  66.357  1.00  0.00    -0.160 C  
HETATM   14  C   UNL     1      -8.510  19.210  66.779  1.00  0.00    -0.315 C  
HETATM   15  O   UNL     1      -7.698  14.473  66.646  1.00  0.00    -0.216 OA 
HETATM   16  C   UNL     1      -9.978  15.578  67.282  1.00  0.00    -0.238 C  
HETATM   17  C   UNL     1     -10.024  15.194  68.882  1.00  0.00    -0.227 C  
HETATM   18  F   UNL     1     -11.363  15.571  66.961  1.00  0.00    -0.314 F  
HETATM   19  H   UNL     1      -7.475  15.395  66.614  1.00  0.00     0.000 HD 
HETATM   20  C   UNL     1     -10.759  16.283  69.685  1.00  0.00    -0.338 C  
HETATM   21  C   UNL     1     -10.321  17.680  69.267  1.00  0.00    -0.105 C  
HETATM   22  C   UNL     1     -10.623  17.926  67.800  1.00  0.00    -0.399 C  
HETATM   23  C   UNL     1     -11.004  19.160  67.417  1.00  0.00    -0.419 C  
HETATM   24  C   UNL     1      -9.735  19.958  67.262  1.00  0.00    -0.387 C  
ENDROOT
BRANCH   4  25
HETATM   25  C   UNL     1      -8.067  11.691  68.275  1.00  0.00    -0.150 C  
HETATM   26  O   UNL     1      -8.042  10.682  67.566  1.00  0.00    -0.110 OA 
BRANCH  25  27
HETATM   27  C   UNL     1      -6.911  11.856  69.277  1.00  0.00    -0.080 C  
HETATM   28  O   UNL     1      -7.023  10.924  70.350  1.00  0.00    -0.479 OA 
HETATM   29  H   UNL     1      -6.310  11.026  70.968  1.00  0.00     0.000 HD 
ENDBRANCH  25  27
ENDBRANCH   4  25
TORSDOF 2
ENDMDL
MODEL       29
REMARK 921   NORMALIZED FREE ENERGY PREDICTED BY IDOCK:   -5.70 KCAL/MOL
REMARK 922        TOTAL FREE ENERGY PREDICTED BY IDOCK:   -5.63 KCAL/MOL
REMARK 923 INTER-LIGAND FREE ENERGY PREDICTED BY IDOCK:   -6.48 KCAL/MOL
REMARK 924 INTRA-LIGAND FREE ENERGY PREDICTED BY IDOCK:    0.86 KCAL/MOL
REMARK 927      BINDING AFFINITY PREDICTED BY RF-SCORE:    0.00 PKD
ROOT
HETATM    1  C   UNL     1      -8.479   7.852  65.171  1.00  0.00    -0.096 C  
HETATM    2  C   UNL     1      -7.172   8.383  65.306  1.00  0.00    -0.082 C  
HETATM    3  C   UNL     1      -7.732   8.127  66.683  1.00  0.00    -0.094 C  
HETATM    4  C   UNL     1      -9.533   7.135  66.656  1.00  0.00    -0.219 C  
HETATM    5  C   UNL     1      -6.304   7.986  67.528  1.00  0.00    -0.056 C  
HETATM    6  C   UNL     1      -9.189  12.167  68.153  1.00  0.00    -0.197 C  
HETATM    7  C   UNL     1      -8.254   6.713  66.706  1.00  0.00    -0.114 C  
HETATM    8  C   UNL     1      -7.572   5.390  66.420  1.00  0.00    -0.088 C  
HETATM    9  C   UNL     1      -8.805   7.469  68.403  1.00  0.00    -0.126 C  
HETATM   10  C   UNL     1     -10.058  11.544  66.978  1.00  0.00    -0.237 C  
HETATM   11  C   UNL     1     -11.473  11.990  67.312  1.00  0.00    -0.403 C  
HETATM   12  O   UNL     1     -11.553  15.089  65.441  1.00  0.00    -0.318 OA 
HETATM   13  C   UNL     1      -9.757   9.008  68.174  1.00  0.00    -0.152 C  
HETATM   14  C   UNL     1     -11.931  13.183  66.850  1.00  0.00    -0.421 C  
HETATM   15  O   UNL     1     -11.154   8.647  68.243  1.00  0.00    -0.446 OA 
HETATM   16  C   UNL     1      -9.497  10.073  66.813  1.00  0.00    -0.168 C  
HETATM   17  C   UNL     1      -9.617   9.267  65.382  1.00  0.00    -0.237 C  
HETATM   18  F   UNL     1      -8.148  10.519  66.761  1.00  0.00    -0.114 F  
HETATM   19  H   UNL     1     -11.650   9.448  68.124  1.00  0.00     0.000 HD 
HETATM   20  C   UNL     1      -9.423  10.228  64.195  1.00  0.00    -0.358 C  
HETATM   21  C   UNL     1     -10.201  11.522  64.388  1.00  0.00    -0.350 C  
HETATM   22  C   UNL     1      -9.737  12.252  65.635  1.00  0.00    -0.205 C  
HETATM   23  C   UNL     1      -9.707  13.599  65.621  1.00  0.00    -0.119 C  
HETATM   24  C   UNL     1     -11.115  14.049  65.914  1.00  0.00    -0.301 C  
ENDROOT
BRANCH   4  25
HETATM   25  C   UNL     1     -10.214   5.708  67.239  1.00  0.00    -0.206 C  
HETATM   26  O   UNL     1     -10.614   5.470  68.382  1.00  0.00    -0.197 OA 
BRANCH  25  27
HETATM   27  C   UNL     1     -10.346   4.568  66.214  1.00  0.00    -0.191 C  
HETATM   28  O   UNL     1     -11.461   4.777  65.352  1.00  0.00    -0.990 OA 
HETATM   29  H   UNL     1     -11.543   4.073  64.720  1.00  0.00     0.000 HD 
ENDBRANCH  25  27
ENDBRANCH   4  25
TORSDOF 2
ENDMDL
MODEL       30
REMARK 921   NORMALIZED FREE ENERGY PREDICTED BY IDOCK:   -5.65 KCAL/MOL
REMARK 922        TOTAL FREE ENERGY PREDICTED BY IDOCK:   -5.57 KCAL/MOL
REMARK 923 INTER-LIGAND FREE ENERGY PREDICTED BY IDOCK:   -6.26 KCAL/MOL
REMARK 924 INTRA-LIGAND FREE ENERGY PREDICTED BY IDOCK:    0.69 KCAL/MOL
REMARK 927      BINDING AFFINITY PREDICTED BY RF-SCORE:    0.00 PKD
ROOT
HETATM    1  C   UNL     1     -11.217  14.386  66.537  1.00  0.00    -0.340 C  
HETATM    2  C   UNL     1     -12.094  13.666  67.388  1.00  0.00    -0.375 C  
HETATM    3  C   UNL     1     -10.823  13.961  68.145  1.00  0.00    -0.262 C  
HETATM    4  C   UNL     1      -9.541  15.205  67.127  1.00  0.00    -0.224 C  
HETATM    5  C   UNL     1     -11.413  13.868  69.699  1.00  0.00    -0.310 C  
HETATM    6  C   UNL     1      -8.387  10.136  67.935  1.00  0.00    -0.117 C  
HETATM    7  C   UNL     1     -10.541  15.435  68.002  1.00  0.00    -0.263 C  
HETATM    8  C   UNL     1     -11.375  16.652  68.349  1.00  0.00    -0.142 C  
HETATM    9  C   UNL     1      -8.979  14.719  68.899  1.00  0.00    -0.167 C  
HETATM   10  C   UNL     1      -8.510  10.913  66.554  1.00  0.00    -0.159 C  
HETATM   11  C   UNL     1      -7.163  10.668  65.893  1.00  0.00    -0.119 C  
HETATM   12  O   UNL     1      -7.973   7.669  64.033  1.00  0.00    -0.134 OA 
HETATM   13  C   UNL     1      -8.238  13.343  67.960  1.00  0.00    -0.161 C  
HETATM   14  C   UNL     1      -6.983   9.569  65.115  1.00  0.00    -0.100 C  
HETATM   15  O   UNL     1      -7.148  13.901  67.194  1.00  0.00    -0.366 OA 
HETATM   16  C   UNL     1      -9.189  12.290  66.938  1.00  0.00    -0.209 C  
HETATM   17  C   UNL     1     -10.068  13.146  65.840  1.00  0.00    -0.292 C  
HETATM   18  F   UNL     1     -10.223  11.654  67.678  1.00  0.00    -0.186 F  
HETATM   19  H   UNL     1      -6.761  13.185  66.705  1.00  0.00     0.000 HD 
HETATM   20  C   UNL     1     -10.869  12.201  64.926  1.00  0.00    -0.352 C  
HETATM   21  C   UNL     1     -10.022  11.030  64.450  1.00  0.00    -0.368 C  
HETATM   22  C   UNL     1      -9.531  10.204  65.625  1.00  0.00    -0.275 C  
HETATM   23  C   UNL     1      -9.433   8.868  65.480  1.00  0.00    -0.162 C  
HETATM   24  C   UNL     1      -8.116   8.620  64.789  1.00  0.00    -0.149 C  
ENDROOT
BRANCH   4  25
HETATM   25  C   UNL     1      -8.786  16.699  67.323  1.00  0.00    -0.191 C  
HETATM   26  O   UNL     1      -8.176  17.116  68.312  1.00  0.00    -0.213 OA 
BRANCH  25  27
HETATM   27  C   UNL     1      -8.878  17.654  66.120  1.00  0.00    -0.105 C  
HETATM   28  O   UNL     1      -7.594  18.161  65.767  1.00  0.00    -0.519 OA 
HETATM   29  H   UNL     1      -7.651  18.750  65.025  1.00  0.00     0.000 HD 
ENDBRANCH  25  27
ENDBRANCH   4  25
TORSDOF 2
ENDMDL
MODEL       31
REMARK 921   NORMALIZED FREE ENERGY PREDICTED BY IDOCK:   -5.61 KCAL/MOL
REMARK 922        TOTAL FREE ENERGY PREDICTED BY IDOCK:   -5.52 KCAL/MOL
REMARK 923 INTER-LIGAND FREE ENERGY PREDICTED BY IDOCK:   -6.17 KCAL/MOL
REMARK 924 INTRA-LIGAND FREE ENERGY PREDICTED BY IDOCK:    0.65 KCAL/MOL
REMARK 927      BINDING AFFINITY PREDICTED BY RF-SCORE:    0.00 PKD
ROOT
HETATM    1  C   UNL     1      -8.237  11.300  68.765  1.00  0.00    -0.122 C  
HETATM    2  C   UNL     1      -7.427  10.555  67.871  1.00  0.00    -0.091 C  
HETATM    3  C   UNL     1      -8.819  10.649  67.297  1.00  0.00    -0.137 C  
HETATM    4  C   UNL     1     -10.055  11.900  68.363  1.00  0.00    -0.206 C  
HETATM    5  C   UNL     1      -8.459  10.413  65.688  1.00  0.00    -0.169 C  
HETATM    6  C   UNL     1     -10.802   6.692  68.309  1.00  0.00    -0.322 C  
HETATM    7  C   UNL     1      -9.224  12.101  67.320  1.00  0.00    -0.185 C  
HETATM    8  C   UNL     1      -8.576  13.330  66.714  1.00  0.00    -0.041 C  
HETATM    9  C   UNL     1     -10.821  11.154  66.766  1.00  0.00    -0.322 C  
HETATM   10  C   UNL     1     -10.554   7.642  69.559  1.00  0.00    -0.227 C  
HETATM   11  C   UNL     1     -11.758   7.371  70.449  1.00  0.00    -0.163 C  
HETATM   12  O   UNL     1     -10.384   4.703  72.474  1.00  0.00    -0.188 OA 
HETATM   13  C   UNL     1     -11.274   9.849  67.956  1.00  0.00    -0.061 C  
HETATM   14  C   UNL     1     -11.709   6.366  71.361  1.00  0.00    -0.364 C  
HETATM   15  O   UNL     1     -12.289  10.406  68.820  1.00  0.00    -0.691 OA 
HETATM   16  C   UNL     1     -10.081   9.012  68.924  1.00  0.00    -0.196 C  
HETATM   17  C   UNL     1      -9.139  10.067  69.767  1.00  0.00    -0.219 C  
HETATM   18  F   UNL     1      -9.110   8.376  68.103  1.00  0.00    -0.136 F  
HETATM   19  H   UNL     1     -12.525   9.726  69.439  1.00  0.00     0.000 HD 
HETATM   20  C   UNL     1      -8.121   9.311  70.641  1.00  0.00    -0.207 C  
HETATM   21  C   UNL     1      -8.767   8.142  71.371  1.00  0.00    -0.179 C  
HETATM   22  C   UNL     1      -9.342   7.140  70.387  1.00  0.00    -0.159 C  
HETATM   23  C   UNL     1      -9.283   5.829  70.692  1.00  0.00    -0.172 C  
HETATM   24  C   UNL     1     -10.451   5.561  71.605  1.00  0.00    -0.231 C  
ENDROOT
BRANCH   4  25
HETATM   25  C   UNL     1     -10.976  13.291  68.126  1.00  0.00    -0.255 C  
HETATM   26  O   UNL     1     -11.120  13.937  67.084  1.00  0.00    -0.290 OA 
BRANCH  25  27
HETATM   27  C   UNL     1     -11.721  13.815  69.366  1.00  0.00    -0.325 C  
HETATM   28  O   UNL     1     -11.865  12.792  70.349  1.00  0.00    -0.516 OA 
HETATM   29  H   UNL     1     -12.325  13.115  71.114  1.00  0.00     0.000 HD 
ENDBRANCH  25  27
ENDBRANCH   4  25
TORSDOF 2
ENDMDL
MODEL       32
REMARK 921   NORMALIZED FREE ENERGY PREDICTED BY IDOCK:   -5.60 KCAL/MOL
REMARK 922        TOTAL FREE ENERGY PREDICTED BY IDOCK:   -5.51 KCAL/MOL
REMARK 923 INTER-LIGAND FREE ENERGY PREDICTED BY IDOCK:   -6.39 KCAL/MOL
REMARK 924 INTRA-LIGAND FREE ENERGY PREDICTED BY IDOCK:    0.88 KCAL/MOL
REMARK 927      BINDING AFFINITY PREDICTED BY RF-SCORE:    0.00 PKD
ROOT
HETATM    1  C   UNL     1     -11.902  11.956  67.648  1.00  0.00    -0.265 C  
HETATM    2  C   UNL     1     -11.820  12.863  68.734  1.00  0.00    -0.353 C  
HETATM    3  C   UNL     1     -10.741  13.206  67.737  1.00  0.00    -0.252 C  
HETATM    4  C   UNL     1     -10.876  12.129  65.990  1.00  0.00    -0.318 C  
HETATM    5  C   UNL     1     -10.507  14.805  68.138  1.00  0.00    -0.239 C  
HETATM    6  C   UNL     1      -6.942  11.355  69.397  1.00  0.00    -0.092 C  
HETATM    7  C   UNL     1     -11.392  13.312  66.381  1.00  0.00    -0.341 C  
HETATM    8  C   UNL     1     -12.532  14.178  65.884  1.00  0.00    -0.479 C  
HETATM    9  C   UNL     1      -9.492  13.461  66.028  1.00  0.00    -0.105 C  
HETATM   10  C   UNL     1      -8.005  10.302  68.861  1.00  0.00    -0.113 C  
HETATM   11  C   UNL     1      -7.141   9.198  68.274  1.00  0.00    -0.077 C  
HETATM   12  O   UNL     1      -6.846   7.086  71.200  1.00  0.00    -0.058 OA 
HETATM   13  C   UNL     1      -8.568  12.047  66.717  1.00  0.00    -0.177 C  
HETATM   14  C   UNL     1      -6.719   8.178  69.067  1.00  0.00    -0.048 C  
HETATM   15  O   UNL     1      -8.373  11.111  65.634  1.00  0.00    -0.324 OA 
HETATM   16  C   UNL     1      -9.104  11.187  68.141  1.00  0.00    -0.159 C  
HETATM   17  C   UNL     1     -10.656  10.661  67.983  1.00  0.00    -0.248 C  
HETATM   18  F   UNL     1      -9.227  12.063  69.254  1.00  0.00     0.144 F  
HETATM   19  H   UNL     1      -7.892  10.375  65.993  1.00  0.00     0.000 HD 
HETATM   20  C   UNL     1     -11.097   9.873  69.230  1.00  0.00    -0.220 C  
HETATM   21  C   UNL     1     -10.023   8.895  69.685  1.00  0.00    -0.193 C  
HETATM   22  C   UNL     1      -8.743   9.627  70.047  1.00  0.00    -0.256 C  
HETATM   23  C   UNL     1      -8.001   9.162  71.071  1.00  0.00    -0.166 C  
HETATM   24  C   UNL     1      -7.169   8.040  70.506  1.00  0.00    -0.052 C  
ENDROOT
BRANCH   4  25
HETATM   25  C   UNL     1     -11.054  12.396  64.336  1.00  0.00    -0.333 C  
HETATM   26  O   UNL     1     -10.193  12.755  63.529  1.00  0.00    -0.367 OA 
BRANCH  25  27
HETATM   27  C   UNL     1     -12.468  12.166  63.774  1.00  0.00    -0.514 C  
HETATM   28  O   UNL     1     -12.444  11.251  62.681  1.00  0.00    -0.783 OA 
HETATM   29  H   UNL     1     -13.317  11.109  62.335  1.00  0.00     0.000 HD 
ENDBRANCH  25  27
ENDBRANCH   4  25
TORSDOF 2
ENDMDL
MODEL       33
REMARK 921   NORMALIZED FREE ENERGY PREDICTED BY IDOCK:   -5.59 KCAL/MOL
REMARK 922        TOTAL FREE ENERGY PREDICTED BY IDOCK:   -5.50 KCAL/MOL
REMARK 923 INTER-LIGAND FREE ENERGY PREDICTED BY IDOCK:   -6.27 KCAL/MOL
REMARK 924 INTRA-LIGAND FREE ENERGY PREDICTED BY IDOCK:    0.76 KCAL/MOL
REMARK 927      BINDING AFFINITY PREDICTED BY RF-SCORE:    0.00 PKD
ROOT
HETATM    1  C   UNL     1      -9.257   7.876  66.385  1.00  0.00    -0.241 C  
HETATM    2  C   UNL     1      -8.087   8.614  66.695  1.00  0.00    -0.100 C  
HETATM    3  C   UNL     1      -8.149   7.408  67.598  1.00  0.00    -0.114 C  
HETATM    4  C   UNL     1      -9.666   6.107  67.115  1.00  0.00    -0.156 C  
HETATM    5  C   UNL     1      -6.530   7.270  67.967  1.00  0.00    -0.045 C  
HETATM    6  C   UNL     1      -9.787   8.946  71.542  1.00  0.00    -0.384 C  
HETATM    7  C   UNL     1      -8.378   6.199  66.727  1.00  0.00    -0.110 C  
HETATM    8  C   UNL     1      -7.590   5.645  65.557  1.00  0.00    -0.083 C  
HETATM    9  C   UNL     1      -8.514   5.531  68.541  1.00  0.00    -0.100 C  
HETATM   10  C   UNL     1     -10.845   8.919  70.358  1.00  0.00    -0.269 C  
HETATM   11  C   UNL     1     -12.148   8.566  71.058  1.00  0.00    -0.231 C  
HETATM   12  O   UNL     1     -13.343  11.910  71.764  1.00  0.00    -0.403 OA 
HETATM   13  C   UNL     1      -9.749   6.463  69.508  1.00  0.00    -0.150 C  
HETATM   14  C   UNL     1     -12.930   9.554  71.567  1.00  0.00    -0.471 C  
HETATM   15  O   UNL     1     -10.971   5.695  69.472  1.00  0.00    -0.334 OA 
HETATM   16  C   UNL     1     -10.108   8.144  69.190  1.00  0.00    -0.202 C  
HETATM   17  C   UNL     1     -10.510   8.390  67.613  1.00  0.00    -0.307 C  
HETATM   18  F   UNL     1      -8.941   8.948  69.301  1.00  0.00    -0.136 F  
HETATM   19  H   UNL     1     -11.615   6.179  69.975  1.00  0.00     0.000 HD 
HETATM   20  C   UNL     1     -10.860   9.868  67.362  1.00  0.00    -0.293 C  
HETATM   21  C   UNL     1     -11.761  10.426  68.454  1.00  0.00     0.001 C  
HETATM   22  C   UNL     1     -11.078  10.351  69.808  1.00  0.00    -0.352 C  
HETATM   23  C   UNL     1     -11.295  11.342  70.696  1.00  0.00     0.260 C  
HETATM   24  C   UNL     1     -12.605  11.019  71.368  1.00  0.00    -0.393 C  
ENDROOT
BRANCH   4  25
HETATM   25  C   UNL     1      -9.872   4.496  66.664  1.00  0.00    -0.225 C  
HETATM   26  O   UNL     1      -9.709   3.488  67.357  1.00  0.00    -0.180 OA 
BRANCH  25  27
HETATM   27  C   UNL     1     -10.314   4.264  65.209  1.00  0.00    -0.201 C  
HETATM   28  O   UNL     1     -11.680   4.625  65.022  1.00  0.00    -1.047 OA 
HETATM   29  H   UNL     1     -11.953   4.481  64.124  1.00  0.00     0.000 HD 
ENDBRANCH  25  27
ENDBRANCH   4  25
TORSDOF 2
ENDMDL
MODEL       34
REMARK 921   NORMALIZED FREE ENERGY PREDICTED BY IDOCK:   -5.57 KCAL/MOL
REMARK 922        TOTAL FREE ENERGY PREDICTED BY IDOCK:   -5.48 KCAL/MOL
REMARK 923 INTER-LIGAND FREE ENERGY PREDICTED BY IDOCK:   -6.22 KCAL/MOL
REMARK 924 INTRA-LIGAND FREE ENERGY PREDICTED BY IDOCK:    0.74 KCAL/MOL
REMARK 927      BINDING AFFINITY PREDICTED BY RF-SCORE:    0.00 PKD
ROOT
HETATM    1  C   UNL     1      -9.835  17.708  65.971  1.00  0.00    -0.184 C  
HETATM    2  C   UNL     1     -10.884  17.732  66.924  1.00  0.00    -0.048 C  
HETATM    3  C   UNL     1      -9.570  17.609  67.656  1.00  0.00    -0.268 C  
HETATM    4  C   UNL     1      -7.934  17.799  66.425  1.00  0.00    -0.306 C  
HETATM    5  C   UNL     1     -10.031  18.226  69.133  1.00  0.00    -0.202 C  
HETATM    6  C   UNL     1      -9.168  13.202  68.668  1.00  0.00     0.026 C  
HETATM    7  C   UNL     1      -8.658  18.689  67.134  1.00  0.00    -0.277 C  
HETATM    8  C   UNL     1      -8.819  20.195  67.077  1.00  0.00    -0.439 C  
HETATM    9  C   UNL     1      -7.538  17.617  68.296  1.00  0.00    -0.257 C  
HETATM   10  C   UNL     1      -9.017  13.537  67.122  1.00  0.00    -0.230 C  
HETATM   11  C   UNL     1      -7.977  12.535  66.646  1.00  0.00     0.186 C  
HETATM   12  O   UNL     1     -10.191   9.856  65.629  1.00  0.00    -0.269 OA 
HETATM   13  C   UNL     1      -7.571  15.856  67.823  1.00  0.00    -0.140 C  
HETATM   14  C   UNL     1      -8.372  11.308  66.213  1.00  0.00    -0.142 C  
HETATM   15  O   UNL     1      -6.401  15.622  67.009  1.00  0.00    -0.298 OA 
HETATM   16  C   UNL     1      -8.964  15.119  67.067  1.00  0.00    -0.234 C  
HETATM   17  C   UNL     1      -9.429  15.943  65.720  1.00  0.00    -0.316 C  
HETATM   18  F   UNL     1     -10.122  15.255  67.881  1.00  0.00    -0.225 F  
HETATM   19  H   UNL     1      -6.418  14.705  66.762  1.00  0.00     0.000 HD 
HETATM   20  C   UNL     1     -10.632  15.258  65.047  1.00  0.00    -0.444 C  
HETATM   21  C   UNL     1     -10.448  13.749  64.969  1.00  0.00    -0.418 C  
HETATM   22  C   UNL     1     -10.308  13.148  66.356  1.00  0.00    -0.289 C  
HETATM   23  C   UNL     1     -10.841  11.933  66.589  1.00  0.00    -0.315 C  
HETATM   24  C   UNL     1      -9.833  10.933  66.084  1.00  0.00    -0.222 C  
ENDROOT
BRANCH   4  25
HETATM   25  C   UNL     1      -6.570  18.773  66.255  1.00  0.00    -0.211 C  
HETATM   26  O   UNL     1      -5.657  18.947  67.066  1.00  0.00    -0.149 OA 
BRANCH  25  27
HETATM   27  C   UNL     1      -6.461  19.538  64.924  1.00  0.00    -0.212 C  
HETATM   28  O   UNL     1      -5.812  18.750  63.930  1.00  0.00    -0.337 OA 
HETATM   29  H   UNL     1      -5.744  19.222  63.109  1.00  0.00     0.000 HD 
ENDBRANCH  25  27
ENDBRANCH   4  25
TORSDOF 2
ENDMDL
MODEL       35
REMARK 921   NORMALIZED FREE ENERGY PREDICTED BY IDOCK:   -5.57 KCAL/MOL
REMARK 922        TOTAL FREE ENERGY PREDICTED BY IDOCK:   -5.48 KCAL/MOL
REMARK 923 INTER-LIGAND FREE ENERGY PREDICTED BY IDOCK:   -6.23 KCAL/MOL
REMARK 924 INTRA-LIGAND FREE ENERGY PREDICTED BY IDOCK:    0.75 KCAL/MOL
REMARK 927      BINDING AFFINITY PREDICTED BY RF-SCORE:    0.00 PKD
ROOT
HETATM    1  C   UNL     1      -7.796  10.437  69.208  1.00  0.00    -0.147 C  
HETATM    2  C   UNL     1      -7.004   9.434  68.594  1.00  0.00    -0.065 C  
HETATM    3  C   UNL     1      -8.259   9.623  67.779  1.00  0.00    -0.114 C  
HETATM    4  C   UNL     1      -9.404  11.212  68.406  1.00  0.00    -0.185 C  
HETATM    5  C   UNL     1      -7.711   9.052  66.313  1.00  0.00    -0.095 C  
HETATM    6  C   UNL     1     -11.021   6.244  69.025  1.00  0.00    -0.437 C  
HETATM    7  C   UNL     1      -8.405  11.099  67.507  1.00  0.00    -0.122 C  
HETATM    8  C   UNL     1      -7.473  12.091  66.841  1.00  0.00    -0.051 C  
HETATM    9  C   UNL     1     -10.042  10.309  66.834  1.00  0.00    -0.274 C  
HETATM   10  C   UNL     1     -10.801   7.356  70.138  1.00  0.00    -0.270 C  
HETATM   11  C   UNL     1     -12.151   7.428  70.835  1.00  0.00    -0.290 C  
HETATM   12  O   UNL     1     -11.573   4.997  73.455  1.00  0.00    -0.291 OA 
HETATM   13  C   UNL     1     -10.884   9.319  68.114  1.00  0.00    -0.090 C  
HETATM   14  C   UNL     1     -12.413   6.607  71.885  1.00  0.00    -0.334 C  
HETATM   15  O   UNL     1     -11.904  10.164  68.690  1.00  0.00    -0.616 OA 
HETATM   16  C   UNL     1     -10.010   8.507  69.392  1.00  0.00    -0.194 C  
HETATM   17  C   UNL     1      -9.035   9.548  70.214  1.00  0.00    -0.288 C  
HETATM   18  F   UNL     1      -9.052   7.600  68.862  1.00  0.00    -0.140 F  
HETATM   19  H   UNL     1     -12.343   9.649  69.356  1.00  0.00     0.000 HD 
HETATM   20  C   UNL     1      -8.304   8.823  71.359  1.00  0.00    -0.222 C  
HETATM   21  C   UNL     1      -9.242   7.910  72.136  1.00  0.00    -0.213 C  
HETATM   22  C   UNL     1      -9.829   6.841  71.232  1.00  0.00    -0.186 C  
HETATM   23  C   UNL     1     -10.043   5.612  71.741  1.00  0.00    -0.240 C  
HETATM   24  C   UNL     1     -11.362   5.685  72.466  1.00  0.00    -0.294 C  
ENDROOT
BRANCH   4  25
HETATM   25  C   UNL     1     -10.026  12.656  67.800  1.00  0.00    -0.218 C  
HETATM   26  O   UNL     1     -10.848  12.806  66.892  1.00  0.00    -0.247 OA 
BRANCH  25  27
HETATM   27  C   UNL     1      -9.495  13.939  68.464  1.00  0.00    -0.174 C  
HETATM   28  O   UNL     1     -10.308  14.318  69.572  1.00  0.00    -0.431 OA 
HETATM   29  H   UNL     1      -9.980  15.110  69.982  1.00  0.00     0.000 HD 
ENDBRANCH  25  27
ENDBRANCH   4  25
TORSDOF 2
ENDMDL
MODEL       36
REMARK 921   NORMALIZED FREE ENERGY PREDICTED BY IDOCK:   -5.55 KCAL/MOL
REMARK 922        TOTAL FREE ENERGY PREDICTED BY IDOCK:   -5.46 KCAL/MOL
REMARK 923 INTER-LIGAND FREE ENERGY PREDICTED BY IDOCK:   -6.54 KCAL/MOL
REMARK 924 INTRA-LIGAND FREE ENERGY PREDICTED BY IDOCK:    1.08 KCAL/MOL
REMARK 927      BINDING AFFINITY PREDICTED BY RF-SCORE:    0.00 PKD
ROOT
HETATM    1  C   UNL     1     -11.227  11.810  65.946  1.00  0.00    -0.345 C  
HETATM    2  C   UNL     1     -10.154  11.751  65.021  1.00  0.00    -0.302 C  
HETATM    3  C   UNL     1      -9.589  11.710  66.419  1.00  0.00    -0.236 C  
HETATM    4  C   UNL     1     -11.031  11.551  67.876  1.00  0.00    -0.287 C  
HETATM    5  C   UNL     1      -8.133  10.969  66.094  1.00  0.00    -0.141 C  
HETATM    6  C   UNL     1      -8.206  15.949  67.276  1.00  0.00    -0.211 C  
HETATM    7  C   UNL     1     -10.327  10.637  67.177  1.00  0.00    -0.275 C  
HETATM    8  C   UNL     1     -10.511   9.159  66.896  1.00  0.00    -0.287 C  
HETATM    9  C   UNL     1      -9.217  11.505  68.508  1.00  0.00    -0.167 C  
HETATM   10  C   UNL     1      -9.784  15.773  67.214  1.00  0.00    -0.223 C  
HETATM   11  C   UNL     1     -10.288  16.753  68.261  1.00  0.00    -0.319 C  
HETATM   12  O   UNL     1     -10.744  19.660  66.152  1.00  0.00    -0.464 OA 
HETATM   13  C   UNL     1      -9.506  13.305  68.552  1.00  0.00    -0.113 C  
HETATM   14  C   UNL     1     -10.544  18.041  67.912  1.00  0.00    -0.387 C  
HETATM   15  O   UNL     1     -10.436  13.551  69.630  1.00  0.00    -0.330 OA 
HETATM   16  C   UNL     1     -10.002  14.206  67.138  1.00  0.00    -0.255 C  
HETATM   17  C   UNL     1     -11.353  13.562  66.453  1.00  0.00    -0.335 C  
HETATM   18  F   UNL     1      -9.063  14.057  66.080  1.00  0.00    -0.227 F  
HETATM   19  H   UNL     1     -10.587  14.488  69.653  1.00  0.00     0.000 HD 
HETATM   20  C   UNL     1     -11.795  14.391  65.233  1.00  0.00    -0.373 C  
HETATM   21  C   UNL     1     -11.747  15.884  65.521  1.00  0.00     0.523 C  
HETATM   22  C   UNL     1     -10.337  16.323  65.872  1.00  0.00    -0.381 C  
HETATM   23  C   UNL     1      -9.919  17.538  65.466  1.00  0.00     0.245 C  
HETATM   24  C   UNL     1     -10.447  18.520  66.479  1.00  0.00    -0.398 C  
ENDROOT
BRANCH   4  25
HETATM   25  C   UNL     1     -11.470  10.516  69.131  1.00  0.00    -0.247 C  
HETATM   26  O   UNL     1     -11.017   9.396  69.383  1.00  0.00    -0.222 OA 
BRANCH  25  27
HETATM   27  C   UNL     1     -12.571  11.038  70.070  1.00  0.00    -0.175 C  
HETATM   28  O   UNL     1     -13.366   9.969  70.574  1.00  0.00    -0.605 OA 
HETATM   29  H   UNL     1     -14.046  10.292  71.153  1.00  0.00     0.000 HD 
ENDBRANCH  25  27
ENDBRANCH   4  25
TORSDOF 2
ENDMDL
MODEL       37
REMARK 921   NORMALIZED FREE ENERGY PREDICTED BY IDOCK:   -5.55 KCAL/MOL
REMARK 922        TOTAL FREE ENERGY PREDICTED BY IDOCK:   -5.46 KCAL/MOL
REMARK 923 INTER-LIGAND FREE ENERGY PREDICTED BY IDOCK:   -7.03 KCAL/MOL
REMARK 924 INTRA-LIGAND FREE ENERGY PREDICTED BY IDOCK:    1.57 KCAL/MOL
REMARK 927      BINDING AFFINITY PREDICTED BY RF-SCORE:    0.00 PKD
ROOT
HETATM    1  C   UNL     1     -11.368  11.113  68.019  1.00  0.00    -0.380 C  
HETATM    2  C   UNL     1     -10.461  11.533  69.024  1.00  0.00    -0.175 C  
HETATM    3  C   UNL     1      -9.986  12.064  67.695  1.00  0.00    -0.196 C  
HETATM    4  C   UNL     1     -11.322  11.740  66.166  1.00  0.00    -0.342 C  
HETATM    5  C   UNL     1      -9.077  13.351  68.234  1.00  0.00    -0.181 C  
HETATM    6  C   UNL     1      -6.711   9.214  66.368  1.00  0.00    -0.071 C  
HETATM    7  C   UNL     1     -11.153  12.755  67.038  1.00  0.00    -0.316 C  
HETATM    8  C   UNL     1     -12.035  13.895  67.507  1.00  0.00    -0.421 C  
HETATM    9  C   UNL     1      -9.760  12.754  65.691  1.00  0.00    -0.131 C  
HETATM   10  C   UNL     1      -8.175   8.596  66.329  1.00  0.00    -0.116 C  
HETATM   11  C   UNL     1      -8.136   7.676  65.118  1.00  0.00    -0.134 C  
HETATM   12  O   UNL     1      -7.118   4.613  66.759  1.00  0.00    -0.071 OA 
HETATM   13  C   UNL     1      -9.134  11.071  65.374  1.00  0.00    -0.195 C  
HETATM   14  C   UNL     1      -7.731   6.387  65.263  1.00  0.00    -0.098 C  
HETATM   15  O   UNL     1      -9.825  10.584  64.203  1.00  0.00    -0.306 OA 
HETATM   16  C   UNL     1      -9.129   9.829  66.605  1.00  0.00    -0.147 C  
HETATM   17  C   UNL     1     -10.623   9.624  67.265  1.00  0.00    -0.315 C  
HETATM   18  F   UNL     1      -8.383  10.239  67.744  1.00  0.00    -0.109 F  
HETATM   19  H   UNL     1      -9.500   9.707  64.037  1.00  0.00     0.000 HD 
HETATM   20  C   UNL     1     -10.606   8.501  68.318  1.00  0.00    -0.173 C  
HETATM   21  C   UNL     1      -9.835   7.284  67.829  1.00  0.00    -0.181 C  
HETATM   22  C   UNL     1      -8.390   7.641  67.533  1.00  0.00    -0.120 C  
HETATM   23  C   UNL     1      -7.433   6.730  67.797  1.00  0.00    -0.098 C  
HETATM   24  C   UNL     1      -7.414   5.792  66.618  1.00  0.00    -0.084 C  
ENDROOT
BRANCH   4  25
HETATM   25  C   UNL     1     -12.208  12.622  65.036  1.00  0.00    -0.476 C  
HETATM   26  O   UNL     1     -13.393  12.479  64.723  1.00  0.00    -0.773 OA 
BRANCH  25  27
HETATM   27  C   UNL     1     -11.436  13.736  64.309  1.00  0.00    -0.340 C  
HETATM   28  O   UNL     1     -12.311  14.539  63.521  1.00  0.00    -1.081 OA 
HETATM   29  H   UNL     1     -11.835  15.226  63.072  1.00  0.00     0.000 HD 
ENDBRANCH  25  27
ENDBRANCH   4  25
TORSDOF 2
ENDMDL
MODEL       38
REMARK 921   NORMALIZED FREE ENERGY PREDICTED BY IDOCK:   -5.50 KCAL/MOL
REMARK 922        TOTAL FREE ENERGY PREDICTED BY IDOCK:   -5.41 KCAL/MOL
REMARK 923 INTER-LIGAND FREE ENERGY PREDICTED BY IDOCK:   -6.29 KCAL/MOL
REMARK 924 INTRA-LIGAND FREE ENERGY PREDICTED BY IDOCK:    0.88 KCAL/MOL
REMARK 927      BINDING AFFINITY PREDICTED BY RF-SCORE:    0.00 PKD
ROOT
HETATM    1  C   UNL     1     -10.739   9.837  65.974  1.00  0.00     0.210 C  
HETATM    2  C   UNL     1      -9.857  10.021  64.879  1.00  0.00    -0.352 C  
HETATM    3  C   UNL     1      -9.038   9.856  66.135  1.00  0.00    -0.193 C  
HETATM    4  C   UNL     1     -10.164   9.344  67.777  1.00  0.00    -0.273 C  
HETATM    5  C   UNL     1      -7.612   9.331  65.453  1.00  0.00    -0.098 C  
HETATM    6  C   UNL     1      -7.883  14.068  67.374  1.00  0.00    -0.188 C  
HETATM    7  C   UNL     1      -9.528   8.616  66.837  1.00  0.00    -0.235 C  
HETATM    8  C   UNL     1      -9.636   7.178  66.370  1.00  0.00    -0.161 C  
HETATM    9  C   UNL     1      -8.266   9.415  68.072  1.00  0.00    -0.114 C  
HETATM   10  C   UNL     1      -9.424  13.728  67.560  1.00  0.00    -0.220 C  
HETATM   11  C   UNL     1      -9.804  14.497  68.816  1.00  0.00    -0.220 C  
HETATM   12  O   UNL     1     -10.891  17.593  67.286  1.00  0.00    -0.275 OA 
HETATM   13  C   UNL     1      -8.693  11.149  68.439  1.00  0.00    -0.157 C  
HETATM   14  C   UNL     1     -10.228  15.783  68.717  1.00  0.00    -0.217 C  
HETATM   15  O   UNL     1      -9.421  11.143  69.686  1.00  0.00    -0.322 OA 
HETATM   16  C   UNL     1      -9.519  12.172  67.286  1.00  0.00    -0.184 C  
HETATM   17  C   UNL     1     -10.915  11.480  66.755  1.00  0.00    -0.347 C  
HETATM   18  F   UNL     1      -8.786  12.271  66.071  1.00  0.00    -0.147 F  
HETATM   19  H   UNL     1      -9.644  12.047  69.877  1.00  0.00     0.000 HD 
HETATM   20  C   UNL     1     -11.646  12.411  65.771  1.00  0.00    -0.449 C  
HETATM   21  C   UNL     1     -11.671  13.848  66.271  1.00  0.00    -0.402 C  
HETATM   22  C   UNL     1     -10.263  14.389  66.435  1.00  0.00    -0.294 C  
HETATM   23  C   UNL     1     -10.032  15.686  66.152  1.00  0.00    -0.335 C  
HETATM   24  C   UNL     1     -10.443  16.458  67.379  1.00  0.00    -0.309 C  
ENDROOT
BRANCH   4  25
HETATM   25  C   UNL     1     -10.270   8.107  68.918  1.00  0.00    -0.210 C  
HETATM   26  O   UNL     1      -9.790   6.972  68.852  1.00  0.00    -0.147 OA 
BRANCH  25  27
HETATM   27  C   UNL     1     -11.067   8.443  70.190  1.00  0.00    -0.182 C  
HETATM   28  O   UNL     1     -11.949   9.540  69.969  1.00  0.00    -0.465 OA 
HETATM   29  H   UNL     1     -12.441   9.747  70.755  1.00  0.00     0.000 HD 
ENDBRANCH  25  27
ENDBRANCH   4  25
TORSDOF 2
ENDMDL
MODEL       39
REMARK 921   NORMALIZED FREE ENERGY PREDICTED BY IDOCK:   -5.48 KCAL/MOL
REMARK 922        TOTAL FREE ENERGY PREDICTED BY IDOCK:   -5.38 KCAL/MOL
REMARK 923 INTER-LIGAND FREE ENERGY PREDICTED BY IDOCK:   -6.15 KCAL/MOL
REMARK 924 INTRA-LIGAND FREE ENERGY PREDICTED BY IDOCK:    0.77 KCAL/MOL
REMARK 927      BINDING AFFINITY PREDICTED BY RF-SCORE:    0.00 PKD
ROOT
HETATM    1  C   UNL     1     -11.059   6.446  69.483  1.00  0.00    -0.460 C  
HETATM    2  C   UNL     1     -10.056   5.457  69.647  1.00  0.00    -0.319 C  
HETATM    3  C   UNL     1      -9.768   6.597  70.592  1.00  0.00    -0.183 C  
HETATM    4  C   UNL     1     -11.263   8.007  70.644  1.00  0.00    -0.266 C  
HETATM    5  C   UNL     1      -8.857   5.780  71.722  1.00  0.00    -0.136 C  
HETATM    6  C   UNL     1      -6.557   9.067  68.544  1.00  0.00    -0.055 C  
HETATM    7  C   UNL     1     -11.035   6.885  71.356  1.00  0.00    -0.270 C  
HETATM    8  C   UNL     1     -11.902   5.999  72.228  1.00  0.00    -0.305 C  
HETATM    9  C   UNL     1      -9.815   8.300  71.873  1.00  0.00    -0.300 C  
HETATM   10  C   UNL     1      -7.986   9.147  67.854  1.00  0.00    -0.101 C  
HETATM   11  C   UNL     1      -8.054  10.580  67.351  1.00  0.00    -0.111 C  
HETATM   12  O   UNL     1      -6.715  10.083  64.024  1.00  0.00    -0.124 OA 
HETATM   13  C   UNL     1      -9.160   9.185  70.419  1.00  0.00    -0.233 C  
HETATM   14  C   UNL     1      -7.580  10.884  66.115  1.00  0.00    -0.119 C  
HETATM   15  O   UNL     1      -9.965  10.373  70.258  1.00  0.00    -0.397 OA 
HETATM   16  C   UNL     1      -8.952   8.407  68.867  1.00  0.00    -0.146 C  
HETATM   17  C   UNL     1     -10.346   7.696  68.356  1.00  0.00    -0.228 C  
HETATM   18  F   UNL     1      -8.094   7.279  68.970  1.00  0.00    -0.115 F  
HETATM   19  H   UNL     1      -9.625  10.835  69.501  1.00  0.00     0.000 HD 
HETATM   20  C   UNL     1     -10.154   7.050  66.972  1.00  0.00    -0.298 C  
HETATM   21  C   UNL     1      -9.396   7.968  66.024  1.00  0.00    -0.158 C  
HETATM   22  C   UNL     1      -8.014   8.284  66.566  1.00  0.00    -0.100 C  
HETATM   23  C   UNL     1      -6.993   8.413  65.695  1.00  0.00    -0.067 C  
HETATM   24  C   UNL     1      -7.077   9.820  65.163  1.00  0.00    -0.121 C  
ENDROOT
BRANCH   4  25
HETATM   25  C   UNL     1     -12.316   8.712  71.755  1.00  0.00    -0.346 C  
HETATM   26  O   UNL     1     -12.539   8.360  72.917  1.00  0.00    -0.226 OA 
BRANCH  25  27
HETATM   27  C   UNL     1     -13.092   9.940  71.249  1.00  0.00    -0.400 C  
HETATM   28  O   UNL     1     -12.774  10.225  69.890  1.00  0.00    -0.563 OA 
HETATM   29  H   UNL     1     -13.253  10.983  69.577  1.00  0.00     0.000 HD 
ENDBRANCH  25  27
ENDBRANCH   4  25
TORSDOF 2
ENDMDL
MODEL       40
REMARK 921   NORMALIZED FREE ENERGY PREDICTED BY IDOCK:   -5.48 KCAL/MOL
REMARK 922        TOTAL FREE ENERGY PREDICTED BY IDOCK:   -5.37 KCAL/MOL
REMARK 923 INTER-LIGAND FREE ENERGY PREDICTED BY IDOCK:   -6.23 KCAL/MOL
REMARK 924 INTRA-LIGAND FREE ENERGY PREDICTED BY IDOCK:    0.85 KCAL/MOL
REMARK 927      BINDING AFFINITY PREDICTED BY RF-SCORE:    0.00 PKD
ROOT
HETATM    1  C   UNL     1     -10.451  10.271  66.801  1.00  0.00    -0.279 C  
HETATM    2  C   UNL     1      -9.614  10.454  67.930  1.00  0.00    -0.157 C  
HETATM    3  C   UNL     1      -8.756  10.457  66.689  1.00  0.00    -0.141 C  
HETATM    4  C   UNL     1      -9.848  10.439  64.947  1.00  0.00    -0.400 C  
HETATM    5  C   UNL     1      -7.451  11.312  67.271  1.00  0.00    -0.126 C  
HETATM    6  C   UNL     1      -6.990   6.282  66.442  1.00  0.00    -0.067 C  
HETATM    7  C   UNL     1      -9.367  11.435  65.718  1.00  0.00    -0.247 C  
HETATM    8  C   UNL     1      -9.688  12.910  65.852  1.00  0.00    -0.190 C  
HETATM    9  C   UNL     1      -7.945  10.573  64.721  1.00  0.00    -0.046 C  
HETATM   10  C   UNL     1      -8.550   6.353  66.148  1.00  0.00    -0.144 C  
HETATM   11  C   UNL     1      -8.757   5.286  65.085  1.00  0.00    -0.146 C  
HETATM   12  O   UNL     1      -9.508   2.473  67.237  1.00  0.00    -0.125 OA 
HETATM   13  C   UNL     1      -8.119   8.758  64.738  1.00  0.00    -0.151 C  
HETATM   14  C   UNL     1      -9.013   4.004  65.457  1.00  0.00    -0.131 C  
HETATM   15  O   UNL     1      -8.773   8.391  63.503  1.00  0.00    -0.418 OA 
HETATM   16  C   UNL     1      -8.864   7.903  66.068  1.00  0.00    -0.158 C  
HETATM   17  C   UNL     1     -10.366   8.490  66.399  1.00  0.00    -0.081 C  
HETATM   18  F   UNL     1      -8.192   8.173  67.292  1.00  0.00    -0.114 F  
HETATM   19  H   UNL     1      -8.864   7.446  63.511  1.00  0.00     0.000 HD 
HETATM   20  C   UNL     1     -11.021   7.701  67.547  1.00  0.00    -0.086 C  
HETATM   21  C   UNL     1     -10.829   6.200  67.378  1.00  0.00    -0.431 C  
HETATM   22  C   UNL     1      -9.354   5.840  67.372  1.00  0.00    -0.112 C  
HETATM   23  C   UNL     1      -8.971   4.681  67.940  1.00  0.00    -0.128 C  
HETATM   24  C   UNL     1      -9.209   3.611  66.905  1.00  0.00    -0.184 C  
ENDROOT
BRANCH   4  25
HETATM   25  C   UNL     1     -10.055  11.372  63.559  1.00  0.00    -0.395 C  
HETATM   26  O   UNL     1      -9.310  11.446  62.578  1.00  0.00    -0.317 OA 
BRANCH  25  27
HETATM   27  C   UNL     1     -11.327  12.237  63.522  1.00  0.00    -0.470 C  
HETATM   28  O   UNL     1     -12.439  11.494  63.030  1.00  0.00    -0.982 OA 
HETATM   29  H   UNL     1     -13.224  12.028  63.008  1.00  0.00     0.000 HD 
ENDBRANCH  25  27
ENDBRANCH   4  25
TORSDOF 2
ENDMDL
MODEL       41
REMARK 921   NORMALIZED FREE ENERGY PREDICTED BY IDOCK:   -5.32 KCAL/MOL
REMARK 922        TOTAL FREE ENERGY PREDICTED BY IDOCK:   -5.20 KCAL/MOL
REMARK 923 INTER-LIGAND FREE ENERGY PREDICTED BY IDOCK:   -5.81 KCAL/MOL
REMARK 924 INTRA-LIGAND FREE ENERGY PREDICTED BY IDOCK:    0.61 KCAL/MOL
REMARK 927      BINDING AFFINITY PREDICTED BY RF-SCORE:    0.00 PKD
ROOT
HETATM    1  C   UNL     1      -7.976   9.913  68.583  1.00  0.00    -0.087 C  
HETATM    2  C   UNL     1      -8.699  10.188  69.771  1.00  0.00    -0.148 C  
HETATM    3  C   UNL     1      -9.624   9.513  68.789  1.00  0.00    -0.159 C  
HETATM    4  C   UNL     1      -8.665   8.836  67.102  1.00  0.00    -0.127 C  
HETATM    5  C   UNL     1     -10.739   8.892  69.860  1.00  0.00    -0.236 C  
HETATM    6  C   UNL     1     -12.035  12.872  66.913  1.00  0.00    -0.402 C  
HETATM    7  C   UNL     1      -8.933   8.268  68.295  1.00  0.00    -0.136 C  
HETATM    8  C   UNL     1      -8.377   7.071  69.039  1.00  0.00    -0.126 C  
HETATM    9  C   UNL     1     -10.535   8.406  67.212  1.00  0.00    -0.373 C  
HETATM   10  C   UNL     1     -10.506  12.842  66.483  1.00  0.00    -0.276 C  
HETATM   11  C   UNL     1     -10.539  13.306  65.035  1.00  0.00    -0.360 C  
HETATM   12  O   UNL     1     -10.098  16.860  65.563  1.00  0.00    -0.575 OA 
HETATM   13  C   UNL     1     -10.647  10.026  66.383  1.00  0.00    -0.068 C  
HETATM   14  C   UNL     1     -10.463  14.632  64.750  1.00  0.00    -0.343 C  
HETATM   15  O   UNL     1     -10.140   9.843  65.042  1.00  0.00    -0.356 OA 
HETATM   16  C   UNL     1      -9.959  11.478  67.073  1.00  0.00    -0.200 C  
HETATM   17  C   UNL     1      -8.365  11.280  67.434  1.00  0.00    -0.137 C  
HETATM   18  F   UNL     1     -10.499  11.739  68.362  1.00  0.00    -0.186 F  
HETATM   19  H   UNL     1     -10.198  10.687  64.610  1.00  0.00     0.000 HD 
HETATM   20  C   UNL     1      -7.768  12.579  68.004  1.00  0.00    -0.140 C  
HETATM   21  C   UNL     1      -8.203  13.797  67.201  1.00  0.00    -0.125 C  
HETATM   22  C   UNL     1      -9.713  13.950  67.226  1.00  0.00    -0.245 C  
HETATM   23  C   UNL     1     -10.236  15.191  67.252  1.00  0.00    -0.243 C  
HETATM   24  C   UNL     1     -10.237  15.674  65.825  1.00  0.00    -0.367 C  
ENDROOT
BRANCH   4  25
HETATM   25  C   UNL     1      -8.407   7.392  66.272  1.00  0.00    -0.132 C  
HETATM   26  O   UNL     1      -9.183   6.442  66.144  1.00  0.00    -0.158 OA 
BRANCH  25  27
HETATM   27  C   UNL     1      -7.030   7.248  65.600  1.00  0.00    -0.060 C  
HETATM   28  O   UNL     1      -6.088   8.161  66.157  1.00  0.00    -0.043 OA 
HETATM   29  H   UNL     1      -5.239   8.073  65.742  1.00  0.00     0.000 HD 
ENDBRANCH  25  27
ENDBRANCH   4  25
TORSDOF 2
ENDMDL
MODEL       42
REMARK 921   NORMALIZED FREE ENERGY PREDICTED BY IDOCK:   -5.26 KCAL/MOL
REMARK 922        TOTAL FREE ENERGY PREDICTED BY IDOCK:   -5.13 KCAL/MOL
REMARK 923 INTER-LIGAND FREE ENERGY PREDICTED BY IDOCK:   -5.80 KCAL/MOL
REMARK 924 INTRA-LIGAND FREE ENERGY PREDICTED BY IDOCK:    0.67 KCAL/MOL
REMARK 927      BINDING AFFINITY PREDICTED BY RF-SCORE:    0.00 PKD
ROOT
HETATM    1  C   UNL     1      -9.452  12.824  65.286  1.00  0.00     0.217 C  
HETATM    2  C   UNL     1     -10.175  12.218  64.228  1.00  0.00    -0.356 C  
HETATM    3  C   UNL     1     -11.065  12.283  65.444  1.00  0.00    -0.353 C  
HETATM    4  C   UNL     1     -10.243  13.351  66.997  1.00  0.00    -0.249 C  
HETATM    5  C   UNL     1     -12.549  12.224  64.690  1.00  0.00    -0.376 C  
HETATM    6  C   UNL     1     -10.886   8.138  67.286  1.00  0.00    -0.130 C  
HETATM    7  C   UNL     1     -11.029  13.700  65.958  1.00  0.00    -0.288 C  
HETATM    8  C   UNL     1     -11.359  15.017  65.285  1.00  0.00    -0.349 C  
HETATM    9  C   UNL     1     -12.032  12.717  67.294  1.00  0.00    -0.345 C  
HETATM   10  C   UNL     1      -9.543   8.976  67.424  1.00  0.00    -0.195 C  
HETATM   11  C   UNL     1      -9.002   8.551  68.780  1.00  0.00    -0.139 C  
HETATM   12  O   UNL     1      -6.916   5.787  67.723  1.00  0.00    -0.062 OA 
HETATM   13  C   UNL     1     -11.096  11.280  67.912  1.00  0.00    -0.267 C  
HETATM   14  C   UNL     1      -8.187   7.468  68.872  1.00  0.00    -0.128 C  
HETATM   15  O   UNL     1     -10.469  11.691  69.147  1.00  0.00    -0.366 OA 
HETATM   16  C   UNL     1      -9.933  10.427  66.924  1.00  0.00    -0.206 C  
HETATM   17  C   UNL     1      -8.804  11.449  66.301  1.00  0.00    -0.196 C  
HETATM   18  F   UNL     1     -10.536   9.931  65.736  1.00  0.00    -0.311 F  
HETATM   19  H   UNL     1      -9.982  10.942  69.469  1.00  0.00     0.000 HD 
HETATM   20  C   UNL     1      -7.767  10.675  65.466  1.00  0.00    -0.083 C  
HETATM   21  C   UNL     1      -7.313   9.406  66.171  1.00  0.00    -0.096 C  
HETATM   22  C   UNL     1      -8.484   8.470  66.409  1.00  0.00    -0.122 C  
HETATM   23  C   UNL     1      -8.278   7.141  66.320  1.00  0.00    -0.124 C  
HETATM   24  C   UNL     1      -7.705   6.719  67.648  1.00  0.00    -0.111 C  
ENDROOT
BRANCH   4  25
HETATM   25  C   UNL     1     -10.590  14.702  67.943  1.00  0.00    -0.244 C  
HETATM   26  O   UNL     1     -11.560  15.459  67.856  1.00  0.00    -0.332 OA 
BRANCH  25  27
HETATM   27  C   UNL     1      -9.564  15.024  69.044  1.00  0.00    -0.225 C  
HETATM   28  O   UNL     1      -8.578  14.000  69.143  1.00  0.00    -0.364 OA 
HETATM   29  H   UNL     1      -7.945  14.199  69.822  1.00  0.00     0.000 HD 
ENDBRANCH  25  27
ENDBRANCH   4  25
TORSDOF 2
ENDMDL
MODEL       43
REMARK 921   NORMALIZED FREE ENERGY PREDICTED BY IDOCK:   -5.24 KCAL/MOL
REMARK 922        TOTAL FREE ENERGY PREDICTED BY IDOCK:   -5.12 KCAL/MOL
REMARK 923 INTER-LIGAND FREE ENERGY PREDICTED BY IDOCK:   -5.98 KCAL/MOL
REMARK 924 INTRA-LIGAND FREE ENERGY PREDICTED BY IDOCK:    0.86 KCAL/MOL
REMARK 927      BINDING AFFINITY PREDICTED BY RF-SCORE:    0.00 PKD
ROOT
HETATM    1  C   UNL     1      -7.755  10.806  68.028  1.00  0.00    -0.101 C  
HETATM    2  C   UNL     1      -8.126  11.128  69.358  1.00  0.00     0.139 C  
HETATM    3  C   UNL     1      -9.306  10.488  68.669  1.00  0.00    -0.172 C  
HETATM    4  C   UNL     1      -8.855   9.748  66.805  1.00  0.00    -0.151 C  
HETATM    5  C   UNL     1     -10.125   9.933  70.008  1.00  0.00    -0.308 C  
HETATM    6  C   UNL     1     -11.978  13.938  67.416  1.00  0.00    -0.436 C  
HETATM    7  C   UNL     1      -8.824   9.207  68.039  1.00  0.00    -0.129 C  
HETATM    8  C   UNL     1      -8.143   7.992  68.638  1.00  0.00    -0.125 C  
HETATM    9  C   UNL     1     -10.647   9.409  67.412  1.00  0.00    -0.326 C  
HETATM   10  C   UNL     1     -10.619  13.830  66.600  1.00  0.00    -0.274 C  
HETATM   11  C   UNL     1     -11.012  14.280  65.201  1.00  0.00    -0.369 C  
HETATM   12  O   UNL     1     -10.296  17.815  65.514  1.00  0.00    -0.623 OA 
HETATM   13  C   UNL     1     -10.903  11.023  66.604  1.00  0.00    -0.225 C  
HETATM   14  C   UNL     1     -10.957  15.598  64.876  1.00  0.00    -0.447 C  
HETATM   15  O   UNL     1     -10.775  10.803  65.182  1.00  0.00    -0.215 OA 
HETATM   16  C   UNL     1      -9.996  12.448  67.056  1.00  0.00    -0.212 C  
HETATM   17  C   UNL     1      -8.373  12.178  66.991  1.00  0.00    -0.173 C  
HETATM   18  F   UNL     1     -10.165  12.748  68.435  1.00  0.00    -0.219 F  
HETATM   19  H   UNL     1     -10.909  11.643  64.761  1.00  0.00     0.000 HD 
HETATM   20  C   UNL     1      -7.591  13.454  67.355  1.00  0.00    -0.138 C  
HETATM   21  C   UNL     1      -8.170  14.682  66.666  1.00  0.00     0.152 C  
HETATM   22  C   UNL     1      -9.612  14.907  67.083  1.00  0.00    -0.229 C  
HETATM   23  C   UNL     1     -10.055  16.172  67.218  1.00  0.00    -0.265 C  
HETATM   24  C   UNL     1     -10.411  16.639  65.830  1.00  0.00    -0.311 C  
ENDROOT
BRANCH   4  25
HETATM   25  C   UNL     1      -8.887   8.284  65.970  1.00  0.00    -0.168 C  
HETATM   26  O   UNL     1      -9.474   7.245  66.283  1.00  0.00    -0.156 OA 
BRANCH  25  27
HETATM   27  C   UNL     1      -8.079   8.248  64.661  1.00  0.00    -0.150 C  
HETATM   28  O   UNL     1      -8.353   7.063  63.920  1.00  0.00    -0.342 OA 
HETATM   29  H   UNL     1      -7.854   7.040  63.112  1.00  0.00     0.000 HD 
ENDBRANCH  25  27
ENDBRANCH   4  25
TORSDOF 2
ENDMDL
MODEL       44
REMARK 921   NORMALIZED FREE ENERGY PREDICTED BY IDOCK:   -5.17 KCAL/MOL
REMARK 922        TOTAL FREE ENERGY PREDICTED BY IDOCK:   -5.04 KCAL/MOL
REMARK 923 INTER-LIGAND FREE ENERGY PREDICTED BY IDOCK:   -5.71 KCAL/MOL
REMARK 924 INTRA-LIGAND FREE ENERGY PREDICTED BY IDOCK:    0.67 KCAL/MOL
REMARK 927      BINDING AFFINITY PREDICTED BY RF-SCORE:    0.00 PKD
ROOT
HETATM    1  C   UNL     1      -9.356   8.214  66.368  1.00  0.00    -0.269 C  
HETATM    2  C   UNL     1      -8.185   8.513  65.627  1.00  0.00    -0.130 C  
HETATM    3  C   UNL     1      -7.861   8.605  67.097  1.00  0.00    -0.097 C  
HETATM    4  C   UNL     1      -9.396   7.969  68.309  1.00  0.00    -0.143 C  
HETATM    5  C   UNL     1      -6.216   8.355  67.022  1.00  0.00    -0.056 C  
HETATM    6  C   UNL     1      -7.997  13.036  68.077  1.00  0.00    -0.155 C  
HETATM    7  C   UNL     1      -8.345   7.336  67.750  1.00  0.00    -0.118 C  
HETATM    8  C   UNL     1      -8.020   5.881  67.472  1.00  0.00    -0.102 C  
HETATM    9  C   UNL     1      -7.778   8.461  69.222  1.00  0.00    -0.098 C  
HETATM   10  C   UNL     1      -9.415  12.388  67.769  1.00  0.00    -0.199 C  
HETATM   11  C   UNL     1     -10.353  13.135  68.703  1.00  0.00    -0.207 C  
HETATM   12  O   UNL     1     -11.341  15.826  66.491  1.00  0.00    -0.076 OA 
HETATM   13  C   UNL     1      -8.608  10.085  69.184  1.00  0.00    -0.158 C  
HETATM   14  C   UNL     1     -10.933  14.293  68.292  1.00  0.00    -0.261 C  
HETATM   15  O   UNL     1      -9.726  10.002  70.094  1.00  0.00    -0.347 OA 
HETATM   16  C   UNL     1      -9.127  10.833  67.691  1.00  0.00    -0.147 C  
HETATM   17  C   UNL     1     -10.090   9.827  66.813  1.00  0.00    -0.295 C  
HETATM   18  F   UNL     1      -8.034  11.010  66.799  1.00  0.00    -0.125 F  
HETATM   19  H   UNL     1     -10.159  10.847  70.075  1.00  0.00     0.000 HD 
HETATM   20  C   UNL     1     -10.568  10.517  65.522  1.00  0.00    -0.138 C  
HETATM   21  C   UNL     1     -11.026  11.945  65.784  1.00  0.00    -0.359 C  
HETATM   22  C   UNL     1      -9.891  12.783  66.346  1.00  0.00    -0.269 C  
HETATM   23  C   UNL     1      -9.807  14.079  65.987  1.00  0.00    -0.316 C  
HETATM   24  C   UNL     1     -10.764  14.821  66.884  1.00  0.00    -0.308 C  
ENDROOT
BRANCH   4  25
HETATM   25  C   UNL     1      -9.688   6.813  69.499  1.00  0.00    -0.150 C  
HETATM   26  O   UNL     1      -8.987   6.538  70.477  1.00  0.00    -0.150 OA 
BRANCH  25  27
HETATM   27  C   UNL     1     -10.985   6.003  69.335  1.00  0.00    -0.385 C  
HETATM   28  O   UNL     1     -12.121   6.766  69.731  1.00  0.00    -0.648 OA 
HETATM   29  H   UNL     1     -12.922   6.266  69.630  1.00  0.00     0.000 HD 
ENDBRANCH  25  27
ENDBRANCH   4  25
TORSDOF 2
ENDMDL
MODEL       45
REMARK 921   NORMALIZED FREE ENERGY PREDICTED BY IDOCK:   -5.14 KCAL/MOL
REMARK 922        TOTAL FREE ENERGY PREDICTED BY IDOCK:   -5.00 KCAL/MOL
REMARK 923 INTER-LIGAND FREE ENERGY PREDICTED BY IDOCK:   -5.59 KCAL/MOL
REMARK 924 INTRA-LIGAND FREE ENERGY PREDICTED BY IDOCK:    0.59 KCAL/MOL
REMARK 927      BINDING AFFINITY PREDICTED BY RF-SCORE:    0.00 PKD
ROOT
HETATM    1  C   UNL     1      -9.669   8.324  72.064  1.00  0.00    -0.322 C  
HETATM    2  C   UNL     1     -11.047   8.645  71.977  1.00  0.00    -0.437 C  
HETATM    3  C   UNL     1     -10.873   7.177  71.677  1.00  0.00    -0.250 C  
HETATM    4  C   UNL     1      -8.957   6.503  71.994  1.00  0.00    -0.140 C  
HETATM    5  C   UNL     1     -12.405   6.645  72.060  1.00  0.00    -0.316 C  
HETATM    6  C   UNL     1     -10.979   6.859  67.149  1.00  0.00    -0.427 C  
HETATM    7  C   UNL     1     -10.045   6.580  72.786  1.00  0.00    -0.193 C  
HETATM    8  C   UNL     1     -10.258   6.547  74.286  1.00  0.00    -0.373 C  
HETATM    9  C   UNL     1     -10.228   5.154  71.487  1.00  0.00    -0.274 C  
HETATM   10  C   UNL     1      -9.674   7.557  67.729  1.00  0.00    -0.176 C  
HETATM   11  C   UNL     1      -8.580   7.106  66.773  1.00  0.00    -0.124 C  
HETATM   12  O   UNL     1      -8.729   9.837  64.401  1.00  0.00    -0.174 OA 
HETATM   13  C   UNL     1      -9.669   5.678  69.832  1.00  0.00    -0.168 C  
HETATM   14  C   UNL     1      -8.320   7.832  65.654  1.00  0.00    -0.143 C  
HETATM   15  O   UNL     1      -8.311   5.208  69.684  1.00  0.00    -0.091 OA 
HETATM   16  C   UNL     1      -9.773   7.338  69.293  1.00  0.00    -0.161 C  
HETATM   17  C   UNL     1      -9.038   8.364  70.350  1.00  0.00    -0.155 C  
HETATM   18  F   UNL     1     -11.113   7.811  69.344  1.00  0.00    -0.208 F  
HETATM   19  H   UNL     1      -8.020   5.480  68.822  1.00  0.00     0.000 HD 
HETATM   20  C   UNL     1      -9.106   9.815  69.839  1.00  0.00    -0.257 C  
HETATM   21  C   UNL     1      -8.770   9.906  68.358  1.00  0.00    -0.120 C  
HETATM   22  C   UNL     1      -9.750   9.094  67.530  1.00  0.00    -0.204 C  
HETATM   23  C   UNL     1     -10.111   9.558  66.318  1.00  0.00    -0.327 C  
HETATM   24  C   UNL     1      -9.012   9.148  65.371  1.00  0.00    -0.207 C  
ENDROOT
BRANCH   4  25
HETATM   25  C   UNL     1      -8.144   5.354  72.921  1.00  0.00    -0.109 C  
HETATM   26  O   UNL     1      -8.454   4.176  73.111  1.00  0.00    -0.092 OA 
BRANCH  25  27
HETATM   27  C   UNL     1      -6.861   5.846  73.614  1.00  0.00    -0.080 C  
HETATM   28  O   UNL     1      -6.593   7.209  73.292  1.00  0.00    -0.065 OA 
HETATM   29  H   UNL     1      -5.802   7.512  73.720  1.00  0.00     0.000 HD 
ENDBRANCH  25  27
ENDBRANCH   4  25
TORSDOF 2
ENDMDL
MODEL       46
REMARK 921   NORMALIZED FREE ENERGY PREDICTED BY IDOCK:   -5.13 KCAL/MOL
REMARK 922        TOTAL FREE ENERGY PREDICTED BY IDOCK:   -4.99 KCAL/MOL
REMARK 923 INTER-LIGAND FREE ENERGY PREDICTED BY IDOCK:   -5.80 KCAL/MOL
REMARK 924 INTRA-LIGAND FREE ENERGY PREDICTED BY IDOCK:    0.81 KCAL/MOL
REMARK 927      BINDING AFFINITY PREDICTED BY RF-SCORE:    0.00 PKD
ROOT
HETATM    1  C   UNL     1      -9.162   8.380  67.069  1.00  0.00    -0.186 C  
HETATM    2  C   UNL     1     -10.548   8.498  66.793  1.00  0.00    -0.227 C  
HETATM    3  C   UNL     1     -10.097   9.733  67.531  1.00  0.00    -0.246 C  
HETATM    4  C   UNL     1      -8.060   9.823  67.797  1.00  0.00    -0.113 C  
HETATM    5  C   UNL     1     -11.283  10.789  67.030  1.00  0.00    -0.165 C  
HETATM    6  C   UNL     1     -11.329   9.066  71.849  1.00  0.00    -0.438 C  
HETATM    7  C   UNL     1      -8.879  10.267  66.822  1.00  0.00    -0.143 C  
HETATM    8  C   UNL     1      -8.665  10.694  65.384  1.00  0.00    -0.195 C  
HETATM    9  C   UNL     1      -9.038  11.357  68.416  1.00  0.00    -0.179 C  
HETATM   10  C   UNL     1     -10.137   8.139  71.356  1.00  0.00    -0.248 C  
HETATM   11  C   UNL     1      -9.263   8.002  72.593  1.00  0.00    -0.304 C  
HETATM   12  O   UNL     1     -10.727   5.006  74.001  1.00  0.00    -0.283 OA 
HETATM   13  C   UNL     1      -9.094  10.335  69.925  1.00  0.00     0.034 C  
HETATM   14  C   UNL     1      -9.504   7.005  73.483  1.00  0.00    -0.226 C  
HETATM   15  O   UNL     1      -7.753  10.310  70.462  1.00  0.00    -0.438 OA 
HETATM   16  C   UNL     1      -9.754   8.716  69.932  1.00  0.00    -0.173 C  
HETATM   17  C   UNL     1      -9.046   7.768  68.787  1.00  0.00    -0.140 C  
HETATM   18  F   UNL     1     -11.105   8.711  69.490  1.00  0.00    -0.217 F  
HETATM   19  H   UNL     1      -7.782   9.777  71.247  1.00  0.00     0.000 HD 
HETATM   20  C   UNL     1      -9.612   6.338  68.834  1.00  0.00    -0.135 C  
HETATM   21  C   UNL     1      -9.721   5.823  70.263  1.00  0.00    -0.223 C  
HETATM   22  C   UNL     1     -10.649   6.699  71.085  1.00  0.00    -0.263 C  
HETATM   23  C   UNL     1     -11.426   6.118  72.018  1.00  0.00    -0.366 C  
HETATM   24  C   UNL     1     -10.556   5.944  73.236  1.00  0.00    -0.255 C  
ENDROOT
BRANCH   4  25
HETATM   25  C   UNL     1      -6.765  10.832  67.415  1.00  0.00    -0.076 C  
HETATM   26  O   UNL     1      -6.473  11.917  67.925  1.00  0.00    -0.058 OA 
BRANCH  25  27
HETATM   27  C   UNL     1      -5.843  10.333  66.289  1.00  0.00    -0.070 C  
HETATM   28  O   UNL     1      -5.270  11.424  65.572  1.00  0.00    -0.469 OA 
HETATM   29  H   UNL     1      -4.702  11.116  64.877  1.00  0.00     0.000 HD 
ENDBRANCH  25  27
ENDBRANCH   4  25
TORSDOF 2
ENDMDL
MODEL       47
REMARK 921   NORMALIZED FREE ENERGY PREDICTED BY IDOCK:   -5.12 KCAL/MOL
REMARK 922        TOTAL FREE ENERGY PREDICTED BY IDOCK:   -4.97 KCAL/MOL
REMARK 923 INTER-LIGAND FREE ENERGY PREDICTED BY IDOCK:   -5.69 KCAL/MOL
REMARK 924 INTRA-LIGAND FREE ENERGY PREDICTED BY IDOCK:    0.71 KCAL/MOL
REMARK 927      BINDING AFFINITY PREDICTED BY RF-SCORE:    0.00 PKD
ROOT
HETATM    1  C   UNL     1      -9.025  10.903  67.207  1.00  0.00    -0.139 C  
HETATM    2  C   UNL     1      -8.436  11.823  68.111  1.00  0.00    -0.158 C  
HETATM    3  C   UNL     1      -7.785  10.476  68.302  1.00  0.00    -0.101 C  
HETATM    4  C   UNL     1      -8.364   9.087  66.901  1.00  0.00    -0.119 C  
HETATM    5  C   UNL     1      -6.340  10.972  68.965  1.00  0.00    -0.048 C  
HETATM    6  C   UNL     1      -9.809   8.671  71.943  1.00  0.00    -0.384 C  
HETATM    7  C   UNL     1      -7.356   9.982  66.944  1.00  0.00    -0.092 C  
HETATM    8  C   UNL     1      -6.451  10.597  65.896  1.00  0.00    -0.121 C  
HETATM    9  C   UNL     1      -7.020   8.494  68.139  1.00  0.00    -0.074 C  
HETATM   10  C   UNL     1     -10.735   8.763  70.655  1.00  0.00    -0.267 C  
HETATM   11  C   UNL     1     -11.598   7.514  70.752  1.00  0.00    -0.300 C  
HETATM   12  O   UNL     1     -14.392   8.891  72.596  1.00  0.00    -0.613 OA 
HETATM   13  C   UNL     1      -8.515   8.033  69.075  1.00  0.00    -0.130 C  
HETATM   14  C   UNL     1     -12.768   7.554  71.442  1.00  0.00    -0.382 C  
HETATM   15  O   UNL     1      -9.118   6.922  68.375  1.00  0.00    -0.128 OA 
HETATM   16  C   UNL     1      -9.751   9.197  69.494  1.00  0.00    -0.173 C  
HETATM   17  C   UNL     1     -10.296  10.005  68.166  1.00  0.00    -0.228 C  
HETATM   18  F   UNL     1      -9.209  10.267  70.259  1.00  0.00    -0.164 F  
HETATM   19  H   UNL     1      -9.897   6.682  68.863  1.00  0.00     0.000 HD 
HETATM   20  C   UNL     1     -11.408  10.998  68.550  1.00  0.00    -0.355 C  
HETATM   21  C   UNL     1     -12.414  10.372  69.505  1.00  0.00     0.135 C  
HETATM   22  C   UNL     1     -11.740   9.937  70.794  1.00  0.00    -0.424 C  
HETATM   23  C   UNL     1     -12.421  10.054  71.950  1.00  0.00    -0.408 C  
HETATM   24  C   UNL     1     -13.307   8.838  72.036  1.00  0.00    -0.413 C  
ENDROOT
BRANCH   4  25
HETATM   25  C   UNL     1      -7.677   8.103  65.719  1.00  0.00    -0.092 C  
HETATM   26  O   UNL     1      -6.700   7.357  65.827  1.00  0.00    -0.050 OA 
BRANCH  25  27
HETATM   27  C   UNL     1      -8.355   8.148  64.338  1.00  0.00    -0.042 C  
HETATM   28  O   UNL     1      -9.128   9.336  64.184  1.00  0.00    -0.415 OA 
HETATM   29  H   UNL     1      -9.546   9.364  63.333  1.00  0.00     0.000 HD 
ENDBRANCH  25  27
ENDBRANCH   4  25
TORSDOF 2
ENDMDL
MODEL       48
REMARK 921   NORMALIZED FREE ENERGY PREDICTED BY IDOCK:   -5.06 KCAL/MOL
REMARK 922        TOTAL FREE ENERGY PREDICTED BY IDOCK:   -4.92 KCAL/MOL
REMARK 923 INTER-LIGAND FREE ENERGY PREDICTED BY IDOCK:   -5.59 KCAL/MOL
REMARK 924 INTRA-LIGAND FREE ENERGY PREDICTED BY IDOCK:    0.67 KCAL/MOL
REMARK 927      BINDING AFFINITY PREDICTED BY RF-SCORE:    0.00 PKD
ROOT
HETATM    1  C   UNL     1      -8.529   7.360  65.772  1.00  0.00    -0.149 C  
HETATM    2  C   UNL     1      -7.370   7.985  66.297  1.00  0.00    -0.078 C  
HETATM    3  C   UNL     1      -7.437   6.573  66.824  1.00  0.00    -0.079 C  
HETATM    4  C   UNL     1      -8.936   5.456  65.968  1.00  0.00    -0.147 C  
HETATM    5  C   UNL     1      -5.825   6.342  67.170  1.00  0.00    -0.020 C  
HETATM    6  C   UNL     1      -9.154   6.939  71.011  1.00  0.00    -0.155 C  
HETATM    7  C   UNL     1      -7.642   5.657  65.645  1.00  0.00    -0.086 C  
HETATM    8  C   UNL     1      -6.831   5.456  64.381  1.00  0.00    -0.048 C  
HETATM    9  C   UNL     1      -7.805   4.507  67.197  1.00  0.00    -0.097 C  
HETATM   10  C   UNL     1     -10.192   7.243  69.847  1.00  0.00    -0.210 C  
HETATM   11  C   UNL     1     -11.504   6.704  70.396  1.00  0.00    -0.444 C  
HETATM   12  O   UNL     1     -12.736   9.712  71.989  1.00  0.00    -0.383 OA 
HETATM   13  C   UNL     1      -9.063   5.126  68.363  1.00  0.00    -0.112 C  
HETATM   14  C   UNL     1     -12.302   7.508  71.147  1.00  0.00    -0.321 C  
HETATM   15  O   UNL     1     -10.278   4.396  68.090  1.00  0.00     0.016 OA 
HETATM   16  C   UNL     1      -9.429   6.829  68.523  1.00  0.00    -0.131 C  
HETATM   17  C   UNL     1      -9.807   7.506  67.070  1.00  0.00    -0.280 C  
HETATM   18  F   UNL     1      -8.270   7.572  68.876  1.00  0.00    -0.120 F  
HETATM   19  H   UNL     1     -10.934   4.718  68.697  1.00  0.00     0.000 HD 
HETATM   20  C   UNL     1     -10.163   8.994  67.238  1.00  0.00    -0.323 C  
HETATM   21  C   UNL     1     -11.086   9.220  68.426  1.00  0.00     0.068 C  
HETATM   22  C   UNL     1     -10.427   8.771  69.717  1.00  0.00    -0.222 C  
HETATM   23  C   UNL     1     -10.666   9.472  70.843  1.00  0.00    -0.403 C  
HETATM   24  C   UNL     1     -11.984   8.970  71.373  1.00  0.00    -0.332 C  
ENDROOT
BRANCH   4  25
HETATM   25  C   UNL     1      -9.123   4.036  65.080  1.00  0.00    -0.140 C  
HETATM   26  O   UNL     1      -8.346   3.080  65.007  1.00  0.00    -0.093 OA 
BRANCH  25  27
HETATM   27  C   UNL     1     -10.421   3.930  64.261  1.00  0.00    -0.233 C  
HETATM   28  O   UNL     1     -11.540   4.396  65.009  1.00  0.00    -1.067 OA 
HETATM   29  H   UNL     1     -12.341   4.330  64.503  1.00  0.00     0.000 HD 
ENDBRANCH  25  27
ENDBRANCH   4  25
TORSDOF 2
ENDMDL
MODEL       49
REMARK 921   NORMALIZED FREE ENERGY PREDICTED BY IDOCK:   -5.05 KCAL/MOL
REMARK 922        TOTAL FREE ENERGY PREDICTED BY IDOCK:   -4.90 KCAL/MOL
REMARK 923 INTER-LIGAND FREE ENERGY PREDICTED BY IDOCK:   -5.66 KCAL/MOL
REMARK 924 INTRA-LIGAND FREE ENERGY PREDICTED BY IDOCK:    0.76 KCAL/MOL
REMARK 927      BINDING AFFINITY PREDICTED BY RF-SCORE:    0.00 PKD
ROOT
HETATM    1  C   UNL     1     -11.660   6.802  69.970  1.00  0.00    -0.367 C  
HETATM    2  C   UNL     1     -11.051   5.775  70.734  1.00  0.00    -0.272 C  
HETATM    3  C   UNL     1     -10.329   7.071  71.007  1.00  0.00    -0.216 C  
HETATM    4  C   UNL     1     -11.242   8.704  70.154  1.00  0.00    -0.152 C  
HETATM    5  C   UNL     1      -9.685   6.707  72.499  1.00  0.00    -0.166 C  
HETATM    6  C   UNL     1      -6.600   6.933  68.422  1.00  0.00    -0.062 C  
HETATM    7  C   UNL     1     -11.369   8.105  71.355  1.00  0.00    -0.299 C  
HETATM    8  C   UNL     1     -12.431   8.131  72.436  1.00  0.00    -0.309 C  
HETATM    9  C   UNL     1      -9.707   9.096  71.242  1.00  0.00    -0.351 C  
HETATM   10  C   UNL     1      -7.955   7.108  67.610  1.00  0.00    -0.114 C  
HETATM   11  C   UNL     1      -7.557   8.010  66.452  1.00  0.00    -0.091 C  
HETATM   12  O   UNL     1      -6.683   5.469  64.025  1.00  0.00    -0.039 OA 
HETATM   13  C   UNL     1      -8.880   8.839  69.637  1.00  0.00    -0.141 C  
HETATM   14  C   UNL     1      -7.086   7.461  65.302  1.00  0.00    -0.064 C  
HETATM   15  O   UNL     1      -9.237   9.961  68.801  1.00  0.00    -0.138 OA 
HETATM   16  C   UNL     1      -9.051   7.356  68.726  1.00  0.00    -0.131 C  
HETATM   17  C   UNL     1     -10.634   6.983  68.469  1.00  0.00    -0.235 C  
HETATM   18  F   UNL     1      -8.628   6.233  69.489  1.00  0.00    -0.125 F  
HETATM   19  H   UNL     1      -8.806   9.827  67.965  1.00  0.00     0.000 HD 
HETATM   20  C   UNL     1     -10.763   5.696  67.633  1.00  0.00    -0.260 C  
HETATM   21  C   UNL     1      -9.796   5.691  66.457  1.00  0.00    -0.195 C  
HETATM   22  C   UNL     1      -8.359   5.770  66.938  1.00  0.00    -0.108 C  
HETATM   23  C   UNL     1      -7.413   5.093  66.257  1.00  0.00    -0.087 C  
HETATM   24  C   UNL     1      -7.040   5.964  65.085  1.00  0.00    -0.064 C  
ENDROOT
BRANCH   4  25
HETATM   25  C   UNL     1     -11.916  10.177  70.618  1.00  0.00    -0.332 C  
HETATM   26  O   UNL     1     -12.173  10.567  71.760  1.00  0.00    -0.280 OA 
BRANCH  25  27
HETATM   27  C   UNL     1     -12.254  11.144  69.470  1.00  0.00    -0.277 C  
HETATM   28  O   UNL     1     -12.024  10.537  68.201  1.00  0.00    -0.788 OA 
HETATM   29  H   UNL     1     -12.232  11.134  67.493  1.00  0.00     0.000 HD 
ENDBRANCH  25  27
ENDBRANCH   4  25
TORSDOF 2
ENDMDL
MODEL       50
REMARK 921   NORMALIZED FREE ENERGY PREDICTED BY IDOCK:   -4.92 KCAL/MOL
REMARK 922        TOTAL FREE ENERGY PREDICTED BY IDOCK:   -4.75 KCAL/MOL
REMARK 923 INTER-LIGAND FREE ENERGY PREDICTED BY IDOCK:   -5.41 KCAL/MOL
REMARK 924 INTRA-LIGAND FREE ENERGY PREDICTED BY IDOCK:    0.66 KCAL/MOL
REMARK 927      BINDING AFFINITY PREDICTED BY RF-SCORE:    0.00 PKD
ROOT
HETATM    1  C   UNL     1      -7.718   8.208  70.262  1.00  0.00    -0.085 C  
HETATM    2  C   UNL     1      -7.916   8.897  71.485  1.00  0.00    -0.119 C  
HETATM    3  C   UNL     1      -9.189   8.170  71.130  1.00  0.00    -0.185 C  
HETATM    4  C   UNL     1      -8.991   6.931  69.501  1.00  0.00    -0.143 C  
HETATM    5  C   UNL     1      -9.856   8.046  72.651  1.00  0.00    -0.347 C  
HETATM    6  C   UNL     1     -11.888  11.317  69.279  1.00  0.00    -0.423 C  
HETATM    7  C   UNL     1      -8.827   6.739  70.826  1.00  0.00    -0.150 C  
HETATM    8  C   UNL     1      -8.115   5.689  71.656  1.00  0.00    -0.118 C  
HETATM    9  C   UNL     1     -10.705   6.879  70.369  1.00  0.00    -0.278 C  
HETATM   10  C   UNL     1     -10.642  10.910  68.381  1.00  0.00    -0.225 C  
HETATM   11  C   UNL     1     -11.188  10.993  66.964  1.00  0.00    -0.255 C  
HETATM   12  O   UNL     1     -10.332  14.430  66.219  1.00  0.00    -0.281 OA 
HETATM   13  C   UNL     1     -11.008   8.231  69.183  1.00  0.00     0.088 C  
HETATM   14  C   UNL     1     -11.133  12.169  66.287  1.00  0.00    -0.353 C  
HETATM   15  O   UNL     1     -11.061   7.630  67.871  1.00  0.00    -0.475 OA 
HETATM   16  C   UNL     1     -10.010   9.665  69.127  1.00  0.00    -0.185 C  
HETATM   17  C   UNL     1      -8.416   9.287  68.962  1.00  0.00    -0.132 C  
HETATM   18  F   UNL     1     -10.002  10.334  70.382  1.00  0.00    -0.263 F  
HETATM   19  H   UNL     1     -11.219   8.334  67.253  1.00  0.00     0.000 HD 
HETATM   20  C   UNL     1      -7.558  10.563  68.876  1.00  0.00    -0.108 C  
HETATM   21  C   UNL     1      -8.178  11.595  67.946  1.00  0.00    -0.141 C  
HETATM   22  C   UNL     1      -9.551  12.013  68.439  1.00  0.00    -0.190 C  
HETATM   23  C   UNL     1      -9.936  13.293  68.270  1.00  0.00    -0.236 C  
HETATM   24  C   UNL     1     -10.444  13.392  66.855  1.00  0.00    -0.273 C  
ENDROOT
BRANCH   4  25
HETATM   25  C   UNL     1      -9.168   5.302  69.107  1.00  0.00    -0.118 C  
HETATM   26  O   UNL     1      -9.990   4.498  69.555  1.00  0.00    -0.215 OA 
BRANCH  25  27
HETATM   27  C   UNL     1      -8.177   4.759  68.063  1.00  0.00    -0.095 C  
HETATM   28  O   UNL     1      -8.069   5.641  66.949  1.00  0.00    -0.102 OA 
HETATM   29  H   UNL     1      -7.457   5.306  66.305  1.00  0.00     0.000 HD 
ENDBRANCH  25  27
ENDBRANCH   4  25
TORSDOF 2
ENDMDL
MODEL       51
REMARK 921   NORMALIZED FREE ENERGY PREDICTED BY IDOCK:   -4.87 KCAL/MOL
REMARK 922        TOTAL FREE ENERGY PREDICTED BY IDOCK:   -4.70 KCAL/MOL
REMARK 923 INTER-LIGAND FREE ENERGY PREDICTED BY IDOCK:   -5.37 KCAL/MOL
REMARK 924 INTRA-LIGAND FREE ENERGY PREDICTED BY IDOCK:    0.67 KCAL/MOL
REMARK 927      BINDING AFFINITY PREDICTED BY RF-SCORE:    0.00 PKD
ROOT
HETATM    1  C   UNL     1     -11.057  10.705  67.581  1.00  0.00    -0.385 C  
HETATM    2  C   UNL     1     -10.844  10.835  66.186  1.00  0.00    -0.124 C  
HETATM    3  C   UNL     1      -9.573  10.329  66.822  1.00  0.00    -0.214 C  
HETATM    4  C   UNL     1      -9.791   9.862  68.812  1.00  0.00    -0.177 C  
HETATM    5  C   UNL     1      -8.884   9.599  65.492  1.00  0.00    -0.204 C  
HETATM    6  C   UNL     1      -6.912  13.981  67.255  1.00  0.00     0.113 C  
HETATM    7  C   UNL     1      -9.935   9.144  67.680  1.00  0.00    -0.245 C  
HETATM    8  C   UNL     1     -10.631   7.840  67.343  1.00  0.00    -0.345 C  
HETATM    9  C   UNL     1      -8.064   9.475  68.062  1.00  0.00    -0.102 C  
HETATM   10  C   UNL     1      -8.169  13.966  68.226  1.00  0.00    -0.158 C  
HETATM   11  C   UNL     1      -7.644  14.625  69.492  1.00  0.00    -0.042 C  
HETATM   12  O   UNL     1      -8.523  18.059  68.757  1.00  0.00    -0.285 OA 
HETATM   13  C   UNL     1      -7.782  11.196  68.594  1.00  0.00    -0.135 C  
HETATM   14  C   UNL     1      -7.713  15.975  69.628  1.00  0.00     0.062 C  
HETATM   15  O   UNL     1      -7.746  11.185  70.038  1.00  0.00    -0.303 OA 
HETATM   16  C   UNL     1      -8.786  12.519  68.047  1.00  0.00    -0.187 C  
HETATM   17  C   UNL     1     -10.381  12.227  68.334  1.00  0.00    -0.231 C  
HETATM   18  F   UNL     1      -8.779  12.616  66.629  1.00  0.00    -0.207 F  
HETATM   19  H   UNL     1      -7.600  12.081  70.316  1.00  0.00     0.000 HD 
HETATM   20  C   UNL     1     -11.245  13.419  67.881  1.00  0.00    -0.303 C  
HETATM   21  C   UNL     1     -10.642  14.747  68.315  1.00  0.00    -0.241 C  
HETATM   22  C   UNL     1      -9.263  14.939  67.710  1.00  0.00    -0.186 C  
HETATM   23  C   UNL     1      -8.885  16.179  67.345  1.00  0.00    -0.199 C  
HETATM   24  C   UNL     1      -8.398  16.853  68.602  1.00  0.00    -0.261 C  
ENDROOT
BRANCH   4  25
HETATM   25  C   UNL     1      -9.613   8.538  69.840  1.00  0.00    -0.171 C  
HETATM   26  O   UNL     1      -8.628   7.808  69.973  1.00  0.00    -0.136 OA 
BRANCH  25  27
HETATM   27  C   UNL     1     -10.837   8.205  70.712  1.00  0.00    -0.228 C  
HETATM   28  O   UNL     1     -11.923   9.084  70.431  1.00  0.00    -0.475 OA 
HETATM   29  H   UNL     1     -12.677   8.878  70.969  1.00  0.00     0.000 HD 
ENDBRANCH  25  27
ENDBRANCH   4  25
TORSDOF 2
ENDMDL
MODEL       52
REMARK 921   NORMALIZED FREE ENERGY PREDICTED BY IDOCK:   -4.85 KCAL/MOL
REMARK 922        TOTAL FREE ENERGY PREDICTED BY IDOCK:   -4.67 KCAL/MOL
REMARK 923 INTER-LIGAND FREE ENERGY PREDICTED BY IDOCK:   -5.33 KCAL/MOL
REMARK 924 INTRA-LIGAND FREE ENERGY PREDICTED BY IDOCK:    0.66 KCAL/MOL
REMARK 927      BINDING AFFINITY PREDICTED BY RF-SCORE:    0.00 PKD
ROOT
HETATM    1  C   UNL     1      -8.260  10.226  69.615  1.00  0.00    -0.146 C  
HETATM    2  C   UNL     1      -7.227   9.832  68.728  1.00  0.00    -0.072 C  
HETATM    3  C   UNL     1      -8.545   9.345  68.180  1.00  0.00    -0.120 C  
HETATM    4  C   UNL     1     -10.169  10.041  69.232  1.00  0.00    -0.229 C  
HETATM    5  C   UNL     1      -8.131   9.213  66.572  1.00  0.00    -0.107 C  
HETATM    6  C   UNL     1      -8.787   4.966  69.352  1.00  0.00    -0.120 C  
HETATM    7  C   UNL     1      -9.493  10.518  68.167  1.00  0.00    -0.157 C  
HETATM    8  C   UNL     1      -9.390  11.880  67.510  1.00  0.00    -0.177 C  
HETATM    9  C   UNL     1     -10.586   8.995  67.674  1.00  0.00    -0.298 C  
HETATM   10  C   UNL     1      -8.929   5.980  70.567  1.00  0.00    -0.150 C  
HETATM   11  C   UNL     1      -9.920   5.287  71.489  1.00  0.00    -0.241 C  
HETATM   12  O   UNL     1      -7.587   3.456  73.566  1.00  0.00    -0.058 OA 
HETATM   13  C   UNL     1     -10.476   7.661  68.913  1.00  0.00    -0.199 C  
HETATM   14  C   UNL     1      -9.471   4.416  72.431  1.00  0.00    -0.182 C  
HETATM   15  O   UNL     1     -11.623   7.801  69.779  1.00  0.00    -0.450 OA 
HETATM   16  C   UNL     1      -9.043   7.402  69.881  1.00  0.00    -0.141 C  
HETATM   17  C   UNL     1      -8.592   8.773  70.673  1.00  0.00    -0.203 C  
HETATM   18  F   UNL     1      -7.904   7.174  69.061  1.00  0.00    -0.104 F  
HETATM   19  H   UNL     1     -11.566   7.106  70.424  1.00  0.00     0.000 HD 
HETATM   20  C   UNL     1      -7.352   8.515  71.549  1.00  0.00    -0.112 C  
HETATM   21  C   UNL     1      -7.476   7.213  72.327  1.00  0.00    -0.084 C  
HETATM   22  C   UNL     1      -7.611   6.030  71.385  1.00  0.00    -0.099 C  
HETATM   23  C   UNL     1      -7.035   4.862  71.729  1.00  0.00    -0.056 C  
HETATM   24  C   UNL     1      -7.995   4.186  72.673  1.00  0.00    -0.084 C  
ENDROOT
BRANCH   4  25
HETATM   25  C   UNL     1     -11.569  10.943  68.971  1.00  0.00    -0.316 C  
HETATM   26  O   UNL     1     -12.011  11.364  67.898  1.00  0.00    -0.626 OA 
BRANCH  25  27
HETATM   27  C   UNL     1     -12.385  11.282  70.230  1.00  0.00    -0.307 C  
HETATM   28  O   UNL     1     -13.045  10.127  70.741  1.00  0.00    -0.494 OA 
HETATM   29  H   UNL     1     -13.549  10.337  71.518  1.00  0.00     0.000 HD 
ENDBRANCH  25  27
ENDBRANCH   4  25
TORSDOF 2
ENDMDL
MODEL       53
REMARK 921   NORMALIZED FREE ENERGY PREDICTED BY IDOCK:   -4.82 KCAL/MOL
REMARK 922        TOTAL FREE ENERGY PREDICTED BY IDOCK:   -4.64 KCAL/MOL
REMARK 923 INTER-LIGAND FREE ENERGY PREDICTED BY IDOCK:   -5.67 KCAL/MOL
REMARK 924 INTRA-LIGAND FREE ENERGY PREDICTED BY IDOCK:    1.03 KCAL/MOL
REMARK 927      BINDING AFFINITY PREDICTED BY RF-SCORE:    0.00 PKD
ROOT
HETATM    1  C   UNL     1     -10.381   9.368  70.498  1.00  0.00    -0.341 C  
HETATM    2  C   UNL     1     -11.493   8.631  70.018  1.00  0.00     0.064 C  
HETATM    3  C   UNL     1     -10.268   8.215  69.243  1.00  0.00    -0.216 C  
HETATM    4  C   UNL     1      -8.526   9.021  69.980  1.00  0.00    -0.149 C  
HETATM    5  C   UNL     1     -10.769   6.705  68.747  1.00  0.00    -0.302 C  
HETATM    6  C   UNL     1     -10.490  10.506  65.330  1.00  0.00    -0.232 C  
HETATM    7  C   UNL     1      -9.191   7.877  70.241  1.00  0.00    -0.152 C  
HETATM    8  C   UNL     1      -9.162   6.883  71.385  1.00  0.00    -0.156 C  
HETATM    9  C   UNL     1      -8.308   7.793  68.518  1.00  0.00    -0.129 C  
HETATM   10  C   UNL     1     -10.173  11.406  66.601  1.00  0.00    -0.258 C  
HETATM   11  C   UNL     1      -9.228  12.465  66.054  1.00  0.00    -0.055 C  
HETATM   12  O   UNL     1     -11.662  14.986  65.142  1.00  0.00    -0.325 OA 
HETATM   13  C   UNL     1      -8.517   9.343  67.580  1.00  0.00    -0.119 C  
HETATM   14  C   UNL     1      -9.733  13.610  65.525  1.00  0.00    -0.086 C  
HETATM   15  O   UNL     1      -7.323  10.125  67.797  1.00  0.00    -0.087 OA 
HETATM   16  C   UNL     1      -9.924  10.364  67.767  1.00  0.00    -0.175 C  
HETATM   17  C   UNL     1     -10.174  10.769  69.343  1.00  0.00    -0.187 C  
HETATM   18  F   UNL     1     -11.119   9.650  67.477  1.00  0.00    -0.354 F  
HETATM   19  H   UNL     1      -7.431  10.932  67.309  1.00  0.00     0.000 HD 
HETATM   20  C   UNL     1     -11.393  11.699  69.482  1.00  0.00    -0.328 C  
HETATM   21  C   UNL     1     -11.387  12.794  68.425  1.00  0.00    -0.331 C  
HETATM   22  C   UNL     1     -11.436  12.199  67.029  1.00  0.00    -0.415 C  
HETATM   23  C   UNL     1     -12.130  12.848  66.074  1.00  0.00    -0.484 C  
HETATM   24  C   UNL     1     -11.213  13.926  65.554  1.00  0.00    -0.307 C  
ENDROOT
BRANCH   4  25
HETATM   25  C   UNL     1      -7.044   8.511  70.598  1.00  0.00    -0.047 C  
HETATM   26  O   UNL     1      -6.723   7.375  70.959  1.00  0.00    -0.043 OA 
BRANCH  25  27
HETATM   27  C   UNL     1      -5.967   9.602  70.728  1.00  0.00    -0.077 C  
HETATM   28  O   UNL     1      -6.547  10.860  71.062  1.00  0.00    -0.375 OA 
HETATM   29  H   UNL     1      -5.883  11.533  71.142  1.00  0.00     0.000 HD 
ENDBRANCH  25  27
ENDBRANCH   4  25
TORSDOF 2
ENDMDL
MODEL       54
REMARK 921   NORMALIZED FREE ENERGY PREDICTED BY IDOCK:   -4.81 KCAL/MOL
REMARK 922        TOTAL FREE ENERGY PREDICTED BY IDOCK:   -4.63 KCAL/MOL
REMARK 923 INTER-LIGAND FREE ENERGY PREDICTED BY IDOCK:   -5.23 KCAL/MOL
REMARK 924 INTRA-LIGAND FREE ENERGY PREDICTED BY IDOCK:    0.61 KCAL/MOL
REMARK 927      BINDING AFFINITY PREDICTED BY RF-SCORE:    0.00 PKD
ROOT
HETATM    1  C   UNL     1      -9.560   8.498  66.584  1.00  0.00    -0.292 C  
HETATM    2  C   UNL     1     -10.781   9.217  66.524  1.00  0.00     0.040 C  
HETATM    3  C   UNL     1      -9.793  10.013  67.340  1.00  0.00    -0.226 C  
HETATM    4  C   UNL     1      -7.897   9.217  67.324  1.00  0.00    -0.099 C  
HETATM    5  C   UNL     1     -10.453  11.530  67.147  1.00  0.00    -0.259 C  
HETATM    6  C   UNL     1     -10.860   9.171  71.671  1.00  0.00    -0.442 C  
HETATM    7  C   UNL     1      -8.521  10.118  66.537  1.00  0.00    -0.128 C  
HETATM    8  C   UNL     1      -8.256  10.662  65.148  1.00  0.00    -0.092 C  
HETATM    9  C   UNL     1      -8.080  10.884  68.262  1.00  0.00    -0.124 C  
HETATM   10  C   UNL     1     -10.216   7.939  70.902  1.00  0.00    -0.213 C  
HETATM   11  C   UNL     1      -9.392   7.247  71.976  1.00  0.00    -0.150 C  
HETATM   12  O   UNL     1     -11.879   4.914  73.192  1.00  0.00    -0.279 OA 
HETATM   13  C   UNL     1      -8.451   9.730  69.624  1.00  0.00    -0.185 C  
HETATM   14  C   UNL     1      -9.966   6.297  72.760  1.00  0.00    -0.183 C  
HETATM   15  O   UNL     1      -7.211   9.068  69.958  1.00  0.00    -0.049 OA 
HETATM   16  C   UNL     1      -9.734   8.546  69.522  1.00  0.00    -0.176 C  
HETATM   17  C   UNL     1      -9.584   7.606  68.179  1.00  0.00    -0.158 C  
HETATM   18  F   UNL     1     -10.988   9.169  69.278  1.00  0.00    -0.235 F  
HETATM   19  H   UNL     1      -7.404   8.466  70.667  1.00  0.00     0.000 HD 
HETATM   20  C   UNL     1     -10.700   6.546  68.127  1.00  0.00    -0.347 C  
HETATM   21  C   UNL     1     -10.908   5.882  69.480  1.00  0.00    -0.442 C  
HETATM   22  C   UNL     1     -11.310   6.904  70.528  1.00  0.00    -0.374 C  
HETATM   23  C   UNL     1     -12.188   6.538  71.483  1.00  0.00    -0.328 C  
HETATM   24  C   UNL     1     -11.384   5.817  72.533  1.00  0.00    -0.307 C  
ENDROOT
BRANCH   4  25
HETATM   25  C   UNL     1      -6.330   9.660  66.891  1.00  0.00    -0.066 C  
HETATM   26  O   UNL     1      -5.744  10.716  67.142  1.00  0.00    -0.041 OA 
BRANCH  25  27
HETATM   27  C   UNL     1      -5.543   8.614  66.083  1.00  0.00    -0.038 C  
HETATM   28  O   UNL     1      -6.373   7.514  65.719  1.00  0.00    -0.041 OA 
HETATM   29  H   UNL     1      -5.887   6.868  65.221  1.00  0.00     0.000 HD 
ENDBRANCH  25  27
ENDBRANCH   4  25
TORSDOF 2
ENDMDL
MODEL       55
REMARK 921   NORMALIZED FREE ENERGY PREDICTED BY IDOCK:   -4.78 KCAL/MOL
REMARK 922        TOTAL FREE ENERGY PREDICTED BY IDOCK:   -4.60 KCAL/MOL
REMARK 923 INTER-LIGAND FREE ENERGY PREDICTED BY IDOCK:   -5.28 KCAL/MOL
REMARK 924 INTRA-LIGAND FREE ENERGY PREDICTED BY IDOCK:    0.68 KCAL/MOL
REMARK 927      BINDING AFFINITY PREDICTED BY RF-SCORE:    0.00 PKD
ROOT
HETATM    1  C   UNL     1      -6.954  10.089  67.513  1.00  0.00    -0.086 C  
HETATM    2  C   UNL     1      -7.106   9.765  68.885  1.00  0.00    -0.067 C  
HETATM    3  C   UNL     1      -8.201   9.081  68.104  1.00  0.00    -0.113 C  
HETATM    4  C   UNL     1      -7.981   9.262  66.068  1.00  0.00    -0.110 C  
HETATM    5  C   UNL     1      -8.548   7.843  69.162  1.00  0.00    -0.138 C  
HETATM    6  C   UNL     1     -11.869  11.703  68.638  1.00  0.00    -0.370 C  
HETATM    7  C   UNL     1      -7.552   8.346  66.959  1.00  0.00    -0.092 C  
HETATM    8  C   UNL     1      -6.473   7.282  66.937  1.00  0.00    -0.055 C  
HETATM    9  C   UNL     1      -9.456   8.171  66.641  1.00  0.00    -0.274 C  
HETATM   10  C   UNL     1     -10.732  12.342  67.730  1.00  0.00    -0.246 C  
HETATM   11  C   UNL     1     -11.514  13.122  66.685  1.00  0.00    -0.389 C  
HETATM   12  O   UNL     1     -11.675  16.325  68.364  1.00  0.00    -0.271 OA 
HETATM   13  C   UNL     1     -10.281   9.797  66.600  1.00  0.00    -0.226 C  
HETATM   14  C   UNL     1     -11.867  14.411  66.930  1.00  0.00    -0.433 C  
HETATM   15  O   UNL     1     -10.405  10.166  65.209  1.00  0.00    -0.266 OA 
HETATM   16  C   UNL     1      -9.694  11.165  67.516  1.00  0.00    -0.176 C  
HETATM   17  C   UNL     1      -8.108  11.471  67.197  1.00  0.00    -0.159 C  
HETATM   18  F   UNL     1      -9.639  10.868  68.905  1.00  0.00    -0.175 F  
HETATM   19  H   UNL     1     -10.835  11.012  65.188  1.00  0.00     0.000 HD 
HETATM   20  C   UNL     1      -7.620  12.702  67.982  1.00  0.00    -0.132 C  
HETATM   21  C   UNL     1      -8.625  13.843  67.919  1.00  0.00    -0.180 C  
HETATM   22  C   UNL     1      -9.955  13.427  68.521  1.00  0.00    -0.193 C  
HETATM   23  C   UNL     1     -10.668  14.342  69.207  1.00  0.00    -0.225 C  
HETATM   24  C   UNL     1     -11.416  15.145  68.175  1.00  0.00    -0.342 C  
ENDROOT
BRANCH   4  25
HETATM   25  C   UNL     1      -7.814   8.278  64.709  1.00  0.00    -0.129 C  
HETATM   26  O   UNL     1      -7.879   7.048  64.651  1.00  0.00    -0.113 OA 
BRANCH  25  27
HETATM   27  C   UNL     1      -7.542   9.014  63.385  1.00  0.00    -0.107 C  
HETATM   28  O   UNL     1      -8.758   9.414  62.760  1.00  0.00    -0.210 OA 
HETATM   29  H   UNL     1      -8.590   9.868  61.943  1.00  0.00     0.000 HD 
ENDBRANCH  25  27
ENDBRANCH   4  25
TORSDOF 2
ENDMDL
MODEL       56
REMARK 921   NORMALIZED FREE ENERGY PREDICTED BY IDOCK:   -4.78 KCAL/MOL
REMARK 922        TOTAL FREE ENERGY PREDICTED BY IDOCK:   -4.60 KCAL/MOL
REMARK 923 INTER-LIGAND FREE ENERGY PREDICTED BY IDOCK:   -5.21 KCAL/MOL
REMARK 924 INTRA-LIGAND FREE ENERGY PREDICTED BY IDOCK:    0.62 KCAL/MOL
REMARK 927      BINDING AFFINITY PREDICTED BY RF-SCORE:    0.00 PKD
ROOT
HETATM    1  C   UNL     1      -7.977   8.603  68.080  1.00  0.00    -0.107 C  
HETATM    2  C   UNL     1      -7.168   9.085  69.140  1.00  0.00    -0.067 C  
HETATM    3  C   UNL     1      -7.266   7.584  69.252  1.00  0.00    -0.086 C  
HETATM    4  C   UNL     1      -8.212   6.709  67.651  1.00  0.00    -0.122 C  
HETATM    5  C   UNL     1      -5.877   7.293  70.124  1.00  0.00    -0.024 C  
HETATM    6  C   UNL     1     -10.426   6.824  72.422  1.00  0.00    -0.230 C  
HETATM    7  C   UNL     1      -6.921   7.003  67.905  1.00  0.00    -0.083 C  
HETATM    8  C   UNL     1      -5.686   7.150  67.039  1.00  0.00    -0.022 C  
HETATM    9  C   UNL     1      -7.511   5.487  68.958  1.00  0.00    -0.082 C  
HETATM   10  C   UNL     1     -10.993   7.406  71.056  1.00  0.00    -0.268 C  
HETATM   11  C   UNL     1     -12.345   6.725  70.919  1.00  0.00    -0.336 C  
HETATM   12  O   UNL     1     -14.403   9.198  72.579  1.00  0.00    -0.529 OA 
HETATM   13  C   UNL     1      -9.169   5.765  69.664  1.00  0.00    -0.138 C  
HETATM   14  C   UNL     1     -13.447   7.295  71.473  1.00  0.00    -0.439 C  
HETATM   15  O   UNL     1     -10.111   5.114  68.784  1.00  0.00    -0.177 OA 
HETATM   16  C   UNL     1      -9.757   7.361  70.068  1.00  0.00    -0.175 C  
HETATM   17  C   UNL     1      -9.649   8.388  68.786  1.00  0.00    -0.150 C  
HETATM   18  F   UNL     1      -8.898   8.003  71.002  1.00  0.00    -0.127 F  
HETATM   19  H   UNL     1     -10.975   5.258  69.151  1.00  0.00     0.000 HD 
HETATM   20  C   UNL     1     -10.206   9.777  69.149  1.00  0.00    -0.211 C  
HETATM   21  C   UNL     1     -11.520   9.673  69.911  1.00  0.00    -0.144 C  
HETATM   22  C   UNL     1     -11.333   8.912  71.211  1.00  0.00    -0.371 C  
HETATM   23  C   UNL     1     -12.044   9.293  72.290  1.00  0.00    -0.262 C  
HETATM   24  C   UNL     1     -13.400   8.652  72.141  1.00  0.00    -0.396 C  
ENDROOT
BRANCH   4  25
HETATM   25  C   UNL     1      -7.901   5.566  66.452  1.00  0.00    -0.100 C  
HETATM   26  O   UNL     1      -6.974   4.753  66.402  1.00  0.00    -0.063 OA 
BRANCH  25  27
HETATM   27  C   UNL     1      -8.895   5.546  65.278  1.00  0.00    -0.107 C  
HETATM   28  O   UNL     1     -10.219   5.833  65.721  1.00  0.00    -0.396 OA 
HETATM   29  H   UNL     1     -10.833   5.820  64.997  1.00  0.00     0.000 HD 
ENDBRANCH  25  27
ENDBRANCH   4  25
TORSDOF 2
ENDMDL
MODEL       57
REMARK 921   NORMALIZED FREE ENERGY PREDICTED BY IDOCK:   -4.74 KCAL/MOL
REMARK 922        TOTAL FREE ENERGY PREDICTED BY IDOCK:   -4.55 KCAL/MOL
REMARK 923 INTER-LIGAND FREE ENERGY PREDICTED BY IDOCK:   -5.17 KCAL/MOL
REMARK 924 INTRA-LIGAND FREE ENERGY PREDICTED BY IDOCK:    0.62 KCAL/MOL
REMARK 927      BINDING AFFINITY PREDICTED BY RF-SCORE:    0.00 PKD
ROOT
HETATM    1  C   UNL     1      -9.899   8.970  68.336  1.00  0.00    -0.183 C  
HETATM    2  C   UNL     1     -10.631   8.857  67.127  1.00  0.00    -0.301 C  
HETATM    3  C   UNL     1      -9.251   9.374  66.808  1.00  0.00    -0.179 C  
HETATM    4  C   UNL     1      -7.986   9.370  68.429  1.00  0.00    -0.094 C  
HETATM    5  C   UNL     1      -9.152   8.897  65.215  1.00  0.00    -0.196 C  
HETATM    6  C   UNL     1      -9.735  13.861  66.319  1.00  0.00    -0.304 C  
HETATM    7  C   UNL     1      -8.257   8.457  67.474  1.00  0.00    -0.125 C  
HETATM    8  C   UNL     1      -8.041   6.962  67.358  1.00  0.00    -0.115 C  
HETATM    9  C   UNL     1      -7.189   9.911  66.766  1.00  0.00    -0.091 C  
HETATM   10  C   UNL     1      -9.899  13.342  67.812  1.00  0.00    -0.224 C  
HETATM   11  C   UNL     1      -9.303  14.467  68.643  1.00  0.00    -0.199 C  
HETATM   12  O   UNL     1     -12.305  16.409  69.215  1.00  0.00     0.104 OA 
HETATM   13  C   UNL     1      -7.785  11.531  67.356  1.00  0.00    -0.143 C  
HETATM   14  C   UNL     1     -10.091  15.497  69.048  1.00  0.00    -0.234 C  
HETATM   15  O   UNL     1      -6.958  11.894  68.483  1.00  0.00    -0.072 OA 
HETATM   16  C   UNL     1      -9.464  11.821  67.748  1.00  0.00    -0.181 C  
HETATM   17  C   UNL     1     -10.030  10.723  68.837  1.00  0.00    -0.213 C  
HETATM   18  F   UNL     1     -10.305  11.555  66.633  1.00  0.00    -0.229 F  
HETATM   19  H   UNL     1      -7.268  12.737  68.790  1.00  0.00     0.000 HD 
HETATM   20  C   UNL     1     -11.497  11.018  69.198  1.00  0.00    -0.370 C  
HETATM   21  C   UNL     1     -11.726  12.501  69.450  1.00  0.00    -0.383 C  
HETATM   22  C   UNL     1     -11.398  13.317  68.213  1.00  0.00    -0.335 C  
HETATM   23  C   UNL     1     -12.144  14.406  67.941  1.00  0.00    -0.280 C  
HETATM   24  C   UNL     1     -11.583  15.517  68.791  1.00  0.00    -0.378 C  
ENDROOT
BRANCH   4  25
HETATM   25  C   UNL     1      -6.508   8.707  68.894  1.00  0.00    -0.049 C  
HETATM   26  O   UNL     1      -5.722   8.050  68.207  1.00  0.00    -0.032 OA 
BRANCH  25  27
HETATM   27  C   UNL     1      -6.101   8.952  70.358  1.00  0.00    -0.035 C  
HETATM   28  O   UNL     1      -6.758  10.100  70.889  1.00  0.00    -0.328 OA 
HETATM   29  H   UNL     1      -6.506  10.251  71.792  1.00  0.00     0.000 HD 
ENDBRANCH  25  27
ENDBRANCH   4  25
TORSDOF 2
ENDMDL
MODEL       58
REMARK 921   NORMALIZED FREE ENERGY PREDICTED BY IDOCK:   -4.66 KCAL/MOL
REMARK 922        TOTAL FREE ENERGY PREDICTED BY IDOCK:   -4.47 KCAL/MOL
REMARK 923 INTER-LIGAND FREE ENERGY PREDICTED BY IDOCK:   -5.14 KCAL/MOL
REMARK 924 INTRA-LIGAND FREE ENERGY PREDICTED BY IDOCK:    0.68 KCAL/MOL
REMARK 927      BINDING AFFINITY PREDICTED BY RF-SCORE:    0.00 PKD
ROOT
HETATM    1  C   UNL     1      -7.191  17.133  68.409  1.00  0.00    -0.209 C  
HETATM    2  C   UNL     1      -6.231  16.680  67.469  1.00  0.00    -0.187 C  
HETATM    3  C   UNL     1      -7.267  17.501  66.743  1.00  0.00    -0.250 C  
HETATM    4  C   UNL     1      -8.601  18.428  68.004  1.00  0.00    -0.287 C  
HETATM    5  C   UNL     1      -6.365  17.953  65.418  1.00  0.00    -0.043 C  
HETATM    6  C   UNL     1     -10.083  14.481  64.856  1.00  0.00    -0.245 C  
HETATM    7  C   UNL     1      -7.415  18.805  67.484  1.00  0.00    -0.241 C  
HETATM    8  C   UNL     1      -6.401  19.872  67.845  1.00  0.00    -0.264 C  
HETATM    9  C   UNL     1      -8.810  18.842  66.139  1.00  0.00    -0.165 C  
HETATM   10  C   UNL     1     -10.182  14.572  66.440  1.00  0.00    -0.293 C  
HETATM   11  C   UNL     1     -11.660  14.337  66.712  1.00  0.00    -0.407 C  
HETATM   12  O   UNL     1     -11.598  10.742  67.137  1.00  0.00    -0.385 OA 
HETATM   13  C   UNL     1      -9.881  17.369  66.242  1.00  0.00    -0.279 C  
HETATM   14  C   UNL     1     -12.121  13.070  66.882  1.00  0.00    -0.349 C  
HETATM   15  O   UNL     1     -11.046  17.755  67.004  1.00  0.00    -0.035 OA 
HETATM   16  C   UNL     1      -9.294  15.826  66.817  1.00  0.00    -0.242 C  
HETATM   17  C   UNL     1      -8.589  15.961  68.299  1.00  0.00    -0.176 C  
HETATM   18  F   UNL     1      -8.197  15.371  66.036  1.00  0.00    -0.145 F  
HETATM   19  H   UNL     1     -11.604  16.988  67.058  1.00  0.00     0.000 HD 
HETATM   20  C   UNL     1      -8.113  14.587  68.805  1.00  0.00    -0.146 C  
HETATM   21  C   UNL     1      -9.163  13.509  68.575  1.00  0.00    -0.101 C  
HETATM   22  C   UNL     1      -9.471  13.359  67.096  1.00  0.00    -0.244 C  
HETATM   23  C   UNL     1      -9.739  12.130  66.614  1.00  0.00    -0.228 C  
HETATM   24  C   UNL     1     -11.193  11.874  66.915  1.00  0.00    -0.325 C  
ENDROOT
BRANCH   4  25
HETATM   25  C   UNL     1      -9.131  19.982  68.384  1.00  0.00    -0.112 C  
HETATM   26  O   UNL     1      -9.426  20.893  67.606  1.00  0.00    -0.306 OA 
BRANCH  25  27
HETATM   27  C   UNL     1      -9.255  20.293  69.885  1.00  0.00     1.064 C  
HETATM   28  O   UNL     1     -10.605  20.167  70.327  1.00  0.00    -0.543 OA 
HETATM   29  H   UNL     1     -10.681  20.359  71.253  1.00  0.00     0.000 HD 
ENDBRANCH  25  27
ENDBRANCH   4  25
TORSDOF 2
ENDMDL
MODEL       59
REMARK 921   NORMALIZED FREE ENERGY PREDICTED BY IDOCK:   -4.62 KCAL/MOL
REMARK 922        TOTAL FREE ENERGY PREDICTED BY IDOCK:   -4.42 KCAL/MOL
REMARK 923 INTER-LIGAND FREE ENERGY PREDICTED BY IDOCK:   -5.04 KCAL/MOL
REMARK 924 INTRA-LIGAND FREE ENERGY PREDICTED BY IDOCK:    0.61 KCAL/MOL
REMARK 927      BINDING AFFINITY PREDICTED BY RF-SCORE:    0.00 PKD
ROOT
HETATM    1  C   UNL     1      -9.943   4.699  69.692  1.00  0.00    -0.281 C  
HETATM    2  C   UNL     1      -8.901   4.220  68.860  1.00  0.00    -0.139 C  
HETATM    3  C   UNL     1      -8.293   5.049  69.964  1.00  0.00    -0.084 C  
HETATM    4  C   UNL     1      -9.654   5.622  71.394  1.00  0.00    -0.188 C  
HETATM    5  C   UNL     1      -6.759   4.400  69.967  1.00  0.00    -0.033 C  
HETATM    6  C   UNL     1      -7.486   9.112  68.107  1.00  0.00    -0.083 C  
HETATM    7  C   UNL     1      -8.851   4.546  71.270  1.00  0.00    -0.154 C  
HETATM    8  C   UNL     1      -8.837   3.167  71.900  1.00  0.00    -0.123 C  
HETATM    9  C   UNL     1      -7.833   6.124  71.745  1.00  0.00    -0.102 C  
HETATM   10  C   UNL     1      -9.026   8.782  68.321  1.00  0.00    -0.141 C  
HETATM   11  C   UNL     1      -9.629  10.133  68.671  1.00  0.00    -0.165 C  
HETATM   12  O   UNL     1     -10.548  11.228  65.345  1.00  0.00    -0.267 OA 
HETATM   13  C   UNL     1      -8.368   7.581  70.788  1.00  0.00    -0.118 C  
HETATM   14  C   UNL     1     -10.072  10.951  67.681  1.00  0.00    -0.206 C  
HETATM   15  O   UNL     1      -9.290   8.314  71.624  1.00  0.00    -0.158 OA 
HETATM   16  C   UNL     1      -9.026   7.448  69.173  1.00  0.00    -0.135 C  
HETATM   17  C   UNL     1     -10.295   6.400  69.122  1.00  0.00    -0.248 C  
HETATM   18  F   UNL     1      -8.109   6.806  68.297  1.00  0.00    -0.109 F  
HETATM   19  H   UNL     1      -9.568   9.073  71.126  1.00  0.00     0.000 HD 
HETATM   20  C   UNL     1     -10.885   6.325  67.702  1.00  0.00    -0.433 C  
HETATM   21  C   UNL     1     -11.036   7.707  67.083  1.00  0.00    -0.098 C  
HETATM   22  C   UNL     1      -9.690   8.400  66.972  1.00  0.00    -0.268 C  
HETATM   23  C   UNL     1      -9.457   9.191  65.906  1.00  0.00    -0.326 C  
HETATM   24  C   UNL     1     -10.086  10.521  66.229  1.00  0.00    -0.232 C  
ENDROOT
BRANCH   4  25
HETATM   25  C   UNL     1      -9.906   5.466  73.053  1.00  0.00    -0.162 C  
HETATM   26  O   UNL     1      -9.096   5.658  73.964  1.00  0.00    -0.125 OA 
BRANCH  25  27
HETATM   27  C   UNL     1     -11.320   5.028  73.472  1.00  0.00    -0.179 C  
HETATM   28  O   UNL     1     -12.309   5.593  72.615  1.00  0.00    -0.480 OA 
HETATM   29  H   UNL     1     -13.181   5.322  72.874  1.00  0.00     0.000 HD 
ENDBRANCH  25  27
ENDBRANCH   4  25
TORSDOF 2
ENDMDL
MODEL       60
REMARK 921   NORMALIZED FREE ENERGY PREDICTED BY IDOCK:   -4.62 KCAL/MOL
REMARK 922        TOTAL FREE ENERGY PREDICTED BY IDOCK:   -4.42 KCAL/MOL
REMARK 923 INTER-LIGAND FREE ENERGY PREDICTED BY IDOCK:   -5.02 KCAL/MOL
REMARK 924 INTRA-LIGAND FREE ENERGY PREDICTED BY IDOCK:    0.60 KCAL/MOL
REMARK 927      BINDING AFFINITY PREDICTED BY RF-SCORE:    0.00 PKD
ROOT
HETATM    1  C   UNL     1     -10.349   7.991  67.090  1.00  0.00    -0.395 C  
HETATM    2  C   UNL     1     -10.740   9.276  67.542  1.00  0.00    -0.272 C  
HETATM    3  C   UNL     1      -9.237   9.171  67.629  1.00  0.00    -0.143 C  
HETATM    4  C   UNL     1      -8.493   7.450  66.787  1.00  0.00    -0.124 C  
HETATM    5  C   UNL     1      -8.855  10.791  67.571  1.00  0.00    -0.128 C  
HETATM    6  C   UNL     1      -8.350   8.249  71.985  1.00  0.00    -0.219 C  
HETATM    7  C   UNL     1      -8.738   8.681  66.294  1.00  0.00    -0.165 C  
HETATM    8  C   UNL     1      -8.910   9.239  64.896  1.00  0.00    -0.233 C  
HETATM    9  C   UNL     1      -7.171   8.685  67.435  1.00  0.00    -0.080 C  
HETATM   10  C   UNL     1      -9.035   7.057  71.188  1.00  0.00    -0.146 C  
HETATM   11  C   UNL     1      -8.398   5.817  71.796  1.00  0.00    -0.120 C  
HETATM   12  O   UNL     1     -10.808   5.163  74.417  1.00  0.00    -0.323 OA 
HETATM   13  C   UNL     1      -7.443   7.712  68.953  1.00  0.00    -0.096 C  
HETATM   14  C   UNL     1      -8.958   5.239  72.891  1.00  0.00    -0.120 C  
HETATM   15  O   UNL     1      -6.875   6.405  68.716  1.00  0.00    -0.068 OA 
HETATM   16  C   UNL     1      -9.024   7.537  69.679  1.00  0.00    -0.141 C  
HETATM   17  C   UNL     1     -10.130   6.977  68.595  1.00  0.00    -0.168 C  
HETATM   18  F   UNL     1      -9.581   8.804  70.006  1.00  0.00    -0.158 F  
HETATM   19  H   UNL     1      -7.017   5.898  69.507  1.00  0.00     0.000 HD 
HETATM   20  C   UNL     1     -11.505   6.794  69.263  1.00  0.00    -0.162 C  
HETATM   21  C   UNL     1     -11.385   6.116  70.620  1.00  0.00    -0.368 C  
HETATM   22  C   UNL     1     -10.535   6.946  71.566  1.00  0.00    -0.231 C  
HETATM   23  C   UNL     1     -10.862   6.971  72.873  1.00  0.00    -0.334 C  
HETATM   24  C   UNL     1     -10.267   5.725  73.475  1.00  0.00    -0.213 C  
ENDROOT
BRANCH   4  25
HETATM   25  C   UNL     1      -7.424   6.982  65.571  1.00  0.00    -0.086 C  
HETATM   26  O   UNL     1      -6.297   7.427  65.340  1.00  0.00    -0.037 OA 
BRANCH  25  27
HETATM   27  C   UNL     1      -7.926   5.866  64.638  1.00  0.00    -0.123 C  
HETATM   28  O   UNL     1      -9.268   5.501  64.948  1.00  0.00    -0.361 OA 
HETATM   29  H   UNL     1      -9.578   4.813  64.373  1.00  0.00     0.000 HD 
ENDBRANCH  25  27
ENDBRANCH   4  25
TORSDOF 2
ENDMDL
MODEL       61
REMARK 921   NORMALIZED FREE ENERGY PREDICTED BY IDOCK:   -4.60 KCAL/MOL
REMARK 922        TOTAL FREE ENERGY PREDICTED BY IDOCK:   -4.39 KCAL/MOL
REMARK 923 INTER-LIGAND FREE ENERGY PREDICTED BY IDOCK:   -5.18 KCAL/MOL
REMARK 924 INTRA-LIGAND FREE ENERGY PREDICTED BY IDOCK:    0.79 KCAL/MOL
REMARK 927      BINDING AFFINITY PREDICTED BY RF-SCORE:    0.00 PKD
ROOT
HETATM    1  C   UNL     1      -7.079   7.094  67.256  1.00  0.00    -0.084 C  
HETATM    2  C   UNL     1      -6.461   7.433  68.486  1.00  0.00    -0.041 C  
HETATM    3  C   UNL     1      -7.819   6.844  68.775  1.00  0.00    -0.118 C  
HETATM    4  C   UNL     1      -8.748   6.084  67.106  1.00  0.00    -0.109 C  
HETATM    5  C   UNL     1      -7.556   6.325  70.336  1.00  0.00    -0.096 C  
HETATM    6  C   UNL     1     -10.535  10.406  69.517  1.00  0.00    -0.274 C  
HETATM    7  C   UNL     1      -7.921   5.543  68.022  1.00  0.00    -0.096 C  
HETATM    8  C   UNL     1      -7.054   4.300  68.052  1.00  0.00    -0.060 C  
HETATM    9  C   UNL     1      -9.690   5.823  68.760  1.00  0.00    -0.168 C  
HETATM   10  C   UNL     1     -10.068  10.239  68.007  1.00  0.00    -0.189 C  
HETATM   11  C   UNL     1     -11.278  10.705  67.212  1.00  0.00    -0.237 C  
HETATM   12  O   UNL     1     -10.422  14.206  66.865  1.00  0.00    -0.269 OA 
HETATM   13  C   UNL     1     -10.367   7.448  68.281  1.00  0.00    -0.194 C  
HETATM   14  C   UNL     1     -11.411  12.019  66.894  1.00  0.00    -0.400 C  
HETATM   15  O   UNL     1     -11.226   7.221  67.142  1.00  0.00    -0.568 OA 
HETATM   16  C   UNL     1      -9.344   8.832  67.973  1.00  0.00    -0.142 C  
HETATM   17  C   UNL     1      -8.186   8.492  66.853  1.00  0.00    -0.106 C  
HETATM   18  F   UNL     1      -8.543   9.139  69.107  1.00  0.00    -0.122 F  
HETATM   19  H   UNL     1     -11.578   8.067  66.892  1.00  0.00     0.000 HD 
HETATM   20  C   UNL     1      -7.321   9.732  66.568  1.00  0.00    -0.095 C  
HETATM   21  C   UNL     1      -8.170  10.984  66.403  1.00  0.00    -0.166 C  
HETATM   22  C   UNL     1      -8.961  11.272  67.666  1.00  0.00    -0.142 C  
HETATM   23  C   UNL     1      -9.161  12.555  68.025  1.00  0.00    -0.204 C  
HETATM   24  C   UNL     1     -10.335  13.036  67.212  1.00  0.00    -0.238 C  
ENDROOT
BRANCH   4  25
HETATM   25  C   UNL     1      -9.375   4.623  66.547  1.00  0.00    -0.149 C  
HETATM   26  O   UNL     1      -9.708   3.638  67.210  1.00  0.00    -0.198 OA 
BRANCH  25  27
HETATM   27  C   UNL     1      -9.544   4.513  65.021  1.00  0.00    -0.142 C  
HETATM   28  O   UNL     1     -10.921   4.432  64.662  1.00  0.00    -0.575 OA 
HETATM   29  H   UNL     1     -11.025   4.364  63.721  1.00  0.00     0.000 HD 
ENDBRANCH  25  27
ENDBRANCH   4  25
TORSDOF 2
ENDMDL
MODEL       62
REMARK 921   NORMALIZED FREE ENERGY PREDICTED BY IDOCK:   -4.55 KCAL/MOL
REMARK 922        TOTAL FREE ENERGY PREDICTED BY IDOCK:   -4.34 KCAL/MOL
REMARK 923 INTER-LIGAND FREE ENERGY PREDICTED BY IDOCK:   -5.05 KCAL/MOL
REMARK 924 INTRA-LIGAND FREE ENERGY PREDICTED BY IDOCK:    0.71 KCAL/MOL
REMARK 927      BINDING AFFINITY PREDICTED BY RF-SCORE:    0.00 PKD
ROOT
HETATM    1  C   UNL     1      -8.163   9.834  68.878  1.00  0.00    -0.117 C  
HETATM    2  C   UNL     1      -7.048  10.001  68.018  1.00  0.00    -0.081 C  
HETATM    3  C   UNL     1      -8.292   9.873  67.175  1.00  0.00    -0.121 C  
HETATM    4  C   UNL     1     -10.026   9.861  68.280  1.00  0.00    -0.172 C  
HETATM    5  C   UNL     1      -7.759  10.645  65.798  1.00  0.00    -0.130 C  
HETATM    6  C   UNL     1      -8.342   5.560  65.759  1.00  0.00    -0.129 C  
HETATM    7  C   UNL     1      -9.307  10.850  67.711  1.00  0.00    -0.162 C  
HETATM    8  C   UNL     1      -9.244  12.351  67.910  1.00  0.00    -0.192 C  
HETATM    9  C   UNL     1     -10.267   9.827  66.374  1.00  0.00    -0.288 C  
HETATM   10  C   UNL     1      -8.632   5.746  67.311  1.00  0.00    -0.109 C  
HETATM   11  C   UNL     1      -9.640   4.648  67.614  1.00  0.00    -0.200 C  
HETATM   12  O   UNL     1      -7.349   2.015  68.573  1.00  0.00    -0.043 OA 
HETATM   13  C   UNL     1     -10.161   8.035  66.696  1.00  0.00    -0.259 C  
HETATM   14  C   UNL     1      -9.204   3.412  67.970  1.00  0.00    -0.238 C  
HETATM   15  O   UNL     1     -11.372   7.664  67.389  1.00  0.00    -0.383 OA 
HETATM   16  C   UNL     1      -8.786   7.310  67.497  1.00  0.00    -0.121 C  
HETATM   17  C   UNL     1      -8.477   8.034  68.943  1.00  0.00    -0.131 C  
HETATM   18  F   UNL     1      -7.580   7.583  66.794  1.00  0.00    -0.091 F  
HETATM   19  H   UNL     1     -11.317   6.731  67.557  1.00  0.00     0.000 HD 
HETATM   20  C   UNL     1      -7.288   7.358  69.650  1.00  0.00    -0.091 C  
HETATM   21  C   UNL     1      -7.384   5.841  69.583  1.00  0.00    -0.071 C  
HETATM   22  C   UNL     1      -7.380   5.361  68.143  1.00  0.00    -0.072 C  
HETATM   23  C   UNL     1      -6.757   4.202  67.851  1.00  0.00    -0.047 C  
HETATM   24  C   UNL     1      -7.737   3.107  68.185  1.00  0.00    -0.059 C  
ENDROOT
BRANCH   4  25
HETATM   25  C   UNL     1     -11.457  10.739  68.421  1.00  0.00    -0.288 C  
HETATM   26  O   UNL     1     -12.035  11.392  67.549  1.00  0.00    -0.626 OA 
BRANCH  25  27
HETATM   27  C   UNL     1     -12.112  10.723  69.813  1.00  0.00    -0.318 C  
HETATM   28  O   UNL     1     -11.743  11.873  70.569  1.00  0.00    -0.508 OA 
HETATM   29  H   UNL     1     -12.147  11.862  71.428  1.00  0.00     0.000 HD 
ENDBRANCH  25  27
ENDBRANCH   4  25
TORSDOF 2
ENDMDL
MODEL       63
REMARK 921   NORMALIZED FREE ENERGY PREDICTED BY IDOCK:   -4.46 KCAL/MOL
REMARK 922        TOTAL FREE ENERGY PREDICTED BY IDOCK:   -4.24 KCAL/MOL
REMARK 923 INTER-LIGAND FREE ENERGY PREDICTED BY IDOCK:   -5.38 KCAL/MOL
REMARK 924 INTRA-LIGAND FREE ENERGY PREDICTED BY IDOCK:    1.14 KCAL/MOL
REMARK 927      BINDING AFFINITY PREDICTED BY RF-SCORE:    0.00 PKD
ROOT
HETATM    1  C   UNL     1      -9.018  13.805  67.624  1.00  0.00    -0.194 C  
HETATM    2  C   UNL     1      -8.323  12.948  68.514  1.00  0.00    -0.054 C  
HETATM    3  C   UNL     1      -9.532  12.217  67.987  1.00  0.00    -0.201 C  
HETATM    4  C   UNL     1     -10.517  13.240  66.500  1.00  0.00    -0.282 C  
HETATM    5  C   UNL     1      -9.015  10.650  68.217  1.00  0.00    -0.143 C  
HETATM    6  C   UNL     1     -12.663  12.562  71.256  1.00  0.00    -0.350 C  
HETATM    7  C   UNL     1      -9.516  12.337  66.484  1.00  0.00    -0.238 C  
HETATM    8  C   UNL     1      -8.470  11.945  65.460  1.00  0.00     0.606 C  
HETATM    9  C   UNL     1     -11.212  11.492  66.893  1.00  0.00    -0.363 C  
HETATM   10  C   UNL     1     -12.352  13.924  70.498  1.00  0.00    -0.439 C  
HETATM   11  C   UNL     1     -13.702  14.623  70.463  1.00  0.00     0.306 C  
HETATM   12  O   UNL     1     -13.443  16.522  73.535  1.00  0.00    -0.491 OA 
HETATM   13  C   UNL     1     -12.182  12.477  68.083  1.00  0.00     0.161 C  
HETATM   14  C   UNL     1     -14.072  15.427  71.494  1.00  0.00    -0.596 C  
HETATM   15  O   UNL     1     -13.120  13.258  67.310  1.00  0.00     0.701 OA 
HETATM   16  C   UNL     1     -11.428  13.496  69.286  1.00  0.00    -0.291 C  
HETATM   17  C   UNL     1     -10.367  14.555  68.604  1.00  0.00    -0.242 C  
HETATM   18  F   UNL     1     -10.559  12.744  70.124  1.00  0.00     0.560 F  
HETATM   19  H   UNL     1     -13.625  13.770  67.929  1.00  0.00     0.000 HD 
HETATM   20  C   UNL     1      -9.742  15.468  69.673  1.00  0.00    -0.276 C  
HETATM   21  C   UNL     1     -10.788  15.988  70.649  1.00  0.00    -0.183 C  
HETATM   22  C   UNL     1     -11.464  14.842  71.379  1.00  0.00    -0.317 C  
HETATM   23  C   UNL     1     -11.818  15.017  72.668  1.00  0.00    -0.403 C  
HETATM   24  C   UNL     1     -13.138  15.744  72.642  1.00  0.00    -0.491 C  
ENDROOT
BRANCH   4  25
HETATM   25  C   UNL     1     -10.970  13.032  64.890  1.00  0.00    -0.307 C  
HETATM   26  O   UNL     1     -10.576  12.173  64.097  1.00  0.00    -0.307 OA 
BRANCH  25  27
HETATM   27  C   UNL     1     -11.997  14.043  64.353  1.00  0.00    -0.454 C  
HETATM   28  O   UNL     1     -12.367  13.737  63.011  1.00  0.00    -1.089 OA 
HETATM   29  H   UNL     1     -13.000  14.361  62.679  1.00  0.00     0.000 HD 
ENDBRANCH  25  27
ENDBRANCH   4  25
TORSDOF 2
ENDMDL
MODEL       64
REMARK 921   NORMALIZED FREE ENERGY PREDICTED BY IDOCK:   -4.44 KCAL/MOL
REMARK 922        TOTAL FREE ENERGY PREDICTED BY IDOCK:   -4.21 KCAL/MOL
REMARK 923 INTER-LIGAND FREE ENERGY PREDICTED BY IDOCK:   -5.64 KCAL/MOL
REMARK 924 INTRA-LIGAND FREE ENERGY PREDICTED BY IDOCK:    1.42 KCAL/MOL
REMARK 927      BINDING AFFINITY PREDICTED BY RF-SCORE:    0.00 PKD
ROOT
HETATM    1  C   UNL     1     -10.914   8.435  70.612  1.00  0.00    -0.266 C  
HETATM    2  C   UNL     1     -10.171   9.032  71.662  1.00  0.00    -0.418 C  
HETATM    3  C   UNL     1      -9.207   8.403  70.687  1.00  0.00    -0.177 C  
HETATM    4  C   UNL     1     -10.117   7.699  68.983  1.00  0.00    -0.199 C  
HETATM    5  C   UNL     1      -7.854   9.312  71.030  1.00  0.00    -0.109 C  
HETATM    6  C   UNL     1      -8.048   4.426  72.545  1.00  0.00    -0.100 C  
HETATM    7  C   UNL     1      -9.573   8.890  69.308  1.00  0.00    -0.162 C  
HETATM    8  C   UNL     1      -9.689  10.289  68.739  1.00  0.00    -0.178 C  
HETATM    9  C   UNL     1      -8.201   7.553  69.011  1.00  0.00    -0.128 C  
HETATM   10  C   UNL     1      -9.545   4.493  72.018  1.00  0.00    -0.209 C  
HETATM   11  C   UNL     1      -9.801   3.085  71.506  1.00  0.00    -0.192 C  
HETATM   12  O   UNL     1     -11.155   1.614  74.525  1.00  0.00    -0.098 OA 
HETATM   13  C   UNL     1      -8.637   5.961  69.787  1.00  0.00    -0.129 C  
HETATM   14  C   UNL     1     -10.274   2.134  72.353  1.00  0.00    -0.227 C  
HETATM   15  O   UNL     1      -9.215   5.138  68.751  1.00  0.00    -0.110 OA 
HETATM   16  C   UNL     1      -9.623   5.863  71.228  1.00  0.00    -0.168 C  
HETATM   17  C   UNL     1     -11.049   6.664  71.041  1.00  0.00    -0.330 C  
HETATM   18  F   UNL     1      -9.040   6.594  72.299  1.00  0.00    -0.138 F  
HETATM   19  H   UNL     1      -9.442   4.308  69.155  1.00  0.00     0.000 HD 
HETATM   20  C   UNL     1     -11.919   6.534  72.305  1.00  0.00    -0.272 C  
HETATM   21  C   UNL     1     -11.930   5.107  72.834  1.00  0.00    -0.060 C  
HETATM   22  C   UNL     1     -10.529   4.656  73.207  1.00  0.00    -0.260 C  
HETATM   23  C   UNL     1     -10.374   3.847  74.272  1.00  0.00    -0.260 C  
HETATM   24  C   UNL     1     -10.663   2.452  73.781  1.00  0.00    -0.171 C  
ENDROOT
BRANCH   4  25
HETATM   25  C   UNL     1     -10.052   7.924  67.314  1.00  0.00    -0.238 C  
HETATM   26  O   UNL     1     -10.022   8.990  66.693  1.00  0.00    -0.232 OA 
BRANCH  25  27
HETATM   27  C   UNL     1     -10.031   6.638  66.471  1.00  0.00    -0.084 C  
HETATM   28  O   UNL     1     -11.265   5.933  66.578  1.00  0.00    -0.724 OA 
HETATM   29  H   UNL     1     -11.252   5.139  66.058  1.00  0.00     0.000 HD 
ENDBRANCH  25  27
ENDBRANCH   4  25
TORSDOF 2
ENDMDL
MODEL       65
REMARK 921   NORMALIZED FREE ENERGY PREDICTED BY IDOCK:   -4.44 KCAL/MOL
REMARK 922        TOTAL FREE ENERGY PREDICTED BY IDOCK:   -4.21 KCAL/MOL
REMARK 923 INTER-LIGAND FREE ENERGY PREDICTED BY IDOCK:   -4.89 KCAL/MOL
REMARK 924 INTRA-LIGAND FREE ENERGY PREDICTED BY IDOCK:    0.67 KCAL/MOL
REMARK 927      BINDING AFFINITY PREDICTED BY RF-SCORE:    0.00 PKD
ROOT
HETATM    1  C   UNL     1      -8.359   7.630  71.594  1.00  0.00    -0.118 C  
HETATM    2  C   UNL     1      -9.070   8.848  71.451  1.00  0.00    -0.318 C  
HETATM    3  C   UNL     1     -10.054   7.706  71.395  1.00  0.00    -0.204 C  
HETATM    4  C   UNL     1      -9.208   5.882  71.824  1.00  0.00    -0.157 C  
HETATM    5  C   UNL     1     -11.432   8.521  71.854  1.00  0.00    -0.405 C  
HETATM    6  C   UNL     1     -10.888   7.060  66.979  1.00  0.00    -0.413 C  
HETATM    7  C   UNL     1      -9.796   6.824  72.589  1.00  0.00    -0.183 C  
HETATM    8  C   UNL     1      -9.788   7.127  74.074  1.00  0.00    -0.314 C  
HETATM    9  C   UNL     1     -11.108   5.859  71.539  1.00  0.00    -0.314 C  
HETATM   10  C   UNL     1      -9.429   6.632  67.442  1.00  0.00    -0.143 C  
HETATM   11  C   UNL     1      -9.128   5.418  66.576  1.00  0.00    -0.135 C  
HETATM   12  O   UNL     1      -7.524   7.083  63.791  1.00  0.00    -0.081 OA 
HETATM   13  C   UNL     1     -10.543   5.610  69.823  1.00  0.00    -0.329 C  
HETATM   14  C   UNL     1      -8.556   5.585  65.355  1.00  0.00    -0.151 C  
HETATM   15  O   UNL     1      -9.982   4.281  69.758  1.00  0.00    -0.222 OA 
HETATM   16  C   UNL     1      -9.471   6.735  69.021  1.00  0.00    -0.133 C  
HETATM   17  C   UNL     1      -8.104   6.999  69.898  1.00  0.00    -0.125 C  
HETATM   18  F   UNL     1     -10.030   8.042  68.989  1.00  0.00    -0.168 F  
HETATM   19  H   UNL     1      -9.688   4.151  68.865  1.00  0.00     0.000 HD 
HETATM   20  C   UNL     1      -7.156   7.960  69.158  1.00  0.00    -0.069 C  
HETATM   21  C   UNL     1      -7.037   7.606  67.683  1.00  0.00    -0.085 C  
HETATM   22  C   UNL     1      -8.388   7.692  66.995  1.00  0.00    -0.124 C  
HETATM   23  C   UNL     1      -8.437   8.130  65.722  1.00  0.00    -0.162 C  
HETATM   24  C   UNL     1      -8.102   6.941  64.859  1.00  0.00    -0.109 C  
ENDROOT
BRANCH   4  25
HETATM   25  C   UNL     1      -9.382   4.621  72.929  1.00  0.00    -0.127 C  
HETATM   26  O   UNL     1     -10.398   4.289  73.546  1.00  0.00    -0.150 OA 
BRANCH  25  27
HETATM   27  C   UNL     1      -8.115   3.792  73.197  1.00  0.00    -0.087 C  
HETATM   28  O   UNL     1      -6.938   4.563  72.968  1.00  0.00    -0.063 OA 
HETATM   29  H   UNL     1      -6.156   4.050  73.133  1.00  0.00     0.000 HD 
ENDBRANCH  25  27
ENDBRANCH   4  25
TORSDOF 2
ENDMDL
MODEL       66
REMARK 921   NORMALIZED FREE ENERGY PREDICTED BY IDOCK:   -4.28 KCAL/MOL
REMARK 922        TOTAL FREE ENERGY PREDICTED BY IDOCK:   -4.04 KCAL/MOL
REMARK 923 INTER-LIGAND FREE ENERGY PREDICTED BY IDOCK:   -4.84 KCAL/MOL
REMARK 924 INTRA-LIGAND FREE ENERGY PREDICTED BY IDOCK:    0.80 KCAL/MOL
REMARK 927      BINDING AFFINITY PREDICTED BY RF-SCORE:    0.00 PKD
ROOT
HETATM    1  C   UNL     1     -10.608   8.467  68.731  1.00  0.00    -0.162 C  
HETATM    2  C   UNL     1     -10.557   8.150  67.350  1.00  0.00    -0.325 C  
HETATM    3  C   UNL     1      -9.152   8.391  67.842  1.00  0.00    -0.137 C  
HETATM    4  C   UNL     1      -9.033   8.632  69.880  1.00  0.00    -0.149 C  
HETATM    5  C   UNL     1      -8.316   7.524  66.691  1.00  0.00    -0.127 C  
HETATM    6  C   UNL     1      -8.155  12.639  66.585  1.00  0.00     0.181 C  
HETATM    7  C   UNL     1      -8.952   7.552  69.077  1.00  0.00    -0.131 C  
HETATM    8  C   UNL     1      -9.087   6.060  69.306  1.00  0.00    -0.126 C  
HETATM    9  C   UNL     1      -7.350   8.635  68.954  1.00  0.00    -0.082 C  
HETATM   10  C   UNL     1      -9.235  12.534  67.746  1.00  0.00    -0.198 C  
HETATM   11  C   UNL     1      -8.936  13.746  68.614  1.00  0.00    -0.050 C  
HETATM   12  O   UNL     1     -11.164  16.133  67.050  1.00  0.00    -0.103 OA 
HETATM   13  C   UNL     1      -7.747  10.413  68.862  1.00  0.00    -0.111 C  
HETATM   14  C   UNL     1      -9.532  14.936  68.339  1.00  0.00    -0.209 C  
HETATM   15  O   UNL     1      -7.616  10.938  70.201  1.00  0.00    -0.399 OA 
HETATM   16  C   UNL     1      -9.231  11.002  68.149  1.00  0.00    -0.165 C  
HETATM   17  C   UNL     1     -10.552  10.292  68.826  1.00  0.00    -0.231 C  
HETATM   18  F   UNL     1      -9.355  10.576  66.798  1.00  0.00    -0.161 F  
HETATM   19  H   UNL     1      -7.823  11.864  70.154  1.00  0.00     0.000 HD 
HETATM   20  C   UNL     1     -11.849  10.851  68.212  1.00  0.00    -0.157 C  
HETATM   21  C   UNL     1     -11.802  12.367  68.086  1.00  0.00    -0.372 C  
HETATM   22  C   UNL     1     -10.658  12.800  67.187  1.00  0.00    -0.249 C  
HETATM   23  C   UNL     1     -10.833  13.872  66.389  1.00  0.00    -0.291 C  
HETATM   24  C   UNL     1     -10.576  15.080  67.253  1.00  0.00    -0.279 C  
ENDROOT
BRANCH   4  25
HETATM   25  C   UNL     1      -8.274   7.924  71.208  1.00  0.00    -0.101 C  
HETATM   26  O   UNL     1      -7.267   7.212  71.214  1.00  0.00    -0.071 OA 
BRANCH  25  27
HETATM   27  C   UNL     1      -8.926   8.204  72.573  1.00  0.00    -0.220 C  
HETATM   28  O   UNL     1      -7.978   8.735  73.496  1.00  0.00    -0.409 OA 
HETATM   29  H   UNL     1      -8.381   8.907  74.339  1.00  0.00     0.000 HD 
ENDBRANCH  25  27
ENDBRANCH   4  25
TORSDOF 2
ENDMDL
MODEL       67
REMARK 921   NORMALIZED FREE ENERGY PREDICTED BY IDOCK:   -4.26 KCAL/MOL
REMARK 922        TOTAL FREE ENERGY PREDICTED BY IDOCK:   -4.02 KCAL/MOL
REMARK 923 INTER-LIGAND FREE ENERGY PREDICTED BY IDOCK:   -4.72 KCAL/MOL
REMARK 924 INTRA-LIGAND FREE ENERGY PREDICTED BY IDOCK:    0.70 KCAL/MOL
REMARK 927      BINDING AFFINITY PREDICTED BY RF-SCORE:    0.00 PKD
ROOT
HETATM    1  C   UNL     1     -10.031   4.660  69.626  1.00  0.00    -0.281 C  
HETATM    2  C   UNL     1      -8.802   3.983  69.831  1.00  0.00    -0.138 C  
HETATM    3  C   UNL     1      -8.665   5.395  70.342  1.00  0.00    -0.136 C  
HETATM    4  C   UNL     1     -10.436   6.439  70.333  1.00  0.00    -0.269 C  
HETATM    5  C   UNL     1      -7.419   5.165  71.424  1.00  0.00    -0.091 C  
HETATM    6  C   UNL     1      -6.513   7.658  67.046  1.00  0.00    -0.054 C  
HETATM    7  C   UNL     1      -9.832   5.664  71.256  1.00  0.00    -0.225 C  
HETATM    8  C   UNL     1     -10.311   4.949  72.504  1.00  0.00    -0.256 C  
HETATM    9  C   UNL     1      -8.936   7.374  71.088  1.00  0.00    -0.143 C  
HETATM   10  C   UNL     1      -8.005   7.243  66.691  1.00  0.00    -0.114 C  
HETATM   11  C   UNL     1      -8.500   8.404  65.844  1.00  0.00    -0.159 C  
HETATM   12  O   UNL     1      -7.600   7.148  62.570  1.00  0.00    -0.092 OA 
HETATM   13  C   UNL     1      -8.749   7.863  69.341  1.00  0.00    -0.138 C  
HETATM   14  C   UNL     1      -8.309   8.388  64.499  1.00  0.00    -0.125 C  
HETATM   15  O   UNL     1      -9.837   8.764  69.042  1.00  0.00    -0.172 OA 
HETATM   16  C   UNL     1      -8.593   6.690  68.053  1.00  0.00    -0.118 C  
HETATM   17  C   UNL     1      -9.829   5.603  68.073  1.00  0.00    -0.162 C  
HETATM   18  F   UNL     1      -7.477   5.837  68.269  1.00  0.00    -0.074 F  
HETATM   19  H   UNL     1      -9.740   9.020  68.133  1.00  0.00     0.000 HD 
HETATM   20  C   UNL     1      -9.695   4.602  66.911  1.00  0.00    -0.215 C  
HETATM   21  C   UNL     1      -9.341   5.302  65.606  1.00  0.00    -0.126 C  
HETATM   22  C   UNL     1      -8.013   6.029  65.725  1.00  0.00    -0.113 C  
HETATM   23  C   UNL     1      -7.201   6.069  64.651  1.00  0.00    -0.063 C  
HETATM   24  C   UNL     1      -7.709   7.194  63.787  1.00  0.00    -0.119 C  
ENDROOT
BRANCH   4  25
HETATM   25  C   UNL     1     -11.449   7.244  71.413  1.00  0.00    -0.266 C  
HETATM   26  O   UNL     1     -11.130   7.898  72.409  1.00  0.00    -0.278 OA 
BRANCH  25  27
HETATM   27  C   UNL     1     -12.955   7.141  71.114  1.00  0.00    -0.257 C  
HETATM   28  O   UNL     1     -13.701   6.901  72.304  1.00  0.00    -0.533 OA 
HETATM   29  H   UNL     1     -14.630   6.838  72.120  1.00  0.00     0.000 HD 
ENDBRANCH  25  27
ENDBRANCH   4  25
TORSDOF 2
ENDMDL
MODEL       68
REMARK 921   NORMALIZED FREE ENERGY PREDICTED BY IDOCK:   -4.25 KCAL/MOL
REMARK 922        TOTAL FREE ENERGY PREDICTED BY IDOCK:   -4.01 KCAL/MOL
REMARK 923 INTER-LIGAND FREE ENERGY PREDICTED BY IDOCK:   -4.70 KCAL/MOL
REMARK 924 INTRA-LIGAND FREE ENERGY PREDICTED BY IDOCK:    0.69 KCAL/MOL
REMARK 927      BINDING AFFINITY PREDICTED BY RF-SCORE:    0.00 PKD
ROOT
HETATM    1  C   UNL     1      -7.919   6.794  68.247  1.00  0.00    -0.111 C  
HETATM    2  C   UNL     1      -6.805   7.325  67.551  1.00  0.00    -0.074 C  
HETATM    3  C   UNL     1      -6.843   7.931  68.931  1.00  0.00    -0.058 C  
HETATM    4  C   UNL     1      -8.267   7.085  70.150  1.00  0.00    -0.133 C  
HETATM    5  C   UNL     1      -5.238   8.350  69.082  1.00  0.00    -0.031 C  
HETATM    6  C   UNL     1      -8.736  12.022  68.393  1.00  0.00    -0.147 C  
HETATM    7  C   UNL     1      -6.969   6.801  69.920  1.00  0.00    -0.059 C  
HETATM    8  C   UNL     1      -6.102   5.582  70.162  1.00  0.00    -0.025 C  
HETATM    9  C   UNL     1      -7.152   8.409  70.986  1.00  0.00    -0.061 C  
HETATM   10  C   UNL     1      -9.738  10.804  68.195  1.00  0.00    -0.169 C  
HETATM   11  C   UNL     1     -11.050  11.335  68.750  1.00  0.00    -0.288 C  
HETATM   12  O   UNL     1     -12.450  12.702  65.704  1.00  0.00    -0.622 OA 
HETATM   13  C   UNL     1      -8.476   9.489  70.348  1.00  0.00    -0.201 C  
HETATM   14  C   UNL     1     -11.905  12.007  67.935  1.00  0.00    -0.320 C  
HETATM   15  O   UNL     1      -9.654   9.214  71.138  1.00  0.00    -0.267 OA 
HETATM   16  C   UNL     1      -8.909   9.536  68.655  1.00  0.00    -0.132 C  
HETATM   17  C   UNL     1      -9.252   8.034  68.075  1.00  0.00    -0.139 C  
HETATM   18  F   UNL     1      -7.791   9.888  67.849  1.00  0.00    -0.089 F  
HETATM   19  H   UNL     1     -10.344   9.776  70.806  1.00  0.00     0.000 HD 
HETATM   20  C   UNL     1      -9.667   8.100  66.594  1.00  0.00    -0.318 C  
HETATM   21  C   UNL     1     -10.644   9.238  66.336  1.00  0.00    -0.037 C  
HETATM   22  C   UNL     1     -10.020  10.577  66.686  1.00  0.00    -0.260 C  
HETATM   23  C   UNL     1     -10.329  11.650  65.932  1.00  0.00    -0.289 C  
HETATM   24  C   UNL     1     -11.648  12.159  66.451  1.00  0.00    -0.364 C  
ENDROOT
BRANCH   4  25
HETATM   25  C   UNL     1      -8.368   6.275  71.625  1.00  0.00    -0.129 C  
HETATM   26  O   UNL     1      -7.844   6.586  72.698  1.00  0.00    -0.102 OA 
BRANCH  25  27
HETATM   27  C   UNL     1      -9.215   4.991  71.620  1.00  0.00    -0.145 C  
HETATM   28  O   UNL     1      -9.510   4.565  72.948  1.00  0.00    -0.129 OA 
HETATM   29  H   UNL     1     -10.033   3.772  72.945  1.00  0.00     0.000 HD 
ENDBRANCH  25  27
ENDBRANCH   4  25
TORSDOF 2
ENDMDL
MODEL       69
REMARK 921   NORMALIZED FREE ENERGY PREDICTED BY IDOCK:   -4.21 KCAL/MOL
REMARK 922        TOTAL FREE ENERGY PREDICTED BY IDOCK:   -3.96 KCAL/MOL
REMARK 923 INTER-LIGAND FREE ENERGY PREDICTED BY IDOCK:   -4.60 KCAL/MOL
REMARK 924 INTRA-LIGAND FREE ENERGY PREDICTED BY IDOCK:    0.64 KCAL/MOL
REMARK 927      BINDING AFFINITY PREDICTED BY RF-SCORE:    0.00 PKD
ROOT
HETATM    1  C   UNL     1     -10.545   7.035  68.412  1.00  0.00    -0.240 C  
HETATM    2  C   UNL     1     -11.100   6.660  67.162  1.00  0.00    -0.427 C  
HETATM    3  C   UNL     1      -9.596   6.594  67.062  1.00  0.00    -0.183 C  
HETATM    4  C   UNL     1      -8.648   6.882  68.863  1.00  0.00    -0.131 C  
HETATM    5  C   UNL     1      -9.462   5.514  65.801  1.00  0.00    -0.071 C  
HETATM    6  C   UNL     1      -8.361  10.449  65.007  1.00  0.00    -0.166 C  
HETATM    7  C   UNL     1      -9.098   5.780  68.229  1.00  0.00    -0.117 C  
HETATM    8  C   UNL     1      -9.421   4.368  68.675  1.00  0.00    -0.219 C  
HETATM    9  C   UNL     1      -7.493   6.465  67.385  1.00  0.00    -0.088 C  
HETATM   10  C   UNL     1      -8.901  10.639  66.490  1.00  0.00    -0.160 C  
HETATM   11  C   UNL     1      -8.057  11.784  67.027  1.00  0.00    -0.169 C  
HETATM   12  O   UNL     1     -10.206  14.553  66.119  1.00  0.00    -0.282 OA 
HETATM   13  C   UNL     1      -7.540   8.281  67.228  1.00  0.00    -0.097 C  
HETATM   14  C   UNL     1      -8.468  13.067  66.847  1.00  0.00    -0.087 C  
HETATM   15  O   UNL     1      -6.797   8.815  68.345  1.00  0.00    -0.063 OA 
HETATM   16  C   UNL     1      -9.038   9.164  67.049  1.00  0.00    -0.123 C  
HETATM   17  C   UNL     1     -10.102   8.801  68.252  1.00  0.00    -0.220 C  
HETATM   18  F   UNL     1      -9.760   8.724  65.906  1.00  0.00    -0.299 F  
HETATM   19  H   UNL     1      -6.821   9.761  68.264  1.00  0.00     0.000 HD 
HETATM   20  C   UNL     1     -11.399   9.616  68.099  1.00  0.00     0.150 C  
HETATM   21  C   UNL     1     -11.110  11.076  67.777  1.00  0.00    -0.356 C  
HETATM   22  C   UNL     1     -10.347  11.201  66.471  1.00  0.00    -0.290 C  
HETATM   23  C   UNL     1     -10.607  12.252  65.669  1.00  0.00    -0.295 C  
HETATM   24  C   UNL     1      -9.803  13.403  66.218  1.00  0.00    -0.290 C  
ENDROOT
BRANCH   4  25
HETATM   25  C   UNL     1      -7.584   6.072  69.891  1.00  0.00    -0.081 C  
HETATM   26  O   UNL     1      -6.634   5.350  69.581  1.00  0.00    -0.043 OA 
BRANCH  25  27
HETATM   27  C   UNL     1      -7.842   6.261  71.396  1.00  0.00    -0.104 C  
HETATM   28  O   UNL     1      -9.207   6.011  71.719  1.00  0.00    -0.145 OA 
HETATM   29  H   UNL     1      -9.365   6.128  72.648  1.00  0.00     0.000 HD 
ENDBRANCH  25  27
ENDBRANCH   4  25
TORSDOF 2
ENDMDL
MODEL       70
REMARK 921   NORMALIZED FREE ENERGY PREDICTED BY IDOCK:   -4.17 KCAL/MOL
REMARK 922        TOTAL FREE ENERGY PREDICTED BY IDOCK:   -3.92 KCAL/MOL
REMARK 923 INTER-LIGAND FREE ENERGY PREDICTED BY IDOCK:   -4.74 KCAL/MOL
REMARK 924 INTRA-LIGAND FREE ENERGY PREDICTED BY IDOCK:    0.83 KCAL/MOL
REMARK 927      BINDING AFFINITY PREDICTED BY RF-SCORE:    0.00 PKD
ROOT
HETATM    1  C   UNL     1      -6.821   6.377  67.575  1.00  0.00    -0.076 C  
HETATM    2  C   UNL     1      -7.395   5.115  67.280  1.00  0.00    -0.082 C  
HETATM    3  C   UNL     1      -8.326   6.195  66.788  1.00  0.00    -0.110 C  
HETATM    4  C   UNL     1      -7.526   8.084  66.929  1.00  0.00    -0.091 C  
HETATM    5  C   UNL     1      -9.145   5.328  65.625  1.00  0.00    -0.158 C  
HETATM    6  C   UNL     1     -11.532   6.560  69.982  1.00  0.00    -0.476 C  
HETATM    7  C   UNL     1      -7.512   7.151  65.955  1.00  0.00    -0.080 C  
HETATM    8  C   UNL     1      -6.653   6.927  64.727  1.00  0.00    -0.043 C  
HETATM    9  C   UNL     1      -9.256   7.984  66.098  1.00  0.00    -0.219 C  
HETATM   10  C   UNL     1     -10.102   7.094  70.423  1.00  0.00    -0.199 C  
HETATM   11  C   UNL     1     -10.430   8.276  71.322  1.00  0.00    -0.262 C  
HETATM   12  O   UNL     1     -10.535   6.559  74.508  1.00  0.00    -0.275 OA 
HETATM   13  C   UNL     1      -9.768   8.174  67.838  1.00  0.00    -0.161 C  
HETATM   14  C   UNL     1     -10.627   8.078  72.652  1.00  0.00    -0.419 C  
HETATM   15  O   UNL     1      -9.443   9.528  68.223  1.00  0.00    -0.133 OA 
HETATM   16  C   UNL     1      -9.246   7.071  69.091  1.00  0.00    -0.138 C  
HETATM   17  C   UNL     1      -7.606   6.932  69.129  1.00  0.00    -0.097 C  
HETATM   18  F   UNL     1      -9.625   5.735  68.788  1.00  0.00    -0.119 F  
HETATM   19  H   UNL     1      -9.709   9.627  69.129  1.00  0.00     0.000 HD 
HETATM   20  C   UNL     1      -7.164   5.987  70.262  1.00  0.00    -0.076 C  
HETATM   21  C   UNL     1      -7.918   6.270  71.554  1.00  0.00    -0.106 C  
HETATM   22  C   UNL     1      -9.411   6.072  71.365  1.00  0.00    -0.159 C  
HETATM   23  C   UNL     1     -10.130   5.566  72.385  1.00  0.00    -0.218 C  
HETATM   24  C   UNL     1     -10.426   6.725  73.301  1.00  0.00    -0.296 C  
ENDROOT
BRANCH   4  25
HETATM   25  C   UNL     1      -7.149   9.388  65.932  1.00  0.00    -0.091 C  
HETATM   26  O   UNL     1      -7.594   9.638  64.809  1.00  0.00    -0.111 OA 
BRANCH  25  27
HETATM   27  C   UNL     1      -6.120  10.382  66.498  1.00  0.00    -0.072 C  
HETATM   28  O   UNL     1      -5.808  11.397  65.548  1.00  0.00    -0.476 OA 
HETATM   29  H   UNL     1      -5.173  12.010  65.897  1.00  0.00     0.000 HD 
ENDBRANCH  25  27
ENDBRANCH   4  25
TORSDOF 2
ENDMDL
MODEL       71
REMARK 921   NORMALIZED FREE ENERGY PREDICTED BY IDOCK:   -4.07 KCAL/MOL
REMARK 922        TOTAL FREE ENERGY PREDICTED BY IDOCK:   -3.81 KCAL/MOL
REMARK 923 INTER-LIGAND FREE ENERGY PREDICTED BY IDOCK:   -4.41 KCAL/MOL
REMARK 924 INTRA-LIGAND FREE ENERGY PREDICTED BY IDOCK:    0.60 KCAL/MOL
REMARK 927      BINDING AFFINITY PREDICTED BY RF-SCORE:    0.00 PKD
ROOT
HETATM    1  C   UNL     1     -10.141   8.745  66.487  1.00  0.00    -0.349 C  
HETATM    2  C   UNL     1     -10.777   9.499  67.506  1.00  0.00    -0.311 C  
HETATM    3  C   UNL     1      -9.289   9.730  67.593  1.00  0.00    -0.157 C  
HETATM    4  C   UNL     1      -8.244   8.892  66.033  1.00  0.00    -0.117 C  
HETATM    5  C   UNL     1      -9.295  11.203  68.372  1.00  0.00    -0.185 C  
HETATM    6  C   UNL     1      -7.846   7.014  70.932  1.00  0.00    -0.096 C  
HETATM    7  C   UNL     1      -8.806  10.104  66.215  1.00  0.00    -0.163 C  
HETATM    8  C   UNL     1      -9.220  11.222  65.278  1.00  0.00    -0.191 C  
HETATM    9  C   UNL     1      -7.191   9.920  67.269  1.00  0.00    -0.086 C  
HETATM   10  C   UNL     1      -8.304   6.251  69.616  1.00  0.00    -0.125 C  
HETATM   11  C   UNL     1      -7.350   5.068  69.546  1.00  0.00    -0.057 C  
HETATM   12  O   UNL     1      -9.312   2.641  71.380  1.00  0.00    -0.108 OA 
HETATM   13  C   UNL     1      -7.101   8.289  68.081  1.00  0.00    -0.082 C  
HETATM   14  C   UNL     1      -7.666   3.908  70.178  1.00  0.00    -0.048 C  
HETATM   15  O   UNL     1      -6.271   7.454  67.246  1.00  0.00    -0.047 OA 
HETATM   16  C   UNL     1      -8.532   7.402  68.553  1.00  0.00    -0.125 C  
HETATM   17  C   UNL     1      -9.568   7.206  67.289  1.00  0.00    -0.179 C  
HETATM   18  F   UNL     1      -9.335   8.162  69.447  1.00  0.00    -0.152 F  
HETATM   19  H   UNL     1      -6.224   6.604  67.668  1.00  0.00     0.000 HD 
HETATM   20  C   UNL     1     -10.802   6.390  67.715  1.00  0.00    -0.418 C  
HETATM   21  C   UNL     1     -10.414   5.181  68.553  1.00  0.00    -0.090 C  
HETATM   22  C   UNL     1      -9.701   5.608  69.823  1.00  0.00    -0.220 C  
HETATM   23  C   UNL     1      -9.912   4.902  70.950  1.00  0.00    -0.287 C  
HETATM   24  C   UNL     1      -8.997   3.707  70.871  1.00  0.00    -0.094 C  
ENDROOT
BRANCH   4  25
HETATM   25  C   UNL     1      -7.204   9.363  64.793  1.00  0.00    -0.106 C  
HETATM   26  O   UNL     1      -6.328  10.232  64.827  1.00  0.00    -0.127 OA 
BRANCH  25  27
HETATM   27  C   UNL     1      -7.377   8.615  63.460  1.00  0.00    -0.101 C  
HETATM   28  O   UNL     1      -8.626   7.929  63.414  1.00  0.00    -0.386 OA 
HETATM   29  H   UNL     1      -8.733   7.467  62.592  1.00  0.00     0.000 HD 
ENDBRANCH  25  27
ENDBRANCH   4  25
TORSDOF 2
ENDMDL
MODEL       72
REMARK 921   NORMALIZED FREE ENERGY PREDICTED BY IDOCK:   -4.05 KCAL/MOL
REMARK 922        TOTAL FREE ENERGY PREDICTED BY IDOCK:   -3.78 KCAL/MOL
REMARK 923 INTER-LIGAND FREE ENERGY PREDICTED BY IDOCK:   -5.30 KCAL/MOL
REMARK 924 INTRA-LIGAND FREE ENERGY PREDICTED BY IDOCK:    1.52 KCAL/MOL
REMARK 927      BINDING AFFINITY PREDICTED BY RF-SCORE:    0.00 PKD
ROOT
HETATM    1  C   UNL     1     -10.217   6.567  69.794  1.00  0.00    -0.221 C  
HETATM    2  C   UNL     1     -11.367   6.301  69.008  1.00  0.00    -0.319 C  
HETATM    3  C   UNL     1     -10.169   6.393  68.095  1.00  0.00    -0.196 C  
HETATM    4  C   UNL     1      -8.385   6.541  69.106  1.00  0.00    -0.119 C  
HETATM    5  C   UNL     1     -10.745   5.498  66.813  1.00  0.00    -0.329 C  
HETATM    6  C   UNL     1     -10.319  10.577  66.339  1.00  0.00    -0.283 C  
HETATM    7  C   UNL     1      -9.100   5.490  68.655  1.00  0.00    -0.128 C  
HETATM    8  C   UNL     1      -9.108   4.009  68.976  1.00  0.00    -0.193 C  
HETATM    9  C   UNL     1      -8.238   6.426  67.194  1.00  0.00    -0.113 C  
HETATM   10  C   UNL     1      -9.949  10.526  67.884  1.00  0.00    -0.193 C  
HETATM   11  C   UNL     1      -8.961  11.670  68.046  1.00  0.00    -0.176 C  
HETATM   12  O   UNL     1     -11.281  14.312  68.909  1.00  0.00    -0.240 OA 
HETATM   13  C   UNL     1      -8.383   8.235  67.377  1.00  0.00    -0.125 C  
HETATM   14  C   UNL     1      -9.416  12.920  68.325  1.00  0.00    -0.206 C  
HETATM   15  O   UNL     1      -7.151   8.692  67.976  1.00  0.00    -0.079 OA 
HETATM   16  C   UNL     1      -9.739   8.986  68.186  1.00  0.00    -0.152 C  
HETATM   17  C   UNL     1      -9.955   8.374  69.699  1.00  0.00    -0.193 C  
HETATM   18  F   UNL     1     -10.968   8.626  67.570  1.00  0.00    -0.302 F  
HETATM   19  H   UNL     1      -7.226   9.634  68.071  1.00  0.00     0.000 HD 
HETATM   20  C   UNL     1     -11.128   9.074  70.410  1.00  0.00    -0.279 C  
HETATM   21  C   UNL     1     -11.081  10.583  70.217  1.00  0.00    -0.359 C  
HETATM   22  C   UNL     1     -11.170  10.944  68.745  1.00  0.00    -0.329 C  
HETATM   23  C   UNL     1     -11.841  12.058  68.394  1.00  0.00    -0.360 C  
HETATM   24  C   UNL     1     -10.879  13.202  68.589  1.00  0.00    -0.259 C  
ENDROOT
BRANCH   4  25
HETATM   25  C   UNL     1      -6.923   5.715  69.244  1.00  0.00    -0.063 C  
HETATM   26  O   UNL     1      -6.336   5.380  70.276  1.00  0.00    -0.028 OA 
BRANCH  25  27
HETATM   27  C   UNL     1      -6.244   5.340  67.916  1.00  0.00    -0.038 C  
HETATM   28  O   UNL     1      -5.609   4.067  68.004  1.00  0.00    -0.019 OA 
HETATM   29  H   UNL     1      -5.189   3.836  67.184  1.00  0.00     0.000 HD 
ENDBRANCH  25  27
ENDBRANCH   4  25
TORSDOF 2
ENDMDL
MODEL       73
REMARK 921   NORMALIZED FREE ENERGY PREDICTED BY IDOCK:   -4.03 KCAL/MOL
REMARK 922        TOTAL FREE ENERGY PREDICTED BY IDOCK:   -3.76 KCAL/MOL
REMARK 923 INTER-LIGAND FREE ENERGY PREDICTED BY IDOCK:   -4.59 KCAL/MOL
REMARK 924 INTRA-LIGAND FREE ENERGY PREDICTED BY IDOCK:    0.83 KCAL/MOL
REMARK 927      BINDING AFFINITY PREDICTED BY RF-SCORE:    0.00 PKD
ROOT
HETATM    1  C   UNL     1      -6.595  17.169  69.199  1.00  0.00    -0.231 C  
HETATM    2  C   UNL     1      -5.334  17.154  68.551  1.00  0.00    -0.136 C  
HETATM    3  C   UNL     1      -6.402  16.836  67.534  1.00  0.00    -0.187 C  
HETATM    4  C   UNL     1      -8.311  17.052  68.267  1.00  0.00    -0.228 C  
HETATM    5  C   UNL     1      -5.595  17.294  66.151  1.00  0.00    -0.079 C  
HETATM    6  C   UNL     1      -6.336  12.318  67.095  1.00  0.00    -0.117 C  
HETATM    7  C   UNL     1      -7.465  17.899  67.645  1.00  0.00    -0.208 C  
HETATM    8  C   UNL     1      -7.389  19.408  67.525  1.00  0.00    -0.261 C  
HETATM    9  C   UNL     1      -8.193  16.603  66.402  1.00  0.00    -0.353 C  
HETATM   10  C   UNL     1      -6.903  12.835  68.487  1.00  0.00    -0.094 C  
HETATM   11  C   UNL     1      -7.988  11.823  68.822  1.00  0.00    -0.063 C  
HETATM   12  O   UNL     1      -6.008   9.477  70.742  1.00  0.00    -0.056 OA 
HETATM   13  C   UNL     1      -8.211  14.925  67.116  1.00  0.00    -0.215 C  
HETATM   14  C   UNL     1      -7.669  10.696  69.512  1.00  0.00    -0.113 C  
HETATM   15  O   UNL     1      -9.542  14.705  67.630  1.00  0.00    -0.209 OA 
HETATM   16  C   UNL     1      -7.036  14.401  68.300  1.00  0.00    -0.113 C  
HETATM   17  C   UNL     1      -6.977  15.425  69.588  1.00  0.00    -0.184 C  
HETATM   18  F   UNL     1      -5.711  14.523  67.797  1.00  0.00    -0.129 F  
HETATM   19  H   UNL     1      -9.552  13.831  68.002  1.00  0.00     0.000 HD 
HETATM   20  C   UNL     1      -5.966  14.927  70.637  1.00  0.00    -0.106 C  
HETATM   21  C   UNL     1      -6.100  13.431  70.881  1.00  0.00     0.098 C  
HETATM   22  C   UNL     1      -5.843  12.649  69.605  1.00  0.00    -0.114 C  
HETATM   23  C   UNL     1      -5.217  11.459  69.692  1.00  0.00    -0.057 C  
HETATM   24  C   UNL     1      -6.279  10.456  70.061  1.00  0.00    -0.093 C  
ENDROOT
BRANCH   4  25
HETATM   25  C   UNL     1      -9.712  17.930  67.942  1.00  0.00    -0.288 C  
HETATM   26  O   UNL     1     -10.502  17.779  67.006  1.00  0.00    -0.347 OA 
BRANCH  25  27
HETATM   27  C   UNL     1     -10.035  19.059  68.936  1.00  0.00    -0.398 C  
HETATM   28  O   UNL     1     -10.553  20.204  68.264  1.00  0.00    -0.309 OA 
HETATM   29  H   UNL     1     -10.752  20.900  68.878  1.00  0.00     0.000 HD 
ENDBRANCH  25  27
ENDBRANCH   4  25
TORSDOF 2
ENDMDL
MODEL       74
REMARK 921   NORMALIZED FREE ENERGY PREDICTED BY IDOCK:   -3.99 KCAL/MOL
REMARK 922        TOTAL FREE ENERGY PREDICTED BY IDOCK:   -3.72 KCAL/MOL
REMARK 923 INTER-LIGAND FREE ENERGY PREDICTED BY IDOCK:   -4.38 KCAL/MOL
REMARK 924 INTRA-LIGAND FREE ENERGY PREDICTED BY IDOCK:    0.66 KCAL/MOL
REMARK 927      BINDING AFFINITY PREDICTED BY RF-SCORE:    0.00 PKD
ROOT
HETATM    1  C   UNL     1      -7.233   9.588  67.808  1.00  0.00    -0.082 C  
HETATM    2  C   UNL     1      -6.210   8.614  67.922  1.00  0.00    -0.052 C  
HETATM    3  C   UNL     1      -7.186   8.167  66.862  1.00  0.00    -0.083 C  
HETATM    4  C   UNL     1      -8.603   9.587  66.411  1.00  0.00    -0.143 C  
HETATM    5  C   UNL     1      -6.188   7.158  65.991  1.00  0.00    -0.040 C  
HETATM    6  C   UNL     1      -9.873   5.134  68.911  1.00  0.00    -0.241 C  
HETATM    7  C   UNL     1      -7.381   9.318  65.909  1.00  0.00    -0.094 C  
HETATM    8  C   UNL     1      -6.390  10.106  65.076  1.00  0.00    -0.123 C  
HETATM    9  C   UNL     1      -8.674   7.988  65.347  1.00  0.00    -0.101 C  
HETATM   10  C   UNL     1     -10.087   6.633  69.394  1.00  0.00    -0.192 C  
HETATM   11  C   UNL     1     -11.581   6.705  69.665  1.00  0.00    -0.305 C  
HETATM   12  O   UNL     1     -11.570   5.804  73.172  1.00  0.00    -0.159 OA 
HETATM   13  C   UNL     1      -9.758   7.482  66.723  1.00  0.00    -0.216 C  
HETATM   14  C   UNL     1     -12.060   6.374  70.893  1.00  0.00    -0.176 C  
HETATM   15  O   UNL     1     -10.973   8.253  66.603  1.00  0.00    -0.185 OA 
HETATM   16  C   UNL     1      -9.221   7.497  68.388  1.00  0.00    -0.139 C  
HETATM   17  C   UNL     1      -8.626   8.970  68.818  1.00  0.00    -0.132 C  
HETATM   18  F   UNL     1      -8.073   6.678  68.564  1.00  0.00    -0.111 F  
HETATM   19  H   UNL     1     -11.537   7.989  67.319  1.00  0.00     0.000 HD 
HETATM   20  C   UNL     1      -8.195   8.975  70.296  1.00  0.00    -0.150 C  
HETATM   21  C   UNL     1      -9.231   8.302  71.185  1.00  0.00    -0.200 C  
HETATM   22  C   UNL     1      -9.431   6.853  70.783  1.00  0.00    -0.165 C  
HETATM   23  C   UNL     1      -9.670   5.942  71.746  1.00  0.00    -0.178 C  
HETATM   24  C   UNL     1     -11.144   6.034  72.048  1.00  0.00    -0.274 C  
ENDROOT
BRANCH   4  25
HETATM   25  C   UNL     1      -9.152  10.467  65.083  1.00  0.00    -0.198 C  
HETATM   26  O   UNL     1      -9.112  10.146  63.892  1.00  0.00    -0.217 OA 
BRANCH  25  27
HETATM   27  C   UNL     1      -9.772  11.838  65.404  1.00  0.00    -0.217 C  
HETATM   28  O   UNL     1      -9.592  12.174  66.777  1.00  0.00    -0.201 OA 
HETATM   29  H   UNL     1      -9.975  13.020  66.975  1.00  0.00     0.000 HD 
ENDBRANCH  25  27
ENDBRANCH   4  25
TORSDOF 2
ENDMDL
MODEL       75
REMARK 921   NORMALIZED FREE ENERGY PREDICTED BY IDOCK:   -3.98 KCAL/MOL
REMARK 922        TOTAL FREE ENERGY PREDICTED BY IDOCK:   -3.71 KCAL/MOL
REMARK 923 INTER-LIGAND FREE ENERGY PREDICTED BY IDOCK:   -4.32 KCAL/MOL
REMARK 924 INTRA-LIGAND FREE ENERGY PREDICTED BY IDOCK:    0.61 KCAL/MOL
REMARK 927      BINDING AFFINITY PREDICTED BY RF-SCORE:    0.00 PKD
ROOT
HETATM    1  C   UNL     1     -10.250   7.389  68.793  1.00  0.00    -0.199 C  
HETATM    2  C   UNL     1      -9.620   6.428  69.624  1.00  0.00    -0.157 C  
HETATM    3  C   UNL     1      -8.567   7.364  69.083  1.00  0.00    -0.136 C  
HETATM    4  C   UNL     1      -9.350   8.958  68.048  1.00  0.00    -0.153 C  
HETATM    5  C   UNL     1      -7.403   7.158  70.256  1.00  0.00    -0.083 C  
HETATM    6  C   UNL     1      -6.665   5.149  65.607  1.00  0.00    -0.052 C  
HETATM    7  C   UNL     1      -9.033   8.773  69.346  1.00  0.00    -0.145 C  
HETATM    8  C   UNL     1      -9.415   9.478  70.632  1.00  0.00    -0.277 C  
HETATM    9  C   UNL     1      -7.440   8.975  68.260  1.00  0.00    -0.083 C  
HETATM   10  C   UNL     1      -8.155   5.632  65.341  1.00  0.00    -0.126 C  
HETATM   11  C   UNL     1      -8.150   5.991  63.863  1.00  0.00    -0.084 C  
HETATM   12  O   UNL     1      -9.170   2.797  62.496  1.00  0.00    -0.087 OA 
HETATM   13  C   UNL     1      -7.562   8.028  66.706  1.00  0.00    -0.094 C  
HETATM   14  C   UNL     1      -8.428   5.037  62.936  1.00  0.00    -0.115 C  
HETATM   15  O   UNL     1      -7.990   8.957  65.686  1.00  0.00    -0.093 OA 
HETATM   16  C   UNL     1      -8.496   6.555  66.581  1.00  0.00    -0.116 C  
HETATM   17  C   UNL     1     -10.048   6.778  67.082  1.00  0.00    -0.249 C  
HETATM   18  F   UNL     1      -8.047   5.583  67.516  1.00  0.00    -0.099 F  
HETATM   19  H   UNL     1      -8.053   8.464  64.876  1.00  0.00     0.000 HD 
HETATM   20  C   UNL     1     -10.863   5.481  66.928  1.00  0.00    -0.224 C  
HETATM   21  C   UNL     1     -10.603   4.809  65.588  1.00  0.00    -0.220 C  
HETATM   22  C   UNL     1      -9.138   4.437  65.445  1.00  0.00    -0.143 C  
HETATM   23  C   UNL     1      -8.822   3.299  64.795  1.00  0.00    -0.119 C  
HETATM   24  C   UNL     1      -8.852   3.637  63.327  1.00  0.00    -0.097 C  
ENDROOT
BRANCH   4  25
HETATM   25  C   UNL     1      -9.347  10.643  68.103  1.00  0.00    -0.151 C  
HETATM   26  O   UNL     1      -8.373  11.400  68.100  1.00  0.00    -0.135 OA 
BRANCH  25  27
HETATM   27  C   UNL     1     -10.733  11.308  68.169  1.00  0.00    -0.204 C  
HETATM   28  O   UNL     1     -11.754  10.414  67.733  1.00  0.00    -0.677 OA 
HETATM   29  H   UNL     1     -12.609  10.825  67.774  1.00  0.00     0.000 HD 
ENDBRANCH  25  27
ENDBRANCH   4  25
TORSDOF 2
ENDMDL
MODEL       76
REMARK 921   NORMALIZED FREE ENERGY PREDICTED BY IDOCK:   -3.90 KCAL/MOL
REMARK 922        TOTAL FREE ENERGY PREDICTED BY IDOCK:   -3.61 KCAL/MOL
REMARK 923 INTER-LIGAND FREE ENERGY PREDICTED BY IDOCK:   -4.51 KCAL/MOL
REMARK 924 INTRA-LIGAND FREE ENERGY PREDICTED BY IDOCK:    0.90 KCAL/MOL
REMARK 927      BINDING AFFINITY PREDICTED BY RF-SCORE:    0.00 PKD
ROOT
HETATM    1  C   UNL     1     -11.856  13.712  67.567  1.00  0.00    -0.416 C  
HETATM    2  C   UNL     1     -10.711  12.983  67.160  1.00  0.00    -0.266 C  
HETATM    3  C   UNL     1     -10.558  13.346  68.615  1.00  0.00    -0.257 C  
HETATM    4  C   UNL     1     -12.244  14.205  69.421  1.00  0.00    -0.329 C  
HETATM    5  C   UNL     1      -9.489  12.155  69.075  1.00  0.00     0.309 C  
HETATM    6  C   UNL     1      -7.841  16.983  68.663  1.00  0.00    -0.257 C  
HETATM    7  C   UNL     1     -11.821  12.928  69.324  1.00  0.00    -0.363 C  
HETATM    8  C   UNL     1     -12.509  11.582  69.432  1.00  0.00    -0.003 C  
HETATM    9  C   UNL     1     -10.806  13.900  70.659  1.00  0.00     1.204 C  
HETATM   10  C   UNL     1      -9.293  17.256  68.079  1.00  0.00    -0.264 C  
HETATM   11  C   UNL     1      -9.596  18.674  68.540  1.00  0.00    -0.399 C  
HETATM   12  O   UNL     1      -8.336  20.488  65.671  1.00  0.00     0.115 OA 
HETATM   13  C   UNL     1     -10.352  15.566  70.075  1.00  0.00    -0.302 C  
HETATM   14  C   UNL     1      -9.224  19.728  67.767  1.00  0.00    -0.427 C  
HETATM   15  O   UNL     1     -11.333  16.479  70.616  1.00  0.00    -0.520 OA 
HETATM   16  C   UNL     1     -10.095  15.925  68.383  1.00  0.00    -0.223 C  
HETATM   17  C   UNL     1     -11.386  15.476  67.466  1.00  0.00    -0.232 C  
HETATM   18  F   UNL     1      -9.073  15.103  67.834  1.00  0.00    -0.173 F  
HETATM   19  H   UNL     1     -11.096  17.347  70.312  1.00  0.00     0.000 HD 
HETATM   20  C   UNL     1     -11.157  15.834  65.986  1.00  0.00    -0.085 C  
HETATM   21  C   UNL     1     -10.585  17.236  65.830  1.00  0.00    -0.198 C  
HETATM   22  C   UNL     1      -9.244  17.355  66.532  1.00  0.00    -0.286 C  
HETATM   23  C   UNL     1      -8.292  18.129  65.977  1.00  0.00    -0.064 C  
HETATM   24  C   UNL     1      -8.607  19.542  66.397  1.00  0.00    -0.360 C  
ENDROOT
BRANCH   4  25
HETATM   25  C   UNL     1     -13.344  13.933  70.668  1.00  0.00     0.134 C  
HETATM   26  O   UNL     1     -13.471  12.919  71.360  1.00  0.00    -0.178 OA 
BRANCH  25  27
HETATM   27  C   UNL     1     -14.305  15.095  70.972  1.00  0.00    -0.160 C  
HETATM   28  O   UNL     1     -14.002  15.700  72.226  1.00  0.00    -0.515 OA 
HETATM   29  H   UNL     1     -14.595  16.417  72.413  1.00  0.00     0.000 HD 
ENDBRANCH  25  27
ENDBRANCH   4  25
TORSDOF 2
ENDMDL
MODEL       77
REMARK 921   NORMALIZED FREE ENERGY PREDICTED BY IDOCK:   -3.86 KCAL/MOL
REMARK 922        TOTAL FREE ENERGY PREDICTED BY IDOCK:   -3.57 KCAL/MOL
REMARK 923 INTER-LIGAND FREE ENERGY PREDICTED BY IDOCK:   -4.37 KCAL/MOL
REMARK 924 INTRA-LIGAND FREE ENERGY PREDICTED BY IDOCK:    0.80 KCAL/MOL
REMARK 927      BINDING AFFINITY PREDICTED BY RF-SCORE:    0.00 PKD
ROOT
HETATM    1  C   UNL     1     -10.282   9.264  66.291  1.00  0.00    -0.273 C  
HETATM    2  C   UNL     1     -10.898  10.300  67.038  1.00  0.00    -0.248 C  
HETATM    3  C   UNL     1      -9.421  10.592  66.935  1.00  0.00    -0.191 C  
HETATM    4  C   UNL     1      -8.424   9.305  65.680  1.00  0.00    -0.149 C  
HETATM    5  C   UNL     1      -9.461  12.241  67.169  1.00  0.00    -0.196 C  
HETATM    6  C   UNL     1      -7.648   9.221  70.883  1.00  0.00    -0.130 C  
HETATM    7  C   UNL     1      -9.038  10.489  65.481  1.00  0.00    -0.214 C  
HETATM    8  C   UNL     1      -9.563  11.207  64.254  1.00  0.00    -0.288 C  
HETATM    9  C   UNL     1      -7.358  10.724  66.417  1.00  0.00    -0.142 C  
HETATM   10  C   UNL     1      -8.139   8.041  69.938  1.00  0.00    -0.117 C  
HETATM   11  C   UNL     1      -7.130   6.935  70.204  1.00  0.00    -0.071 C  
HETATM   12  O   UNL     1      -8.853   5.219  72.886  1.00  0.00    -0.122 OA 
HETATM   13  C   UNL     1      -7.136   9.470  67.723  1.00  0.00    -0.081 C  
HETATM   14  C   UNL     1      -7.348   6.050  71.212  1.00  0.00    -0.080 C  
HETATM   15  O   UNL     1      -6.312   8.425  67.162  1.00  0.00    -0.055 OA 
HETATM   16  C   UNL     1      -8.489   8.754  68.569  1.00  0.00    -0.130 C  
HETATM   17  C   UNL     1      -9.583   8.108  67.522  1.00  0.00    -0.196 C  
HETATM   18  F   UNL     1      -9.279   9.748  69.208  1.00  0.00    -0.150 F  
HETATM   19  H   UNL     1      -6.196   7.773  67.842  1.00  0.00     0.000 HD 
HETATM   20  C   UNL     1     -10.746   7.449  68.286  1.00  0.00    -0.151 C  
HETATM   21  C   UNL     1     -10.248   6.609  69.453  1.00  0.00    -0.207 C  
HETATM   22  C   UNL     1      -9.487   7.465  70.450  1.00  0.00    -0.165 C  
HETATM   23  C   UNL     1      -9.595   7.179  71.762  1.00  0.00    -0.161 C  
HETATM   24  C   UNL     1      -8.625   6.057  72.025  1.00  0.00    -0.136 C  
ENDROOT
BRANCH   4  25
HETATM   25  C   UNL     1      -7.483   9.356  64.282  1.00  0.00    -0.110 C  
HETATM   26  O   UNL     1      -6.928  10.336  63.778  1.00  0.00    -0.127 OA 
BRANCH  25  27
HETATM   27  C   UNL     1      -7.303   8.014  63.552  1.00  0.00    -0.110 C  
HETATM   28  O   UNL     1      -8.513   7.607  62.919  1.00  0.00    -0.372 OA 
HETATM   29  H   UNL     1      -8.401   6.778  62.469  1.00  0.00     0.000 HD 
ENDBRANCH  25  27
ENDBRANCH   4  25
TORSDOF 2
ENDMDL
MODEL       78
REMARK 921   NORMALIZED FREE ENERGY PREDICTED BY IDOCK:   -3.86 KCAL/MOL
REMARK 922        TOTAL FREE ENERGY PREDICTED BY IDOCK:   -3.57 KCAL/MOL
REMARK 923 INTER-LIGAND FREE ENERGY PREDICTED BY IDOCK:   -5.09 KCAL/MOL
REMARK 924 INTRA-LIGAND FREE ENERGY PREDICTED BY IDOCK:    1.52 KCAL/MOL
REMARK 927      BINDING AFFINITY PREDICTED BY RF-SCORE:    0.00 PKD
ROOT
HETATM    1  C   UNL     1     -10.083   5.921  69.132  1.00  0.00    -0.244 C  
HETATM    2  C   UNL     1      -8.737   5.663  68.773  1.00  0.00    -0.106 C  
HETATM    3  C   UNL     1      -8.754   6.350  70.115  1.00  0.00    -0.139 C  
HETATM    4  C   UNL     1     -10.646   6.581  70.886  1.00  0.00    -0.275 C  
HETATM    5  C   UNL     1      -7.283   5.830  70.698  1.00  0.00    -0.082 C  
HETATM    6  C   UNL     1      -7.824  10.707  69.244  1.00  0.00    -0.140 C  
HETATM    7  C   UNL     1      -9.724   5.604  70.996  1.00  0.00    -0.221 C  
HETATM    8  C   UNL     1      -9.780   4.148  71.414  1.00  0.00    -0.251 C  
HETATM    9  C   UNL     1      -9.216   7.161  72.032  1.00  0.00    -0.146 C  
HETATM   10  C   UNL     1      -9.255  10.229  68.746  1.00  0.00    -0.166 C  
HETATM   11  C   UNL     1     -10.128  11.456  68.955  1.00  0.00    -0.110 C  
HETATM   12  O   UNL     1      -9.746  12.992  65.699  1.00  0.00    -0.210 OA 
HETATM   13  C   UNL     1      -9.507   8.706  71.107  1.00  0.00    -0.215 C  
HETATM   14  C   UNL     1     -10.234  12.385  67.969  1.00  0.00    -0.219 C  
HETATM   15  O   UNL     1     -10.781   9.222  71.549  1.00  0.00    -0.334 OA 
HETATM   16  C   UNL     1      -9.421   8.780  69.362  1.00  0.00    -0.161 C  
HETATM   17  C   UNL     1     -10.401   7.658  68.660  1.00  0.00    -0.220 C  
HETATM   18  F   UNL     1      -8.147   8.359  68.893  1.00  0.00    -0.106 F  
HETATM   19  H   UNL     1     -10.933  10.027  71.068  1.00  0.00     0.000 HD 
HETATM   20  C   UNL     1     -10.341   7.765  67.125  1.00  0.00    -0.389 C  
HETATM   21  C   UNL     1     -10.414   9.212  66.660  1.00  0.00    -0.237 C  
HETATM   22  C   UNL     1      -9.250  10.016  67.209  1.00  0.00    -0.159 C  
HETATM   23  C   UNL     1      -8.712  10.982  66.439  1.00  0.00    -0.174 C  
HETATM   24  C   UNL     1      -9.594  12.191  66.611  1.00  0.00    -0.220 C  
ENDROOT
BRANCH   4  25
HETATM   25  C   UNL     1     -11.531   6.144  72.252  1.00  0.00    -0.312 C  
HETATM   26  O   UNL     1     -12.651   5.628  72.296  1.00  0.00     0.120 OA 
BRANCH  25  27
HETATM   27  C   UNL     1     -10.854   6.432  73.603  1.00  0.00    -0.116 C  
HETATM   28  O   UNL     1     -11.156   5.416  74.556  1.00  0.00    -0.255 OA 
HETATM   29  H   UNL     1     -10.738   5.594  75.390  1.00  0.00     0.000 HD 
ENDBRANCH  25  27
ENDBRANCH   4  25
TORSDOF 2
ENDMDL
MODEL       79
REMARK 921   NORMALIZED FREE ENERGY PREDICTED BY IDOCK:   -3.79 KCAL/MOL
REMARK 922        TOTAL FREE ENERGY PREDICTED BY IDOCK:   -3.49 KCAL/MOL
REMARK 923 INTER-LIGAND FREE ENERGY PREDICTED BY IDOCK:   -4.14 KCAL/MOL
REMARK 924 INTRA-LIGAND FREE ENERGY PREDICTED BY IDOCK:    0.65 KCAL/MOL
REMARK 927      BINDING AFFINITY PREDICTED BY RF-SCORE:    0.00 PKD
ROOT
HETATM    1  C   UNL     1     -10.669   6.912  69.335  1.00  0.00    -0.275 C  
HETATM    2  C   UNL     1     -11.073   5.842  68.497  1.00  0.00    -0.171 C  
HETATM    3  C   UNL     1      -9.662   5.583  68.965  1.00  0.00    -0.195 C  
HETATM    4  C   UNL     1      -9.015   6.927  70.379  1.00  0.00    -0.152 C  
HETATM    5  C   UNL     1      -9.624   3.927  68.785  1.00  0.00    -0.187 C  
HETATM    6  C   UNL     1      -7.001   6.867  65.519  1.00  0.00    -0.060 C  
HETATM    7  C   UNL     1      -9.645   5.738  70.464  1.00  0.00    -0.214 C  
HETATM    8  C   UNL     1     -10.443   5.047  71.551  1.00  0.00    -0.225 C  
HETATM    9  C   UNL     1      -7.785   5.508  69.971  1.00  0.00    -0.078 C  
HETATM   10  C   UNL     1      -7.720   8.066  66.275  1.00  0.00    -0.091 C  
HETATM   11  C   UNL     1      -6.690   9.183  66.224  1.00  0.00    -0.071 C  
HETATM   12  O   UNL     1      -7.731  10.781  63.147  1.00  0.00    -0.031 OA 
HETATM   13  C   UNL     1      -7.268   6.725  68.715  1.00  0.00    -0.092 C  
HETATM   14  C   UNL     1      -6.667  10.031  65.163  1.00  0.00    -0.126 C  
HETATM   15  O   UNL     1      -6.617   7.802  69.423  1.00  0.00    -0.038 OA 
HETATM   16  C   UNL     1      -8.383   7.388  67.543  1.00  0.00    -0.113 C  
HETATM   17  C   UNL     1      -9.706   8.044  68.271  1.00  0.00    -0.177 C  
HETATM   18  F   UNL     1      -8.982   6.359  66.766  1.00  0.00    -0.118 F  
HETATM   19  H   UNL     1      -6.347   8.436  68.769  1.00  0.00     0.000 HD 
HETATM   20  C   UNL     1     -10.657   8.656  67.226  1.00  0.00    -0.308 C  
HETATM   21  C   UNL     1      -9.900   9.469  66.186  1.00  0.00    -0.343 C  
HETATM   22  C   UNL     1      -8.910   8.598  65.433  1.00  0.00    -0.198 C  
HETATM   23  C   UNL     1      -8.700   8.842  64.125  1.00  0.00    -0.024 C  
HETATM   24  C   UNL     1      -7.708   9.974  64.066  1.00  0.00    -0.143 C  
ENDROOT
BRANCH   4  25
HETATM   25  C   UNL     1      -8.440   6.937  71.964  1.00  0.00    -0.110 C  
HETATM   26  O   UNL     1      -8.088   5.973  72.649  1.00  0.00    -0.104 OA 
BRANCH  25  27
HETATM   27  C   UNL     1      -8.351   8.321  72.630  1.00  0.00    -0.173 C  
HETATM   28  O   UNL     1      -7.194   9.028  72.193  1.00  0.00    -0.329 OA 
HETATM   29  H   UNL     1      -7.139   9.882  72.604  1.00  0.00     0.000 HD 
ENDBRANCH  25  27
ENDBRANCH   4  25
TORSDOF 2
ENDMDL
MODEL       80
REMARK 921   NORMALIZED FREE ENERGY PREDICTED BY IDOCK:   -3.77 KCAL/MOL
REMARK 922        TOTAL FREE ENERGY PREDICTED BY IDOCK:   -3.48 KCAL/MOL
REMARK 923 INTER-LIGAND FREE ENERGY PREDICTED BY IDOCK:   -4.09 KCAL/MOL
REMARK 924 INTRA-LIGAND FREE ENERGY PREDICTED BY IDOCK:    0.62 KCAL/MOL
REMARK 927      BINDING AFFINITY PREDICTED BY RF-SCORE:    0.00 PKD
ROOT
HETATM    1  C   UNL     1     -10.512   5.571  69.781  1.00  0.00    -0.389 C  
HETATM    2  C   UNL     1     -10.086   4.265  70.131  1.00  0.00    -0.078 C  
HETATM    3  C   UNL     1      -8.947   5.225  70.372  1.00  0.00    -0.154 C  
HETATM    4  C   UNL     1      -9.481   7.196  70.136  1.00  0.00    -0.161 C  
HETATM    5  C   UNL     1      -8.095   4.345  71.501  1.00  0.00    -0.091 C  
HETATM    6  C   UNL     1      -6.238   4.803  66.754  1.00  0.00    -0.032 C  
HETATM    7  C   UNL     1      -9.482   6.366  71.199  1.00  0.00    -0.177 C  
HETATM    8  C   UNL     1     -10.171   6.388  72.548  1.00  0.00    -0.201 C  
HETATM    9  C   UNL     1      -7.678   6.899  70.731  1.00  0.00    -0.092 C  
HETATM   10  C   UNL     1      -7.627   5.514  66.455  1.00  0.00    -0.091 C  
HETATM   11  C   UNL     1      -7.272   6.547  65.396  1.00  0.00    -0.073 C  
HETATM   12  O   UNL     1      -7.892   4.564  62.431  1.00  0.00    -0.061 OA 
HETATM   13  C   UNL     1      -7.411   6.854  68.928  1.00  0.00    -0.096 C  
HETATM   14  C   UNL     1      -7.307   6.205  64.082  1.00  0.00    -0.070 C  
HETATM   15  O   UNL     1      -7.594   8.203  68.446  1.00  0.00    -0.100 OA 
HETATM   16  C   UNL     1      -8.267   5.742  67.885  1.00  0.00    -0.101 C  
HETATM   17  C   UNL     1      -9.897   5.859  68.083  1.00  0.00    -0.155 C  
HETATM   18  F   UNL     1      -8.042   4.394  68.277  1.00  0.00    -0.081 F  
HETATM   19  H   UNL     1      -7.455   8.180  67.507  1.00  0.00     0.000 HD 
HETATM   20  C   UNL     1     -10.634   4.900  67.130  1.00  0.00    -0.041 C  
HETATM   21  C   UNL     1     -10.051   4.947  65.725  1.00  0.00    -0.195 C  
HETATM   22  C   UNL     1      -8.590   4.535  65.732  1.00  0.00    -0.116 C  
HETATM   23  C   UNL     1      -8.112   3.835  64.685  1.00  0.00    -0.090 C  
HETATM   24  C   UNL     1      -7.794   4.849  63.616  1.00  0.00    -0.085 C  
ENDROOT
BRANCH   4  25
HETATM   25  C   UNL     1      -9.515   8.626  71.027  1.00  0.00    -0.207 C  
HETATM   26  O   UNL     1      -8.717   8.999  71.892  1.00  0.00    -0.363 OA 
BRANCH  25  27
HETATM   27  C   UNL     1     -10.688   9.573  70.721  1.00  0.00    -0.321 C  
HETATM   28  O   UNL     1     -11.842   8.845  70.308  1.00  0.00    -0.470 OA 
HETATM   29  H   UNL     1     -12.566   9.430  70.119  1.00  0.00     0.000 HD 
ENDBRANCH  25  27
ENDBRANCH   4  25
TORSDOF 2
ENDMDL
MODEL       81
REMARK 921   NORMALIZED FREE ENERGY PREDICTED BY IDOCK:   -3.76 KCAL/MOL
REMARK 922        TOTAL FREE ENERGY PREDICTED BY IDOCK:   -3.46 KCAL/MOL
REMARK 923 INTER-LIGAND FREE ENERGY PREDICTED BY IDOCK:   -4.11 KCAL/MOL
REMARK 924 INTRA-LIGAND FREE ENERGY PREDICTED BY IDOCK:    0.65 KCAL/MOL
REMARK 927      BINDING AFFINITY PREDICTED BY RF-SCORE:    0.00 PKD
ROOT
HETATM    1  C   UNL     1      -9.076   9.541  66.446  1.00  0.00    -0.195 C  
HETATM    2  C   UNL     1     -10.478   9.439  66.257  1.00  0.00    -0.112 C  
HETATM    3  C   UNL     1     -10.216  10.317  67.455  1.00  0.00    -0.265 C  
HETATM    4  C   UNL     1      -8.225  10.758  67.720  1.00  0.00    -0.112 C  
HETATM    5  C   UNL     1     -11.641  11.179  67.468  1.00  0.00    -0.220 C  
HETATM    6  C   UNL     1     -10.817   7.633  71.066  1.00  0.00    -0.255 C  
HETATM    7  C   UNL     1      -9.217  11.367  67.039  1.00  0.00    -0.174 C  
HETATM    8  C   UNL     1      -9.250  12.395  65.926  1.00  0.00     0.007 C  
HETATM    9  C   UNL     1      -9.427  11.617  68.949  1.00  0.00     0.014 C  
HETATM   10  C   UNL     1      -9.518   7.303  70.212  1.00  0.00    -0.165 C  
HETATM   11  C   UNL     1      -8.508   6.868  71.262  1.00  0.00    -0.120 C  
HETATM   12  O   UNL     1      -9.163   3.307  71.244  1.00  0.00    -0.099 OA 
HETATM   13  C   UNL     1      -9.109  10.073  69.867  1.00  0.00    -0.154 C  
HETATM   14  C   UNL     1      -8.442   5.563  71.634  1.00  0.00    -0.131 C  
HETATM   15  O   UNL     1      -7.743  10.138  70.330  1.00  0.00    -0.377 OA 
HETATM   16  C   UNL     1      -9.416   8.496  69.176  1.00  0.00    -0.154 C  
HETATM   17  C   UNL     1      -8.654   8.311  67.729  1.00  0.00    -0.131 C  
HETATM   18  F   UNL     1     -10.777   8.364  68.785  1.00  0.00    -0.233 F  
HETATM   19  H   UNL     1      -7.578   9.334  70.808  1.00  0.00     0.000 HD 
HETATM   20  C   UNL     1      -8.904   6.904  67.156  1.00  0.00    -0.120 C  
HETATM   21  C   UNL     1      -8.751   5.828  68.221  1.00  0.00    -0.111 C  
HETATM   22  C   UNL     1      -9.748   6.036  69.347  1.00  0.00    -0.176 C  
HETATM   23  C   UNL     1     -10.284   4.953  69.942  1.00  0.00    -0.299 C  
HETATM   24  C   UNL     1      -9.272   4.491  70.959  1.00  0.00    -0.140 C  
ENDROOT
BRANCH   4  25
HETATM   25  C   UNL     1      -7.215  12.104  67.804  1.00  0.00    -0.113 C  
HETATM   26  O   UNL     1      -7.493  13.237  68.208  1.00  0.00    -0.106 OA 
BRANCH  25  27
HETATM   27  C   UNL     1      -5.774  11.886  67.311  1.00  0.00    -0.128 C  
HETATM   28  O   UNL     1      -5.384  10.522  67.448  1.00  0.00    -0.040 OA 
HETATM   29  H   UNL     1      -4.495  10.388  67.144  1.00  0.00     0.000 HD 
ENDBRANCH  25  27
ENDBRANCH   4  25
TORSDOF 2
ENDMDL
MODEL       82
REMARK 921   NORMALIZED FREE ENERGY PREDICTED BY IDOCK:   -3.75 KCAL/MOL
REMARK 922        TOTAL FREE ENERGY PREDICTED BY IDOCK:   -3.45 KCAL/MOL
REMARK 923 INTER-LIGAND FREE ENERGY PREDICTED BY IDOCK:   -4.43 KCAL/MOL
REMARK 924 INTRA-LIGAND FREE ENERGY PREDICTED BY IDOCK:    0.98 KCAL/MOL
REMARK 927      BINDING AFFINITY PREDICTED BY RF-SCORE:    0.00 PKD
ROOT
HETATM    1  C   UNL     1     -11.020   7.853  69.335  1.00  0.00    -0.031 C  
HETATM    2  C   UNL     1     -11.008   7.217  70.602  1.00  0.00    -0.278 C  
HETATM    3  C   UNL     1      -9.790   8.100  70.494  1.00  0.00    -0.194 C  
HETATM    4  C   UNL     1      -9.784   9.275  68.806  1.00  0.00    -0.162 C  
HETATM    5  C   UNL     1      -9.490   8.338  72.115  1.00  0.00    -0.328 C  
HETATM    6  C   UNL     1      -6.379   5.309  69.405  1.00  0.00    -0.034 C  
HETATM    7  C   UNL     1     -10.255   9.465  70.055  1.00  0.00    -0.262 C  
HETATM    8  C   UNL     1     -11.256  10.425  70.666  1.00  0.00    -0.358 C  
HETATM    9  C   UNL     1      -8.320   9.569  70.016  1.00  0.00    -0.192 C  
HETATM   10  C   UNL     1      -7.441   5.532  68.244  1.00  0.00    -0.073 C  
HETATM   11  C   UNL     1      -6.594   5.499  66.982  1.00  0.00    -0.056 C  
HETATM   12  O   UNL     1      -6.828   1.966  66.227  1.00  0.00    -0.040 OA 
HETATM   13  C   UNL     1      -7.599   8.249  68.984  1.00  0.00    -0.089 C  
HETATM   14  C   UNL     1      -6.353   4.314  66.362  1.00  0.00    -0.036 C  
HETATM   15  O   UNL     1      -7.339   8.830  67.688  1.00  0.00    -0.083 OA 
HETATM   16  C   UNL     1      -8.372   6.694  68.782  1.00  0.00    -0.120 C  
HETATM   17  C   UNL     1      -9.927   6.854  68.264  1.00  0.00    -0.162 C  
HETATM   18  F   UNL     1      -8.568   6.052  70.035  1.00  0.00    -0.122 F  
HETATM   19  H   UNL     1      -6.963   8.143  67.150  1.00  0.00     0.000 HD 
HETATM   20  C   UNL     1     -10.578   5.475  68.055  1.00  0.00    -0.213 C  
HETATM   21  C   UNL     1      -9.645   4.518  67.326  1.00  0.00    -0.213 C  
HETATM   22  C   UNL     1      -8.370   4.295  68.118  1.00  0.00    -0.097 C  
HETATM   23  C   UNL     1      -7.800   3.075  68.093  1.00  0.00    -0.058 C  
HETATM   24  C   UNL     1      -6.989   3.021  66.824  1.00  0.00    -0.053 C  
ENDROOT
BRANCH   4  25
HETATM   25  C   UNL     1      -9.733  10.906  68.385  1.00  0.00    -0.176 C  
HETATM   26  O   UNL     1      -8.946  11.768  68.786  1.00  0.00    -0.105 OA 
BRANCH  25  27
HETATM   27  C   UNL     1     -10.803  11.368  67.382  1.00  0.00    -0.254 C  
HETATM   28  O   UNL     1     -12.106  10.972  67.801  1.00  0.00    -0.643 OA 
HETATM   29  H   UNL     1     -12.767  11.256  67.182  1.00  0.00     0.000 HD 
ENDBRANCH  25  27
ENDBRANCH   4  25
TORSDOF 2
ENDMDL
MODEL       83
REMARK 921   NORMALIZED FREE ENERGY PREDICTED BY IDOCK:   -3.72 KCAL/MOL
REMARK 922        TOTAL FREE ENERGY PREDICTED BY IDOCK:   -3.41 KCAL/MOL
REMARK 923 INTER-LIGAND FREE ENERGY PREDICTED BY IDOCK:   -4.13 KCAL/MOL
REMARK 924 INTRA-LIGAND FREE ENERGY PREDICTED BY IDOCK:    0.72 KCAL/MOL
REMARK 927      BINDING AFFINITY PREDICTED BY RF-SCORE:    0.00 PKD
ROOT
HETATM    1  C   UNL     1     -10.543   8.809  68.180  1.00  0.00    -0.203 C  
HETATM    2  C   UNL     1     -10.406   7.988  69.328  1.00  0.00    -0.224 C  
HETATM    3  C   UNL     1      -9.321   9.035  69.352  1.00  0.00    -0.158 C  
HETATM    4  C   UNL     1      -9.525  10.452  67.876  1.00  0.00    -0.150 C  
HETATM    5  C   UNL     1      -9.005   9.052  70.987  1.00  0.00    -0.304 C  
HETATM    6  C   UNL     1      -5.603   6.946  67.795  1.00  0.00    -0.016 C  
HETATM    7  C   UNL     1      -9.978  10.376  69.144  1.00  0.00    -0.237 C  
HETATM    8  C   UNL     1     -11.079  11.080  69.911  1.00  0.00    -0.276 C  
HETATM    9  C   UNL     1      -8.077  10.748  69.104  1.00  0.00    -0.133 C  
HETATM   10  C   UNL     1      -6.721   7.202  66.696  1.00  0.00    -0.060 C  
HETATM   11  C   UNL     1      -5.918   7.486  65.437  1.00  0.00    -0.038 C  
HETATM   12  O   UNL     1      -5.700   4.119  64.124  1.00  0.00    -0.013 OA 
HETATM   13  C   UNL     1      -7.218   9.720  67.866  1.00  0.00    -0.084 C  
HETATM   14  C   UNL     1      -5.539   6.459  64.632  1.00  0.00    -0.025 C  
HETATM   15  O   UNL     1      -7.078  10.529  66.678  1.00  0.00    -0.104 OA 
HETATM   16  C   UNL     1      -7.782   8.126  67.423  1.00  0.00    -0.102 C  
HETATM   17  C   UNL     1      -9.360   8.152  66.952  1.00  0.00    -0.219 C  
HETATM   18  F   UNL     1      -7.851   7.272  68.557  1.00  0.00    -0.110 F  
HETATM   19  H   UNL     1      -6.631   9.994  66.033  1.00  0.00     0.000 HD 
HETATM   20  C   UNL     1      -9.827   6.747  66.529  1.00  0.00    -0.167 C  
HETATM   21  C   UNL     1      -8.798   6.055  65.646  1.00  0.00    -0.118 C  
HETATM   22  C   UNL     1      -7.480   5.886  66.381  1.00  0.00    -0.083 C  
HETATM   23  C   UNL     1      -6.753   4.775  66.154  1.00  0.00    -0.050 C  
HETATM   24  C   UNL     1      -5.982   5.034  64.885  1.00  0.00    -0.021 C  
ENDROOT
BRANCH   4  25
HETATM   25  C   UNL     1      -9.705  12.121  67.723  1.00  0.00    -0.197 C  
HETATM   26  O   UNL     1      -9.123  13.007  68.355  1.00  0.00    -0.191 OA 
BRANCH  25  27
HETATM   27  C   UNL     1     -10.724  12.586  66.669  1.00  0.00    -0.236 C  
HETATM   28  O   UNL     1     -12.016  12.044  66.929  1.00  0.00    -0.612 OA 
HETATM   29  H   UNL     1     -12.645  12.331  66.278  1.00  0.00     0.000 HD 
ENDBRANCH  25  27
ENDBRANCH   4  25
TORSDOF 2
ENDMDL
MODEL       84
REMARK 921   NORMALIZED FREE ENERGY PREDICTED BY IDOCK:   -3.71 KCAL/MOL
REMARK 922        TOTAL FREE ENERGY PREDICTED BY IDOCK:   -3.41 KCAL/MOL
REMARK 923 INTER-LIGAND FREE ENERGY PREDICTED BY IDOCK:   -4.21 KCAL/MOL
REMARK 924 INTRA-LIGAND FREE ENERGY PREDICTED BY IDOCK:    0.80 KCAL/MOL
REMARK 927      BINDING AFFINITY PREDICTED BY RF-SCORE:    0.00 PKD
ROOT
HETATM    1  C   UNL     1      -9.949   7.903  69.017  1.00  0.00    -0.188 C  
HETATM    2  C   UNL     1     -11.241   7.339  69.170  1.00  0.00     0.068 C  
HETATM    3  C   UNL     1     -10.346   6.796  70.256  1.00  0.00    -0.224 C  
HETATM    4  C   UNL     1      -8.499   7.697  70.315  1.00  0.00    -0.134 C  
HETATM    5  C   UNL     1     -11.509   6.381  71.374  1.00  0.00    -0.363 C  
HETATM    6  C   UNL     1      -9.064   2.688  68.809  1.00  0.00    -0.209 C  
HETATM    7  C   UNL     1      -9.673   7.969  70.920  1.00  0.00    -0.183 C  
HETATM    8  C   UNL     1     -10.245   9.196  71.602  1.00  0.00    -0.372 C  
HETATM    9  C   UNL     1      -8.829   6.410  71.703  1.00  0.00    -0.136 C  
HETATM   10  C   UNL     1      -8.430   3.898  67.997  1.00  0.00    -0.105 C  
HETATM   11  C   UNL     1      -7.038   3.395  67.648  1.00  0.00    -0.051 C  
HETATM   12  O   UNL     1      -7.760   1.895  64.433  1.00  0.00    -0.062 OA 
HETATM   13  C   UNL     1      -8.143   5.305  70.425  1.00  0.00    -0.096 C  
HETATM   14  C   UNL     1      -6.843   2.689  66.504  1.00  0.00    -0.044 C  
HETATM   15  O   UNL     1      -6.737   5.617  70.316  1.00  0.00    -0.044 OA 
HETATM   16  C   UNL     1      -8.839   5.183  68.825  1.00  0.00    -0.093 C  
HETATM   17  C   UNL     1      -8.966   6.659  68.106  1.00  0.00    -0.121 C  
HETATM   18  F   UNL     1     -10.205   4.794  68.888  1.00  0.00    -0.247 F  
HETATM   19  H   UNL     1      -6.380   5.042  69.650  1.00  0.00     0.000 HD 
HETATM   20  C   UNL     1      -9.544   6.527  66.686  1.00  0.00    -0.201 C  
HETATM   21  C   UNL     1      -8.899   5.381  65.921  1.00  0.00    -0.148 C  
HETATM   22  C   UNL     1      -9.138   4.057  66.626  1.00  0.00    -0.149 C  
HETATM   23  C   UNL     1      -9.326   2.953  65.878  1.00  0.00    -0.056 C  
HETATM   24  C   UNL     1      -7.951   2.470  65.496  1.00  0.00    -0.082 C  
ENDROOT
BRANCH   4  25
HETATM   25  C   UNL     1      -7.539   8.573  71.388  1.00  0.00    -0.105 C  
HETATM   26  O   UNL     1      -7.642   8.640  72.616  1.00  0.00    -0.325 OA 
BRANCH  25  27
HETATM   27  C   UNL     1      -6.401   9.387  70.749  1.00  0.00    -0.081 C  
HETATM   28  O   UNL     1      -6.720  10.776  70.713  1.00  0.00    -0.454 OA 
HETATM   29  H   UNL     1      -6.018  11.278  70.318  1.00  0.00     0.000 HD 
ENDBRANCH  25  27
ENDBRANCH   4  25
TORSDOF 2
ENDMDL
MODEL       85
REMARK 921   NORMALIZED FREE ENERGY PREDICTED BY IDOCK:   -3.70 KCAL/MOL
REMARK 922        TOTAL FREE ENERGY PREDICTED BY IDOCK:   -3.39 KCAL/MOL
REMARK 923 INTER-LIGAND FREE ENERGY PREDICTED BY IDOCK:   -4.00 KCAL/MOL
REMARK 924 INTRA-LIGAND FREE ENERGY PREDICTED BY IDOCK:    0.62 KCAL/MOL
REMARK 927      BINDING AFFINITY PREDICTED BY RF-SCORE:    0.00 PKD
ROOT
HETATM    1  C   UNL     1      -8.837   9.259  65.595  1.00  0.00    -0.216 C  
HETATM    2  C   UNL     1      -8.475  10.584  65.947  1.00  0.00    -0.164 C  
HETATM    3  C   UNL     1      -7.302   9.676  66.220  1.00  0.00    -0.094 C  
HETATM    4  C   UNL     1      -7.585   7.756  65.541  1.00  0.00    -0.083 C  
HETATM    5  C   UNL     1      -6.075  10.799  66.147  1.00  0.00    -0.133 C  
HETATM    6  C   UNL     1      -7.434   8.857  70.683  1.00  0.00    -0.091 C  
HETATM    7  C   UNL     1      -7.059   8.861  64.975  1.00  0.00    -0.083 C  
HETATM    8  C   UNL     1      -6.777   9.278  63.546  1.00  0.00    -0.092 C  
HETATM    9  C   UNL     1      -5.855   8.113  66.297  1.00  0.00    -0.041 C  
HETATM   10  C   UNL     1      -8.602   8.169  69.855  1.00  0.00    -0.130 C  
HETATM   11  C   UNL     1      -8.820   6.852  70.582  1.00  0.00    -0.150 C  
HETATM   12  O   UNL     1     -11.382   7.903  72.915  1.00  0.00    -0.406 OA 
HETATM   13  C   UNL     1      -6.746   7.609  67.806  1.00  0.00    -0.067 C  
HETATM   14  C   UNL     1      -9.693   6.792  71.623  1.00  0.00    -0.166 C  
HETATM   15  O   UNL     1      -6.990   6.190  67.691  1.00  0.00    -0.064 OA 
HETATM   16  C   UNL     1      -8.205   8.410  68.341  1.00  0.00    -0.124 C  
HETATM   17  C   UNL     1      -9.344   8.450  67.153  1.00  0.00    -0.192 C  
HETATM   18  F   UNL     1      -7.981   9.799  68.549  1.00  0.00    -0.085 F  
HETATM   19  H   UNL     1      -7.454   5.927  68.477  1.00  0.00     0.000 HD 
HETATM   20  C   UNL     1     -10.634   9.124  67.655  1.00  0.00    -0.307 C  
HETATM   21  C   UNL     1     -11.022   8.632  69.042  1.00  0.00     0.061 C  
HETATM   22  C   UNL     1      -9.932   8.944  70.052  1.00  0.00    -0.204 C  
HETATM   23  C   UNL     1     -10.292   9.276  71.307  1.00  0.00    -0.397 C  
HETATM   24  C   UNL     1     -10.547   7.976  72.024  1.00  0.00    -0.248 C  
ENDROOT
BRANCH   4  25
HETATM   25  C   UNL     1      -6.870   6.657  64.482  1.00  0.00    -0.046 C  
HETATM   26  O   UNL     1      -5.667   6.432  64.322  1.00  0.00    -0.022 OA 
BRANCH  25  27
HETATM   27  C   UNL     1      -7.842   5.842  63.612  1.00  0.00    -0.104 C  
HETATM   28  O   UNL     1      -9.056   5.575  64.310  1.00  0.00    -0.354 OA 
HETATM   29  H   UNL     1      -9.656   5.072  63.772  1.00  0.00     0.000 HD 
ENDBRANCH  25  27
ENDBRANCH   4  25
TORSDOF 2
ENDMDL
MODEL       86
REMARK 921   NORMALIZED FREE ENERGY PREDICTED BY IDOCK:   -3.62 KCAL/MOL
REMARK 922        TOTAL FREE ENERGY PREDICTED BY IDOCK:   -3.30 KCAL/MOL
REMARK 923 INTER-LIGAND FREE ENERGY PREDICTED BY IDOCK:   -3.91 KCAL/MOL
REMARK 924 INTRA-LIGAND FREE ENERGY PREDICTED BY IDOCK:    0.61 KCAL/MOL
REMARK 927      BINDING AFFINITY PREDICTED BY RF-SCORE:    0.00 PKD
ROOT
HETATM    1  C   UNL     1      -6.659   7.957  68.402  1.00  0.00    -0.062 C  
HETATM    2  C   UNL     1      -6.997   6.955  67.459  1.00  0.00    -0.083 C  
HETATM    3  C   UNL     1      -8.154   7.915  67.577  1.00  0.00    -0.124 C  
HETATM    4  C   UNL     1      -7.729   9.562  68.733  1.00  0.00    -0.080 C  
HETATM    5  C   UNL     1      -8.873   7.647  66.099  1.00  0.00    -0.192 C  
HETATM    6  C   UNL     1     -11.124   5.878  70.341  1.00  0.00    -0.353 C  
HETATM    7  C   UNL     1      -7.606   9.310  67.414  1.00  0.00    -0.088 C  
HETATM    8  C   UNL     1      -6.813   9.948  66.291  1.00  0.00    -0.091 C  
HETATM    9  C   UNL     1      -9.464   9.565  67.905  1.00  0.00    -0.149 C  
HETATM   10  C   UNL     1      -9.796   6.377  71.057  1.00  0.00    -0.200 C  
HETATM   11  C   UNL     1     -10.281   6.810  72.432  1.00  0.00    -0.201 C  
HETATM   12  O   UNL     1      -9.814   3.693  74.213  1.00  0.00    -0.107 OA 
HETATM   13  C   UNL     1      -9.872   8.699  69.457  1.00  0.00    -0.187 C  
HETATM   14  C   UNL     1     -10.337   5.905  73.444  1.00  0.00    -0.246 C  
HETATM   15  O   UNL     1      -9.789   9.679  70.515  1.00  0.00    -0.256 OA 
HETATM   16  C   UNL     1      -9.054   7.235  69.953  1.00  0.00    -0.141 C  
HETATM   17  C   UNL     1      -7.420   7.435  69.980  1.00  0.00    -0.084 C  
HETATM   18  F   UNL     1      -9.187   6.215  68.972  1.00  0.00    -0.126 F  
HETATM   19  H   UNL     1     -10.002   9.228  71.323  1.00  0.00     0.000 HD 
HETATM   20  C   UNL     1      -6.720   6.149  70.456  1.00  0.00    -0.053 C  
HETATM   21  C   UNL     1      -7.416   5.546  71.668  1.00  0.00    -0.093 C  
HETATM   22  C   UNL     1      -8.852   5.179  71.340  1.00  0.00    -0.145 C  
HETATM   23  C   UNL     1      -9.381   4.076  71.905  1.00  0.00    -0.192 C  
HETATM   24  C   UNL     1      -9.829   4.488  73.284  1.00  0.00    -0.138 C  
ENDROOT
BRANCH   4  25
HETATM   25  C   UNL     1      -7.688  11.241  68.597  1.00  0.00    -0.136 C  
HETATM   26  O   UNL     1      -8.550  11.984  68.120  1.00  0.00    -0.160 OA 
BRANCH  25  27
HETATM   27  C   UNL     1      -6.416  11.920  69.132  1.00  0.00    -0.098 C  
HETATM   28  O   UNL     1      -5.917  11.244  70.283  1.00  0.00    -0.129 OA 
HETATM   29  H   UNL     1      -5.132  11.663  70.613  1.00  0.00     0.000 HD 
ENDBRANCH  25  27
ENDBRANCH   4  25
TORSDOF 2
ENDMDL
MODEL       87
REMARK 921   NORMALIZED FREE ENERGY PREDICTED BY IDOCK:   -3.58 KCAL/MOL
REMARK 922        TOTAL FREE ENERGY PREDICTED BY IDOCK:   -3.26 KCAL/MOL
REMARK 923 INTER-LIGAND FREE ENERGY PREDICTED BY IDOCK:   -4.07 KCAL/MOL
REMARK 924 INTRA-LIGAND FREE ENERGY PREDICTED BY IDOCK:    0.82 KCAL/MOL
REMARK 927      BINDING AFFINITY PREDICTED BY RF-SCORE:    0.00 PKD
ROOT
HETATM    1  C   UNL     1     -10.581   6.986  69.170  1.00  0.00    -0.235 C  
HETATM    2  C   UNL     1     -11.679   7.180  70.046  1.00  0.00    -0.105 C  
HETATM    3  C   UNL     1     -10.560   8.100  70.465  1.00  0.00    -0.228 C  
HETATM    4  C   UNL     1      -8.979   8.110  69.151  1.00  0.00    -0.144 C  
HETATM    5  C   UNL     1     -11.453   9.255  71.267  1.00  0.00    -0.418 C  
HETATM    6  C   UNL     1      -8.541   6.018  73.958  1.00  0.00    -0.119 C  
HETATM    7  C   UNL     1     -10.104   8.849  69.239  1.00  0.00    -0.205 C  
HETATM    8  C   UNL     1     -10.859   9.734  68.269  1.00  0.00    -0.256 C  
HETATM    9  C   UNL     1      -8.834   9.342  70.618  1.00  0.00    -0.287 C  
HETATM   10  C   UNL     1      -8.306   5.317  72.551  1.00  0.00    -0.118 C  
HETATM   11  C   UNL     1      -6.887   4.781  72.659  1.00  0.00    -0.069 C  
HETATM   12  O   UNL     1      -7.619   1.476  73.942  1.00  0.00    -0.031 OA 
HETATM   13  C   UNL     1      -8.068   7.873  71.381  1.00  0.00    -0.102 C  
HETATM   14  C   UNL     1      -6.671   3.542  73.171  1.00  0.00    -0.038 C  
HETATM   15  O   UNL     1      -6.796   7.679  70.725  1.00  0.00    -0.042 OA 
HETATM   16  C   UNL     1      -8.901   6.340  71.499  1.00  0.00    -0.138 C  
HETATM   17  C   UNL     1      -9.452   5.836  70.032  1.00  0.00    -0.193 C  
HETATM   18  F   UNL     1     -10.122   6.474  72.216  1.00  0.00    -0.175 F  
HETATM   19  H   UNL     1      -6.396   6.914  71.121  1.00  0.00     0.000 HD 
HETATM   20  C   UNL     1     -10.148   4.468  70.151  1.00  0.00    -0.220 C  
HETATM   21  C   UNL     1      -9.350   3.504  71.018  1.00  0.00    -0.213 C  
HETATM   22  C   UNL     1      -9.190   4.048  72.426  1.00  0.00    -0.153 C  
HETATM   23  C   UNL     1      -9.204   3.182  73.458  1.00  0.00    -0.096 C  
HETATM   24  C   UNL     1      -7.810   2.618  73.546  1.00  0.00    -0.055 C  
ENDROOT
BRANCH   4  25
HETATM   25  C   UNL     1      -8.128   9.198  68.185  1.00  0.00    -0.104 C  
HETATM   26  O   UNL     1      -7.295  10.036  68.541  1.00  0.00    -0.075 OA 
BRANCH  25  27
HETATM   27  C   UNL     1      -8.436   9.133  66.679  1.00  0.00    -0.123 C  
HETATM   28  O   UNL     1      -8.163  10.379  66.044  1.00  0.00    -0.132 OA 
HETATM   29  H   UNL     1      -8.354  10.339  65.115  1.00  0.00     0.000 HD 
ENDBRANCH  25  27
ENDBRANCH   4  25
TORSDOF 2
ENDMDL
MODEL       88
REMARK 921   NORMALIZED FREE ENERGY PREDICTED BY IDOCK:   -3.52 KCAL/MOL
REMARK 922        TOTAL FREE ENERGY PREDICTED BY IDOCK:   -3.19 KCAL/MOL
REMARK 923 INTER-LIGAND FREE ENERGY PREDICTED BY IDOCK:   -3.78 KCAL/MOL
REMARK 924 INTRA-LIGAND FREE ENERGY PREDICTED BY IDOCK:    0.58 KCAL/MOL
REMARK 927      BINDING AFFINITY PREDICTED BY RF-SCORE:    0.00 PKD
ROOT
HETATM    1  C   UNL     1      -9.759   6.856  66.526  1.00  0.00    -0.185 C  
HETATM    2  C   UNL     1     -11.028   7.174  67.072  1.00  0.00    -0.304 C  
HETATM    3  C   UNL     1     -10.001   8.105  67.666  1.00  0.00    -0.240 C  
HETATM    4  C   UNL     1      -8.146   7.929  66.797  1.00  0.00    -0.108 C  
HETATM    5  C   UNL     1     -11.002   9.364  68.097  1.00  0.00    -0.102 C  
HETATM    6  C   UNL     1      -9.023   6.369  71.745  1.00  0.00    -0.139 C  
HETATM    7  C   UNL     1      -9.216   8.702  66.526  1.00  0.00    -0.236 C  
HETATM    8  C   UNL     1      -9.660   9.495  65.312  1.00  0.00    -0.314 C  
HETATM    9  C   UNL     1      -8.303   9.310  68.123  1.00  0.00    -0.120 C  
HETATM   10  C   UNL     1      -8.485   5.511  70.520  1.00  0.00    -0.123 C  
HETATM   11  C   UNL     1      -7.167   4.953  71.034  1.00  0.00    -0.060 C  
HETATM   12  O   UNL     1      -8.368   1.830  72.416  1.00  0.00    -0.052 OA 
HETATM   13  C   UNL     1      -7.828   7.915  69.197  1.00  0.00    -0.109 C  
HETATM   14  C   UNL     1      -7.150   3.772  71.706  1.00  0.00    -0.038 C  
HETATM   15  O   UNL     1      -6.446   7.617  68.905  1.00  0.00    -0.041 OA 
HETATM   16  C   UNL     1      -8.745   6.427  69.255  1.00  0.00    -0.125 C  
HETATM   17  C   UNL     1      -8.942   5.778  67.755  1.00  0.00    -0.107 C  
HETATM   18  F   UNL     1     -10.096   6.671  69.624  1.00  0.00    -0.174 F  
HETATM   19  H   UNL     1      -6.198   6.890  69.464  1.00  0.00     0.000 HD 
HETATM   20  C   UNL     1      -9.718   4.451  67.831  1.00  0.00    -0.186 C  
HETATM   21  C   UNL     1      -9.211   3.568  68.962  1.00  0.00    -0.228 C  
HETATM   22  C   UNL     1      -9.376   4.260  70.304  1.00  0.00    -0.225 C  
HETATM   23  C   UNL     1      -9.691   3.514  71.380  1.00  0.00    -0.236 C  
HETATM   24  C   UNL     1      -8.394   2.925  71.873  1.00  0.00    -0.058 C  
ENDROOT
BRANCH   4  25
HETATM   25  C   UNL     1      -7.025   8.880  65.973  1.00  0.00    -0.084 C  
HETATM   26  O   UNL     1      -6.653  10.024  66.250  1.00  0.00    -0.077 OA 
BRANCH  25  27
HETATM   27  C   UNL     1      -6.399   8.238  64.723  1.00  0.00    -0.064 C  
HETATM   28  O   UNL     1      -6.882   6.912  64.530  1.00  0.00    -0.044 OA 
HETATM   29  H   UNL     1      -6.495   6.516  63.759  1.00  0.00     0.000 HD 
ENDBRANCH  25  27
ENDBRANCH   4  25
TORSDOF 2
ENDMDL
MODEL       89
REMARK 921   NORMALIZED FREE ENERGY PREDICTED BY IDOCK:   -3.42 KCAL/MOL
REMARK 922        TOTAL FREE ENERGY PREDICTED BY IDOCK:   -3.08 KCAL/MOL
REMARK 923 INTER-LIGAND FREE ENERGY PREDICTED BY IDOCK:   -4.05 KCAL/MOL
REMARK 924 INTRA-LIGAND FREE ENERGY PREDICTED BY IDOCK:    0.97 KCAL/MOL
REMARK 927      BINDING AFFINITY PREDICTED BY RF-SCORE:    0.00 PKD
ROOT
HETATM    1  C   UNL     1      -7.116  10.993  68.973  1.00  0.00    -0.106 C  
HETATM    2  C   UNL     1      -5.974  10.605  68.228  1.00  0.00    -0.046 C  
HETATM    3  C   UNL     1      -7.131  10.786  67.277  1.00  0.00    -0.091 C  
HETATM    4  C   UNL     1      -8.804  11.578  68.174  1.00  0.00    -0.165 C  
HETATM    5  C   UNL     1      -6.279  11.072  65.875  1.00  0.00    -0.037 C  
HETATM    6  C   UNL     1      -8.692   6.598  66.479  1.00  0.00    -0.137 C  
HETATM    7  C   UNL     1      -7.742  12.135  67.556  1.00  0.00    -0.159 C  
HETATM    8  C   UNL     1      -7.141  13.527  67.550  1.00  0.00    -0.159 C  
HETATM    9  C   UNL     1      -8.939  11.308  66.276  1.00  0.00    -0.204 C  
HETATM   10  C   UNL     1      -8.974   7.135  67.947  1.00  0.00    -0.122 C  
HETATM   11  C   UNL     1     -10.330   6.536  68.286  1.00  0.00    -0.223 C  
HETATM   12  O   UNL     1      -9.225   3.465  69.852  1.00  0.00    -0.120 OA 
HETATM   13  C   UNL     1      -9.517   9.678  66.854  1.00  0.00    -0.153 C  
HETATM   14  C   UNL     1     -10.401   5.306  68.857  1.00  0.00    -0.228 C  
HETATM   15  O   UNL     1     -10.815   9.885  67.453  1.00  0.00    -0.280 OA 
HETATM   16  C   UNL     1      -8.551   8.660  67.896  1.00  0.00    -0.137 C  
HETATM   17  C   UNL     1      -8.074   9.462  69.252  1.00  0.00    -0.105 C  
HETATM   18  F   UNL     1      -7.294   8.363  67.301  1.00  0.00    -0.079 F  
HETATM   19  H   UNL     1     -11.117   9.037  67.754  1.00  0.00     0.000 HD 
HETATM   20  C   UNL     1      -7.257   8.538  70.175  1.00  0.00    -0.051 C  
HETATM   21  C   UNL     1      -7.902   7.166  70.309  1.00  0.00    -0.104 C  
HETATM   22  C   UNL     1      -7.999   6.479  68.959  1.00  0.00    -0.111 C  
HETATM   23  C   UNL     1      -7.832   5.143  68.902  1.00  0.00    -0.082 C  
HETATM   24  C   UNL     1      -9.162   4.541  69.274  1.00  0.00    -0.133 C  
ENDROOT
BRANCH   4  25
HETATM   25  C   UNL     1      -9.816  12.918  68.031  1.00  0.00    -0.223 C  
HETATM   26  O   UNL     1      -9.731  13.850  67.227  1.00  0.00    -0.234 OA 
BRANCH  25  27
HETATM   27  C   UNL     1     -10.983  12.979  69.032  1.00  0.00    -0.196 C  
HETATM   28  O   UNL     1     -12.124  13.605  68.454  1.00  0.00    -0.361 OA 
HETATM   29  H   UNL     1     -12.844  13.643  69.072  1.00  0.00     0.000 HD 
ENDBRANCH  25  27
ENDBRANCH   4  25
TORSDOF 2
ENDMDL
MODEL       90
REMARK 921   NORMALIZED FREE ENERGY PREDICTED BY IDOCK:   -3.38 KCAL/MOL
REMARK 922        TOTAL FREE ENERGY PREDICTED BY IDOCK:   -3.04 KCAL/MOL
REMARK 923 INTER-LIGAND FREE ENERGY PREDICTED BY IDOCK:   -3.75 KCAL/MOL
REMARK 924 INTRA-LIGAND FREE ENERGY PREDICTED BY IDOCK:    0.71 KCAL/MOL
REMARK 927      BINDING AFFINITY PREDICTED BY RF-SCORE:    0.00 PKD
ROOT
HETATM    1  C   UNL     1      -9.469   7.631  68.152  1.00  0.00    -0.150 C  
HETATM    2  C   UNL     1      -8.926   8.630  68.998  1.00  0.00    -0.142 C  
HETATM    3  C   UNL     1      -7.823   7.678  68.607  1.00  0.00    -0.121 C  
HETATM    4  C   UNL     1      -8.400   6.305  67.190  1.00  0.00    -0.109 C  
HETATM    5  C   UNL     1      -6.513   8.681  68.835  1.00  0.00    -0.049 C  
HETATM    6  C   UNL     1      -7.357   4.868  72.143  1.00  0.00    -0.082 C  
HETATM    7  C   UNL     1      -7.856   7.536  67.107  1.00  0.00    -0.117 C  
HETATM    8  C   UNL     1      -7.753   8.568  66.002  1.00  0.00    -0.093 C  
HETATM    9  C   UNL     1      -6.547   6.233  67.697  1.00  0.00    -0.055 C  
HETATM   10  C   UNL     1      -8.702   4.670  71.320  1.00  0.00    -0.139 C  
HETATM   11  C   UNL     1      -8.940   3.170  71.390  1.00  0.00    -0.156 C  
HETATM   12  O   UNL     1     -10.997   3.056  74.367  1.00  0.00    -0.099 OA 
HETATM   13  C   UNL     1      -7.245   5.098  68.942  1.00  0.00    -0.061 C  
HETATM   14  C   UNL     1      -9.645   2.647  72.427  1.00  0.00    -0.184 C  
HETATM   15  O   UNL     1      -7.647   3.903  68.238  1.00  0.00    -0.065 OA 
HETATM   16  C   UNL     1      -8.517   5.583  70.040  1.00  0.00    -0.120 C  
HETATM   17  C   UNL     1      -9.813   6.196  69.231  1.00  0.00    -0.182 C  
HETATM   18  F   UNL     1      -8.124   6.709  70.815  1.00  0.00    -0.110 F  
HETATM   19  H   UNL     1      -8.010   3.312  68.886  1.00  0.00     0.000 HD 
HETATM   20  C   UNL     1     -10.936   6.582  70.210  1.00  0.00    -0.365 C  
HETATM   21  C   UNL     1     -11.157   5.505  71.263  1.00  0.00    -0.134 C  
HETATM   22  C   UNL     1      -9.901   5.288  72.087  1.00  0.00    -0.216 C  
HETATM   23  C   UNL     1     -10.030   5.000  73.397  1.00  0.00    -0.180 C  
HETATM   24  C   UNL     1     -10.304   3.520  73.473  1.00  0.00    -0.157 C  
ENDROOT
BRANCH   4  25
HETATM   25  C   UNL     1      -7.968   5.815  65.636  1.00  0.00    -0.116 C  
HETATM   26  O   UNL     1      -6.891   5.986  65.059  1.00  0.00    -0.048 OA 
BRANCH  25  27
HETATM   27  C   UNL     1      -9.059   5.070  64.847  1.00  0.00    -0.077 C  
HETATM   28  O   UNL     1     -10.323   5.170  65.497  1.00  0.00    -0.420 OA 
HETATM   29  H   UNL     1     -10.996   4.710  65.010  1.00  0.00     0.000 HD 
ENDBRANCH  25  27
ENDBRANCH   4  25
TORSDOF 2
ENDMDL
MODEL       91
REMARK 921   NORMALIZED FREE ENERGY PREDICTED BY IDOCK:   -3.37 KCAL/MOL
REMARK 922        TOTAL FREE ENERGY PREDICTED BY IDOCK:   -3.03 KCAL/MOL
REMARK 923 INTER-LIGAND FREE ENERGY PREDICTED BY IDOCK:   -3.69 KCAL/MOL
REMARK 924 INTRA-LIGAND FREE ENERGY PREDICTED BY IDOCK:    0.66 KCAL/MOL
REMARK 927      BINDING AFFINITY PREDICTED BY RF-SCORE:    0.00 PKD
ROOT
HETATM    1  C   UNL     1     -10.195  13.481  66.976  1.00  0.00    -0.249 C  
HETATM    2  C   UNL     1     -11.175  12.879  67.805  1.00  0.00    -0.319 C  
HETATM    3  C   UNL     1     -10.143  13.544  68.683  1.00  0.00    -0.170 C  
HETATM    4  C   UNL     1      -8.780  14.664  67.628  1.00  0.00    -0.181 C  
HETATM    5  C   UNL     1     -11.063  13.763  70.054  1.00  0.00     0.130 C  
HETATM    6  C   UNL     1      -7.389  10.199  70.039  1.00  0.00    -0.172 C  
HETATM    7  C   UNL     1      -9.970  14.958  68.190  1.00  0.00    -0.222 C  
HETATM    8  C   UNL     1     -10.968  16.084  68.010  1.00  0.00    -0.341 C  
HETATM    9  C   UNL     1      -8.598  14.735  69.540  1.00  0.00     0.101 C  
HETATM   10  C   UNL     1      -7.262  10.571  68.499  1.00  0.00    -0.085 C  
HETATM   11  C   UNL     1      -5.783  10.370  68.210  1.00  0.00    -0.040 C  
HETATM   12  O   UNL     1      -5.871   6.911  67.147  1.00  0.00    -0.016 OA 
HETATM   13  C   UNL     1      -7.540  13.292  69.190  1.00  0.00     0.226 C  
HETATM   14  C   UNL     1      -5.330   9.149  67.824  1.00  0.00    -0.034 C  
HETATM   15  O   UNL     1      -6.358  13.793  68.527  1.00  0.00    -0.080 OA 
HETATM   16  C   UNL     1      -8.132  11.884  68.339  1.00  0.00    -0.155 C  
HETATM   17  C   UNL     1      -8.810  12.291  66.895  1.00  0.00    -0.207 C  
HETATM   18  F   UNL     1      -9.247  11.310  69.010  1.00  0.00    -0.173 F  
HETATM   19  H   UNL     1      -5.807  13.042  68.345  1.00  0.00     0.000 HD 
HETATM   20  C   UNL     1      -9.291  11.035  66.144  1.00  0.00    -0.214 C  
HETATM   21  C   UNL     1      -8.255   9.921  66.193  1.00  0.00    -0.118 C  
HETATM   22  C   UNL     1      -7.974   9.505  67.625  1.00  0.00    -0.106 C  
HETATM   23  C   UNL     1      -7.725   8.206  67.883  1.00  0.00    -0.114 C  
HETATM   24  C   UNL     1      -6.269   7.990  67.563  1.00  0.00    -0.052 C  
ENDROOT
BRANCH   4  25
HETATM   25  C   UNL     1      -8.228  16.255  67.541  1.00  0.00    -0.148 C  
HETATM   26  O   UNL     1      -7.862  16.982  68.468  1.00  0.00    -0.228 OA 
BRANCH  25  27
HETATM   27  C   UNL     1      -8.184  16.866  66.130  1.00  0.00    -0.260 C  
HETATM   28  O   UNL     1      -8.869  18.115  66.089  1.00  0.00    -0.460 OA 
HETATM   29  H   UNL     1      -8.842  18.492  65.218  1.00  0.00     0.000 HD 
ENDBRANCH  25  27
ENDBRANCH   4  25
TORSDOF 2
ENDMDL
MODEL       92
REMARK 921   NORMALIZED FREE ENERGY PREDICTED BY IDOCK:   -3.31 KCAL/MOL
REMARK 922        TOTAL FREE ENERGY PREDICTED BY IDOCK:   -2.95 KCAL/MOL
REMARK 923 INTER-LIGAND FREE ENERGY PREDICTED BY IDOCK:   -3.58 KCAL/MOL
REMARK 924 INTRA-LIGAND FREE ENERGY PREDICTED BY IDOCK:    0.62 KCAL/MOL
REMARK 927      BINDING AFFINITY PREDICTED BY RF-SCORE:    0.00 PKD
ROOT
HETATM    1  C   UNL     1      -7.987   6.788  66.982  1.00  0.00    -0.109 C  
HETATM    2  C   UNL     1      -7.278   8.012  67.079  1.00  0.00    -0.087 C  
HETATM    3  C   UNL     1      -6.648   7.014  68.018  1.00  0.00    -0.056 C  
HETATM    4  C   UNL     1      -7.415   5.116  67.822  1.00  0.00    -0.079 C  
HETATM    5  C   UNL     1      -5.126   7.680  68.131  1.00  0.00    -0.026 C  
HETATM    6  C   UNL     1      -8.314   8.012  72.122  1.00  0.00    -0.188 C  
HETATM    7  C   UNL     1      -6.384   5.755  67.233  1.00  0.00    -0.042 C  
HETATM    8  C   UNL     1      -5.580   5.513  65.970  1.00  0.00    -0.013 C  
HETATM    9  C   UNL     1      -5.961   5.289  69.066  1.00  0.00    -0.021 C  
HETATM   10  C   UNL     1      -9.372   7.376  71.120  1.00  0.00    -0.156 C  
HETATM   11  C   UNL     1     -10.253   6.533  72.029  1.00  0.00    -0.212 C  
HETATM   12  O   UNL     1     -12.791   8.995  72.809  1.00  0.00    -0.334 OA 
HETATM   13  C   UNL     1      -7.358   5.636  70.185  1.00  0.00    -0.069 C  
HETATM   14  C   UNL     1     -11.339   7.093  72.623  1.00  0.00    -0.306 C  
HETATM   15  O   UNL     1      -8.065   4.389  70.367  1.00  0.00    -0.064 OA 
HETATM   16  C   UNL     1      -8.507   6.917  69.876  1.00  0.00    -0.140 C  
HETATM   17  C   UNL     1      -9.171   6.785  68.375  1.00  0.00    -0.123 C  
HETATM   18  F   UNL     1      -7.856   8.177  69.775  1.00  0.00    -0.094 F  
HETATM   19  H   UNL     1      -8.793   4.569  70.950  1.00  0.00     0.000 HD 
HETATM   20  C   UNL     1     -10.207   7.899  68.136  1.00  0.00    -0.248 C  
HETATM   21  C   UNL     1     -11.120   8.084  69.339  1.00  0.00     0.081 C  
HETATM   22  C   UNL     1     -10.321   8.473  70.570  1.00  0.00    -0.226 C  
HETATM   23  C   UNL     1     -10.869   9.335  71.449  1.00  0.00    -0.434 C  
HETATM   24  C   UNL     1     -11.774   8.512  72.329  1.00  0.00    -0.373 C  
ENDROOT
BRANCH   4  25
HETATM   25  C   UNL     1      -6.888   3.557  67.460  1.00  0.00    -0.050 C  
HETATM   26  O   UNL     1      -5.878   2.983  67.874  1.00  0.00    -0.022 OA 
BRANCH  25  27
HETATM   27  C   UNL     1      -7.781   2.761  66.492  1.00  0.00    -0.076 C  
HETATM   28  O   UNL     1      -8.652   3.626  65.767  1.00  0.00    -0.109 OA 
HETATM   29  H   UNL     1      -9.203   3.135  65.170  1.00  0.00     0.000 HD 
ENDBRANCH  25  27
ENDBRANCH   4  25
TORSDOF 2
ENDMDL
MODEL       93
REMARK 921   NORMALIZED FREE ENERGY PREDICTED BY IDOCK:   -3.14 KCAL/MOL
REMARK 922        TOTAL FREE ENERGY PREDICTED BY IDOCK:   -2.76 KCAL/MOL
REMARK 923 INTER-LIGAND FREE ENERGY PREDICTED BY IDOCK:   -4.33 KCAL/MOL
REMARK 924 INTRA-LIGAND FREE ENERGY PREDICTED BY IDOCK:    1.57 KCAL/MOL
REMARK 927      BINDING AFFINITY PREDICTED BY RF-SCORE:    0.00 PKD
ROOT
HETATM    1  C   UNL     1     -10.493  12.794  68.408  1.00  0.00    -0.253 C  
HETATM    2  C   UNL     1     -11.066  13.084  67.144  1.00  0.00    -0.304 C  
HETATM    3  C   UNL     1      -9.615  12.724  66.944  1.00  0.00    -0.235 C  
HETATM    4  C   UNL     1      -8.702  12.048  68.657  1.00  0.00    -0.014 C  
HETATM    5  C   UNL     1      -9.681  12.235  65.353  1.00  0.00    -0.150 C  
HETATM    6  C   UNL     1      -7.443  16.688  66.520  1.00  0.00    -0.306 C  
HETATM    7  C   UNL     1      -9.366  11.423  67.664  1.00  0.00    -0.159 C  
HETATM    8  C   UNL     1     -10.024  10.064  67.531  1.00  0.00    -0.232 C  
HETATM    9  C   UNL     1      -7.613  12.003  67.074  1.00  0.00    -0.111 C  
HETATM   10  C   UNL     1      -7.986  16.389  67.984  1.00  0.00    -0.159 C  
HETATM   11  C   UNL     1      -6.924  17.002  68.883  1.00  0.00    -0.219 C  
HETATM   12  O   UNL     1      -8.340  20.313  69.265  1.00  0.00     0.342 OA 
HETATM   13  C   UNL     1      -7.235  13.690  67.652  1.00  0.00    -0.170 C  
HETATM   14  C   UNL     1      -7.022  18.307  69.249  1.00  0.00    -0.174 C  
HETATM   15  O   UNL     1      -6.436  13.552  68.847  1.00  0.00    -0.090 OA 
HETATM   16  C   UNL     1      -8.481  14.887  67.920  1.00  0.00    -0.153 C  
HETATM   17  C   UNL     1      -9.649  14.327  68.936  1.00  0.00    -0.086 C  
HETATM   18  F   UNL     1      -9.237  15.114  66.737  1.00  0.00    -0.208 F  
HETATM   19  H   UNL     1      -6.239  14.431  69.148  1.00  0.00     0.000 HD 
HETATM   20  C   UNL     1     -10.717  15.408  69.190  1.00  0.00    -0.246 C  
HETATM   21  C   UNL     1     -10.087  16.767  69.457  1.00  0.00    -0.107 C  
HETATM   22  C   UNL     1      -9.262  17.225  68.267  1.00  0.00    -0.265 C  
HETATM   23  C   UNL     1      -9.240  18.537  67.964  1.00  0.00    -0.315 C  
HETATM   24  C   UNL     1      -8.217  19.159  68.879  1.00  0.00    -0.295 C  
ENDROOT
BRANCH   4  25
HETATM   25  C   UNL     1      -7.896  10.678  69.220  1.00  0.00    -0.138 C  
HETATM   26  O   UNL     1      -8.122  10.036  70.249  1.00  0.00    -0.162 OA 
BRANCH  25  27
HETATM   27  C   UNL     1      -6.738  10.179  68.339  1.00  0.00    -0.054 C  
HETATM   28  O   UNL     1      -6.880   8.793  68.039  1.00  0.00    -0.068 OA 
HETATM   29  H   UNL     1      -6.165   8.485  67.496  1.00  0.00     0.000 HD 
ENDBRANCH  25  27
ENDBRANCH   4  25
TORSDOF 2
ENDMDL
MODEL       94
REMARK 921   NORMALIZED FREE ENERGY PREDICTED BY IDOCK:   -3.09 KCAL/MOL
REMARK 922        TOTAL FREE ENERGY PREDICTED BY IDOCK:   -2.71 KCAL/MOL
REMARK 923 INTER-LIGAND FREE ENERGY PREDICTED BY IDOCK:   -3.42 KCAL/MOL
REMARK 924 INTRA-LIGAND FREE ENERGY PREDICTED BY IDOCK:    0.72 KCAL/MOL
REMARK 927      BINDING AFFINITY PREDICTED BY RF-SCORE:    0.00 PKD
ROOT
HETATM    1  C   UNL     1      -5.789   6.373  66.529  1.00  0.00    -0.021 C  
HETATM    2  C   UNL     1      -6.202   5.027  66.695  1.00  0.00    -0.032 C  
HETATM    3  C   UNL     1      -7.101   5.685  65.678  1.00  0.00    -0.067 C  
HETATM    4  C   UNL     1      -6.485   7.574  65.149  1.00  0.00    -0.041 C  
HETATM    5  C   UNL     1      -7.619   4.327  64.864  1.00  0.00    -0.077 C  
HETATM    6  C   UNL     1     -10.871   6.797  67.950  1.00  0.00    -0.320 C  
HETATM    7  C   UNL     1      -6.218   6.349  64.653  1.00  0.00    -0.030 C  
HETATM    8  C   UNL     1      -5.128   5.792  63.760  1.00  0.00    -0.013 C  
HETATM    9  C   UNL     1      -8.015   6.911  64.193  1.00  0.00    -0.078 C  
HETATM   10  C   UNL     1      -9.593   7.660  68.335  1.00  0.00    -0.155 C  
HETATM   11  C   UNL     1     -10.172   9.037  68.617  1.00  0.00    -0.226 C  
HETATM   12  O   UNL     1     -10.750   8.698  72.175  1.00  0.00    -0.327 OA 
HETATM   13  C   UNL     1      -8.859   7.686  65.611  1.00  0.00    -0.050 C  
HETATM   14  C   UNL     1     -10.602   9.345  69.869  1.00  0.00    -0.258 C  
HETATM   15  O   UNL     1      -8.713   9.115  65.453  1.00  0.00    -0.163 OA 
HETATM   16  C   UNL     1      -8.502   7.245  67.265  1.00  0.00    -0.118 C  
HETATM   17  C   UNL     1      -6.893   7.369  67.592  1.00  0.00    -0.078 C  
HETATM   18  F   UNL     1      -8.717   5.856  67.483  1.00  0.00    -0.108 F  
HETATM   19  H   UNL     1      -9.153   9.519  66.191  1.00  0.00     0.000 HD 
HETATM   20  C   UNL     1      -6.605   7.013  69.062  1.00  0.00    -0.048 C  
HETATM   21  C   UNL     1      -7.608   7.663  70.004  1.00  0.00    -0.087 C  
HETATM   22  C   UNL     1      -9.019   7.195  69.699  1.00  0.00    -0.141 C  
HETATM   23  C   UNL     1      -9.878   7.027  70.723  1.00  0.00    -0.190 C  
HETATM   24  C   UNL     1     -10.428   8.395  71.035  1.00  0.00    -0.206 C  
ENDROOT
BRANCH   4  25
HETATM   25  C   UNL     1      -6.024   8.428  63.772  1.00  0.00    -0.071 C  
HETATM   26  O   UNL     1      -5.960   8.017  62.610  1.00  0.00    -0.071 OA 
BRANCH  25  27
HETATM   27  C   UNL     1      -5.633   9.899  64.002  1.00  0.00    -0.097 C  
HETATM   28  O   UNL     1      -6.752  10.763  63.818  1.00  0.00    -0.352 OA 
HETATM   29  H   UNL     1      -6.511  11.670  63.960  1.00  0.00     0.000 HD 
ENDBRANCH  25  27
ENDBRANCH   4  25
TORSDOF 2
ENDMDL
MODEL       95
REMARK 921   NORMALIZED FREE ENERGY PREDICTED BY IDOCK:   -3.03 KCAL/MOL
REMARK 922        TOTAL FREE ENERGY PREDICTED BY IDOCK:   -2.64 KCAL/MOL
REMARK 923 INTER-LIGAND FREE ENERGY PREDICTED BY IDOCK:   -3.35 KCAL/MOL
REMARK 924 INTRA-LIGAND FREE ENERGY PREDICTED BY IDOCK:    0.70 KCAL/MOL
REMARK 927      BINDING AFFINITY PREDICTED BY RF-SCORE:    0.00 PKD
ROOT
HETATM    1  C   UNL     1      -7.896  14.991  68.834  1.00  0.00    -0.162 C  
HETATM    2  C   UNL     1      -7.074  15.450  67.774  1.00  0.00    -0.185 C  
HETATM    3  C   UNL     1      -8.424  15.078  67.212  1.00  0.00    -0.220 C  
HETATM    4  C   UNL     1      -9.809  14.616  68.660  1.00  0.00    -0.224 C  
HETATM    5  C   UNL     1      -8.404  16.013  65.834  1.00  0.00     0.296 C  
HETATM    6  C   UNL     1      -7.881  10.938  65.430  1.00  0.00     0.078 C  
HETATM    7  C   UNL     1      -9.471  15.769  68.048  1.00  0.00    -0.202 C  
HETATM    8  C   UNL     1      -9.685  17.234  68.373  1.00  0.00    -0.293 C  
HETATM    9  C   UNL     1     -10.474  14.615  66.857  1.00  0.00    -0.270 C  
HETATM   10  C   UNL     1      -7.833  10.981  67.017  1.00  0.00    -0.137 C  
HETATM   11  C   UNL     1      -8.485   9.668  67.424  1.00  0.00    -0.125 C  
HETATM   12  O   UNL     1      -5.526   7.591  67.604  1.00  0.00    -0.028 OA 
HETATM   13  C   UNL     1      -9.916  12.883  66.974  1.00  0.00    -0.244 C  
HETATM   14  C   UNL     1      -7.725   8.550  67.556  1.00  0.00    -0.098 C  
HETATM   15  O   UNL     1     -10.825  12.212  67.874  1.00  0.00    -0.203 OA 
HETATM   16  C   UNL     1      -8.270  12.458  67.384  1.00  0.00    -0.180 C  
HETATM   17  C   UNL     1      -7.795  13.167  68.791  1.00  0.00     0.018 C  
HETATM   18  F   UNL     1      -7.348  13.032  66.466  1.00  0.00     0.271 F  
HETATM   19  H   UNL     1     -10.534  11.310  67.934  1.00  0.00     0.000 HD 
HETATM   20  C   UNL     1      -6.358  12.750  69.155  1.00  0.00    -0.106 C  
HETATM   21  C   UNL     1      -6.141  11.256  68.964  1.00  0.00    -0.052 C  
HETATM   22  C   UNL     1      -6.370  10.856  67.518  1.00  0.00    -0.057 C  
HETATM   23  C   UNL     1      -5.600   9.886  66.986  1.00  0.00    -0.046 C  
HETATM   24  C   UNL     1      -6.218   8.581  67.417  1.00  0.00    -0.056 C  
ENDROOT
BRANCH   4  25
HETATM   25  C   UNL     1     -11.321  15.135  69.193  1.00  0.00    -0.298 C  
HETATM   26  O   UNL     1     -12.364  15.225  68.541  1.00  0.00    -0.044 OA 
BRANCH  25  27
HETATM   27  C   UNL     1     -11.399  15.547  70.673  1.00  0.00    -0.343 C  
HETATM   28  O   UNL     1     -11.431  14.404  71.524  1.00  0.00    -0.435 OA 
HETATM   29  H   UNL     1     -11.479  14.659  72.438  1.00  0.00     0.000 HD 
ENDBRANCH  25  27
ENDBRANCH   4  25
TORSDOF 2
ENDMDL
MODEL       96
REMARK 921   NORMALIZED FREE ENERGY PREDICTED BY IDOCK:   -3.00 KCAL/MOL
REMARK 922        TOTAL FREE ENERGY PREDICTED BY IDOCK:   -2.62 KCAL/MOL
REMARK 923 INTER-LIGAND FREE ENERGY PREDICTED BY IDOCK:   -3.38 KCAL/MOL
REMARK 924 INTRA-LIGAND FREE ENERGY PREDICTED BY IDOCK:    0.76 KCAL/MOL
REMARK 927      BINDING AFFINITY PREDICTED BY RF-SCORE:    0.00 PKD
ROOT
HETATM    1  C   UNL     1      -8.715   8.952  68.621  1.00  0.00    -0.134 C  
HETATM    2  C   UNL     1      -9.719   8.398  67.787  1.00  0.00    -0.199 C  
HETATM    3  C   UNL     1      -9.199   9.659  67.143  1.00  0.00    -0.156 C  
HETATM    4  C   UNL     1      -7.571  10.456  68.114  1.00  0.00    -0.091 C  
HETATM    5  C   UNL     1      -9.605   9.334  65.561  1.00  0.00    -0.291 C  
HETATM    6  C   UNL     1     -12.247  12.867  68.156  1.00  0.00    -0.006 C  
HETATM    7  C   UNL     1      -7.695   9.565  67.109  1.00  0.00    -0.091 C  
HETATM    8  C   UNL     1      -6.771   8.527  66.504  1.00  0.00    -0.067 C  
HETATM    9  C   UNL     1      -8.090  11.362  66.501  1.00  0.00    -0.141 C  
HETATM   10  C   UNL     1     -11.381  12.370  69.392  1.00  0.00    -0.286 C  
HETATM   11  C   UNL     1     -11.208  13.629  70.228  1.00  0.00     0.243 C  
HETATM   12  O   UNL     1     -14.094  13.287  72.386  1.00  0.00    -0.618 OA 
HETATM   13  C   UNL     1      -9.127  12.263  67.700  1.00  0.00    -0.184 C  
HETATM   14  C   UNL     1     -12.136  13.949  71.167  1.00  0.00    -0.320 C  
HETATM   15  O   UNL     1      -8.234  13.072  68.497  1.00  0.00    -0.231 OA 
HETATM   16  C   UNL     1     -10.267  11.450  68.746  1.00  0.00    -0.197 C  
HETATM   17  C   UNL     1      -9.545  10.247  69.608  1.00  0.00    -0.192 C  
HETATM   18  F   UNL     1     -11.218  10.709  67.992  1.00  0.00    -0.278 F  
HETATM   19  H   UNL     1      -8.774  13.542  69.122  1.00  0.00     0.000 HD 
HETATM   20  C   UNL     1     -10.556   9.568  70.551  1.00  0.00    -0.358 C  
HETATM   21  C   UNL     1     -11.419  10.589  71.278  1.00  0.00     0.026 C  
HETATM   22  C   UNL     1     -12.218  11.422  70.291  1.00  0.00    -0.433 C  
HETATM   23  C   UNL     1     -13.463  11.808  70.632  1.00  0.00     1.098 C  
HETATM   24  C   UNL     1     -13.297  13.034  71.493  1.00  0.00    -0.199 C  
ENDROOT
BRANCH   4  25
HETATM   25  C   UNL     1      -5.966  10.860  67.796  1.00  0.00    -0.043 C  
HETATM   26  O   UNL     1      -5.297  10.580  66.798  1.00  0.00    -0.040 OA 
BRANCH  25  27
HETATM   27  C   UNL     1      -5.256  11.673  68.892  1.00  0.00    -0.046 C  
HETATM   28  O   UNL     1      -6.110  11.881  70.013  1.00  0.00    -0.143 OA 
HETATM   29  H   UNL     1      -5.672  12.383  70.690  1.00  0.00     0.000 HD 
ENDBRANCH  25  27
ENDBRANCH   4  25
TORSDOF 2
ENDMDL
MODEL       97
REMARK 921   NORMALIZED FREE ENERGY PREDICTED BY IDOCK:   -2.92 KCAL/MOL
REMARK 922        TOTAL FREE ENERGY PREDICTED BY IDOCK:   -2.52 KCAL/MOL
REMARK 923 INTER-LIGAND FREE ENERGY PREDICTED BY IDOCK:   -3.45 KCAL/MOL
REMARK 924 INTRA-LIGAND FREE ENERGY PREDICTED BY IDOCK:    0.92 KCAL/MOL
REMARK 927      BINDING AFFINITY PREDICTED BY RF-SCORE:    0.00 PKD
ROOT
HETATM    1  C   UNL     1      -6.862   6.415  66.764  1.00  0.00    -0.066 C  
HETATM    2  C   UNL     1      -7.161   5.086  66.371  1.00  0.00    -0.077 C  
HETATM    3  C   UNL     1      -8.457   5.828  66.585  1.00  0.00    -0.113 C  
HETATM    4  C   UNL     1      -8.194   7.838  66.931  1.00  0.00    -0.116 C  
HETATM    5  C   UNL     1      -9.455   4.902  65.626  1.00  0.00    -0.168 C  
HETATM    6  C   UNL     1      -9.876   4.595  70.717  1.00  0.00    -0.284 C  
HETATM    7  C   UNL     1      -8.376   7.116  65.806  1.00  0.00    -0.144 C  
HETATM    8  C   UNL     1      -8.129   7.383  64.335  1.00  0.00    -0.070 C  
HETATM    9  C   UNL     1     -10.022   7.256  66.820  1.00  0.00    -0.287 C  
HETATM   10  C   UNL     1      -8.590   5.529  70.716  1.00  0.00    -0.128 C  
HETATM   11  C   UNL     1      -8.774   6.382  71.961  1.00  0.00    -0.133 C  
HETATM   12  O   UNL     1      -7.003   4.309  74.343  1.00  0.00    -0.065 OA 
HETATM   13  C   UNL     1      -9.734   7.008  68.604  1.00  0.00    -0.139 C  
HETATM   14  C   UNL     1      -8.300   5.943  73.156  1.00  0.00    -0.116 C  
HETATM   15  O   UNL     1      -9.632   8.322  69.196  1.00  0.00    -0.158 OA 
HETATM   16  C   UNL     1      -8.444   5.995  69.210  1.00  0.00    -0.115 C  
HETATM   17  C   UNL     1      -6.985   6.435  68.588  1.00  0.00    -0.080 C  
HETATM   18  F   UNL     1      -8.560   4.667  68.716  1.00  0.00    -0.084 F  
HETATM   19  H   UNL     1      -9.482   8.193  70.125  1.00  0.00     0.000 HD 
HETATM   20  C   UNL     1      -5.859   5.557  69.162  1.00  0.00    -0.023 C  
HETATM   21  C   UNL     1      -6.001   5.373  70.666  1.00  0.00    -0.021 C  
HETATM   22  C   UNL     1      -7.315   4.693  71.006  1.00  0.00    -0.052 C  
HETATM   23  C   UNL     1      -7.346   3.829  72.039  1.00  0.00    -0.056 C  
HETATM   24  C   UNL     1      -7.490   4.670  73.281  1.00  0.00    -0.083 C  
ENDROOT
BRANCH   4  25
HETATM   25  C   UNL     1      -8.651   9.319  66.268  1.00  0.00    -0.128 C  
HETATM   26  O   UNL     1      -9.433   9.523  65.336  1.00  0.00    -0.249 OA 
BRANCH  25  27
HETATM   27  C   UNL     1      -8.006  10.561  66.907  1.00  0.00    -0.121 C  
HETATM   28  O   UNL     1      -8.299  11.736  66.157  1.00  0.00    -0.373 OA 
HETATM   29  H   UNL     1      -7.901  12.502  66.551  1.00  0.00     0.000 HD 
ENDBRANCH  25  27
ENDBRANCH   4  25
TORSDOF 2
ENDMDL
MODEL       98
REMARK 921   NORMALIZED FREE ENERGY PREDICTED BY IDOCK:   -2.83 KCAL/MOL
REMARK 922        TOTAL FREE ENERGY PREDICTED BY IDOCK:   -2.42 KCAL/MOL
REMARK 923 INTER-LIGAND FREE ENERGY PREDICTED BY IDOCK:   -3.19 KCAL/MOL
REMARK 924 INTRA-LIGAND FREE ENERGY PREDICTED BY IDOCK:    0.77 KCAL/MOL
REMARK 927      BINDING AFFINITY PREDICTED BY RF-SCORE:    0.00 PKD
ROOT
HETATM    1  C   UNL     1      -6.546  11.055  67.290  1.00  0.00    -0.078 C  
HETATM    2  C   UNL     1      -6.406  10.836  68.684  1.00  0.00    -0.050 C  
HETATM    3  C   UNL     1      -7.843  10.587  68.298  1.00  0.00    -0.111 C  
HETATM    4  C   UNL     1      -8.159  10.633  66.267  1.00  0.00    -0.151 C  
HETATM    5  C   UNL     1      -8.284   9.584  69.553  1.00  0.00    -0.134 C  
HETATM    6  C   UNL     1     -10.064  14.381  69.430  1.00  0.00     0.041 C  
HETATM    7  C   UNL     1      -7.841   9.642  67.124  1.00  0.00    -0.091 C  
HETATM    8  C   UNL     1      -7.251   8.256  66.956  1.00  0.00    -0.083 C  
HETATM    9  C   UNL     1      -9.694  10.171  67.327  1.00  0.00    -0.203 C  
HETATM   10  C   UNL     1      -9.082  14.540  68.191  1.00  0.00    -0.191 C  
HETATM   11  C   UNL     1      -9.806  15.532  67.294  1.00  0.00    -0.224 C  
HETATM   12  O   UNL     1      -8.365  18.604  68.556  1.00  0.00    -0.327 OA 
HETATM   13  C   UNL     1      -9.881  11.985  67.301  1.00  0.00    -0.192 C  
HETATM   14  C   UNL     1      -9.606  16.865  67.463  1.00  0.00    -0.245 C  
HETATM   15  O   UNL     1     -10.257  12.346  65.954  1.00  0.00    -0.241 OA 
HETATM   16  C   UNL     1      -8.622  13.061  67.863  1.00  0.00    -0.189 C  
HETATM   17  C   UNL     1      -7.188  12.757  67.114  1.00  0.00    -0.014 C  
HETATM   18  F   UNL     1      -8.283  12.792  69.217  1.00  0.00     0.215 F  
HETATM   19  H   UNL     1     -10.354  13.291  65.940  1.00  0.00     0.000 HD 
HETATM   20  C   UNL     1      -6.102  13.739  67.593  1.00  0.00    -0.096 C  
HETATM   21  C   UNL     1      -6.624  15.168  67.651  1.00  0.00    -0.195 C  
HETATM   22  C   UNL     1      -7.787  15.281  68.619  1.00  0.00    -0.142 C  
HETATM   23  C   UNL     1      -7.914  16.407  69.348  1.00  0.00    -0.020 C  
HETATM   24  C   UNL     1      -8.597  17.408  68.452  1.00  0.00    -0.270 C  
ENDROOT
BRANCH   4  25
HETATM   25  C   UNL     1      -8.734   9.630  65.041  1.00  0.00    -0.175 C  
HETATM   26  O   UNL     1      -9.753   8.934  65.046  1.00  0.00     0.210 OA 
BRANCH  25  27
HETATM   27  C   UNL     1      -7.874   9.580  63.766  1.00  0.00    -0.133 C  
HETATM   28  O   UNL     1      -6.485   9.609  64.081  1.00  0.00    -0.099 OA 
HETATM   29  H   UNL     1      -5.954   9.578  63.294  1.00  0.00     0.000 HD 
ENDBRANCH  25  27
ENDBRANCH   4  25
TORSDOF 2
ENDMDL
MODEL       99
REMARK 921   NORMALIZED FREE ENERGY PREDICTED BY IDOCK:   -2.74 KCAL/MOL
REMARK 922        TOTAL FREE ENERGY PREDICTED BY IDOCK:   -2.31 KCAL/MOL
REMARK 923 INTER-LIGAND FREE ENERGY PREDICTED BY IDOCK:   -3.33 KCAL/MOL
REMARK 924 INTRA-LIGAND FREE ENERGY PREDICTED BY IDOCK:    1.01 KCAL/MOL
REMARK 927      BINDING AFFINITY PREDICTED BY RF-SCORE:    0.00 PKD
ROOT
HETATM    1  C   UNL     1      -9.281   7.652  66.163  1.00  0.00    -0.168 C  
HETATM    2  C   UNL     1      -8.520   8.585  66.912  1.00  0.00    -0.113 C  
HETATM    3  C   UNL     1      -7.592   7.518  66.386  1.00  0.00    -0.088 C  
HETATM    4  C   UNL     1      -8.506   6.218  65.081  1.00  0.00    -0.087 C  
HETATM    5  C   UNL     1      -6.163   8.372  66.416  1.00  0.00    -0.053 C  
HETATM    6  C   UNL     1      -6.947   4.670  69.861  1.00  0.00    -0.049 C  
HETATM    7  C   UNL     1      -7.848   7.383  64.907  1.00  0.00    -0.125 C  
HETATM    8  C   UNL     1      -7.789   8.399  63.784  1.00  0.00    -0.151 C  
HETATM    9  C   UNL     1      -6.620   5.944  65.328  1.00  0.00    -0.043 C  
HETATM   10  C   UNL     1      -8.406   4.621  69.235  1.00  0.00    -0.084 C  
HETATM   11  C   UNL     1      -8.793   3.156  69.359  1.00  0.00    -0.154 C  
HETATM   12  O   UNL     1     -10.417   3.263  72.593  1.00  0.00    -0.159 OA 
HETATM   13  C   UNL     1      -7.256   4.891  66.673  1.00  0.00    -0.080 C  
HETATM   14  C   UNL     1      -9.400   2.711  70.490  1.00  0.00    -0.213 C  
HETATM   15  O   UNL     1      -7.880   3.748  66.048  1.00  0.00    -0.088 OA 
HETATM   16  C   UNL     1      -8.303   5.510  67.929  1.00  0.00    -0.099 C  
HETATM   17  C   UNL     1      -9.625   6.262  67.299  1.00  0.00    -0.138 C  
HETATM   18  F   UNL     1      -7.686   6.585  68.626  1.00  0.00    -0.093 F  
HETATM   19  H   UNL     1      -8.211   3.199  66.748  1.00  0.00     0.000 HD 
HETATM   20  C   UNL     1     -10.553   6.767  68.419  1.00  0.00    -0.270 C  
HETATM   21  C   UNL     1     -10.740   5.720  69.507  1.00  0.00    -0.408 C  
HETATM   22  C   UNL     1      -9.413   5.365  70.152  1.00  0.00    -0.213 C  
HETATM   23  C   UNL     1      -9.389   5.092  71.471  1.00  0.00    -0.191 C  
HETATM   24  C   UNL     1      -9.808   3.650  71.605  1.00  0.00    -0.160 C  
ENDROOT
BRANCH   4  25
HETATM   25  C   UNL     1      -8.350   5.687  63.489  1.00  0.00    -0.048 C  
HETATM   26  O   UNL     1      -7.594   6.119  62.616  1.00  0.00    -0.064 OA 
BRANCH  25  27
HETATM   27  C   UNL     1      -9.271   4.522  63.084  1.00  0.00    -0.093 C  
HETATM   28  O   UNL     1     -10.643   4.868  63.255  1.00  0.00     0.103 OA 
HETATM   29  H   UNL     1     -11.211   4.150  63.005  1.00  0.00     0.000 HD 
ENDBRANCH  25  27
ENDBRANCH   4  25
TORSDOF 2
ENDMDL
MODEL      100
REMARK 921   NORMALIZED FREE ENERGY PREDICTED BY IDOCK:   -2.64 KCAL/MOL
REMARK 922        TOTAL FREE ENERGY PREDICTED BY IDOCK:   -2.21 KCAL/MOL
REMARK 923 INTER-LIGAND FREE ENERGY PREDICTED BY IDOCK:   -2.87 KCAL/MOL
REMARK 924 INTRA-LIGAND FREE ENERGY PREDICTED BY IDOCK:    0.66 KCAL/MOL
REMARK 927      BINDING AFFINITY PREDICTED BY RF-SCORE:    0.00 PKD
ROOT
HETATM    1  C   UNL     1      -9.454   6.636  68.932  1.00  0.00    -0.130 C  
HETATM    2  C   UNL     1      -8.401   5.788  68.505  1.00  0.00    -0.107 C  
HETATM    3  C   UNL     1      -8.119   6.232  69.920  1.00  0.00    -0.120 C  
HETATM    4  C   UNL     1      -9.673   7.278  70.768  1.00  0.00    -0.171 C  
HETATM    5  C   UNL     1      -7.119   4.987  70.393  1.00  0.00    -0.053 C  
HETATM    6  C   UNL     1      -5.126   9.624  69.539  1.00  0.00    -0.035 C  
HETATM    7  C   UNL     1      -9.360   5.967  70.734  1.00  0.00    -0.180 C  
HETATM    8  C   UNL     1     -10.142   4.693  70.980  1.00  0.00    -0.246 C  
HETATM    9  C   UNL     1      -8.182   6.935  71.931  1.00  0.00    -0.104 C  
HETATM   10  C   UNL     1      -6.590   9.979  69.031  1.00  0.00    -0.052 C  
HETATM   11  C   UNL     1      -6.747  11.444  69.409  1.00  0.00    -0.122 C  
HETATM   12  O   UNL     1      -5.548  12.956  66.346  1.00  0.00     0.852 OA 
HETATM   13  C   UNL     1      -7.639   8.517  71.203  1.00  0.00    -0.096 C  
HETATM   14  C   UNL     1      -6.347  12.411  68.542  1.00  0.00    -0.064 C  
HETATM   15  O   UNL     1      -8.504   9.541  71.740  1.00  0.00    -0.094 OA 
HETATM   16  C   UNL     1      -7.471   8.742  69.477  1.00  0.00    -0.075 C  
HETATM   17  C   UNL     1      -8.854   8.344  68.678  1.00  0.00    -0.136 C  
HETATM   18  F   UNL     1      -6.558   7.803  68.924  1.00  0.00    -0.043 F  
HETATM   19  H   UNL     1      -8.222  10.365  71.362  1.00  0.00     0.000 HD 
HETATM   20  C   UNL     1      -8.700   8.585  67.165  1.00  0.00    -0.134 C  
HETATM   21  C   UNL     1      -8.031   9.921  66.875  1.00  0.00    -0.109 C  
HETATM   22  C   UNL     1      -6.640   9.973  67.480  1.00  0.00    -0.068 C  
HETATM   23  C   UNL     1      -5.669  10.627  66.813  1.00  0.00    -0.062 C  
HETATM   24  C   UNL     1      -5.842  12.085  67.152  1.00  0.00    -0.150 C  
ENDROOT
BRANCH   4  25
HETATM   25  C   UNL     1     -10.702   7.181  72.098  1.00  0.00    -0.215 C  
HETATM   26  O   UNL     1     -10.408   7.273  73.293  1.00  0.00    -0.268 OA 
BRANCH  25  27
HETATM   27  C   UNL     1     -12.187   6.944  71.774  1.00  0.00    -0.356 C  
HETATM   28  O   UNL     1     -12.556   7.582  70.555  1.00  0.00    -0.533 OA 
HETATM   29  H   UNL     1     -13.472   7.436  70.355  1.00  0.00     0.000 HD 
ENDBRANCH  25  27
ENDBRANCH   4  25
TORSDOF 2
ENDMDL
MODEL      101
REMARK 921   NORMALIZED FREE ENERGY PREDICTED BY IDOCK:   -2.62 KCAL/MOL
REMARK 922        TOTAL FREE ENERGY PREDICTED BY IDOCK:   -2.18 KCAL/MOL
REMARK 923 INTER-LIGAND FREE ENERGY PREDICTED BY IDOCK:   -3.77 KCAL/MOL
REMARK 924 INTRA-LIGAND FREE ENERGY PREDICTED BY IDOCK:    1.59 KCAL/MOL
REMARK 927      BINDING AFFINITY PREDICTED BY RF-SCORE:    0.00 PKD
ROOT
HETATM    1  C   UNL     1     -11.934  14.255  66.212  1.00  0.00    -0.428 C  
HETATM    2  C   UNL     1     -11.528  14.666  64.918  1.00  0.00    -0.401 C  
HETATM    3  C   UNL     1     -10.569  13.611  65.412  1.00  0.00    -0.322 C  
HETATM    4  C   UNL     1     -11.158  12.742  67.179  1.00  0.00    -0.315 C  
HETATM    5  C   UNL     1      -9.997  13.067  63.945  1.00  0.00     0.312 C  
HETATM    6  C   UNL     1      -6.954  15.896  66.934  1.00  0.00    -0.077 C  
HETATM    7  C   UNL     1     -11.389  12.439  65.886  1.00  0.00    -0.399 C  
HETATM    8  C   UNL     1     -12.419  11.585  65.174  1.00  0.00     1.346 C  
HETATM    9  C   UNL     1      -9.569  12.003  66.390  1.00  0.00    -0.239 C  
HETATM   10  C   UNL     1      -8.256  16.054  67.831  1.00  0.00    -0.154 C  
HETATM   11  C   UNL     1      -7.701  16.140  69.244  1.00  0.00    -0.210 C  
HETATM   12  O   UNL     1      -7.346  19.734  69.503  1.00  0.00    -0.293 OA 
HETATM   13  C   UNL     1      -8.818  13.324  67.399  1.00  0.00    -0.204 C  
HETATM   14  C   UNL     1      -7.352  17.347  69.760  1.00  0.00     0.656 C  
HETATM   15  O   UNL     1      -8.959  12.923  68.780  1.00  0.00    -0.386 OA 
HETATM   16  C   UNL     1      -9.276  15.003  67.231  1.00  0.00    -0.201 C  
HETATM   17  C   UNL     1     -10.903  15.205  67.384  1.00  0.00    -0.302 C  
HETATM   18  F   UNL     1      -9.071  15.459  65.900  1.00  0.00    -0.336 F  
HETATM   19  H   UNL     1      -8.568  13.610  69.306  1.00  0.00     0.000 HD 
HETATM   20  C   UNL     1     -11.282  16.693  67.271  1.00  0.00     0.177 C  
HETATM   21  C   UNL     1     -10.343  17.575  68.082  1.00  0.00    -0.375 C  
HETATM   22  C   UNL     1      -8.913  17.439  67.590  1.00  0.00    -0.233 C  
HETATM   23  C   UNL     1      -8.119  18.527  67.604  1.00  0.00    -0.262 C  
HETATM   24  C   UNL     1      -7.595  18.641  69.012  1.00  0.00    -0.192 C  
ENDROOT
BRANCH   4  25
HETATM   25  C   UNL     1     -11.535  11.217  67.789  1.00  0.00    -0.272 C  
HETATM   26  O   UNL     1     -12.435  10.917  68.578  1.00  0.00    -0.375 OA 
BRANCH  25  27
HETATM   27  C   UNL     1     -10.639  10.065  67.301  1.00  0.00    -0.257 C  
HETATM   28  O   UNL     1     -11.394   8.872  67.108  1.00  0.00    -0.021 OA 
HETATM   29  H   UNL     1     -10.840   8.162  66.807  1.00  0.00     0.000 HD 
ENDBRANCH  25  27
ENDBRANCH   4  25
TORSDOF 2
ENDMDL
MODEL      102
REMARK 921   NORMALIZED FREE ENERGY PREDICTED BY IDOCK:   -2.58 KCAL/MOL
REMARK 922        TOTAL FREE ENERGY PREDICTED BY IDOCK:   -2.14 KCAL/MOL
REMARK 923 INTER-LIGAND FREE ENERGY PREDICTED BY IDOCK:   -2.98 KCAL/MOL
REMARK 924 INTRA-LIGAND FREE ENERGY PREDICTED BY IDOCK:    0.84 KCAL/MOL
REMARK 927      BINDING AFFINITY PREDICTED BY RF-SCORE:    0.00 PKD
ROOT
HETATM    1  C   UNL     1     -10.251   8.301  68.176  1.00  0.00    -0.255 C  
HETATM    2  C   UNL     1     -10.801   9.194  69.130  1.00  0.00    -0.131 C  
HETATM    3  C   UNL     1      -9.407   9.655  68.786  1.00  0.00    -0.148 C  
HETATM    4  C   UNL     1      -8.560   8.598  67.239  1.00  0.00    -0.125 C  
HETATM    5  C   UNL     1      -9.551  11.263  69.196  1.00  0.00     0.038 C  
HETATM    6  C   UNL     1      -6.779   8.153  72.169  1.00  0.00    -0.076 C  
HETATM    7  C   UNL     1      -9.307   9.720  67.283  1.00  0.00    -0.161 C  
HETATM    8  C   UNL     1     -10.125  10.480  66.258  1.00  0.00    -0.290 C  
HETATM    9  C   UNL     1      -7.505  10.057  67.911  1.00  0.00    -0.089 C  
HETATM   10  C   UNL     1      -7.335   7.011  71.213  1.00  0.00    -0.080 C  
HETATM   11  C   UNL     1      -6.196   6.005  71.169  1.00  0.00    -0.039 C  
HETATM   12  O   UNL     1      -7.199   3.885  73.928  1.00  0.00    -0.058 OA 
HETATM   13  C   UNL     1      -6.919   8.728  69.014  1.00  0.00    -0.064 C  
HETATM   14  C   UNL     1      -6.132   5.018  72.101  1.00  0.00    -0.025 C  
HETATM   15  O   UNL     1      -6.128   7.833  68.203  1.00  0.00    -0.038 OA 
HETATM   16  C   UNL     1      -8.009   7.797  70.015  1.00  0.00    -0.113 C  
HETATM   17  C   UNL     1      -9.223   7.127  69.128  1.00  0.00    -0.139 C  
HETATM   18  F   UNL     1      -8.747   8.639  70.891  1.00  0.00    -0.132 F  
HETATM   19  H   UNL     1      -5.822   7.140  68.777  1.00  0.00     0.000 HD 
HETATM   20  C   UNL     1     -10.149   6.280  70.020  1.00  0.00    -0.217 C  
HETATM   21  C   UNL     1      -9.357   5.403  70.979  1.00  0.00    -0.188 C  
HETATM   22  C   UNL     1      -8.498   6.249  71.902  1.00  0.00    -0.124 C  
HETATM   23  C   UNL     1      -8.322   5.841  73.174  1.00  0.00    -0.117 C  
HETATM   24  C   UNL     1      -7.220   4.814  73.133  1.00  0.00    -0.081 C  
ENDROOT
BRANCH   4  25
HETATM   25  C   UNL     1      -7.918   8.873  65.705  1.00  0.00    -0.098 C  
HETATM   26  O   UNL     1      -7.985   9.903  65.028  1.00  0.00    -0.125 OA 
BRANCH  25  27
HETATM   27  C   UNL     1      -7.163   7.689  65.078  1.00  0.00    -0.066 C  
HETATM   28  O   UNL     1      -5.752   7.870  65.173  1.00  0.00    -0.037 OA 
HETATM   29  H   UNL     1      -5.286   7.139  64.786  1.00  0.00     0.000 HD 
ENDBRANCH  25  27
ENDBRANCH   4  25
TORSDOF 2
ENDMDL
MODEL      103
REMARK 921   NORMALIZED FREE ENERGY PREDICTED BY IDOCK:   -2.54 KCAL/MOL
REMARK 922        TOTAL FREE ENERGY PREDICTED BY IDOCK:   -2.10 KCAL/MOL
REMARK 923 INTER-LIGAND FREE ENERGY PREDICTED BY IDOCK:   -2.92 KCAL/MOL
REMARK 924 INTRA-LIGAND FREE ENERGY PREDICTED BY IDOCK:    0.82 KCAL/MOL
REMARK 927      BINDING AFFINITY PREDICTED BY RF-SCORE:    0.00 PKD
ROOT
HETATM    1  C   UNL     1      -7.429   8.673  68.826  1.00  0.00    -0.091 C  
HETATM    2  C   UNL     1      -8.549   8.834  69.680  1.00  0.00    -0.130 C  
HETATM    3  C   UNL     1      -8.945   9.243  68.283  1.00  0.00    -0.129 C  
HETATM    4  C   UNL     1      -7.498   8.843  66.878  1.00  0.00    -0.083 C  
HETATM    5  C   UNL     1     -10.591   9.020  68.398  1.00  0.00    -0.200 C  
HETATM    6  C   UNL     1      -8.708  13.777  68.249  1.00  0.00    -0.179 C  
HETATM    7  C   UNL     1      -8.540   8.130  67.351  1.00  0.00    -0.125 C  
HETATM    8  C   UNL     1      -8.899   6.658  67.335  1.00  0.00    -0.116 C  
HETATM    9  C   UNL     1      -9.143   9.554  66.183  1.00  0.00    -0.207 C  
HETATM   10  C   UNL     1      -7.299  13.046  68.332  1.00  0.00    -0.116 C  
HETATM   11  C   UNL     1      -6.385  13.953  67.523  1.00  0.00    -0.047 C  
HETATM   12  O   UNL     1      -5.192  16.091  70.190  1.00  0.00    -0.134 OA 
HETATM   13  C   UNL     1      -8.257  11.113  66.514  1.00  0.00    -0.167 C  
HETATM   14  C   UNL     1      -5.745  14.984  68.133  1.00  0.00    -0.140 C  
HETATM   15  O   UNL     1      -7.191  11.200  65.543  1.00  0.00    -0.362 OA 
HETATM   16  C   UNL     1      -7.636  11.517  68.098  1.00  0.00    -0.113 C  
HETATM   17  C   UNL     1      -6.663  10.327  68.688  1.00  0.00    -0.053 C  
HETATM   18  F   UNL     1      -8.674  11.525  69.069  1.00  0.00    -0.120 F  
HETATM   19  H   UNL     1      -6.729  12.012  65.714  1.00  0.00     0.000 HD 
HETATM   20  C   UNL     1      -6.096  10.717  70.065  1.00  0.00    -0.099 C  
HETATM   21  C   UNL     1      -5.604  12.157  70.082  1.00  0.00    -0.140 C  
HETATM   22  C   UNL     1      -6.736  13.120  69.776  1.00  0.00     0.149 C  
HETATM   23  C   UNL     1      -6.757  14.312  70.403  1.00  0.00     0.091 C  
HETATM   24  C   UNL     1      -5.823  15.206  69.629  1.00  0.00    -0.112 C  
ENDROOT
BRANCH   4  25
HETATM   25  C   UNL     1      -7.309   7.959  65.456  1.00  0.00    -0.076 C  
HETATM   26  O   UNL     1      -8.189   7.540  64.700  1.00  0.00    -0.126 OA 
BRANCH  25  27
HETATM   27  C   UNL     1      -5.857   7.635  65.063  1.00  0.00    -0.038 C  
HETATM   28  O   UNL     1      -5.672   7.732  63.653  1.00  0.00    -0.051 OA 
HETATM   29  H   UNL     1      -4.776   7.532  63.411  1.00  0.00     0.000 HD 
ENDBRANCH  25  27
ENDBRANCH   4  25
TORSDOF 2
ENDMDL
MODEL      104
REMARK 921   NORMALIZED FREE ENERGY PREDICTED BY IDOCK:   -2.35 KCAL/MOL
REMARK 922        TOTAL FREE ENERGY PREDICTED BY IDOCK:   -1.88 KCAL/MOL
REMARK 923 INTER-LIGAND FREE ENERGY PREDICTED BY IDOCK:   -2.64 KCAL/MOL
REMARK 924 INTRA-LIGAND FREE ENERGY PREDICTED BY IDOCK:    0.75 KCAL/MOL
REMARK 927      BINDING AFFINITY PREDICTED BY RF-SCORE:    0.00 PKD
ROOT
HETATM    1  C   UNL     1      -8.473   9.667  71.219  1.00  0.00     0.700 C  
HETATM    2  C   UNL     1      -7.133   9.537  71.662  1.00  0.00     0.429 C  
HETATM    3  C   UNL     1      -7.256   8.889  70.306  1.00  0.00    -0.054 C  
HETATM    4  C   UNL     1      -9.086   9.200  69.420  1.00  0.00    -0.148 C  
HETATM    5  C   UNL     1      -5.665   8.980  69.822  1.00  0.00    -0.032 C  
HETATM    6  C   UNL     1      -7.635   4.441  71.131  1.00  0.00    -0.067 C  
HETATM    7  C   UNL     1      -7.923   9.881  69.387  1.00  0.00    -0.135 C  
HETATM    8  C   UNL     1      -7.544  11.297  69.000  1.00  0.00    -0.106 C  
HETATM    9  C   UNL     1      -7.805   8.250  68.348  1.00  0.00    -0.118 C  
HETATM   10  C   UNL     1      -8.904   5.298  71.555  1.00  0.00    -0.144 C  
HETATM   11  C   UNL     1     -10.070   4.364  71.267  1.00  0.00    -0.202 C  
HETATM   12  O   UNL     1     -10.335   2.765  74.504  1.00  0.00    -0.140 OA 
HETATM   13  C   UNL     1      -8.572   6.843  69.218  1.00  0.00    -0.132 C  
HETATM   14  C   UNL     1     -10.492   3.497  72.224  1.00  0.00    -0.048 C  
HETATM   15  O   UNL     1      -9.910   6.706  68.691  1.00  0.00    -0.134 OA 
HETATM   16  C   UNL     1      -8.621   6.738  70.963  1.00  0.00    -0.136 C  
HETATM   17  C   UNL     1      -9.291   8.085  71.632  1.00  0.00    -0.208 C  
HETATM   18  F   UNL     1      -7.312   6.784  71.516  1.00  0.00    -0.079 F  
HETATM   19  H   UNL     1     -10.309   5.973  69.144  1.00  0.00     0.000 HD 
HETATM   20  C   UNL     1      -9.360   7.958  73.164  1.00  0.00    -0.337 C  
HETATM   21  C   UNL     1      -9.861   6.587  73.592  1.00  0.00    -0.231 C  
HETATM   22  C   UNL     1      -8.936   5.492  73.094  1.00  0.00    -0.121 C  
HETATM   23  C   UNL     1      -8.738   4.410  73.872  1.00  0.00    -0.104 C  
HETATM   24  C   UNL     1      -9.909   3.496  73.621  1.00  0.00    -0.109 C  
ENDROOT
BRANCH   4  25
HETATM   25  C   UNL     1      -9.727   9.874  68.015  1.00  0.00    -0.140 C  
HETATM   26  O   UNL     1      -9.539   9.517  66.849  1.00  0.00    -0.150 OA 
BRANCH  25  27
HETATM   27  C   UNL     1     -10.653  11.085  68.222  1.00  0.00    -0.187 C  
HETATM   28  O   UNL     1     -11.753  11.051  67.316  1.00  0.00    -0.504 OA 
HETATM   29  H   UNL     1     -12.324  11.799  67.443  1.00  0.00     0.000 HD 
ENDBRANCH  25  27
ENDBRANCH   4  25
TORSDOF 2
ENDMDL
MODEL      105
REMARK 921   NORMALIZED FREE ENERGY PREDICTED BY IDOCK:   -1.92 KCAL/MOL
REMARK 922        TOTAL FREE ENERGY PREDICTED BY IDOCK:   -1.41 KCAL/MOL
REMARK 923 INTER-LIGAND FREE ENERGY PREDICTED BY IDOCK:   -2.99 KCAL/MOL
REMARK 924 INTRA-LIGAND FREE ENERGY PREDICTED BY IDOCK:    1.58 KCAL/MOL
REMARK 927      BINDING AFFINITY PREDICTED BY RF-SCORE:    0.00 PKD
ROOT
HETATM    1  C   UNL     1      -9.624   6.109  67.581  1.00  0.00    -0.113 C  
HETATM    2  C   UNL     1      -8.907   5.808  66.396  1.00  0.00    -0.131 C  
HETATM    3  C   UNL     1      -8.011   5.544  67.581  1.00  0.00    -0.101 C  
HETATM    4  C   UNL     1      -8.982   5.708  69.386  1.00  0.00    -0.124 C  
HETATM    5  C   UNL     1      -6.964   4.453  66.883  1.00  0.00    -0.063 C  
HETATM    6  C   UNL     1      -5.337   9.199  67.899  1.00  0.00    -0.034 C  
HETATM    7  C   UNL     1      -8.777   4.674  68.545  1.00  0.00    -0.113 C  
HETATM    8  C   UNL     1      -9.430   3.318  68.367  1.00  0.00    -0.209 C  
HETATM    9  C   UNL     1      -7.149   5.139  69.488  1.00  0.00    -0.056 C  
HETATM   10  C   UNL     1      -6.856   9.461  68.285  1.00  0.00    -0.063 C  
HETATM   11  C   UNL     1      -6.763  10.486  69.404  1.00  0.00    -0.076 C  
HETATM   12  O   UNL     1      -6.965  13.512  67.426  1.00  0.00    -0.166 OA 
HETATM   13  C   UNL     1      -6.909   6.946  69.561  1.00  0.00    -0.051 C  
HETATM   14  C   UNL     1      -6.741  11.811  69.105  1.00  0.00    -0.110 C  
HETATM   15  O   UNL     1      -7.401   7.379  70.848  1.00  0.00    -0.071 OA 
HETATM   16  C   UNL     1      -7.508   8.018  68.317  1.00  0.00    -0.100 C  
HETATM   17  C   UNL     1      -9.119   7.801  68.054  1.00  0.00    -0.128 C  
HETATM   18  F   UNL     1      -6.976   7.675  67.044  1.00  0.00    -0.070 F  
HETATM   19  H   UNL     1      -7.276   8.320  70.886  1.00  0.00     0.000 HD 
HETATM   20  C   UNL     1      -9.635   8.780  66.983  1.00  0.00    -0.236 C  
HETATM   21  C   UNL     1      -9.100  10.187  67.205  1.00  0.00    -0.151 C  
HETATM   22  C   UNL     1      -7.584  10.208  67.136  1.00  0.00    -0.092 C  
HETATM   23  C   UNL     1      -6.977  11.283  66.596  1.00  0.00    -0.129 C  
HETATM   24  C   UNL     1      -6.915  12.319  67.689  1.00  0.00    -0.128 C  
ENDROOT
BRANCH   4  25
HETATM   25  C   UNL     1      -9.324   4.768  70.742  1.00  0.00    -0.148 C  
HETATM   26  O   UNL     1     -10.395   4.670  71.347  1.00  0.00    -0.176 OA 
BRANCH  25  27
HETATM   27  C   UNL     1      -8.150   3.937  71.289  1.00  0.00    -0.068 C  
HETATM   28  O   UNL     1      -8.315   3.665  72.678  1.00  0.00    -0.083 OA 
HETATM   29  H   UNL     1      -7.590   3.153  73.015  1.00  0.00     0.000 HD 
ENDBRANCH  25  27
ENDBRANCH   4  25
TORSDOF 2
ENDMDL
MODEL      106
REMARK 921   NORMALIZED FREE ENERGY PREDICTED BY IDOCK:   -1.76 KCAL/MOL
REMARK 922        TOTAL FREE ENERGY PREDICTED BY IDOCK:   -1.23 KCAL/MOL
REMARK 923 INTER-LIGAND FREE ENERGY PREDICTED BY IDOCK:   -2.81 KCAL/MOL
REMARK 924 INTRA-LIGAND FREE ENERGY PREDICTED BY IDOCK:    1.58 KCAL/MOL
REMARK 927      BINDING AFFINITY PREDICTED BY RF-SCORE:    0.00 PKD
ROOT
HETATM    1  C   UNL     1      -9.726   4.005  70.589  1.00  0.00    -0.266 C  
HETATM    2  C   UNL     1      -9.255   2.938  69.783  1.00  0.00    -0.213 C  
HETATM    3  C   UNL     1      -8.069   3.630  70.407  1.00  0.00    -0.062 C  
HETATM    4  C   UNL     1      -8.595   5.054  71.793  1.00  0.00    -0.132 C  
HETATM    5  C   UNL     1      -6.967   2.383  70.335  1.00  0.00    -0.033 C  
HETATM    6  C   UNL     1      -6.447   6.376  67.176  1.00  0.00    -0.046 C  
HETATM    7  C   UNL     1      -8.331   3.735  71.887  1.00  0.00    -0.090 C  
HETATM    8  C   UNL     1      -8.629   2.674  72.928  1.00  0.00    -0.072 C  
HETATM    9  C   UNL     1      -6.707   4.753  71.601  1.00  0.00    -0.039 C  
HETATM   10  C   UNL     1      -7.847   6.827  67.779  1.00  0.00    -0.113 C  
HETATM   11  C   UNL     1      -7.763   8.345  67.764  1.00  0.00    -0.103 C  
HETATM   12  O   UNL     1      -9.211   8.965  64.504  1.00  0.00     0.034 OA 
HETATM   13  C   UNL     1      -6.937   6.041  70.331  1.00  0.00    -0.059 C  
HETATM   14  C   UNL     1      -8.160   9.031  66.660  1.00  0.00    -0.107 C  
HETATM   15  O   UNL     1      -7.208   7.274  71.033  1.00  0.00    -0.070 OA 
HETATM   16  C   UNL     1      -8.071   5.860  69.013  1.00  0.00    -0.103 C  
HETATM   17  C   UNL     1      -9.584   5.509  69.560  1.00  0.00    -0.202 C  
HETATM   18  F   UNL     1      -7.784   4.699  68.244  1.00  0.00    -0.077 F  
HETATM   19  H   UNL     1      -7.328   7.945  70.372  1.00  0.00     0.000 HD 
HETATM   20  C   UNL     1     -10.575   5.392  68.388  1.00  0.00    -0.148 C  
HETATM   21  C   UNL     1     -10.391   6.519  67.382  1.00  0.00    -0.263 C  
HETATM   22  C   UNL     1      -8.994   6.493  66.790  1.00  0.00    -0.136 C  
HETATM   23  C   UNL     1      -8.834   6.836  65.497  1.00  0.00     0.014 C  
HETATM   24  C   UNL     1      -8.790   8.342  65.468  1.00  0.00    -0.130 C  
ENDROOT
BRANCH   4  25
HETATM   25  C   UNL     1      -8.349   5.400  73.424  1.00  0.00    -0.114 C  
HETATM   26  O   UNL     1      -8.487   4.644  74.389  1.00  0.00    -0.103 OA 
BRANCH  25  27
HETATM   27  C   UNL     1      -7.902   6.839  73.738  1.00  0.00    -0.097 C  
HETATM   28  O   UNL     1      -6.581   6.862  74.270  1.00  0.00    -0.082 OA 
HETATM   29  H   UNL     1      -6.305   7.750  74.464  1.00  0.00     0.000 HD 
ENDBRANCH  25  27
ENDBRANCH   4  25
TORSDOF 2
ENDMDL
MODEL      107
REMARK 921   NORMALIZED FREE ENERGY PREDICTED BY IDOCK:   -1.74 KCAL/MOL
REMARK 922        TOTAL FREE ENERGY PREDICTED BY IDOCK:   -1.20 KCAL/MOL
REMARK 923 INTER-LIGAND FREE ENERGY PREDICTED BY IDOCK:   -1.85 KCAL/MOL
REMARK 924 INTRA-LIGAND FREE ENERGY PREDICTED BY IDOCK:    0.65 KCAL/MOL
REMARK 927      BINDING AFFINITY PREDICTED BY RF-SCORE:    0.00 PKD
ROOT
HETATM    1  C   UNL     1      -7.365  11.823  69.714  1.00  0.00     0.543 C  
HETATM    2  C   UNL     1      -5.953  11.948  69.705  1.00  0.00    -0.114 C  
HETATM    3  C   UNL     1      -6.476  12.296  68.334  1.00  0.00    -0.057 C  
HETATM    4  C   UNL     1      -8.528  12.391  68.247  1.00  0.00    -0.170 C  
HETATM    5  C   UNL     1      -5.214  13.243  67.800  1.00  0.00    -0.075 C  
HETATM    6  C   UNL     1      -5.849   8.562  65.829  1.00  0.00    -0.047 C  
HETATM    7  C   UNL     1      -7.578  13.310  68.511  1.00  0.00    -0.128 C  
HETATM    8  C   UNL     1      -7.588  14.670  69.179  1.00  0.00    -0.126 C  
HETATM    9  C   UNL     1      -7.615  12.867  66.625  1.00  0.00     0.606 C  
HETATM   10  C   UNL     1      -6.981   8.428  66.936  1.00  0.00    -0.074 C  
HETATM   11  C   UNL     1      -8.015   7.532  66.273  1.00  0.00    -0.109 C  
HETATM   12  O   UNL     1      -6.810   4.317  67.421  1.00  0.00    -0.050 OA 
HETATM   13  C   UNL     1      -7.781  11.071  66.360  1.00  0.00    -0.146 C  
HETATM   14  C   UNL     1      -7.915   6.182  66.391  1.00  0.00    -0.106 C  
HETATM   15  O   UNL     1      -9.182  10.813  66.122  1.00  0.00    -0.169 OA 
HETATM   16  C   UNL     1      -7.158   9.898  67.497  1.00  0.00    -0.088 C  
HETATM   17  C   UNL     1      -7.723  10.170  69.019  1.00  0.00    -0.100 C  
HETATM   18  F   UNL     1      -5.759  10.066  67.693  1.00  0.00    -0.042 F  
HETATM   19  H   UNL     1      -9.269   9.877  65.984  1.00  0.00     0.000 HD 
HETATM   20  C   UNL     1      -7.194   9.106  69.997  1.00  0.00    -0.066 C  
HETATM   21  C   UNL     1      -7.289   7.706  69.408  1.00  0.00    -0.087 C  
HETATM   22  C   UNL     1      -6.463   7.595  68.139  1.00  0.00    -0.054 C  
HETATM   23  C   UNL     1      -5.829   6.435  67.880  1.00  0.00    -0.016 C  
HETATM   24  C   UNL     1      -6.859   5.528  67.257  1.00  0.00    -0.060 C  
ENDROOT
BRANCH   4  25
HETATM   25  C   UNL     1      -9.741  13.495  67.860  1.00  0.00    -0.225 C  
HETATM   26  O   UNL     1      -9.923  14.076  66.787  1.00  0.00    -0.255 OA 
BRANCH  25  27
HETATM   27  C   UNL     1     -10.734  13.815  68.991  1.00  0.00    -0.182 C  
HETATM   28  O   UNL     1     -10.957  12.675  69.817  1.00  0.00    -0.452 OA 
HETATM   29  H   UNL     1     -11.570  12.873  70.514  1.00  0.00     0.000 HD 
ENDBRANCH  25  27
ENDBRANCH   4  25
TORSDOF 2
ENDMDL
MODEL      108
REMARK 921   NORMALIZED FREE ENERGY PREDICTED BY IDOCK:   -1.54 KCAL/MOL
REMARK 922        TOTAL FREE ENERGY PREDICTED BY IDOCK:   -0.98 KCAL/MOL
REMARK 923 INTER-LIGAND FREE ENERGY PREDICTED BY IDOCK:   -3.80 KCAL/MOL
REMARK 924 INTRA-LIGAND FREE ENERGY PREDICTED BY IDOCK:    2.81 KCAL/MOL
REMARK 927      BINDING AFFINITY PREDICTED BY RF-SCORE:    0.00 PKD
ROOT
HETATM    1  C   UNL     1      -5.620  14.423  67.731  1.00  0.00    -0.049 C  
HETATM    2  C   UNL     1      -5.374  14.931  69.032  1.00  0.00    -0.094 C  
HETATM    3  C   UNL     1      -6.625  14.089  69.072  1.00  0.00    -0.106 C  
HETATM    4  C   UNL     1      -6.988  13.087  67.314  1.00  0.00    -0.047 C  
HETATM    5  C   UNL     1      -6.629  13.699  70.692  1.00  0.00     0.460 C  
HETATM    6  C   UNL     1     -10.066  17.046  68.906  1.00  0.00    -0.307 C  
HETATM    7  C   UNL     1      -6.302  12.764  68.430  1.00  0.00    -0.078 C  
HETATM    8  C   UNL     1      -5.244  11.728  68.750  1.00  0.00    -0.049 C  
HETATM    9  C   UNL     1      -8.214  12.706  68.744  1.00  0.00     0.119 C  
HETATM   10  C   UNL     1      -9.245  16.916  67.551  1.00  0.00    -0.223 C  
HETATM   11  C   UNL     1     -10.308  17.091  66.478  1.00  0.00    -0.298 C  
HETATM   12  O   UNL     1     -10.079  20.676  66.024  1.00  0.00    -0.110 OA 
HETATM   13  C   UNL     1      -9.061  14.136  67.993  1.00  0.00    -0.191 C  
HETATM   14  C   UNL     1     -10.614  18.336  66.028  1.00  0.00    -0.318 C  
HETATM   15  O   UNL     1      -9.578  13.692  66.720  1.00  0.00    -0.258 OA 
HETATM   16  C   UNL     1      -8.278  15.687  67.794  1.00  0.00    -0.145 C  
HETATM   17  C   UNL     1      -6.853  15.546  66.982  1.00  0.00     0.061 C  
HETATM   18  F   UNL     1      -7.828  16.199  69.043  1.00  0.00    -0.176 F  
HETATM   19  H   UNL     1     -10.020  14.436  66.329  1.00  0.00     0.000 HD 
HETATM   20  C   UNL     1      -6.197  16.925  66.784  1.00  0.00    -0.228 C  
HETATM   21  C   UNL     1      -7.210  17.968  66.334  1.00  0.00    -0.289 C  
HETATM   22  C   UNL     1      -8.307  18.139  67.369  1.00  0.00    -0.239 C  
HETATM   23  C   UNL     1      -8.824  19.368  67.564  1.00  0.00    -0.352 C  
HETATM   24  C   UNL     1      -9.853  19.564  66.481  1.00  0.00    -0.404 C  
ENDROOT
BRANCH   4  25
HETATM   25  C   UNL     1      -7.180  11.507  66.761  1.00  0.00    -0.111 C  
HETATM   26  O   UNL     1      -6.410  10.852  66.053  1.00  0.00    -0.130 OA 
BRANCH  25  27
HETATM   27  C   UNL     1      -8.480  10.805  67.193  1.00  0.00    -0.126 C  
HETATM   28  O   UNL     1      -8.355  10.252  68.500  1.00  0.00    -0.107 OA 
HETATM   29  H   UNL     1      -9.157   9.819  68.766  1.00  0.00     0.000 HD 
ENDBRANCH  25  27
ENDBRANCH   4  25
TORSDOF 2
ENDMDL
MODEL      109
REMARK 921   NORMALIZED FREE ENERGY PREDICTED BY IDOCK:   -0.91 KCAL/MOL
REMARK 922        TOTAL FREE ENERGY PREDICTED BY IDOCK:   -0.28 KCAL/MOL
REMARK 923 INTER-LIGAND FREE ENERGY PREDICTED BY IDOCK:   -2.99 KCAL/MOL
REMARK 924 INTRA-LIGAND FREE ENERGY PREDICTED BY IDOCK:    2.71 KCAL/MOL
REMARK 927      BINDING AFFINITY PREDICTED BY RF-SCORE:    0.00 PKD
ROOT
HETATM    1  C   UNL     1     -10.171  10.043  67.485  1.00  0.00    -0.260 C  
HETATM    2  C   UNL     1      -8.754  10.081  67.508  1.00  0.00    -0.125 C  
HETATM    3  C   UNL     1      -9.268  10.457  68.875  1.00  0.00    -0.179 C  
HETATM    4  C   UNL     1     -11.301  10.220  69.072  1.00  0.00    -0.237 C  
HETATM    5  C   UNL     1      -7.927  10.064  69.781  1.00  0.00    -0.190 C  
HETATM    6  C   UNL     1      -9.084  14.991  69.018  1.00  0.00    -0.205 C  
HETATM    7  C   UNL     1     -10.256   9.399  69.296  1.00  0.00    -0.209 C  
HETATM    8  C   UNL     1     -10.111   7.898  69.444  1.00  0.00    -0.196 C  
HETATM    9  C   UNL     1     -10.379  10.762  70.669  1.00  0.00     1.153 C  
HETATM   10  C   UNL     1     -10.199  14.410  68.047  1.00  0.00    -0.228 C  
HETATM   11  C   UNL     1     -11.335  15.412  68.177  1.00  0.00    -0.353 C  
HETATM   12  O   UNL     1     -10.442  17.642  65.468  1.00  0.00    -0.636 OA 
HETATM   13  C   UNL     1     -10.736  12.402  69.955  1.00  0.00     0.847 C  
HETATM   14  C   UNL     1     -11.371  16.500  67.363  1.00  0.00     0.212 C  
HETATM   15  O   UNL     1     -12.161  12.606  70.072  1.00  0.00    -0.316 OA 
HETATM   16  C   UNL     1     -10.212  12.856  68.350  1.00  0.00    -0.237 C  
HETATM   17  C   UNL     1     -10.712  11.768  67.220  1.00  0.00    -0.279 C  
HETATM   18  F   UNL     1      -8.800  12.749  68.222  1.00  0.00    -0.173 F  
HETATM   19  H   UNL     1     -12.346  13.460  69.700  1.00  0.00     0.000 HD 
HETATM   20  C   UNL     1     -10.275  12.204  65.810  1.00  0.00    -0.282 C  
HETATM   21  C   UNL     1     -10.526  13.687  65.577  1.00  0.00    -0.314 C  
HETATM   22  C   UNL     1      -9.744  14.530  66.569  1.00  0.00    -0.301 C  
HETATM   23  C   UNL     1      -9.239  15.709  66.156  1.00  0.00    -0.378 C  
HETATM   24  C   UNL     1     -10.370  16.701  66.245  1.00  0.00    -0.317 C  
ENDROOT
BRANCH   4  25
HETATM   25  C   UNL     1     -12.402   9.371  70.025  1.00  0.00     0.571 C  
HETATM   26  O   UNL     1     -13.562   9.684  70.305  1.00  0.00     0.276 OA 
BRANCH  25  27
HETATM   27  C   UNL     1     -11.887   8.047  70.615  1.00  0.00    -0.093 C  
HETATM   28  O   UNL     1     -12.736   6.960  70.258  1.00  0.00    -0.539 OA 
HETATM   29  H   UNL     1     -12.418   6.143  70.623  1.00  0.00     0.000 HD 
ENDBRANCH  25  27
ENDBRANCH   4  25
TORSDOF 2
ENDMDL
MODEL      110
REMARK 921   NORMALIZED FREE ENERGY PREDICTED BY IDOCK:    0.80 KCAL/MOL
REMARK 922        TOTAL FREE ENERGY PREDICTED BY IDOCK:    1.64 KCAL/MOL
REMARK 923 INTER-LIGAND FREE ENERGY PREDICTED BY IDOCK:    0.06 KCAL/MOL
REMARK 924 INTRA-LIGAND FREE ENERGY PREDICTED BY IDOCK:    1.58 KCAL/MOL
REMARK 927      BINDING AFFINITY PREDICTED BY RF-SCORE:    0.00 PKD
ROOT
HETATM    1  C   UNL     1      -9.125   7.485  71.548  1.00  0.00    -0.146 C  
HETATM    2  C   UNL     1      -8.996   8.880  71.333  1.00  0.00    -0.300 C  
HETATM    3  C   UNL     1     -10.273   8.408  70.683  1.00  0.00    -0.222 C  
HETATM    4  C   UNL     1     -10.724   6.448  71.107  1.00  0.00    -0.293 C  
HETATM    5  C   UNL     1     -11.108   9.849  70.663  1.00  0.00    -0.409 C  
HETATM    6  C   UNL     1      -9.277   7.951  66.277  1.00  0.00    -0.231 C  
HETATM    7  C   UNL     1     -11.038   7.613  71.709  1.00  0.00    -0.281 C  
HETATM    8  C   UNL     1     -11.535   7.980  73.093  1.00  0.00     0.039 C  
HETATM    9  C   UNL     1     -12.038   7.386  70.064  1.00  0.00     0.332 C  
HETATM   10  C   UNL     1      -8.595   6.868  67.220  1.00  0.00    -0.120 C  
HETATM   11  C   UNL     1      -8.587   5.612  66.364  1.00  0.00    -0.123 C  
HETATM   12  O   UNL     1      -5.338   5.995  64.814  1.00  0.00    -0.016 OA 
HETATM   13  C   UNL     1     -10.982   6.752  68.719  1.00  0.00    -0.209 C  
HETATM   14  C   UNL     1      -7.539   5.366  65.535  1.00  0.00    -0.082 C  
HETATM   15  O   UNL     1     -11.187   5.323  68.667  1.00  0.00     0.429 OA 
HETATM   16  C   UNL     1      -9.270   7.099  68.633  1.00  0.00    -0.135 C  
HETATM   17  C   UNL     1      -8.499   6.685  70.028  1.00  0.00    -0.139 C  
HETATM   18  F   UNL     1      -9.032   8.500  68.596  1.00  0.00    -0.136 F  
HETATM   19  H   UNL     1     -10.638   4.993  67.967  1.00  0.00     0.000 HD 
HETATM   20  C   UNL     1      -6.988   6.962  69.919  1.00  0.00    -0.062 C  
HETATM   21  C   UNL     1      -6.425   6.486  68.588  1.00  0.00    -0.049 C  
HETATM   22  C   UNL     1      -7.095   7.203  67.429  1.00  0.00    -0.084 C  
HETATM   23  C   UNL     1      -6.357   7.506  66.344  1.00  0.00    -0.045 C  
HETATM   24  C   UNL     1      -6.312   6.252  65.508  1.00  0.00    -0.038 C  
ENDROOT
BRANCH   4  25
HETATM   25  C   UNL     1     -11.962   5.545  71.810  1.00  0.00     0.578 C  
HETATM   26  O   UNL     1     -11.865   4.672  72.676  1.00  0.00     0.139 OA 
BRANCH  25  27
HETATM   27  C   UNL     1     -13.381   5.853  71.300  1.00  0.00     2.285 C  
HETATM   28  O   UNL     1     -14.271   6.113  72.383  1.00  0.00    -0.619 OA 
HETATM   29  H   UNL     1     -15.146   6.303  72.068  1.00  0.00     0.000 HD 
ENDBRANCH  25  27
ENDBRANCH   4  25
TORSDOF 2
ENDMDL
MODEL      111
REMARK 921   NORMALIZED FREE ENERGY PREDICTED BY IDOCK:    1.01 KCAL/MOL
REMARK 922        TOTAL FREE ENERGY PREDICTED BY IDOCK:    1.87 KCAL/MOL
REMARK 923 INTER-LIGAND FREE ENERGY PREDICTED BY IDOCK:    0.97 KCAL/MOL
REMARK 924 INTRA-LIGAND FREE ENERGY PREDICTED BY IDOCK:    0.90 KCAL/MOL
REMARK 927      BINDING AFFINITY PREDICTED BY RF-SCORE:    0.00 PKD
ROOT
HETATM    1  C   UNL     1     -10.505  13.346  66.198  1.00  0.00    -0.295 C  
HETATM    2  C   UNL     1     -11.823  13.853  66.320  1.00  0.00    -0.431 C  
HETATM    3  C   UNL     1     -10.979  14.434  67.427  1.00  0.00    -0.303 C  
HETATM    4  C   UNL     1      -8.982  13.980  67.250  1.00  0.00    -0.223 C  
HETATM    5  C   UNL     1     -11.868  15.806  67.746  1.00  0.00     0.163 C  
HETATM    6  C   UNL     1     -11.933  11.937  71.097  1.00  0.00     0.249 C  
HETATM    7  C   UNL     1      -9.734  15.004  66.798  1.00  0.00    -0.253 C  
HETATM    8  C   UNL     1      -9.547  16.046  65.713  1.00  0.00    -0.311 C  
HETATM    9  C   UNL     1      -9.432  15.149  68.706  1.00  0.00    -0.209 C  
HETATM   10  C   UNL     1     -11.098  11.173  69.982  1.00  0.00    -0.174 C  
HETATM   11  C   UNL     1     -10.183  10.266  70.789  1.00  0.00     0.458 C  
HETATM   12  O   UNL     1     -12.281   7.319  70.932  1.00  0.00    -0.320 OA 
HETATM   13  C   UNL     1      -9.626  13.539  69.541  1.00  0.00     1.081 C  
HETATM   14  C   UNL     1     -10.606   9.025  71.144  1.00  0.00    -0.361 C  
HETATM   15  O   UNL     1      -8.301  12.988  69.696  1.00  0.00     0.587 OA 
HETATM   16  C   UNL     1     -10.706  12.302  68.942  1.00  0.00    -0.172 C  
HETATM   17  C   UNL     1     -10.401  11.943  67.365  1.00  0.00    -0.228 C  
HETATM   18  F   UNL     1     -12.041  12.783  68.857  1.00  0.00    -0.329 F  
HETATM   19  H   UNL     1      -8.402  12.149  70.130  1.00  0.00     0.000 HD 
HETATM   20  C   UNL     1     -11.335  10.825  66.867  1.00  0.00     0.017 C  
HETATM   21  C   UNL     1     -11.446   9.694  67.879  1.00  0.00     0.525 C  
HETATM   22  C   UNL     1     -12.012  10.198  69.195  1.00  0.00     0.166 C  
HETATM   23  C   UNL     1     -12.829   9.389  69.898  1.00  0.00     1.268 C  
HETATM   24  C   UNL     1     -11.929   8.461  70.672  1.00  0.00    -0.026 C  
ENDROOT
BRANCH   4  25
HETATM   25  C   UNL     1      -7.500  14.770  67.105  1.00  0.00    -0.034 C  
HETATM   26  O   UNL     1      -7.298  15.967  66.884  1.00  0.00    -0.216 OA 
BRANCH  25  27
HETATM   27  C   UNL     1      -6.255  13.881  67.264  1.00  0.00     0.424 C  
HETATM   28  O   UNL     1      -5.573  14.165  68.483  1.00  0.00    -0.084 OA 
HETATM   29  H   UNL     1      -4.804  13.617  68.581  1.00  0.00     0.000 HD 
ENDBRANCH  25  27
ENDBRANCH   4  25
TORSDOF 2
ENDMDL
MODEL      112
REMARK 921   NORMALIZED FREE ENERGY PREDICTED BY IDOCK:    1.36 KCAL/MOL
REMARK 922        TOTAL FREE ENERGY PREDICTED BY IDOCK:    2.26 KCAL/MOL
REMARK 923 INTER-LIGAND FREE ENERGY PREDICTED BY IDOCK:    0.68 KCAL/MOL
REMARK 924 INTRA-LIGAND FREE ENERGY PREDICTED BY IDOCK:    1.58 KCAL/MOL
REMARK 927      BINDING AFFINITY PREDICTED BY RF-SCORE:    0.00 PKD
ROOT
HETATM    1  C   UNL     1      -7.552  13.663  66.206  1.00  0.00     2.257 C  
HETATM    2  C   UNL     1      -6.911  13.011  67.290  1.00  0.00    -0.047 C  
HETATM    3  C   UNL     1      -8.362  13.224  67.645  1.00  0.00    -0.181 C  
HETATM    4  C   UNL     1      -9.484  13.946  66.081  1.00  0.00    -0.194 C  
HETATM    5  C   UNL     1      -8.536  12.020  68.783  1.00  0.00     0.065 C  
HETATM    6  C   UNL     1      -8.420  16.907  70.298  1.00  0.00     2.695 C  
HETATM    7  C   UNL     1      -9.191  12.699  66.501  1.00  0.00    -0.200 C  
HETATM    8  C   UNL     1      -9.249  11.330  65.852  1.00  0.00    -0.229 C  
HETATM    9  C   UNL     1     -10.468  13.552  67.684  1.00  0.00    -0.239 C  
HETATM   10  C   UNL     1      -8.079  17.201  68.773  1.00  0.00    -0.252 C  
HETATM   11  C   UNL     1      -8.727  18.553  68.523  1.00  0.00    -0.352 C  
HETATM   12  O   UNL     1      -5.923  20.693  69.340  1.00  0.00    -0.351 OA 
HETATM   13  C   UNL     1     -10.009  15.283  68.030  1.00  0.00    -0.224 C  
HETATM   14  C   UNL     1      -8.029  19.693  68.768  1.00  0.00    -0.314 C  
HETATM   15  O   UNL     1     -10.778  16.106  67.126  1.00  0.00    -0.310 OA 
HETATM   16  C   UNL     1      -8.346  15.824  68.039  1.00  0.00    -0.152 C  
HETATM   17  C   UNL     1      -7.577  15.439  66.636  1.00  0.00     0.205 C  
HETATM   18  F   UNL     1      -7.574  15.092  68.982  1.00  0.00    -0.116 F  
HETATM   19  H   UNL     1     -10.539  17.007  67.306  1.00  0.00     0.000 HD 
HETATM   20  C   UNL     1      -6.127  15.957  66.648  1.00  0.00     0.869 C  
HETATM   21  C   UNL     1      -6.044  17.382  67.175  1.00  0.00    -0.176 C  
HETATM   22  C   UNL     1      -6.560  17.463  68.601  1.00  0.00    -0.193 C  
HETATM   23  C   UNL     1      -5.964  18.317  69.455  1.00  0.00    -0.247 C  
HETATM   24  C   UNL     1      -6.574  19.669  69.186  1.00  0.00    -0.334 C  
ENDROOT
BRANCH   4  25
HETATM   25  C   UNL     1     -10.837  13.515  65.173  1.00  0.00    -0.330 C  
HETATM   26  O   UNL     1     -11.004  13.638  63.957  1.00  0.00    -0.273 OA 
BRANCH  25  27
HETATM   27  C   UNL     1     -12.001  12.898  65.967  1.00  0.00    -0.446 C  
HETATM   28  O   UNL     1     -12.788  12.042  65.144  1.00  0.00    -0.245 OA 
HETATM   29  H   UNL     1     -13.506  11.661  65.634  1.00  0.00     0.000 HD 
ENDBRANCH  25  27
ENDBRANCH   4  25
TORSDOF 2
ENDMDL
MODEL      113
REMARK 921   NORMALIZED FREE ENERGY PREDICTED BY IDOCK:    2.74 KCAL/MOL
REMARK 922        TOTAL FREE ENERGY PREDICTED BY IDOCK:    3.80 KCAL/MOL
REMARK 923 INTER-LIGAND FREE ENERGY PREDICTED BY IDOCK:    1.49 KCAL/MOL
REMARK 924 INTRA-LIGAND FREE ENERGY PREDICTED BY IDOCK:    2.31 KCAL/MOL
REMARK 927      BINDING AFFINITY PREDICTED BY RF-SCORE:    0.00 PKD
ROOT
HETATM    1  C   UNL     1      -9.154  15.384  69.167  1.00  0.00    -0.243 C  
HETATM    2  C   UNL     1      -8.860  15.028  70.507  1.00  0.00     1.405 C  
HETATM    3  C   UNL     1      -7.571  15.070  69.725  1.00  0.00    -0.072 C  
HETATM    4  C   UNL     1      -7.800  15.801  67.817  1.00  0.00    -0.155 C  
HETATM    5  C   UNL     1      -6.507  15.324  70.981  1.00  0.00     0.599 C  
HETATM    6  C   UNL     1      -6.650  10.743  68.702  1.00  0.00    -0.056 C  
HETATM    7  C   UNL     1      -7.522  16.389  68.998  1.00  0.00    -0.227 C  
HETATM    8  C   UNL     1      -7.600  17.815  69.506  1.00  0.00     0.371 C  
HETATM    9  C   UNL     1      -5.992  15.404  68.332  1.00  0.00    -0.105 C  
HETATM   10  C   UNL     1      -7.895  11.351  67.925  1.00  0.00    -0.117 C  
HETATM   11  C   UNL     1      -7.817  10.684  66.561  1.00  0.00    -0.140 C  
HETATM   12  O   UNL     1      -9.905   7.799  67.215  1.00  0.00    -0.159 OA 
HETATM   13  C   UNL     1      -6.479  13.777  67.666  1.00  0.00    -0.150 C  
HETATM   14  C   UNL     1      -8.433   9.490  66.358  1.00  0.00    -0.131 C  
HETATM   15  O   UNL     1      -6.600  13.933  66.235  1.00  0.00     1.905 OA 
HETATM   16  C   UNL     1      -7.861  12.895  68.274  1.00  0.00    -0.142 C  
HETATM   17  C   UNL     1      -9.228  13.811  68.238  1.00  0.00    -0.204 C  
HETATM   18  F   UNL     1      -7.738  12.647  69.669  1.00  0.00     0.361 F  
HETATM   19  H   UNL     1      -6.854  13.086  65.888  1.00  0.00     0.000 HD 
HETATM   20  C   UNL     1     -10.440  13.005  68.741  1.00  0.00    -0.186 C  
HETATM   21  C   UNL     1     -10.467  11.604  68.148  1.00  0.00    -0.217 C  
HETATM   22  C   UNL     1      -9.222  10.827  68.536  1.00  0.00    -0.174 C  
HETATM   23  C   UNL     1      -9.332   9.505  68.770  1.00  0.00    -0.146 C  
HETATM   24  C   UNL     1      -9.294   8.839  67.419  1.00  0.00    -0.137 C  
ENDROOT
BRANCH   4  25
HETATM   25  C   UNL     1      -7.224  17.057  66.853  1.00  0.00    -0.209 C  
HETATM   26  O   UNL     1      -6.923  17.018  65.657  1.00  0.00     0.184 OA 
BRANCH  25  27
HETATM   27  C   UNL     1      -7.053  18.413  67.559  1.00  0.00    -0.205 C  
HETATM   28  O   UNL     1      -5.855  19.062  67.142  1.00  0.00    -0.157 OA 
HETATM   29  H   UNL     1      -5.749  19.899  67.579  1.00  0.00     0.000 HD 
ENDBRANCH  25  27
ENDBRANCH   4  25
TORSDOF 2
ENDMDL
MODEL      114
REMARK 921   NORMALIZED FREE ENERGY PREDICTED BY IDOCK:    4.07 KCAL/MOL
REMARK 922        TOTAL FREE ENERGY PREDICTED BY IDOCK:    5.29 KCAL/MOL
REMARK 923 INTER-LIGAND FREE ENERGY PREDICTED BY IDOCK:    3.44 KCAL/MOL
REMARK 924 INTRA-LIGAND FREE ENERGY PREDICTED BY IDOCK:    1.85 KCAL/MOL
REMARK 927      BINDING AFFINITY PREDICTED BY RF-SCORE:    0.00 PKD
ROOT
HETATM    1  C   UNL     1     -12.720  11.854  68.828  1.00  0.00     1.300 C  
HETATM    2  C   UNL     1     -11.612  11.093  68.378  1.00  0.00    -0.376 C  
HETATM    3  C   UNL     1     -11.185  11.903  69.577  1.00  0.00    -0.237 C  
HETATM    4  C   UNL     1     -12.744  12.883  70.492  1.00  0.00    -0.090 C  
HETATM    5  C   UNL     1      -9.899  10.973  70.080  1.00  0.00     1.136 C  
HETATM    6  C   UNL     1      -9.007  15.505  67.876  1.00  0.00    -0.173 C  
HETATM    7  C   UNL     1     -12.195  11.664  70.669  1.00  0.00    -0.461 C  
HETATM    8  C   UNL     1     -12.666  10.386  71.335  1.00  0.00    -0.551 C  
HETATM    9  C   UNL     1     -11.040  13.056  71.363  1.00  0.00     3.859 C  
HETATM   10  C   UNL     1     -10.576  15.506  67.623  1.00  0.00    -0.291 C  
HETATM   11  C   UNL     1     -10.945  16.979  67.709  1.00  0.00    -0.199 C  
HETATM   12  O   UNL     1     -10.595  17.863  64.216  1.00  0.00     1.469 OA 
HETATM   13  C   UNL     1     -10.942  14.476  70.223  1.00  0.00     0.037 C  
HETATM   14  C   UNL     1     -10.891  17.755  66.595  1.00  0.00     0.015 C  
HETATM   15  O   UNL     1     -11.884  15.461  70.702  1.00  0.00    -0.291 OA 
HETATM   16  C   UNL     1     -11.115  14.298  68.492  1.00  0.00    -0.257 C  
HETATM   17  C   UNL     1     -12.511  13.518  68.101  1.00  0.00     0.318 C  
HETATM   18  F   UNL     1     -10.146  13.399  67.970  1.00  0.00    -0.214 F  
HETATM   19  H   UNL     1     -11.833  16.201  70.109  1.00  0.00     0.000 HD 
HETATM   20  C   UNL     1     -12.664  13.405  66.574  1.00  0.00     0.118 C  
HETATM   21  C   UNL     1     -12.323  14.714  65.877  1.00  0.00    -0.127 C  
HETATM   22  C   UNL     1     -10.886  15.116  66.153  1.00  0.00    -0.330 C  
HETATM   23  C   UNL     1     -10.187  15.726  65.176  1.00  0.00    -0.252 C  
HETATM   24  C   UNL     1     -10.576  17.180  65.230  1.00  0.00    -0.043 C  
ENDROOT
BRANCH   4  25
HETATM   25  C   UNL     1     -13.495  12.960  71.999  1.00  0.00    -0.473 C  
HETATM   26  O   UNL     1     -14.322  12.178  72.475  1.00  0.00     0.301 OA 
BRANCH  25  27
HETATM   27  C   UNL     1     -13.097  14.158  72.879  1.00  0.00    -0.444 C  
HETATM   28  O   UNL     1     -14.226  14.974  73.178  1.00  0.00    -0.307 OA 
HETATM   29  H   UNL     1     -13.980  15.713  73.721  1.00  0.00     0.000 HD 
ENDBRANCH  25  27
ENDBRANCH   4  25
TORSDOF 2
ENDMDL
MODEL      115
REMARK 921   NORMALIZED FREE ENERGY PREDICTED BY IDOCK:    4.24 KCAL/MOL
REMARK 922        TOTAL FREE ENERGY PREDICTED BY IDOCK:    5.48 KCAL/MOL
REMARK 923 INTER-LIGAND FREE ENERGY PREDICTED BY IDOCK:    3.65 KCAL/MOL
REMARK 924 INTRA-LIGAND FREE ENERGY PREDICTED BY IDOCK:    1.83 KCAL/MOL
REMARK 927      BINDING AFFINITY PREDICTED BY RF-SCORE:    0.00 PKD
ROOT
HETATM    1  C   UNL     1     -11.612  12.905  65.854  1.00  0.00    -0.423 C  
HETATM    2  C   UNL     1     -11.163  14.062  65.170  1.00  0.00    -0.329 C  
HETATM    3  C   UNL     1      -9.966  13.349  65.747  1.00  0.00    -0.264 C  
HETATM    4  C   UNL     1     -10.428  11.522  66.570  1.00  0.00    -0.284 C  
HETATM    5  C   UNL     1      -8.790  13.934  64.724  1.00  0.00     3.540 C  
HETATM    6  C   UNL     1      -8.958  15.591  69.564  1.00  0.00    -0.244 C  
HETATM    7  C   UNL     1     -10.055  11.903  65.331  1.00  0.00    -0.285 C  
HETATM    8  C   UNL     1     -10.145  11.259  63.962  1.00  0.00    -0.382 C  
HETATM    9  C   UNL     1      -8.559  11.970  66.561  1.00  0.00    -0.100 C  
HETATM   10  C   UNL     1     -10.305  14.750  69.633  1.00  0.00    -0.084 C  
HETATM   11  C   UNL     1     -10.339  14.259  71.071  1.00  0.00     2.238 C  
HETATM   12  O   UNL     1     -12.212  16.977  72.559  1.00  0.00     0.319 OA 
HETATM   13  C   UNL     1      -9.038  12.704  68.160  1.00  0.00    -0.204 C  
HETATM   14  C   UNL     1     -10.917  15.026  72.032  1.00  0.00     0.322 C  
HETATM   15  O   UNL     1      -9.314  11.606  69.057  1.00  0.00    -0.406 OA 
HETATM   16  C   UNL     1     -10.306  13.901  68.297  1.00  0.00    -0.249 C  
HETATM   17  C   UNL     1     -11.710  13.374  67.618  1.00  0.00    -0.397 C  
HETATM   18  F   UNL     1     -10.026  15.038  67.491  1.00  0.00    -0.222 F  
HETATM   19  H   UNL     1      -9.564  11.988  69.890  1.00  0.00     0.000 HD 
HETATM   20  C   UNL     1     -12.824  14.424  67.782  1.00  0.00     1.349 C  
HETATM   21  C   UNL     1     -12.848  15.002  69.190  1.00  0.00     0.541 C  
HETATM   22  C   UNL     1     -11.534  15.689  69.516  1.00  0.00    -0.349 C  
HETATM   23  C   UNL     1     -11.558  16.799  70.279  1.00  0.00     0.593 C  
HETATM   24  C   UNL     1     -11.631  16.320  71.706  1.00  0.00    -0.357 C  
ENDROOT
BRANCH   4  25
HETATM   25  C   UNL     1     -10.015   9.898  66.388  1.00  0.00    -0.244 C  
HETATM   26  O   UNL     1     -10.668   8.907  66.725  1.00  0.00    -0.198 OA 
BRANCH  25  27
HETATM   27  C   UNL     1      -8.653   9.629  65.723  1.00  0.00    -0.136 C  
HETATM   28  O   UNL     1      -8.159   8.337  66.068  1.00  0.00    -0.100 OA 
HETATM   29  H   UNL     1      -7.319   8.171  65.657  1.00  0.00     0.000 HD 
ENDBRANCH  25  27
ENDBRANCH   4  25
TORSDOF 2
ENDMDL
MODEL      116
REMARK 921   NORMALIZED FREE ENERGY PREDICTED BY IDOCK:    4.41 KCAL/MOL
REMARK 922        TOTAL FREE ENERGY PREDICTED BY IDOCK:    5.67 KCAL/MOL
REMARK 923 INTER-LIGAND FREE ENERGY PREDICTED BY IDOCK:    2.78 KCAL/MOL
REMARK 924 INTRA-LIGAND FREE ENERGY PREDICTED BY IDOCK:    2.89 KCAL/MOL
REMARK 927      BINDING AFFINITY PREDICTED BY RF-SCORE:    0.00 PKD
ROOT
HETATM    1  C   UNL     1      -9.524   9.225  68.485  1.00  0.00    -0.150 C  
HETATM    2  C   UNL     1      -8.370   9.829  69.044  1.00  0.00    -0.127 C  
HETATM    3  C   UNL     1      -9.489   9.903  70.052  1.00  0.00    -0.246 C  
HETATM    4  C   UNL     1     -11.167   8.859  69.483  1.00  0.00     0.087 C  
HETATM    5  C   UNL     1      -8.584  10.041  71.444  1.00  0.00     2.196 C  
HETATM    6  C   UNL     1     -11.145  14.115  69.701  1.00  0.00    -0.188 C  
HETATM    7  C   UNL     1     -10.070   8.518  70.189  1.00  0.00    -0.197 C  
HETATM    8  C   UNL     1      -9.428   7.197  70.563  1.00  0.00    -0.162 C  
HETATM    9  C   UNL     1     -11.247   9.651  71.232  1.00  0.00    -0.446 C  
HETATM   10  C   UNL     1     -11.459  13.180  68.455  1.00  0.00    -0.338 C  
HETATM   11  C   UNL     1     -12.843  13.633  68.016  1.00  0.00     1.447 C  
HETATM   12  O   UNL     1     -11.880  16.157  65.606  1.00  0.00     0.639 OA 
HETATM   13  C   UNL     1     -11.892  11.040  70.242  1.00  0.00    -0.367 C  
HETATM   14  C   UNL     1     -12.968  14.651  67.124  1.00  0.00     1.782 C  
HETATM   15  O   UNL     1     -13.202  10.648  69.777  1.00  0.00    -0.429 OA 
HETATM   16  C   UNL     1     -10.990  11.740  68.917  1.00  0.00    -0.239 C  
HETATM   17  C   UNL     1     -10.535  10.597  67.824  1.00  0.00    -0.258 C  
HETATM   18  F   UNL     1      -9.724  12.217  69.354  1.00  0.00     0.219 F  
HETATM   19  H   UNL     1     -13.538  11.371  69.262  1.00  0.00     0.000 HD 
HETATM   20  C   UNL     1      -9.776  11.237  66.647  1.00  0.00    -0.222 C  
HETATM   21  C   UNL     1     -10.465  12.503  66.157  1.00  0.00    -0.272 C  
HETATM   22  C   UNL     1     -10.537  13.542  67.261  1.00  0.00    -0.263 C  
HETATM   23  C   UNL     1     -10.408  14.842  66.933  1.00  0.00    -0.264 C  
HETATM   24  C   UNL     1     -11.767  15.290  66.460  1.00  0.00     0.077 C  
ENDROOT
BRANCH   4  25
HETATM   25  C   UNL     1     -12.134   7.595  70.037  1.00  0.00     0.537 C  
HETATM   26  O   UNL     1     -13.087   7.656  70.818  1.00  0.00     0.006 OA 
BRANCH  25  27
HETATM   27  C   UNL     1     -11.774   6.198  69.502  1.00  0.00     0.239 C  
HETATM   28  O   UNL     1     -10.855   5.537  70.367  1.00  0.00    -0.277 OA 
HETATM   29  H   UNL     1     -10.633   4.675  70.036  1.00  0.00     0.000 HD 
ENDBRANCH  25  27
ENDBRANCH   4  25
TORSDOF 2
ENDMDL
MODEL      117
REMARK 921   NORMALIZED FREE ENERGY PREDICTED BY IDOCK:    4.44 KCAL/MOL
REMARK 922        TOTAL FREE ENERGY PREDICTED BY IDOCK:    5.70 KCAL/MOL
REMARK 923 INTER-LIGAND FREE ENERGY PREDICTED BY IDOCK:    3.98 KCAL/MOL
REMARK 924 INTRA-LIGAND FREE ENERGY PREDICTED BY IDOCK:    1.72 KCAL/MOL
REMARK 927      BINDING AFFINITY PREDICTED BY RF-SCORE:    0.00 PKD
ROOT
HETATM    1  C   UNL     1      -6.587  13.482  70.530  1.00  0.00     0.425 C  
HETATM    2  C   UNL     1      -5.277  13.396  69.995  1.00  0.00    -0.090 C  
HETATM    3  C   UNL     1      -6.269  13.233  68.871  1.00  0.00    -0.088 C  
HETATM    4  C   UNL     1      -8.214  13.570  69.446  1.00  0.00     0.770 C  
HETATM    5  C   UNL     1      -5.303  13.699  67.596  1.00  0.00     0.025 C  
HETATM    6  C   UNL     1      -6.529   8.760  68.140  1.00  0.00    -0.060 C  
HETATM    7  C   UNL     1      -7.248  14.375  68.959  1.00  0.00    -0.129 C  
HETATM    8  C   UNL     1      -7.039  15.876  68.946  1.00  0.00    -0.148 C  
HETATM    9  C   UNL     1      -7.960  13.222  67.573  1.00  0.00    -0.186 C  
HETATM   10  C   UNL     1      -7.179   9.240  69.508  1.00  0.00    -0.061 C  
HETATM   11  C   UNL     1      -8.368   8.308  69.679  1.00  0.00    -0.123 C  
HETATM   12  O   UNL     1      -6.771   5.691  71.605  1.00  0.00    -0.054 OA 
HETATM   13  C   UNL     1      -8.180  11.513  68.170  1.00  0.00    -0.149 C  
HETATM   14  C   UNL     1      -8.207   7.120  70.318  1.00  0.00    -0.131 C  
HETATM   15  O   UNL     1      -9.567  11.379  68.550  1.00  0.00    -0.185 OA 
HETATM   16  C   UNL     1      -7.166  10.821  69.415  1.00  0.00    -0.132 C  
HETATM   17  C   UNL     1      -7.144  11.758  70.768  1.00  0.00     2.757 C  
HETATM   18  F   UNL     1      -5.795  10.857  69.039  1.00  0.00    -0.041 F  
HETATM   19  H   UNL     1      -9.682  10.489  68.861  1.00  0.00     0.000 HD 
HETATM   20  C   UNL     1      -6.278  11.114  71.866  1.00  0.00     1.985 C  
HETATM   21  C   UNL     1      -6.555   9.623  71.997  1.00  0.00     0.563 C  
HETATM   22  C   UNL     1      -6.245   8.898  70.700  1.00  0.00    -0.042 C  
HETATM   23  C   UNL     1      -5.728   7.656  70.762  1.00  0.00    -0.030 C  
HETATM   24  C   UNL     1      -6.898   6.728  70.970  1.00  0.00    -0.058 C  
ENDROOT
BRANCH   4  25
HETATM   25  C   UNL     1      -9.503  14.583  69.059  1.00  0.00    -0.085 C  
HETATM   26  O   UNL     1      -9.515  15.817  69.028  1.00  0.00    -0.214 OA 
BRANCH  25  27
HETATM   27  C   UNL     1     -10.823  13.875  68.707  1.00  0.00    -0.263 C  
HETATM   28  O   UNL     1     -11.764  13.984  69.772  1.00  0.00    -0.280 OA 
HETATM   29  H   UNL     1     -12.579  13.547  69.555  1.00  0.00     0.000 HD 
ENDBRANCH  25  27
ENDBRANCH   4  25
TORSDOF 2
ENDMDL
MODEL      118
REMARK 921   NORMALIZED FREE ENERGY PREDICTED BY IDOCK:    5.97 KCAL/MOL
REMARK 922        TOTAL FREE ENERGY PREDICTED BY IDOCK:    7.40 KCAL/MOL
REMARK 923 INTER-LIGAND FREE ENERGY PREDICTED BY IDOCK:    6.59 KCAL/MOL
REMARK 924 INTRA-LIGAND FREE ENERGY PREDICTED BY IDOCK:    0.82 KCAL/MOL
REMARK 927      BINDING AFFINITY PREDICTED BY RF-SCORE:    0.00 PKD
ROOT
HETATM    1  C   UNL     1      -7.593  15.703  70.420  1.00  0.00     0.993 C  
HETATM    2  C   UNL     1      -6.709  14.625  70.681  1.00  0.00     0.218 C  
HETATM    3  C   UNL     1      -6.670  14.935  69.205  1.00  0.00    -0.141 C  
HETATM    4  C   UNL     1      -7.719  16.629  68.701  1.00  0.00    -0.224 C  
HETATM    5  C   UNL     1      -5.169  14.307  68.844  1.00  0.00    -0.087 C  
HETATM    6  C   UNL     1      -9.368  11.845  67.260  1.00  0.00    -0.177 C  
HETATM    7  C   UNL     1      -6.436  16.416  69.057  1.00  0.00    -0.171 C  
HETATM    8  C   UNL     1      -5.326  17.311  69.571  1.00  0.00    -0.173 C  
HETATM    9  C   UNL     1      -6.773  15.789  67.255  1.00  0.00    -0.197 C  
HETATM   10  C   UNL     1     -10.135  12.934  68.126  1.00  0.00    -0.240 C  
HETATM   11  C   UNL     1     -11.433  13.140  67.362  1.00  0.00    -0.375 C  
HETATM   12  O   UNL     1     -13.482  10.672  69.041  1.00  0.00     1.673 OA 
HETATM   13  C   UNL     1      -8.355  14.889  67.142  1.00  0.00    -0.221 C  
HETATM   14  C   UNL     1     -12.507  12.351  67.632  1.00  0.00     0.949 C  
HETATM   15  O   UNL     1      -9.336  15.832  66.656  1.00  0.00    -0.224 OA 
HETATM   16  C   UNL     1      -9.022  13.999  68.491  1.00  0.00    -0.160 C  
HETATM   17  C   UNL     1      -9.149  14.942  69.835  1.00  0.00     0.330 C  
HETATM   18  F   UNL     1      -8.117  13.001  68.945  1.00  0.00    -0.083 F  
HETATM   19  H   UNL     1     -10.160  15.364  66.597  1.00  0.00     0.000 HD 
HETATM   20  C   UNL     1      -9.772  14.153  71.000  1.00  0.00     4.089 C  
HETATM   21  C   UNL     1     -10.976  13.339  70.546  1.00  0.00     1.456 C  
HETATM   22  C   UNL     1     -10.577  12.330  69.485  1.00  0.00     0.322 C  
HETATM   23  C   UNL     1     -11.188  11.129  69.474  1.00  0.00    -0.341 C  
HETATM   24  C   UNL     1     -12.495  11.333  68.752  1.00  0.00     0.465 C  
ENDROOT
BRANCH   4  25
HETATM   25  C   UNL     1      -7.455  18.125  67.972  1.00  0.00    -0.240 C  
HETATM   26  O   UNL     1      -6.412  18.550  67.468  1.00  0.00    -0.192 OA 
BRANCH  25  27
HETATM   27  C   UNL     1      -8.668  19.072  67.939  1.00  0.00    -0.301 C  
HETATM   28  O   UNL     1      -9.716  18.594  68.778  1.00  0.00    -0.360 OA 
HETATM   29  H   UNL     1     -10.464  19.178  68.758  1.00  0.00     0.000 HD 
ENDBRANCH  25  27
ENDBRANCH   4  25
TORSDOF 2
ENDMDL
MODEL      119
REMARK 921   NORMALIZED FREE ENERGY PREDICTED BY IDOCK:    8.99 KCAL/MOL
REMARK 922        TOTAL FREE ENERGY PREDICTED BY IDOCK:   10.78 KCAL/MOL
REMARK 923 INTER-LIGAND FREE ENERGY PREDICTED BY IDOCK:    9.97 KCAL/MOL
REMARK 924 INTRA-LIGAND FREE ENERGY PREDICTED BY IDOCK:    0.81 KCAL/MOL
REMARK 927      BINDING AFFINITY PREDICTED BY RF-SCORE:    0.00 PKD
ROOT
HETATM    1  C   UNL     1     -12.613  10.420  68.958  1.00  0.00     1.007 C  
HETATM    2  C   UNL     1     -12.446   9.277  69.781  1.00  0.00     1.172 C  
HETATM    3  C   UNL     1     -11.501  10.354  70.253  1.00  0.00    -0.406 C  
HETATM    4  C   UNL     1     -11.787  12.158  69.310  1.00  0.00    -0.370 C  
HETATM    5  C   UNL     1     -11.289   9.848  71.826  1.00  0.00     0.112 C  
HETATM    6  C   UNL     1      -7.468   9.274  68.469  1.00  0.00    -0.081 C  
HETATM    7  C   UNL     1     -12.303  11.617  70.432  1.00  0.00    -0.373 C  
HETATM    8  C   UNL     1     -13.526  11.914  71.277  1.00  0.00     0.347 C  
HETATM    9  C   UNL     1     -10.463  12.160  70.702  1.00  0.00     3.677 C  
HETATM   10  C   UNL     1      -8.541   9.777  67.410  1.00  0.00    -0.128 C  
HETATM   11  C   UNL     1      -7.704  10.544  66.399  1.00  0.00    -0.135 C  
HETATM   12  O   UNL     1      -6.997   7.852  64.083  1.00  0.00    -0.065 OA 
HETATM   13  C   UNL     1      -9.411  11.695  69.287  1.00  0.00     0.445 C  
HETATM   14  C   UNL     1      -7.154   9.888  65.343  1.00  0.00    -0.121 C  
HETATM   15  O   UNL     1      -9.300  12.866  68.449  1.00  0.00    -0.262 OA 
HETATM   16  C   UNL     1      -9.749  10.297  68.292  1.00  0.00    -0.142 C  
HETATM   17  C   UNL     1     -11.286  10.330  67.704  1.00  0.00    -0.088 C  
HETATM   18  F   UNL     1      -9.781   9.109  69.072  1.00  0.00    -0.157 F  
HETATM   19  H   UNL     1      -8.753  12.625  67.711  1.00  0.00     0.000 HD 
HETATM   20  C   UNL     1     -11.552   9.111  66.801  1.00  0.00     2.823 C  
HETATM   21  C   UNL     1     -10.395   8.858  65.845  1.00  0.00     0.464 C  
HETATM   22  C   UNL     1      -9.113   8.578  66.609  1.00  0.00    -0.203 C  
HETATM   23  C   UNL     1      -8.243   7.683  66.102  1.00  0.00    -0.124 C  
HETATM   24  C   UNL     1      -7.434   8.426  65.071  1.00  0.00    -0.089 C  
ENDROOT
BRANCH   4  25
HETATM   25  C   UNL     1     -12.160  13.756  69.696  1.00  0.00    -0.336 C  
HETATM   26  O   UNL     1     -11.427  14.602  70.214  1.00  0.00    -0.263 OA 
BRANCH  25  27
HETATM   27  C   UNL     1     -13.594  14.203  69.362  1.00  0.00     3.210 C  
HETATM   28  O   UNL     1     -13.914  15.430  70.011  1.00  0.00     0.058 OA 
HETATM   29  H   UNL     1     -14.799  15.706  69.805  1.00  0.00     0.000 HD 
ENDBRANCH  25  27
ENDBRANCH   4  25
TORSDOF 2
ENDMDL
MODEL      120
REMARK 921   NORMALIZED FREE ENERGY PREDICTED BY IDOCK:    9.84 KCAL/MOL
REMARK 922        TOTAL FREE ENERGY PREDICTED BY IDOCK:   11.74 KCAL/MOL
REMARK 923 INTER-LIGAND FREE ENERGY PREDICTED BY IDOCK:   10.42 KCAL/MOL
REMARK 924 INTRA-LIGAND FREE ENERGY PREDICTED BY IDOCK:    1.31 KCAL/MOL
REMARK 927      BINDING AFFINITY PREDICTED BY RF-SCORE:    0.00 PKD
ROOT
HETATM    1  C   UNL     1      -9.500   7.361  72.738  1.00  0.00    -0.207 C  
HETATM    2  C   UNL     1      -8.768   8.507  72.341  1.00  0.00    -0.242 C  
HETATM    3  C   UNL     1     -10.025   8.427  71.511  1.00  0.00    -0.283 C  
HETATM    4  C   UNL     1     -11.313   6.948  72.129  1.00  0.00    -0.302 C  
HETATM    5  C   UNL     1     -10.165  10.031  71.086  1.00  0.00     0.484 C  
HETATM    6  C   UNL     1      -8.737   6.614  67.554  1.00  0.00    -0.118 C  
HETATM    7  C   UNL     1     -11.184   8.249  72.459  1.00  0.00    -0.446 C  
HETATM    8  C   UNL     1     -11.660   9.090  73.627  1.00  0.00     4.437 C  
HETATM    9  C   UNL     1     -11.957   8.051  70.693  1.00  0.00    -0.044 C  
HETATM   10  C   UNL     1      -8.707   5.603  68.780  1.00  0.00    -0.106 C  
HETATM   11  C   UNL     1      -9.115   4.279  68.153  1.00  0.00    -0.168 C  
HETATM   12  O   UNL     1      -5.832   3.011  67.305  1.00  0.00    -0.022 OA 
HETATM   13  C   UNL     1     -11.097   6.766  69.725  1.00  0.00    -0.316 C  
HETATM   14  C   UNL     1      -8.167   3.464  67.621  1.00  0.00    -0.088 C  
HETATM   15  O   UNL     1     -11.876   5.557  69.854  1.00  0.00     1.137 OA 
HETATM   16  C   UNL     1      -9.404   6.396  69.959  1.00  0.00    -0.156 C  
HETATM   17  C   UNL     1      -9.072   6.053  71.535  1.00  0.00    -0.148 C  
HETATM   18  F   UNL     1      -8.595   7.547  69.756  1.00  0.00    -0.132 F  
HETATM   19  H   UNL     1     -11.429   4.887  69.350  1.00  0.00     0.000 HD 
HETATM   20  C   UNL     1      -7.586   5.693  71.715  1.00  0.00    -0.096 C  
HETATM   21  C   UNL     1      -7.103   4.743  70.628  1.00  0.00    -0.045 C  
HETATM   22  C   UNL     1      -7.248   5.372  69.255  1.00  0.00    -0.065 C  
HETATM   23  C   UNL     1      -6.313   5.107  68.321  1.00  0.00    -0.036 C  
HETATM   24  C   UNL     1      -6.690   3.776  67.722  1.00  0.00    -0.046 C  
ENDROOT
BRANCH   4  25
HETATM   25  C   UNL     1     -12.897   6.782  72.679  1.00  0.00     0.658 C  
HETATM   26  O   UNL     1     -13.682   7.674  73.012  1.00  0.00     0.887 OA 
BRANCH  25  27
HETATM   27  C   UNL     1     -13.418   5.338  72.780  1.00  0.00     1.728 C  
HETATM   28  O   UNL     1     -12.919   4.536  71.712  1.00  0.00     4.155 OA 
HETATM   29  H   UNL     1     -13.241   3.645  71.774  1.00  0.00     0.000 HD 
ENDBRANCH  25  27
ENDBRANCH   4  25
TORSDOF 2
ENDMDL
MODEL      121
REMARK 921   NORMALIZED FREE ENERGY PREDICTED BY IDOCK:   11.17 KCAL/MOL
REMARK 922        TOTAL FREE ENERGY PREDICTED BY IDOCK:   13.21 KCAL/MOL
REMARK 923 INTER-LIGAND FREE ENERGY PREDICTED BY IDOCK:   12.48 KCAL/MOL
REMARK 924 INTRA-LIGAND FREE ENERGY PREDICTED BY IDOCK:    0.74 KCAL/MOL
REMARK 927      BINDING AFFINITY PREDICTED BY RF-SCORE:    0.00 PKD
ROOT
HETATM    1  C   UNL     1      -9.012  19.395  68.443  1.00  0.00    -0.403 C  
HETATM    2  C   UNL     1     -10.277  19.242  69.065  1.00  0.00    -0.274 C  
HETATM    3  C   UNL     1      -9.308  18.274  69.698  1.00  0.00     0.706 C  
HETATM    4  C   UNL     1      -7.368  18.537  69.069  1.00  0.00    -0.243 C  
HETATM    5  C   UNL     1     -10.069  18.059  71.163  1.00  0.00     3.772 C  
HETATM    6  C   UNL     1     -10.143  14.276  67.716  1.00  0.00    -0.231 C  
HETATM    7  C   UNL     1      -8.079  19.053  70.092  1.00  0.00     1.402 C  
HETATM    8  C   UNL     1      -7.906  20.264  70.987  1.00  0.00     1.658 C  
HETATM    9  C   UNL     1      -7.617  17.201  70.428  1.00  0.00     2.748 C  
HETATM   10  C   UNL     1      -9.455  15.348  66.767  1.00  0.00    -0.260 C  
HETATM   11  C   UNL     1      -8.545  14.505  65.887  1.00  0.00     1.048 C  
HETATM   12  O   UNL     1     -10.829  13.865  63.151  1.00  0.00     1.477 OA 
HETATM   13  C   UNL     1      -7.859  16.169  68.943  1.00  0.00    -0.213 C  
HETATM   14  C   UNL     1      -9.026  13.976  64.731  1.00  0.00     3.050 C  
HETATM   15  O   UNL     1      -6.567  16.044  68.309  1.00  0.00    -0.111 OA 
HETATM   16  C   UNL     1      -9.068  16.539  67.736  1.00  0.00    -0.204 C  
HETATM   17  C   UNL     1      -8.914  18.080  67.178  1.00  0.00    -0.255 C  
HETATM   18  F   UNL     1     -10.368  16.586  68.309  1.00  0.00    -0.247 F  
HETATM   19  H   UNL     1      -6.693  15.507  67.536  1.00  0.00     0.000 HD 
HETATM   20  C   UNL     1      -9.962  18.374  66.089  1.00  0.00    -0.330 C  
HETATM   21  C   UNL     1     -10.073  17.230  65.092  1.00  0.00     0.717 C  
HETATM   22  C   UNL     1     -10.496  15.947  65.785  1.00  0.00    -0.386 C  
HETATM   23  C   UNL     1     -11.309  15.097  65.129  1.00  0.00    -0.357 C  
HETATM   24  C   UNL     1     -10.419  14.283  64.225  1.00  0.00     0.362 C  
ENDROOT
BRANCH   4  25
HETATM   25  C   UNL     1      -5.851  18.879  69.717  1.00  0.00    -0.250 C  
HETATM   26  O   UNL     1      -5.258  18.278  70.617  1.00  0.00    -0.240 OA 
BRANCH  25  27
HETATM   27  C   UNL     1      -5.126  20.091  69.107  1.00  0.00    -0.187 C  
HETATM   28  O   UNL     1      -5.958  20.771  68.171  1.00  0.00    -0.273 OA 
HETATM   29  H   UNL     1      -5.510  21.519  67.795  1.00  0.00     0.000 HD 
ENDBRANCH  25  27
ENDBRANCH   4  25
TORSDOF 2
ENDMDL
MODEL      122
REMARK 921   NORMALIZED FREE ENERGY PREDICTED BY IDOCK:   11.43 KCAL/MOL
REMARK 922        TOTAL FREE ENERGY PREDICTED BY IDOCK:   13.51 KCAL/MOL
REMARK 923 INTER-LIGAND FREE ENERGY PREDICTED BY IDOCK:   11.94 KCAL/MOL
REMARK 924 INTRA-LIGAND FREE ENERGY PREDICTED BY IDOCK:    1.56 KCAL/MOL
REMARK 927      BINDING AFFINITY PREDICTED BY RF-SCORE:    0.00 PKD
ROOT
HETATM    1  C   UNL     1      -6.378  15.656  70.098  1.00  0.00    -0.056 C  
HETATM    2  C   UNL     1      -5.241  15.243  69.360  1.00  0.00    -0.092 C  
HETATM    3  C   UNL     1      -6.439  15.235  68.444  1.00  0.00    -0.105 C  
HETATM    4  C   UNL     1      -8.125  16.037  69.305  1.00  0.00    -0.212 C  
HETATM    5  C   UNL     1      -5.656  15.389  66.982  1.00  0.00     0.728 C  
HETATM    6  C   UNL     1      -7.765  10.898  68.239  1.00  0.00    -0.111 C  
HETATM    7  C   UNL     1      -7.123  16.572  68.578  1.00  0.00    -0.164 C  
HETATM    8  C   UNL     1      -6.610  17.983  68.374  1.00  0.00    -0.210 C  
HETATM    9  C   UNL     1      -8.310  15.522  67.462  1.00  0.00    -0.190 C  
HETATM   10  C   UNL     1      -8.028  11.600  69.640  1.00  0.00     0.841 C  
HETATM   11  C   UNL     1      -9.332  10.972  70.107  1.00  0.00     1.532 C  
HETATM   12  O   UNL     1      -7.985   8.192  71.995  1.00  0.00    -0.104 OA 
HETATM   13  C   UNL     1      -8.766  13.948  68.263  1.00  0.00    -0.183 C  
HETATM   14  C   UNL     1      -9.306   9.822  70.830  1.00  0.00     0.211 C  
HETATM   15  O   UNL     1     -10.052  14.155  68.885  1.00  0.00    -0.300 OA 
HETATM   16  C   UNL     1      -7.702  13.127  69.382  1.00  0.00     0.599 C  
HETATM   17  C   UNL     1      -7.229  14.120  70.606  1.00  0.00     1.117 C  
HETATM   18  F   UNL     1      -6.451  12.829  68.775  1.00  0.00    -0.065 F  
HETATM   19  H   UNL     1     -10.290  13.336  69.302  1.00  0.00     0.000 HD 
HETATM   20  C   UNL     1      -6.325  13.369  71.601  1.00  0.00     1.468 C  
HETATM   21  C   UNL     1      -6.879  11.991  71.932  1.00  0.00     5.940 C  
HETATM   22  C   UNL     1      -6.979  11.133  70.684  1.00  0.00     1.228 C  
HETATM   23  C   UNL     1      -6.732   9.813  70.786  1.00  0.00    -0.081 C  
HETATM   24  C   UNL     1      -8.009   9.188  71.286  1.00  0.00    -0.014 C  
ENDROOT
BRANCH   4  25
HETATM   25  C   UNL     1      -9.223  17.289  69.039  1.00  0.00    -0.109 C  
HETATM   26  O   UNL     1      -9.599  18.149  69.839  1.00  0.00     0.687 OA 
BRANCH  25  27
HETATM   27  C   UNL     1      -9.827  17.355  67.626  1.00  0.00    -0.282 C  
HETATM   28  O   UNL     1     -11.237  17.151  67.659  1.00  0.00    -0.132 OA 
HETATM   29  H   UNL     1     -11.609  17.192  66.787  1.00  0.00     0.000 HD 
ENDBRANCH  25  27
ENDBRANCH   4  25
TORSDOF 2
ENDMDL
MODEL      123
REMARK 921   NORMALIZED FREE ENERGY PREDICTED BY IDOCK:   11.45 KCAL/MOL
REMARK 922        TOTAL FREE ENERGY PREDICTED BY IDOCK:   13.53 KCAL/MOL
REMARK 923 INTER-LIGAND FREE ENERGY PREDICTED BY IDOCK:   11.67 KCAL/MOL
REMARK 924 INTRA-LIGAND FREE ENERGY PREDICTED BY IDOCK:    1.86 KCAL/MOL
REMARK 927      BINDING AFFINITY PREDICTED BY RF-SCORE:    0.00 PKD
ROOT
HETATM    1  C   UNL     1      -5.916  17.770  68.970  1.00  0.00    -0.201 C  
HETATM    2  C   UNL     1      -6.203  18.718  69.985  1.00  0.00    -0.136 C  
HETATM    3  C   UNL     1      -7.152  17.554  70.130  1.00  0.00     1.263 C  
HETATM    4  C   UNL     1      -6.711  15.985  68.877  1.00  0.00    -0.138 C  
HETATM    5  C   UNL     1      -7.535  17.724  71.742  1.00  0.00     8.563 C  
HETATM    6  C   UNL     1     -11.025  18.918  68.195  1.00  0.00     0.119 C  
HETATM    7  C   UNL     1      -6.327  16.293  70.133  1.00  0.00     0.044 C  
HETATM    8  C   UNL     1      -5.183  15.847  71.021  1.00  0.00    -0.112 C  
HETATM    9  C   UNL     1      -8.165  15.679  70.096  1.00  0.00     0.723 C  
HETATM   10  C   UNL     1      -9.837  18.657  67.173  1.00  0.00    -0.340 C  
HETATM   11  C   UNL     1     -10.544  18.101  65.946  1.00  0.00    -0.247 C  
HETATM   12  O   UNL     1     -11.114  21.199  64.161  1.00  0.00     1.878 OA 
HETATM   13  C   UNL     1      -9.088  16.408  68.703  1.00  0.00    -0.233 C  
HETATM   14  C   UNL     1     -11.010  18.951  64.993  1.00  0.00     1.320 C  
HETATM   15  O   UNL     1      -9.076  15.432  67.639  1.00  0.00    -0.180 OA 
HETATM   16  C   UNL     1      -8.704  17.985  68.051  1.00  0.00    -0.261 C  
HETATM   17  C   UNL     1      -7.116  18.095  67.630  1.00  0.00    -0.202 C  
HETATM   18  F   UNL     1      -8.790  18.989  69.054  1.00  0.00    -0.369 F  
HETATM   19  H   UNL     1      -9.556  15.811  66.913  1.00  0.00     0.000 HD 
HETATM   20  C   UNL     1      -6.807  19.476  67.024  1.00  0.00    -0.208 C  
HETATM   21  C   UNL     1      -7.872  19.903  66.025  1.00  0.00    -0.335 C  
HETATM   22  C   UNL     1      -9.232  20.003  66.693  1.00  0.00    -0.484 C  
HETATM   23  C   UNL     1     -10.079  20.970  66.291  1.00  0.00     1.052 C  
HETATM   24  C   UNL     1     -10.756  20.442  65.053  1.00  0.00     0.708 C  
ENDROOT
BRANCH   4  25
HETATM   25  C   UNL     1      -6.322  14.348  68.969  1.00  0.00    -0.097 C  
HETATM   26  O   UNL     1      -5.209  13.841  69.135  1.00  0.00    -0.077 OA 
BRANCH  25  27
HETATM   27  C   UNL     1      -7.504  13.374  68.823  1.00  0.00    -0.061 C  
HETATM   28  O   UNL     1      -7.194  12.101  69.384  1.00  0.00    -0.318 OA 
HETATM   29  H   UNL     1      -7.924  11.500  69.293  1.00  0.00     0.000 HD 
ENDBRANCH  25  27
ENDBRANCH   4  25
TORSDOF 2
ENDMDL
MODEL      124
REMARK 921   NORMALIZED FREE ENERGY PREDICTED BY IDOCK:   13.89 KCAL/MOL
REMARK 922        TOTAL FREE ENERGY PREDICTED BY IDOCK:   16.26 KCAL/MOL
REMARK 923 INTER-LIGAND FREE ENERGY PREDICTED BY IDOCK:   15.01 KCAL/MOL
REMARK 924 INTRA-LIGAND FREE ENERGY PREDICTED BY IDOCK:    1.25 KCAL/MOL
REMARK 927      BINDING AFFINITY PREDICTED BY RF-SCORE:    0.00 PKD
ROOT
HETATM    1  C   UNL     1     -12.073  13.528  69.108  1.00  0.00    -0.331 C  
HETATM    2  C   UNL     1     -11.583  12.259  68.711  1.00  0.00    -0.380 C  
HETATM    3  C   UNL     1     -11.114  12.537  70.117  1.00  0.00     0.606 C  
HETATM    4  C   UNL     1     -11.939  14.238  70.927  1.00  0.00    -0.389 C  
HETATM    5  C   UNL     1     -10.864  10.972  70.628  1.00  0.00     0.816 C  
HETATM    6  C   UNL     1      -6.832  13.982  69.690  1.00  0.00    -0.017 C  
HETATM    7  C   UNL     1     -12.320  12.944  70.926  1.00  0.00    -0.365 C  
HETATM    8  C   UNL     1     -13.632  12.234  71.192  1.00  0.00     0.779 C  
HETATM    9  C   UNL     1     -10.813  13.227  72.111  1.00  0.00     7.009 C  
HETATM   10  C   UNL     1      -7.926  15.005  69.160  1.00  0.00    -0.195 C  
HETATM   11  C   UNL     1      -7.333  16.363  69.504  1.00  0.00    -0.044 C  
HETATM   12  O   UNL     1      -5.548  17.005  66.420  1.00  0.00    -0.305 OA 
HETATM   13  C   UNL     1      -9.557  14.311  71.354  1.00  0.00     5.148 C  
HETATM   14  C   UNL     1      -6.507  16.982  68.620  1.00  0.00    -0.172 C  
HETATM   15  O   UNL     1      -9.798  15.643  71.860  1.00  0.00     1.979 OA 
HETATM   16  C   UNL     1      -9.304  14.382  69.626  1.00  0.00     0.566 C  
HETATM   17  C   UNL     1     -10.705  14.704  68.822  1.00  0.00    -0.252 C  
HETATM   18  F   UNL     1      -8.980  13.100  69.102  1.00  0.00     0.154 F  
HETATM   19  H   UNL     1      -9.144  16.207  71.466  1.00  0.00     0.000 HD 
HETATM   20  C   UNL     1     -10.455  14.800  67.306  1.00  0.00    -0.264 C  
HETATM   21  C   UNL     1      -9.211  15.619  66.992  1.00  0.00    -0.239 C  
HETATM   22  C   UNL     1      -7.976  14.987  67.610  1.00  0.00    -0.178 C  
HETATM   23  C   UNL     1      -6.811  15.057  66.938  1.00  0.00     0.691 C  
HETATM   24  C   UNL     1      -6.235  16.415  67.242  1.00  0.00    -0.177 C  
ENDROOT
BRANCH   4  25
HETATM   25  C   UNL     1     -12.877  14.697  72.249  1.00  0.00    -0.340 C  
HETATM   26  O   UNL     1     -13.626  13.991  72.929  1.00  0.00    -0.676 OA 
BRANCH  25  27
HETATM   27  C   UNL     1     -12.784  16.181  72.647  1.00  0.00    -0.374 C  
HETATM   28  O   UNL     1     -13.960  16.890  72.266  1.00  0.00     1.957 OA 
HETATM   29  H   UNL     1     -13.903  17.805  72.511  1.00  0.00     0.000 HD 
ENDBRANCH  25  27
ENDBRANCH   4  25
TORSDOF 2
ENDMDL
MODEL      125
REMARK 921   NORMALIZED FREE ENERGY PREDICTED BY IDOCK:   15.05 KCAL/MOL
REMARK 922        TOTAL FREE ENERGY PREDICTED BY IDOCK:   17.55 KCAL/MOL
REMARK 923 INTER-LIGAND FREE ENERGY PREDICTED BY IDOCK:   16.79 KCAL/MOL
REMARK 924 INTRA-LIGAND FREE ENERGY PREDICTED BY IDOCK:    0.77 KCAL/MOL
REMARK 927      BINDING AFFINITY PREDICTED BY RF-SCORE:    0.00 PKD
ROOT
HETATM    1  C   UNL     1      -7.231  12.283  65.379  1.00  0.00     3.464 C  
HETATM    2  C   UNL     1      -6.109  11.420  65.467  1.00  0.00     0.690 C  
HETATM    3  C   UNL     1      -7.314  10.703  66.023  1.00  0.00    -0.132 C  
HETATM    4  C   UNL     1      -9.072  11.734  65.750  1.00  0.00    -0.088 C  
HETATM    5  C   UNL     1      -6.807   9.130  65.811  1.00  0.00    -0.077 C  
HETATM    6  C   UNL     1      -6.971  11.101  70.532  1.00  0.00     0.943 C  
HETATM    7  C   UNL     1      -8.420  10.817  65.006  1.00  0.00    -0.080 C  
HETATM    8  C   UNL     1      -8.486  10.408  63.548  1.00  0.00    -0.171 C  
HETATM    9  C   UNL     1      -9.254   9.996  66.551  1.00  0.00    -0.182 C  
HETATM   10  C   UNL     1      -7.318  12.455  69.778  1.00  0.00     0.822 C  
HETATM   11  C   UNL     1      -8.242  13.172  70.750  1.00  0.00     6.528 C  
HETATM   12  O   UNL     1      -5.772  15.078  72.586  1.00  0.00     0.313 OA 
HETATM   13  C   UNL     1      -9.011  10.997  68.055  1.00  0.00    -0.145 C  
HETATM   14  C   UNL     1      -7.717  13.985  71.705  1.00  0.00     5.372 C  
HETATM   15  O   UNL     1     -10.208  11.788  68.227  1.00  0.00    -0.192 OA 
HETATM   16  C   UNL     1      -7.605  12.011  68.285  1.00  0.00    -0.117 C  
HETATM   17  C   UNL     1      -7.398  13.053  67.028  1.00  0.00     0.173 C  
HETATM   18  F   UNL     1      -6.406  11.251  68.208  1.00  0.00    -0.049 F  
HETATM   19  H   UNL     1     -10.081  12.309  69.011  1.00  0.00     0.000 HD 
HETATM   20  C   UNL     1      -6.179  13.962  67.266  1.00  0.00     0.397 C  
HETATM   21  C   UNL     1      -6.149  14.500  68.690  1.00  0.00    -0.084 C  
HETATM   22  C   UNL     1      -6.064  13.365  69.695  1.00  0.00    -0.123 C  
HETATM   23  C   UNL     1      -5.341  13.549  70.816  1.00  0.00    -0.145 C  
HETATM   24  C   UNL     1      -6.237  14.293  71.772  1.00  0.00     0.432 C  
ENDROOT
BRANCH   4  25
HETATM   25  C   UNL     1     -10.573  11.526  65.014  1.00  0.00    -0.297 C  
HETATM   26  O   UNL     1     -11.407  10.642  65.228  1.00  0.00     0.380 OA 
BRANCH  25  27
HETATM   27  C   UNL     1     -10.938  12.568  63.942  1.00  0.00    -0.424 C  
HETATM   28  O   UNL     1      -9.911  13.546  63.805  1.00  0.00    -0.421 OA 
HETATM   29  H   UNL     1     -10.136  14.189  63.144  1.00  0.00     0.000 HD 
ENDBRANCH  25  27
ENDBRANCH   4  25
TORSDOF 2
ENDMDL
MODEL      126
REMARK 921   NORMALIZED FREE ENERGY PREDICTED BY IDOCK:   17.88 KCAL/MOL
REMARK 922        TOTAL FREE ENERGY PREDICTED BY IDOCK:   20.71 KCAL/MOL
REMARK 923 INTER-LIGAND FREE ENERGY PREDICTED BY IDOCK:   20.06 KCAL/MOL
REMARK 924 INTRA-LIGAND FREE ENERGY PREDICTED BY IDOCK:    0.65 KCAL/MOL
REMARK 927      BINDING AFFINITY PREDICTED BY RF-SCORE:    0.00 PKD
ROOT
HETATM    1  C   UNL     1      -8.944   6.123  67.062  1.00  0.00    -0.114 C  
HETATM    2  C   UNL     1      -7.646   5.715  67.461  1.00  0.00    -0.089 C  
HETATM    3  C   UNL     1      -8.470   5.980  68.697  1.00  0.00    -0.113 C  
HETATM    4  C   UNL     1     -10.450   6.353  68.289  1.00  0.00    -0.270 C  
HETATM    5  C   UNL     1      -7.632   5.034  69.782  1.00  0.00    -0.060 C  
HETATM    6  C   UNL     1      -7.254  10.129  70.081  1.00  0.00    -0.162 C  
HETATM    7  C   UNL     1      -9.764   5.222  68.551  1.00  0.00    -0.194 C  
HETATM    8  C   UNL     1     -10.042   3.749  68.328  1.00  0.00     0.380 C  
HETATM    9  C   UNL     1      -9.994   6.286  70.155  1.00  0.00    -0.209 C  
HETATM   10  C   UNL     1      -8.100  10.107  68.736  1.00  0.00    -0.111 C  
HETATM   11  C   UNL     1      -8.939  11.372  68.827  1.00  0.00    -0.086 C  
HETATM   12  O   UNL     1      -6.706  13.665  67.135  1.00  0.00    -0.164 OA 
HETATM   13  C   UNL     1      -9.693   8.056  69.835  1.00  0.00    -0.180 C  
HETATM   14  C   UNL     1      -8.446  12.545  68.351  1.00  0.00    -0.125 C  
HETATM   15  O   UNL     1     -10.985   8.667  69.628  1.00  0.00    -0.360 OA 
HETATM   16  C   UNL     1      -8.584   8.606  68.601  1.00  0.00    -0.131 C  
HETATM   17  C   UNL     1      -8.937   7.950  67.133  1.00  0.00    -0.142 C  
HETATM   18  F   UNL     1      -7.276   8.092  68.820  1.00  0.00    -0.073 F  
HETATM   19  H   UNL     1     -10.829   9.589  69.461  1.00  0.00     0.000 HD 
HETATM   20  C   UNL     1      -7.974   8.475  66.053  1.00  0.00    -0.107 C  
HETATM   21  C   UNL     1      -7.771   9.979  66.166  1.00  0.00    -0.108 C  
HETATM   22  C   UNL     1      -7.175  10.345  67.513  1.00  0.00    -0.087 C  
HETATM   23  C   UNL     1      -6.294  11.364  67.574  1.00  0.00    -0.069 C  
HETATM   24  C   UNL     1      -7.119  12.624  67.626  1.00  0.00    -0.139 C  
ENDROOT
BRANCH   4  25
HETATM   25  C   UNL     1     -11.971   5.730  68.663  1.00  0.00     3.079 C  
HETATM   26  O   UNL     1     -12.500   5.637  69.774  1.00  0.00     3.015 OA 
BRANCH  25  27
HETATM   27  C   UNL     1     -12.789   5.212  67.467  1.00  0.00    14.356 C  
HETATM   28  O   UNL     1     -12.462   5.921  66.275  1.00  0.00     2.326 OA 
HETATM   29  H   UNL     1     -12.967   5.601  65.537  1.00  0.00     0.000 HD 
ENDBRANCH  25  27
ENDBRANCH   4  25
TORSDOF 2
ENDMDL
MODEL      127
REMARK 921   NORMALIZED FREE ENERGY PREDICTED BY IDOCK:   18.48 KCAL/MOL
REMARK 922        TOTAL FREE ENERGY PREDICTED BY IDOCK:   21.38 KCAL/MOL
REMARK 923 INTER-LIGAND FREE ENERGY PREDICTED BY IDOCK:   19.80 KCAL/MOL
REMARK 924 INTRA-LIGAND FREE ENERGY PREDICTED BY IDOCK:    1.58 KCAL/MOL
REMARK 927      BINDING AFFINITY PREDICTED BY RF-SCORE:    0.00 PKD
ROOT
HETATM    1  C   UNL     1      -6.994  13.076  67.403  1.00  0.00    -0.123 C  
HETATM    2  C   UNL     1      -7.525  13.826  66.324  1.00  0.00     2.595 C  
HETATM    3  C   UNL     1      -8.663  13.148  67.047  1.00  0.00    -0.193 C  
HETATM    4  C   UNL     1      -8.080  12.210  68.781  1.00  0.00     0.033 C  
HETATM    5  C   UNL     1      -9.905  14.163  66.597  1.00  0.00    -0.289 C  
HETATM    6  C   UNL     1      -9.636   9.472  64.566  1.00  0.00     0.039 C  
HETATM    7  C   UNL     1      -8.518  13.458  68.514  1.00  0.00    -0.079 C  
HETATM    8  C   UNL     1      -8.448  14.777  69.257  1.00  0.00    -0.043 C  
HETATM    9  C   UNL     1      -9.968  12.175  68.423  1.00  0.00    -0.206 C  
HETATM   10  C   UNL     1      -8.248   9.397  65.335  1.00  0.00    -0.126 C  
HETATM   11  C   UNL     1      -8.135   7.928  65.712  1.00  0.00    -0.123 C  
HETATM   12  O   UNL     1      -6.345   6.727  62.803  1.00  0.00    -0.041 OA 
HETATM   13  C   UNL     1      -9.466  10.657  67.546  1.00  0.00    -0.153 C  
HETATM   14  C   UNL     1      -7.560   7.052  64.847  1.00  0.00    -0.106 C  
HETATM   15  O   UNL     1      -9.102   9.693  68.557  1.00  0.00    -0.130 OA 
HETATM   16  C   UNL     1      -8.255  10.664  66.284  1.00  0.00    -0.153 C  
HETATM   17  C   UNL     1      -6.853  11.358  66.796  1.00  0.00    -0.132 C  
HETATM   18  F   UNL     1      -8.622  11.540  65.226  1.00  0.00    -0.058 F  
HETATM   19  H   UNL     1      -8.840   8.902  68.101  1.00  0.00     0.000 HD 
HETATM   20  C   UNL     1      -5.787  11.320  65.685  1.00  0.00     0.243 C  
HETATM   21  C   UNL     1      -5.739   9.962  65.000  1.00  0.00    -0.091 C  
HETATM   22  C   UNL     1      -7.072   9.635  64.352  1.00  0.00    -0.118 C  
HETATM   23  C   UNL     1      -7.074   8.958  63.187  1.00  0.00    -0.089 C  
HETATM   24  C   UNL     1      -6.924   7.504  63.550  1.00  0.00    -0.060 C  
ENDROOT
BRANCH   4  25
HETATM   25  C   UNL     1      -8.419  12.252  70.431  1.00  0.00     5.325 C  
HETATM   26  O   UNL     1      -9.462  11.918  71.000  1.00  0.00     6.596 OA 
BRANCH  25  27
HETATM   27  C   UNL     1      -7.285  12.776  71.330  1.00  0.00     5.453 C  
HETATM   28  O   UNL     1      -7.462  14.158  71.628  1.00  0.00     1.826 OA 
HETATM   29  H   UNL     1      -6.762  14.482  72.182  1.00  0.00     0.000 HD 
ENDBRANCH  25  27
ENDBRANCH   4  25
TORSDOF 2
ENDMDL
MODEL      128
REMARK 921   NORMALIZED FREE ENERGY PREDICTED BY IDOCK:   38.54 KCAL/MOL
REMARK 922        TOTAL FREE ENERGY PREDICTED BY IDOCK:   43.79 KCAL/MOL
REMARK 923 INTER-LIGAND FREE ENERGY PREDICTED BY IDOCK:   43.19 KCAL/MOL
REMARK 924 INTRA-LIGAND FREE ENERGY PREDICTED BY IDOCK:    0.59 KCAL/MOL
REMARK 927      BINDING AFFINITY PREDICTED BY RF-SCORE:    0.00 PKD
ROOT
HETATM    1  C   UNL     1      -9.882  14.870  68.399  1.00  0.00    -0.216 C  
HETATM    2  C   UNL     1      -9.123  16.002  68.791  1.00  0.00    -0.222 C  
HETATM    3  C   UNL     1      -8.361  15.257  67.724  1.00  0.00    -0.161 C  
HETATM    4  C   UNL     1      -9.434  13.720  66.881  1.00  0.00    -0.265 C  
HETATM    5  C   UNL     1      -7.414  16.504  67.157  1.00  0.00    -0.217 C  
HETATM    6  C   UNL     1      -5.267  12.798  69.959  1.00  0.00    -0.092 C  
HETATM    7  C   UNL     1      -9.302  15.025  66.570  1.00  0.00    -0.309 C  
HETATM    8  C   UNL     1     -10.110  15.992  65.728  1.00  0.00    -0.393 C  
HETATM    9  C   UNL     1      -7.703  14.033  66.108  1.00  0.00     2.574 C  
HETATM   10  C   UNL     1      -6.764  12.299  70.148  1.00  0.00     0.497 C  
HETATM   11  C   UNL     1      -6.622  10.788  70.237  1.00  0.00    -0.100 C  
HETATM   12  O   UNL     1      -6.284  10.454  73.826  1.00  0.00     0.714 OA 
HETATM   13  C   UNL     1      -7.237  12.860  67.424  1.00  0.00    -0.126 C  
HETATM   14  C   UNL     1      -6.407  10.200  71.443  1.00  0.00     0.346 C  
HETATM   15  O   UNL     1      -7.763  11.571  67.038  1.00  0.00    -0.144 OA 
HETATM   16  C   UNL     1      -7.597  13.155  69.109  1.00  0.00     0.239 C  
HETATM   17  C   UNL     1      -9.198  13.461  69.341  1.00  0.00     1.017 C  
HETATM   18  F   UNL     1      -7.021  14.378  69.550  1.00  0.00    -0.130 F  
HETATM   19  H   UNL     1      -7.521  10.960  67.723  1.00  0.00     0.000 HD 
HETATM   20  C   UNL     1      -9.502  13.681  70.834  1.00  0.00     6.195 C  
HETATM   21  C   UNL     1      -8.809  12.644  71.707  1.00  0.00    19.247 C  
HETATM   22  C   UNL     1      -7.301  12.719  71.542  1.00  0.00     7.125 C  
HETATM   23  C   UNL     1      -6.522  12.488  72.616  1.00  0.00     4.851 C  
HETATM   24  C   UNL     1      -6.408  10.991  72.734  1.00  0.00     3.541 C  
ENDROOT
BRANCH   4  25
HETATM   25  C   UNL     1      -9.995  13.233  65.368  1.00  0.00    -0.189 C  
HETATM   26  O   UNL     1      -9.417  13.320  64.281  1.00  0.00     0.285 OA 
BRANCH  25  27
HETATM   27  C   UNL     1     -11.400  12.608  65.350  1.00  0.00    -0.313 C  
HETATM   28  O   UNL     1     -11.915  12.461  66.671  1.00  0.00    -0.562 OA 
HETATM   29  H   UNL     1     -12.782  12.075  66.659  1.00  0.00     0.000 HD 
ENDBRANCH  25  27
ENDBRANCH   4  25
TORSDOF 2
ENDMDL
MODEL      129
REMARK 921   NORMALIZED FREE ENERGY PREDICTED BY IDOCK:   43.23 KCAL/MOL
REMARK 922        TOTAL FREE ENERGY PREDICTED BY IDOCK:   49.03 KCAL/MOL
REMARK 923 INTER-LIGAND FREE ENERGY PREDICTED BY IDOCK:   47.40 KCAL/MOL
REMARK 924 INTRA-LIGAND FREE ENERGY PREDICTED BY IDOCK:    1.63 KCAL/MOL
REMARK 927      BINDING AFFINITY PREDICTED BY RF-SCORE:    0.00 PKD
ROOT
HETATM    1  C   UNL     1      -5.993  15.069  66.904  1.00  0.00     1.264 C  
HETATM    2  C   UNL     1      -5.252  14.103  67.630  1.00  0.00     0.094 C  
HETATM    3  C   UNL     1      -6.721  13.791  67.774  1.00  0.00    -0.180 C  
HETATM    4  C   UNL     1      -7.920  14.963  66.585  1.00  0.00     0.235 C  
HETATM    5  C   UNL     1      -6.614  12.167  68.130  1.00  0.00    -0.061 C  
HETATM    6  C   UNL     1      -7.912  15.466  71.822  1.00  0.00     5.193 C  
HETATM    7  C   UNL     1      -7.319  13.772  66.390  1.00  0.00     2.313 C  
HETATM    8  C   UNL     1      -6.968  12.960  65.160  1.00  0.00     8.040 C  
HETATM    9  C   UNL     1      -8.835  13.601  67.584  1.00  0.00    -0.194 C  
HETATM   10  C   UNL     1      -7.591  16.568  70.724  1.00  0.00     3.512 C  
HETATM   11  C   UNL     1      -8.571  17.684  71.049  1.00  0.00     7.177 C  
HETATM   12  O   UNL     1      -6.502  19.627  73.297  1.00  0.00     2.099 OA 
HETATM   13  C   UNL     1      -8.884  14.955  68.805  1.00  0.00    -0.183 C  
HETATM   14  C   UNL     1      -8.223  18.650  71.940  1.00  0.00     9.455 C  
HETATM   15  O   UNL     1      -9.804  15.944  68.293  1.00  0.00    -0.214 OA 
HETATM   16  C   UNL     1      -7.436  15.749  69.378  1.00  0.00    -0.216 C  
HETATM   17  C   UNL     1      -6.523  16.316  68.131  1.00  0.00    -0.133 C  
HETATM   18  F   UNL     1      -6.539  14.816  69.968  1.00  0.00    -0.140 F  
HETATM   19  H   UNL     1      -9.830  16.649  68.929  1.00  0.00     0.000 HD 
HETATM   20  C   UNL     1      -5.272  17.045  68.656  1.00  0.00    -0.132 C  
HETATM   21  C   UNL     1      -5.608  17.973  69.815  1.00  0.00    -0.230 C  
HETATM   22  C   UNL     1      -6.194  17.195  70.979  1.00  0.00     1.486 C  
HETATM   23  C   UNL     1      -5.896  17.587  72.233  1.00  0.00     2.004 C  
HETATM   24  C   UNL     1      -6.839  18.720  72.549  1.00  0.00     4.059 C  
ENDROOT
BRANCH   4  25
HETATM   25  C   UNL     1      -9.058  14.790  65.354  1.00  0.00     0.935 C  
HETATM   26  O   UNL     1      -8.996  14.060  64.361  1.00  0.00     2.437 OA 
BRANCH  25  27
HETATM   27  C   UNL     1     -10.323  15.655  65.491  1.00  0.00    -0.396 C  
HETATM   28  O   UNL     1     -11.033  15.728  64.258  1.00  0.00    -0.821 OA 
HETATM   29  H   UNL     1     -11.813  16.262  64.343  1.00  0.00     0.000 HD 
ENDBRANCH  25  27
ENDBRANCH   4  25
TORSDOF 2
ENDMDL
MODEL      130
REMARK 921   NORMALIZED FREE ENERGY PREDICTED BY IDOCK:   47.26 KCAL/MOL
REMARK 922        TOTAL FREE ENERGY PREDICTED BY IDOCK:   53.52 KCAL/MOL
REMARK 923 INTER-LIGAND FREE ENERGY PREDICTED BY IDOCK:   50.47 KCAL/MOL
REMARK 924 INTRA-LIGAND FREE ENERGY PREDICTED BY IDOCK:    3.05 KCAL/MOL
REMARK 927      BINDING AFFINITY PREDICTED BY RF-SCORE:    0.00 PKD
ROOT
HETATM    1  C   UNL     1     -11.757  14.423  71.233  1.00  0.00    -0.189 C  
HETATM    2  C   UNL     1     -10.501  13.773  71.141  1.00  0.00     3.847 C  
HETATM    3  C   UNL     1     -10.358  15.176  70.606  1.00  0.00     0.144 C  
HETATM    4  C   UNL     1     -12.037  16.328  70.889  1.00  0.00     0.008 C  
HETATM    5  C   UNL     1      -8.720  15.378  70.827  1.00  0.00     2.100 C  
HETATM    6  C   UNL     1     -10.556  14.763  66.089  1.00  0.00    -0.314 C  
HETATM    7  C   UNL     1     -10.934  16.115  71.635  1.00  0.00     0.397 C  
HETATM    8  C   UNL     1     -10.597  16.326  73.097  1.00  0.00     4.346 C  
HETATM    9  C   UNL     1     -10.537  17.241  70.108  1.00  0.00     0.552 C  
HETATM   10  C   UNL     1     -11.933  14.494  66.834  1.00  0.00    -0.371 C  
HETATM   11  C   UNL     1     -12.969  15.042  65.865  1.00  0.00     0.957 C  
HETATM   12  O   UNL     1     -13.644  12.024  63.982  1.00  0.00    -0.479 OA 
HETATM   13  C   UNL     1     -11.335  16.619  68.590  1.00  0.00    -0.155 C  
HETATM   14  C   UNL     1     -13.480  14.237  64.897  1.00  0.00     1.095 C  
HETATM   15  O   UNL     1     -12.557  17.371  68.425  1.00  0.00     1.851 OA 
HETATM   16  C   UNL     1     -11.658  14.920  68.334  1.00  0.00    -0.325 C  
HETATM   17  C   UNL     1     -12.520  14.273  69.579  1.00  0.00    -0.169 C  
HETATM   18  F   UNL     1     -10.462  14.154  68.405  1.00  0.00    -0.226 F  
HETATM   19  H   UNL     1     -12.973  17.048  67.634  1.00  0.00     0.000 HD 
HETATM   20  C   UNL     1     -12.827  12.787  69.317  1.00  0.00     1.125 C  
HETATM   21  C   UNL     1     -13.295  12.554  67.888  1.00  0.00     5.638 C  
HETATM   22  C   UNL     1     -12.227  12.971  66.893  1.00  0.00    -0.233 C  
HETATM   23  C   UNL     1     -12.083  12.255  65.762  1.00  0.00    -0.287 C  
HETATM   24  C   UNL     1     -13.133  12.766  64.809  1.00  0.00     0.066 C  
ENDROOT
BRANCH   4  25
HETATM   25  C   UNL     1     -12.487  17.766  71.644  1.00  0.00     8.123 C  
HETATM   26  O   UNL     1     -13.537  18.399  71.506  1.00  0.00    18.202 OA 
BRANCH  25  27
HETATM   27  C   UNL     1     -11.454  18.355  72.621  1.00  0.00     3.575 C  
HETATM   28  O   UNL     1     -10.644  19.337  71.981  1.00  0.00     1.192 OA 
HETATM   29  H   UNL     1     -10.006  19.701  72.583  1.00  0.00     0.000 HD 
ENDBRANCH  25  27
ENDBRANCH   4  25
TORSDOF 2
ENDMDL
MODEL      131
REMARK 921   NORMALIZED FREE ENERGY PREDICTED BY IDOCK:   50.55 KCAL/MOL
REMARK 922        TOTAL FREE ENERGY PREDICTED BY IDOCK:   57.20 KCAL/MOL
REMARK 923 INTER-LIGAND FREE ENERGY PREDICTED BY IDOCK:   56.39 KCAL/MOL
REMARK 924 INTRA-LIGAND FREE ENERGY PREDICTED BY IDOCK:    0.81 KCAL/MOL
REMARK 927      BINDING AFFINITY PREDICTED BY RF-SCORE:    0.00 PKD
ROOT
HETATM    1  C   UNL     1      -8.653  12.418  66.715  1.00  0.00    -0.129 C  
HETATM    2  C   UNL     1      -8.277  13.629  66.080  1.00  0.00     1.392 C  
HETATM    3  C   UNL     1      -7.034  12.950  66.599  1.00  0.00     1.076 C  
HETATM    4  C   UNL     1      -7.386  11.065  67.340  1.00  0.00    -0.105 C  
HETATM    5  C   UNL     1      -5.910  13.644  65.584  1.00  0.00     8.979 C  
HETATM    6  C   UNL     1      -6.058  15.055  70.501  1.00  0.00    -0.081 C  
HETATM    7  C   UNL     1      -7.059  11.523  66.114  1.00  0.00     0.245 C  
HETATM    8  C   UNL     1      -7.145  10.942  64.717  1.00  0.00     0.440 C  
HETATM    9  C   UNL     1      -5.542  11.608  67.318  1.00  0.00    -0.104 C  
HETATM   10  C   UNL     1      -7.360  14.145  70.554  1.00  0.00     1.123 C  
HETATM   11  C   UNL     1      -7.339  13.584  71.967  1.00  0.00     6.423 C  
HETATM   12  O   UNL     1      -9.313  16.128  73.622  1.00  0.00    11.659 OA 
HETATM   13  C   UNL     1      -6.023  12.239  68.960  1.00  0.00    -0.070 C  
HETATM   14  C   UNL     1      -7.934  14.274  72.976  1.00  0.00     7.903 C  
HETATM   15  O   UNL     1      -6.225  11.086  69.806  1.00  0.00    -0.082 OA 
HETATM   16  C   UNL     1      -7.346  13.361  69.178  1.00  0.00     0.098 C  
HETATM   17  C   UNL     1      -8.737  12.796  68.501  1.00  0.00    -0.045 C  
HETATM   18  F   UNL     1      -7.141  14.549  68.424  1.00  0.00    -0.092 F  
HETATM   19  H   UNL     1      -6.476  11.415  70.662  1.00  0.00     0.000 HD 
HETATM   20  C   UNL     1      -9.898  13.780  68.737  1.00  0.00    -0.093 C  
HETATM   21  C   UNL     1      -9.921  14.288  70.171  1.00  0.00     1.084 C  
HETATM   22  C   UNL     1      -8.637  15.024  70.506  1.00  0.00     1.431 C  
HETATM   23  C   UNL     1      -8.700  16.093  71.324  1.00  0.00     5.383 C  
HETATM   24  C   UNL     1      -8.719  15.544  72.727  1.00  0.00    10.282 C  
ENDROOT
BRANCH   4  25
HETATM   25  C   UNL     1      -6.895   9.475  67.071  1.00  0.00    -0.084 C  
HETATM   26  O   UNL     1      -5.863   9.083  66.520  1.00  0.00    -0.052 OA 
BRANCH  25  27
HETATM   27  C   UNL     1      -7.861   8.388  67.573  1.00  0.00    -0.099 C  
HETATM   28  O   UNL     1      -7.482   7.101  67.092  1.00  0.00    -0.093 OA 
HETATM   29  H   UNL     1      -8.079   6.430  67.402  1.00  0.00     0.000 HD 
ENDBRANCH  25  27
ENDBRANCH   4  25
TORSDOF 2
ENDMDL
