MODEL        1
REMARK 921   NORMALIZED FREE ENERGY PREDICTED BY IDOCK:   -6.36 KCAL/MOL
REMARK 922        TOTAL FREE ENERGY PREDICTED BY IDOCK:   -7.33 KCAL/MOL
REMARK 923 INTER-LIGAND FREE ENERGY PREDICTED BY IDOCK:   -7.11 KCAL/MOL
REMARK 924 INTRA-LIGAND FREE ENERGY PREDICTED BY IDOCK:   -0.22 KCAL/MOL
REMARK 927      BINDING AFFINITY PREDICTED BY RF-SCORE:    0.00 PKD
ROOT
HETATM    1  C   UNL     1     -10.775  15.924  66.907  1.00  0.00    -0.289 C  
HETATM    2  C   UNL     1     -10.619  16.040  65.504  1.00  0.00    -0.415 C  
HETATM    3  C   UNL     1      -9.400  15.769  66.316  1.00  0.00    -0.360 C  
HETATM    4  C   UNL     1      -9.758  15.163  68.249  1.00  0.00    -0.219 C  
HETATM    5  C   UNL     1     -10.043  20.064  67.609  1.00  0.00    -0.562 C  
HETATM    6  O   UNL     1      -8.970  14.389  69.177  1.00  0.00    -0.373 OA 
HETATM    7  C   UNL     1      -9.553  14.417  67.121  1.00  0.00    -0.251 C  
HETATM    8  C   UNL     1      -7.717  14.830  67.342  1.00  0.00    -0.230 C  
HETATM    9  C   UNL     1     -10.096  17.452  67.759  1.00  0.00    -0.323 C  
HETATM   10  C   UNL     1      -8.542  20.003  67.771  1.00  0.00    -0.347 C  
HETATM   11  H   UNL     1      -9.136  14.109  70.070  1.00  0.00     0.000 HD 
HETATM   12  C   UNL     1      -7.515  16.225  68.275  1.00  0.00    -0.157 C  
HETATM   13  C   UNL     1     -10.667  18.746  67.124  1.00  0.00    -0.469 C  
HETATM   14  C   UNL     1      -8.352  17.562  67.935  1.00  0.00    -0.229 C  
HETATM   15  C   UNL     1      -6.831  16.035  69.423  1.00  0.00    -0.215 C  
HETATM   16  C   UNL     1      -8.042  18.895  68.696  1.00  0.00    -0.382 C  
HETATM   17  C   UNL     1      -6.578  19.153  69.110  1.00  0.00    -0.336 C  
HETATM   18  C   UNL     1      -5.627  19.683  68.054  1.00  0.00    -0.215 C  
HETATM   19  C   UNL     1      -6.208  20.746  67.139  1.00  0.00    -0.323 C  
HETATM   20  C   UNL     1      -7.706  20.802  67.082  1.00  0.00    -0.316 C  
ENDROOT
BRANCH   4  21
HETATM   21  C   UNL     1     -11.123  14.796  68.886  1.00  0.00    -0.264 C  
HETATM   22  C   UNL     1     -12.119  14.443  69.460  1.00  0.00    -0.366 C  
ENDBRANCH   4  21
BRANCH   7  23
HETATM   23  C   UNL     1      -9.883  12.963  66.868  1.00  0.00    -0.235 C  
HETATM   24  C   UNL     1      -9.974  12.679  65.372  1.00  0.00    -0.230 C  
ENDBRANCH   7  23
TORSDOF 2
ENDMDL
MODEL        2
REMARK 921   NORMALIZED FREE ENERGY PREDICTED BY IDOCK:   -6.34 KCAL/MOL
REMARK 922        TOTAL FREE ENERGY PREDICTED BY IDOCK:   -7.30 KCAL/MOL
REMARK 923 INTER-LIGAND FREE ENERGY PREDICTED BY IDOCK:   -7.04 KCAL/MOL
REMARK 924 INTRA-LIGAND FREE ENERGY PREDICTED BY IDOCK:   -0.26 KCAL/MOL
REMARK 927      BINDING AFFINITY PREDICTED BY RF-SCORE:    0.00 PKD
ROOT
HETATM    1  C   UNL     1      -9.298  10.101  67.570  1.00  0.00    -0.168 C  
HETATM    2  C   UNL     1      -9.945   9.333  66.572  1.00  0.00    -0.344 C  
HETATM    3  C   UNL     1     -10.775  10.289  67.355  1.00  0.00    -0.339 C  
HETATM    4  C   UNL     1      -9.713  11.676  68.442  1.00  0.00    -0.199 C  
HETATM    5  C   UNL     1     -10.072   7.260  70.652  1.00  0.00    -0.198 C  
HETATM    6  O   UNL     1     -10.059  12.990  68.926  1.00  0.00    -0.424 OA 
HETATM    7  C   UNL     1     -10.238  11.767  67.182  1.00  0.00    -0.236 C  
HETATM    8  C   UNL     1     -11.908  12.025  68.042  1.00  0.00    -0.338 C  
HETATM    9  C   UNL     1      -9.757   9.463  69.273  1.00  0.00    -0.173 C  
HETATM   10  C   UNL     1     -11.410   7.788  71.113  1.00  0.00    -0.290 C  
HETATM   11  H   UNL     1      -9.568  13.631  69.427  1.00  0.00     0.000 HD 
HETATM   12  C   UNL     1     -11.883  11.410  69.617  1.00  0.00    -0.431 C  
HETATM   13  C   UNL     1      -9.552   7.929  69.368  1.00  0.00    -0.160 C  
HETATM   14  C   UNL     1     -11.331   9.921  69.903  1.00  0.00    -0.273 C  
HETATM   15  C   UNL     1     -12.102  12.331  70.580  1.00  0.00    -0.371 C  
HETATM   16  C   UNL     1     -11.461   9.298  71.333  1.00  0.00    -0.439 C  
HETATM   17  C   UNL     1     -12.703   9.684  72.165  1.00  0.00    -0.427 C  
HETATM   18  C   UNL     1     -14.004   8.962  71.871  1.00  0.00    -0.476 C  
HETATM   19  C   UNL     1     -13.870   7.473  71.612  1.00  0.00    -0.486 C  
HETATM   20  C   UNL     1     -12.498   7.003  71.230  1.00  0.00    -0.430 C  
ENDROOT
BRANCH   4  21
HETATM   21  C   UNL     1      -8.186  11.942  68.398  1.00  0.00    -0.160 C  
HETATM   22  C   UNL     1      -7.018  12.223  68.460  1.00  0.00    -0.092 C  
ENDBRANCH   4  21
BRANCH   7  23
HETATM   23  C   UNL     1      -9.901  12.742  66.077  1.00  0.00    -0.258 C  
HETATM   24  C   UNL     1     -10.536  12.310  64.760  1.00  0.00    -0.332 C  
ENDBRANCH   7  23
TORSDOF 2
ENDMDL
MODEL        3
REMARK 921   NORMALIZED FREE ENERGY PREDICTED BY IDOCK:   -6.33 KCAL/MOL
REMARK 922        TOTAL FREE ENERGY PREDICTED BY IDOCK:   -7.29 KCAL/MOL
REMARK 923 INTER-LIGAND FREE ENERGY PREDICTED BY IDOCK:   -7.09 KCAL/MOL
REMARK 924 INTRA-LIGAND FREE ENERGY PREDICTED BY IDOCK:   -0.20 KCAL/MOL
REMARK 927      BINDING AFFINITY PREDICTED BY RF-SCORE:    0.00 PKD
ROOT
HETATM    1  C   UNL     1      -9.159  17.379  68.806  1.00  0.00    -0.227 C  
HETATM    2  C   UNL     1      -8.021  16.684  69.283  1.00  0.00    -0.064 C  
HETATM    3  C   UNL     1      -8.464  16.410  67.889  1.00  0.00    -0.171 C  
HETATM    4  C   UNL     1      -9.809  17.765  67.121  1.00  0.00    -0.311 C  
HETATM    5  C   UNL     1     -11.877  14.331  70.027  1.00  0.00    -0.378 C  
HETATM    6  O   UNL     1     -10.122  18.149  65.765  1.00  0.00    -0.563 OA 
HETATM    7  C   UNL     1      -8.445  17.735  67.025  1.00  0.00    -0.245 C  
HETATM    8  C   UNL     1      -8.700  16.386  65.717  1.00  0.00     0.076 C  
HETATM    9  C   UNL     1     -10.629  16.219  68.710  1.00  0.00    -0.298 C  
HETATM   10  C   UNL     1     -11.858  13.496  68.768  1.00  0.00    -0.390 C  
HETATM   11  H   UNL     1     -10.742  18.775  65.411  1.00  0.00     0.000 HD 
HETATM   12  C   UNL     1     -10.208  15.643  65.895  1.00  0.00    -0.372 C  
HETATM   13  C   UNL     1     -10.821  15.449  70.043  1.00  0.00    -0.320 C  
HETATM   14  C   UNL     1     -10.694  15.119  67.342  1.00  0.00    -0.286 C  
HETATM   15  C   UNL     1     -11.023  15.771  64.827  1.00  0.00    -0.410 C  
HETATM   16  C   UNL     1     -12.015  14.289  67.472  1.00  0.00    -0.411 C  
HETATM   17  C   UNL     1     -12.382  13.351  66.302  1.00  0.00    -0.410 C  
HETATM   18  C   UNL     1     -11.691  12.002  66.234  1.00  0.00    -0.319 C  
HETATM   19  C   UNL     1     -11.525  11.295  67.566  1.00  0.00    -0.324 C  
HETATM   20  C   UNL     1     -11.628  12.170  68.781  1.00  0.00    -0.380 C  
ENDROOT
BRANCH   4  21
HETATM   21  C   UNL     1     -10.265  19.105  67.753  1.00  0.00    -0.492 C  
HETATM   22  C   UNL     1     -10.531  20.198  68.178  1.00  0.00    -0.375 C  
ENDBRANCH   4  21
BRANCH   7  23
HETATM   23  C   UNL     1      -7.491  18.848  66.655  1.00  0.00    -0.242 C  
HETATM   24  C   UNL     1      -6.057  18.478  67.021  1.00  0.00    -0.179 C  
ENDBRANCH   7  23
TORSDOF 2
ENDMDL
MODEL        4
REMARK 921   NORMALIZED FREE ENERGY PREDICTED BY IDOCK:   -6.24 KCAL/MOL
REMARK 922        TOTAL FREE ENERGY PREDICTED BY IDOCK:   -7.20 KCAL/MOL
REMARK 923 INTER-LIGAND FREE ENERGY PREDICTED BY IDOCK:   -7.05 KCAL/MOL
REMARK 924 INTRA-LIGAND FREE ENERGY PREDICTED BY IDOCK:   -0.15 KCAL/MOL
REMARK 927      BINDING AFFINITY PREDICTED BY RF-SCORE:    0.00 PKD
ROOT
HETATM    1  C   UNL     1      -9.897  12.928  67.240  1.00  0.00    -0.218 C  
HETATM    2  C   UNL     1      -8.605  13.174  67.763  1.00  0.00    -0.188 C  
HETATM    3  C   UNL     1      -9.525  12.322  68.565  1.00  0.00    -0.115 C  
HETATM    4  C   UNL     1     -11.180  11.636  67.554  1.00  0.00    -0.293 C  
HETATM    5  C   UNL     1     -11.641  16.275  69.220  1.00  0.00    -0.196 C  
HETATM    6  O   UNL     1     -12.025  10.484  67.759  1.00  0.00    -0.611 OA 
HETATM    7  C   UNL     1      -9.962  11.043  67.744  1.00  0.00    -0.194 C  
HETATM    8  C   UNL     1     -10.576  10.647  69.493  1.00  0.00    -0.265 C  
HETATM    9  C   UNL     1     -11.178  13.912  68.195  1.00  0.00    -0.293 C  
HETATM   10  C   UNL     1     -12.033  15.594  70.511  1.00  0.00    -0.417 C  
HETATM   11  H   UNL     1     -12.789  10.168  67.292  1.00  0.00     0.000 HD 
HETATM   12  C   UNL     1     -11.824  11.692  69.951  1.00  0.00    -0.434 C  
HETATM   13  C   UNL     1     -10.769  15.404  68.301  1.00  0.00    -0.260 C  
HETATM   14  C   UNL     1     -11.663  13.286  69.762  1.00  0.00    -0.354 C  
HETATM   15  C   UNL     1     -12.996  11.078  70.219  1.00  0.00    -0.067 C  
HETATM   16  C   UNL     1     -12.750  14.256  70.336  1.00  0.00    -0.355 C  
HETATM   17  C   UNL     1     -13.451  13.841  71.647  1.00  0.00    -0.409 C  
HETATM   18  C   UNL     1     -12.719  14.093  72.952  1.00  0.00    -0.347 C  
HETATM   19  C   UNL     1     -11.988  15.420  73.034  1.00  0.00    -0.557 C  
HETATM   20  C   UNL     1     -11.695  16.080  71.720  1.00  0.00    -0.593 C  
ENDROOT
BRANCH   4  21
HETATM   21  C   UNL     1     -11.478  11.758  66.038  1.00  0.00    -0.281 C  
HETATM   22  C   UNL     1     -11.723  11.974  64.881  1.00  0.00    -0.321 C  
ENDBRANCH   4  21
BRANCH   7  23
HETATM   23  C   UNL     1      -9.332   9.897  66.984  1.00  0.00    -0.175 C  
HETATM   24  C   UNL     1      -7.824   9.860  67.213  1.00  0.00    -0.102 C  
ENDBRANCH   7  23
TORSDOF 2
ENDMDL
MODEL        5
REMARK 921   NORMALIZED FREE ENERGY PREDICTED BY IDOCK:   -6.21 KCAL/MOL
REMARK 922        TOTAL FREE ENERGY PREDICTED BY IDOCK:   -7.16 KCAL/MOL
REMARK 923 INTER-LIGAND FREE ENERGY PREDICTED BY IDOCK:   -6.92 KCAL/MOL
REMARK 924 INTRA-LIGAND FREE ENERGY PREDICTED BY IDOCK:   -0.24 KCAL/MOL
REMARK 927      BINDING AFFINITY PREDICTED BY RF-SCORE:    0.00 PKD
ROOT
HETATM    1  C   UNL     1      -9.218  10.431  67.418  1.00  0.00    -0.154 C  
HETATM    2  C   UNL     1      -9.839   9.644  66.419  1.00  0.00    -0.309 C  
HETATM    3  C   UNL     1     -10.704  10.555  67.218  1.00  0.00    -0.333 C  
HETATM    4  C   UNL     1      -9.695  11.978  68.309  1.00  0.00    -0.205 C  
HETATM    5  C   UNL     1      -9.837   7.531  70.480  1.00  0.00    -0.183 C  
HETATM    6  O   UNL     1     -10.095  13.272  68.808  1.00  0.00    -0.379 OA 
HETATM    7  C   UNL     1     -10.235  12.057  67.055  1.00  0.00    -0.224 C  
HETATM    8  C   UNL     1     -11.907  12.233  67.931  1.00  0.00    -0.358 C  
HETATM    9  C   UNL     1      -9.633   9.758  69.120  1.00  0.00    -0.192 C  
HETATM   10  C   UNL     1     -11.194   7.995  70.958  1.00  0.00    -0.287 C  
HETATM   11  H   UNL     1      -9.629  13.929  69.311  1.00  0.00     0.000 HD 
HETATM   12  C   UNL     1     -11.841  11.606  69.500  1.00  0.00    -0.414 C  
HETATM   13  C   UNL     1      -9.360   8.234  69.198  1.00  0.00    -0.151 C  
HETATM   14  C   UNL     1     -11.220  10.140  69.767  1.00  0.00    -0.325 C  
HETATM   15  C   UNL     1     -12.092  12.507  70.473  1.00  0.00    -0.361 C  
HETATM   16  C   UNL     1     -11.310   9.499  71.193  1.00  0.00    -0.440 C  
HETATM   17  C   UNL     1     -12.560   9.822  72.039  1.00  0.00    -0.432 C  
HETATM   18  C   UNL     1     -13.831   9.045  71.749  1.00  0.00    -0.453 C  
HETATM   19  C   UNL     1     -13.632   7.566  71.475  1.00  0.00    -0.439 C  
HETATM   20  C   UNL     1     -12.244   7.161  71.077  1.00  0.00    -0.384 C  
ENDROOT
BRANCH   4  21
HETATM   21  C   UNL     1      -8.182  12.313  68.254  1.00  0.00    -0.167 C  
HETATM   22  C   UNL     1      -7.013  12.584  68.334  1.00  0.00    -0.096 C  
ENDBRANCH   4  21
BRANCH   7  23
HETATM   23  C   UNL     1      -9.951  13.057  65.956  1.00  0.00    -0.277 C  
HETATM   24  C   UNL     1     -10.578  12.608  64.640  1.00  0.00    -0.357 C  
ENDBRANCH   7  23
TORSDOF 2
ENDMDL
MODEL        6
REMARK 921   NORMALIZED FREE ENERGY PREDICTED BY IDOCK:   -6.20 KCAL/MOL
REMARK 922        TOTAL FREE ENERGY PREDICTED BY IDOCK:   -7.15 KCAL/MOL
REMARK 923 INTER-LIGAND FREE ENERGY PREDICTED BY IDOCK:   -6.89 KCAL/MOL
REMARK 924 INTRA-LIGAND FREE ENERGY PREDICTED BY IDOCK:   -0.26 KCAL/MOL
REMARK 927      BINDING AFFINITY PREDICTED BY RF-SCORE:    0.00 PKD
ROOT
HETATM    1  C   UNL     1      -9.216   9.491  67.793  1.00  0.00    -0.136 C  
HETATM    2  C   UNL     1      -9.843   8.682  66.815  1.00  0.00    -0.322 C  
HETATM    3  C   UNL     1     -10.665   9.736  67.471  1.00  0.00    -0.327 C  
HETATM    4  C   UNL     1      -9.596  11.147  68.518  1.00  0.00    -0.193 C  
HETATM    5  C   UNL     1     -10.329   6.937  71.019  1.00  0.00    -0.224 C  
HETATM    6  O   UNL     1      -9.898  12.511  68.882  1.00  0.00    -0.419 OA 
HETATM    7  C   UNL     1     -10.039  11.168  67.225  1.00  0.00    -0.218 C  
HETATM    8  C   UNL     1     -11.741  11.574  67.954  1.00  0.00    -0.317 C  
HETATM    9  C   UNL     1      -9.811   9.010  69.506  1.00  0.00    -0.181 C  
HETATM   10  C   UNL     1     -11.662   7.565  71.353  1.00  0.00    -0.310 C  
HETATM   11  H   UNL     1      -9.404  13.162  69.365  1.00  0.00     0.000 HD 
HETATM   12  C   UNL     1     -11.845  11.082  69.568  1.00  0.00    -0.404 C  
HETATM   13  C   UNL     1      -9.698   7.479  69.726  1.00  0.00    -0.171 C  
HETATM   14  C   UNL     1     -11.393   9.593  69.998  1.00  0.00    -0.239 C  
HETATM   15  C   UNL     1     -12.071  12.083  70.445  1.00  0.00    -0.407 C  
HETATM   16  C   UNL     1     -11.643   9.089  71.459  1.00  0.00    -0.413 C  
HETATM   17  C   UNL     1     -12.910   9.599  72.179  1.00  0.00    -0.460 C  
HETATM   18  C   UNL     1     -14.229   8.923  71.855  1.00  0.00    -0.421 C  
HETATM   19  C   UNL     1     -14.161   7.413  71.715  1.00  0.00    -0.544 C  
HETATM   20  C   UNL     1     -12.796   6.847  71.458  1.00  0.00    -0.384 C  
ENDROOT
BRANCH   4  21
HETATM   21  C   UNL     1      -8.057  11.332  68.553  1.00  0.00    -0.148 C  
HETATM   22  C   UNL     1      -6.882  11.561  68.666  1.00  0.00    -0.077 C  
ENDBRANCH   4  21
BRANCH   7  23
HETATM   23  C   UNL     1      -9.583  12.037  66.075  1.00  0.00    -0.247 C  
HETATM   24  C   UNL     1     -10.176  11.550  64.757  1.00  0.00    -0.331 C  
ENDBRANCH   7  23
TORSDOF 2
ENDMDL
MODEL        7
REMARK 921   NORMALIZED FREE ENERGY PREDICTED BY IDOCK:   -6.18 KCAL/MOL
REMARK 922        TOTAL FREE ENERGY PREDICTED BY IDOCK:   -7.13 KCAL/MOL
REMARK 923 INTER-LIGAND FREE ENERGY PREDICTED BY IDOCK:   -6.91 KCAL/MOL
REMARK 924 INTRA-LIGAND FREE ENERGY PREDICTED BY IDOCK:   -0.21 KCAL/MOL
REMARK 927      BINDING AFFINITY PREDICTED BY RF-SCORE:    0.00 PKD
ROOT
HETATM    1  C   UNL     1      -9.043   8.742  66.448  1.00  0.00    -0.221 C  
HETATM    2  C   UNL     1      -7.711   9.206  66.328  1.00  0.00    -0.096 C  
HETATM    3  C   UNL     1      -8.564   9.820  67.382  1.00  0.00    -0.128 C  
HETATM    4  C   UNL     1     -10.300   8.798  67.800  1.00  0.00    -0.237 C  
HETATM    5  C   UNL     1     -10.604  11.688  63.792  1.00  0.00    -0.473 C  
HETATM    6  O   UNL     1     -11.130   8.752  68.980  1.00  0.00    -0.437 OA 
HETATM    7  C   UNL     1      -9.073   8.721  68.400  1.00  0.00    -0.141 C  
HETATM    8  C   UNL     1      -9.542  10.342  69.264  1.00  0.00    -0.239 C  
HETATM    9  C   UNL     1     -10.236  10.028  65.782  1.00  0.00    -0.270 C  
HETATM   10  C   UNL     1     -10.890  12.773  64.803  1.00  0.00    -0.335 C  
HETATM   11  H   UNL     1     -11.931   8.279  69.173  1.00  0.00     0.000 HD 
HETATM   12  C   UNL     1     -10.743  11.165  68.405  1.00  0.00    -0.234 C  
HETATM   13  C   UNL     1      -9.814  10.500  64.366  1.00  0.00    -0.405 C  
HETATM   14  C   UNL     1     -10.593  11.402  66.816  1.00  0.00    -0.298 C  
HETATM   15  C   UNL     1     -11.892  11.351  69.090  1.00  0.00    -0.413 C  
HETATM   16  C   UNL     1     -11.624  12.302  66.057  1.00  0.00    -0.451 C  
HETATM   17  C   UNL     1     -12.216  13.504  66.824  1.00  0.00    -0.392 C  
HETATM   18  C   UNL     1     -11.378  14.765  66.920  1.00  0.00    -0.358 C  
HETATM   19  C   UNL     1     -10.637  15.143  65.650  1.00  0.00    -0.370 C  
HETATM   20  C   UNL     1     -10.451  14.037  64.654  1.00  0.00    -0.398 C  
ENDROOT
BRANCH   4  21
HETATM   21  C   UNL     1     -10.723   7.401  67.279  1.00  0.00    -0.379 C  
HETATM   22  C   UNL     1     -11.019   6.273  66.984  1.00  0.00    -0.442 C  
ENDBRANCH   4  21
BRANCH   7  23
HETATM   23  C   UNL     1      -8.512   7.632  69.286  1.00  0.00    -0.138 C  
HETATM   24  C   UNL     1      -7.019   7.838  69.520  1.00  0.00    -0.058 C  
ENDBRANCH   7  23
TORSDOF 2
ENDMDL
MODEL        8
REMARK 921   NORMALIZED FREE ENERGY PREDICTED BY IDOCK:   -6.02 KCAL/MOL
REMARK 922        TOTAL FREE ENERGY PREDICTED BY IDOCK:   -6.94 KCAL/MOL
REMARK 923 INTER-LIGAND FREE ENERGY PREDICTED BY IDOCK:   -6.68 KCAL/MOL
REMARK 924 INTRA-LIGAND FREE ENERGY PREDICTED BY IDOCK:   -0.26 KCAL/MOL
REMARK 927      BINDING AFFINITY PREDICTED BY RF-SCORE:    0.00 PKD
ROOT
HETATM    1  C   UNL     1      -8.938  14.476  68.829  1.00  0.00    -0.157 C  
HETATM    2  C   UNL     1      -7.560  14.182  68.684  1.00  0.00    -0.126 C  
HETATM    3  C   UNL     1      -8.275  14.740  67.504  1.00  0.00    -0.201 C  
HETATM    4  C   UNL     1     -10.117  15.562  67.911  1.00  0.00    -0.224 C  
HETATM    5  C   UNL     1     -10.184  10.630  67.477  1.00  0.00    -0.236 C  
HETATM    6  O   UNL     1     -10.895  16.567  67.228  1.00  0.00    -0.280 OA 
HETATM    7  C   UNL     1      -8.889  16.158  67.841  1.00  0.00    -0.182 C  
HETATM    8  C   UNL     1      -9.091  16.051  65.959  1.00  0.00    -0.361 C  
HETATM    9  C   UNL     1      -9.968  13.202  67.914  1.00  0.00    -0.233 C  
HETATM   10  C   UNL     1     -10.275  10.930  65.999  1.00  0.00    -0.311 C  
HETATM   11  H   UNL     1     -11.746  16.946  67.416  1.00  0.00     0.000 HD 
HETATM   12  C   UNL     1     -10.201  14.849  65.534  1.00  0.00    -0.401 C  
HETATM   13  C   UNL     1      -9.544  11.761  68.299  1.00  0.00    -0.199 C  
HETATM   14  C   UNL     1     -10.086  13.370  66.170  1.00  0.00    -0.304 C  
HETATM   15  C   UNL     1     -11.283  15.300  64.864  1.00  0.00    -0.422 C  
HETATM   16  C   UNL     1     -11.014  12.220  65.651  1.00  0.00    -0.338 C  
HETATM   17  C   UNL     1     -11.400  12.239  64.157  1.00  0.00    -0.442 C  
HETATM   18  C   UNL     1     -10.392  11.704  63.158  1.00  0.00    -0.383 C  
HETATM   19  C   UNL     1      -9.659  10.448  63.593  1.00  0.00    -0.364 C  
HETATM   20  C   UNL     1      -9.671  10.169  65.067  1.00  0.00    -0.384 C  
ENDROOT
BRANCH   4  21
HETATM   21  C   UNL     1     -10.751  15.817  69.302  1.00  0.00    -0.246 C  
HETATM   22  C   UNL     1     -11.324  16.086  70.324  1.00  0.00    -0.391 C  
ENDBRANCH   4  21
BRANCH   7  23
HETATM   23  C   UNL     1      -8.448  17.498  68.388  1.00  0.00    -0.275 C  
HETATM   24  C   UNL     1      -6.931  17.640  68.315  1.00  0.00    -0.220 C  
ENDBRANCH   7  23
TORSDOF 2
ENDMDL
MODEL        9
REMARK 921   NORMALIZED FREE ENERGY PREDICTED BY IDOCK:   -5.88 KCAL/MOL
REMARK 922        TOTAL FREE ENERGY PREDICTED BY IDOCK:   -6.79 KCAL/MOL
REMARK 923 INTER-LIGAND FREE ENERGY PREDICTED BY IDOCK:   -6.53 KCAL/MOL
REMARK 924 INTRA-LIGAND FREE ENERGY PREDICTED BY IDOCK:   -0.25 KCAL/MOL
REMARK 927      BINDING AFFINITY PREDICTED BY RF-SCORE:    0.00 PKD
ROOT
HETATM    1  C   UNL     1     -11.251  13.929  68.162  1.00  0.00    -0.293 C  
HETATM    2  C   UNL     1     -10.554  14.623  69.180  1.00  0.00    -0.247 C  
HETATM    3  C   UNL     1      -9.800  13.606  68.398  1.00  0.00    -0.223 C  
HETATM    4  C   UNL     1     -10.721  12.981  66.667  1.00  0.00    -0.274 C  
HETATM    5  C   UNL     1     -12.416  10.745  70.746  1.00  0.00    -0.481 C  
HETATM    6  O   UNL     1     -10.196  12.419  65.446  1.00  0.00    -0.271 OA 
HETATM    7  C   UNL     1      -9.798  13.972  66.859  1.00  0.00    -0.267 C  
HETATM    8  C   UNL     1      -8.518  12.577  66.960  1.00  0.00    -0.161 C  
HETATM    9  C   UNL     1     -11.599  12.167  68.706  1.00  0.00    -0.380 C  
HETATM   10  C   UNL     1     -11.221   9.843  70.545  1.00  0.00    -0.399 C  
HETATM   11  H   UNL     1     -10.621  12.131  64.647  1.00  0.00     0.000 HD 
HETATM   12  C   UNL     1      -9.250  11.108  67.367  1.00  0.00    -0.157 C  
HETATM   13  C   UNL     1     -12.255  12.136  70.111  1.00  0.00    -0.308 C  
HETATM   14  C   UNL     1     -10.269  11.023  68.615  1.00  0.00    -0.211 C  
HETATM   15  C   UNL     1      -9.114  10.140  66.437  1.00  0.00    -0.176 C  
HETATM   16  C   UNL     1     -10.815   9.634  69.087  1.00  0.00    -0.212 C  
HETATM   17  C   UNL     1      -9.872   8.418  68.955  1.00  0.00    -0.184 C  
HETATM   18  C   UNL     1      -8.814   8.224  70.025  1.00  0.00    -0.134 C  
HETATM   19  C   UNL     1      -9.276   8.499  71.444  1.00  0.00    -0.272 C  
HETATM   20  C   UNL     1     -10.511   9.339  71.572  1.00  0.00    -0.385 C  
ENDROOT
BRANCH   4  21
HETATM   21  C   UNL     1     -11.998  13.568  66.012  1.00  0.00    -0.449 C  
HETATM   22  C   UNL     1     -12.992  13.922  65.435  1.00  0.00    -0.368 C  
ENDBRANCH   4  21
BRANCH   7  23
HETATM   23  C   UNL     1      -9.446  15.134  65.958  1.00  0.00    -0.358 C  
HETATM   24  C   UNL     1      -8.480  16.088  66.655  1.00  0.00    -0.323 C  
ENDBRANCH   7  23
TORSDOF 2
ENDMDL
MODEL       10
REMARK 921   NORMALIZED FREE ENERGY PREDICTED BY IDOCK:   -5.86 KCAL/MOL
REMARK 922        TOTAL FREE ENERGY PREDICTED BY IDOCK:   -6.76 KCAL/MOL
REMARK 923 INTER-LIGAND FREE ENERGY PREDICTED BY IDOCK:   -6.51 KCAL/MOL
REMARK 924 INTRA-LIGAND FREE ENERGY PREDICTED BY IDOCK:   -0.25 KCAL/MOL
REMARK 927      BINDING AFFINITY PREDICTED BY RF-SCORE:    0.00 PKD
ROOT
HETATM    1  C   UNL     1      -9.474  14.155  68.452  1.00  0.00    -0.214 C  
HETATM    2  C   UNL     1      -8.238  14.785  68.170  1.00  0.00    -0.142 C  
HETATM    3  C   UNL     1      -9.270  14.775  67.097  1.00  0.00    -0.233 C  
HETATM    4  C   UNL     1     -11.165  14.268  67.716  1.00  0.00    -0.291 C  
HETATM    5  C   UNL     1      -8.208  10.371  66.954  1.00  0.00    -0.124 C  
HETATM    6  O   UNL     1     -12.468  14.569  67.174  1.00  0.00    -0.567 OA 
HETATM    7  C   UNL     1     -10.588  15.501  67.581  1.00  0.00    -0.291 C  
HETATM    8  C   UNL     1     -10.886  15.290  65.721  1.00  0.00    -0.363 C  
HETATM    9  C   UNL     1      -9.586  12.517  67.545  1.00  0.00    -0.187 C  
HETATM   10  C   UNL     1      -8.627  10.548  65.513  1.00  0.00    -0.187 C  
HETATM   11  H   UNL     1     -13.343  14.335  67.460  1.00  0.00     0.000 HD 
HETATM   12  C   UNL     1     -11.051  13.658  65.313  1.00  0.00    -0.307 C  
HETATM   13  C   UNL     1      -8.321  11.655  67.793  1.00  0.00    -0.143 C  
HETATM   14  C   UNL     1      -9.975  12.574  65.834  1.00  0.00    -0.269 C  
HETATM   15  C   UNL     1     -12.244  13.335  64.771  1.00  0.00    -0.466 C  
HETATM   16  C   UNL     1     -10.040  11.096  65.320  1.00  0.00    -0.329 C  
HETATM   17  C   UNL     1     -10.516  10.869  63.869  1.00  0.00    -0.359 C  
HETATM   18  C   UNL     1      -9.511  11.079  62.753  1.00  0.00    -0.361 C  
HETATM   19  C   UNL     1      -8.116  10.554  63.036  1.00  0.00    -0.118 C  
HETATM   20  C   UNL     1      -7.789  10.329  64.482  1.00  0.00    -0.116 C  
ENDROOT
BRANCH   4  21
HETATM   21  C   UNL     1     -11.662  14.073  69.172  1.00  0.00    -0.375 C  
HETATM   22  C   UNL     1     -12.161  13.937  70.257  1.00  0.00    -0.428 C  
ENDBRANCH   4  21
BRANCH   7  23
HETATM   23  C   UNL     1     -11.016  16.823  68.178  1.00  0.00    -0.309 C  
HETATM   24  C   UNL     1      -9.891  17.849  68.085  1.00  0.00    -0.334 C  
ENDBRANCH   7  23
TORSDOF 2
ENDMDL
MODEL       11
REMARK 921   NORMALIZED FREE ENERGY PREDICTED BY IDOCK:   -5.74 KCAL/MOL
REMARK 922        TOTAL FREE ENERGY PREDICTED BY IDOCK:   -6.63 KCAL/MOL
REMARK 923 INTER-LIGAND FREE ENERGY PREDICTED BY IDOCK:   -6.39 KCAL/MOL
REMARK 924 INTRA-LIGAND FREE ENERGY PREDICTED BY IDOCK:   -0.25 KCAL/MOL
REMARK 927      BINDING AFFINITY PREDICTED BY RF-SCORE:    0.00 PKD
ROOT
HETATM    1  C   UNL     1     -10.213  10.453  69.578  1.00  0.00    -0.258 C  
HETATM    2  C   UNL     1     -11.583  10.360  69.921  1.00  0.00    -0.358 C  
HETATM    3  C   UNL     1     -11.145   9.729  68.646  1.00  0.00    -0.140 C  
HETATM    4  C   UNL     1      -9.111   9.501  68.441  1.00  0.00    -0.127 C  
HETATM    5  C   UNL     1     -10.728  14.053  67.355  1.00  0.00    -0.285 C  
HETATM    6  O   UNL     1      -8.318   8.583  67.659  1.00  0.00    -0.126 OA 
HETATM    7  C   UNL     1     -10.047   8.624  68.916  1.00  0.00    -0.213 C  
HETATM    8  C   UNL     1     -10.499   8.329  67.099  1.00  0.00    -0.386 C  
HETATM    9  C   UNL     1      -9.980  11.685  68.182  1.00  0.00    -0.198 C  
HETATM   10  C   UNL     1     -11.025  13.443  66.005  1.00  0.00    -0.281 C  
HETATM   11  H   UNL     1      -7.379   8.478  67.565  1.00  0.00     0.000 HD 
HETATM   12  C   UNL     1     -10.016   9.629  66.133  1.00  0.00    -0.346 C  
HETATM   13  C   UNL     1     -10.686  13.029  68.501  1.00  0.00    -0.275 C  
HETATM   14  C   UNL     1     -10.377  11.142  66.560  1.00  0.00    -0.290 C  
HETATM   15  C   UNL     1      -9.121   9.309  65.174  1.00  0.00    -0.263 C  
HETATM   16  C   UNL     1     -10.071  12.327  65.583  1.00  0.00    -0.275 C  
HETATM   17  C   UNL     1     -10.196  12.049  64.070  1.00  0.00    -0.391 C  
HETATM   18  C   UNL     1     -11.584  12.070  63.458  1.00  0.00    -0.553 C  
HETATM   19  C   UNL     1     -12.493  13.176  63.962  1.00  0.00    -0.346 C  
HETATM   20  C   UNL     1     -12.100  13.791  65.273  1.00  0.00    -0.425 C  
ENDROOT
BRANCH   4  21
HETATM   21  C   UNL     1      -8.020   9.745  69.515  1.00  0.00    -0.137 C  
HETATM   22  C   UNL     1      -7.110   9.847  70.294  1.00  0.00    -0.155 C  
ENDBRANCH   4  21
BRANCH   7  23
HETATM   23  C   UNL     1      -9.849   7.387  69.763  1.00  0.00    -0.171 C  
HETATM   24  C   UNL     1     -11.191   6.765  70.137  1.00  0.00    -0.387 C  
ENDBRANCH   7  23
TORSDOF 2
ENDMDL
MODEL       12
REMARK 921   NORMALIZED FREE ENERGY PREDICTED BY IDOCK:   -5.66 KCAL/MOL
REMARK 922        TOTAL FREE ENERGY PREDICTED BY IDOCK:   -6.54 KCAL/MOL
REMARK 923 INTER-LIGAND FREE ENERGY PREDICTED BY IDOCK:   -6.36 KCAL/MOL
REMARK 924 INTRA-LIGAND FREE ENERGY PREDICTED BY IDOCK:   -0.19 KCAL/MOL
REMARK 927      BINDING AFFINITY PREDICTED BY RF-SCORE:    0.00 PKD
ROOT
HETATM    1  C   UNL     1     -11.441  13.557  68.084  1.00  0.00    -0.338 C  
HETATM    2  C   UNL     1     -11.109  14.369  69.196  1.00  0.00    -0.290 C  
HETATM    3  C   UNL     1     -10.013  13.592  68.554  1.00  0.00    -0.208 C  
HETATM    4  C   UNL     1     -10.463  12.817  66.703  1.00  0.00    -0.257 C  
HETATM    5  C   UNL     1     -12.180  10.105  70.473  1.00  0.00    -0.352 C  
HETATM    6  O   UNL     1      -9.629  12.438  65.588  1.00  0.00    -0.370 OA 
HETATM    7  C   UNL     1      -9.856  13.997  67.034  1.00  0.00    -0.260 C  
HETATM    8  C   UNL     1      -8.304  12.955  67.352  1.00  0.00    -0.190 C  
HETATM    9  C   UNL     1     -11.426  11.748  68.580  1.00  0.00    -0.353 C  
HETATM   10  C   UNL     1     -10.783   9.530  70.476  1.00  0.00    -0.359 C  
HETATM   11  H   UNL     1      -9.837  12.081  64.733  1.00  0.00     0.000 HD 
HETATM   12  C   UNL     1      -8.706  11.340  67.648  1.00  0.00    -0.131 C  
HETATM   13  C   UNL     1     -12.269  11.512  69.860  1.00  0.00    -0.328 C  
HETATM   14  C   UNL     1      -9.858  10.968  68.715  1.00  0.00    -0.206 C  
HETATM   15  C   UNL     1      -8.189  10.464  66.760  1.00  0.00    -0.126 C  
HETATM   16  C   UNL     1     -10.112   9.473  69.105  1.00  0.00    -0.200 C  
HETATM   17  C   UNL     1      -8.890   8.530  69.137  1.00  0.00    -0.142 C  
HETATM   18  C   UNL     1      -8.000   8.567  70.366  1.00  0.00    -0.099 C  
HETATM   19  C   UNL     1      -8.735   8.675  71.689  1.00  0.00    -0.270 C  
HETATM   20  C   UNL     1     -10.144   9.182  71.608  1.00  0.00    -0.346 C  
ENDROOT
BRANCH   4  21
HETATM   21  C   UNL     1     -11.724  13.093  65.845  1.00  0.00    -0.427 C  
HETATM   22  C   UNL     1     -12.640  13.262  65.085  1.00  0.00    -0.512 C  
ENDBRANCH   4  21
BRANCH   7  23
HETATM   23  C   UNL     1      -9.664  15.238  66.191  1.00  0.00    -0.343 C  
HETATM   24  C   UNL     1      -9.549  16.478  67.072  1.00  0.00    -0.249 C  
ENDBRANCH   7  23
TORSDOF 2
ENDMDL
MODEL       13
REMARK 921   NORMALIZED FREE ENERGY PREDICTED BY IDOCK:   -5.59 KCAL/MOL
REMARK 922        TOTAL FREE ENERGY PREDICTED BY IDOCK:   -6.47 KCAL/MOL
REMARK 923 INTER-LIGAND FREE ENERGY PREDICTED BY IDOCK:   -6.24 KCAL/MOL
REMARK 924 INTRA-LIGAND FREE ENERGY PREDICTED BY IDOCK:   -0.22 KCAL/MOL
REMARK 927      BINDING AFFINITY PREDICTED BY RF-SCORE:    0.00 PKD
ROOT
HETATM    1  C   UNL     1      -8.746  10.897  67.328  1.00  0.00    -0.131 C  
HETATM    2  C   UNL     1      -9.178  10.038  66.288  1.00  0.00    -0.199 C  
HETATM    3  C   UNL     1     -10.222  10.696  67.120  1.00  0.00    -0.261 C  
HETATM    4  C   UNL     1      -9.555  12.256  68.283  1.00  0.00    -0.212 C  
HETATM    5  C   UNL     1      -8.696   7.794  70.249  1.00  0.00    -0.143 C  
HETATM    6  O   UNL     1     -10.233  13.403  68.838  1.00  0.00    -0.397 OA 
HETATM    7  C   UNL     1     -10.102  12.270  67.030  1.00  0.00    -0.225 C  
HETATM    8  C   UNL     1     -11.769  12.027  67.899  1.00  0.00    -0.393 C  
HETATM    9  C   UNL     1      -8.997  10.071  68.993  1.00  0.00    -0.163 C  
HETATM   10  C   UNL     1     -10.121   7.920  70.735  1.00  0.00    -0.201 C  
HETATM   11  H   UNL     1      -9.924  14.123  69.374  1.00  0.00     0.000 HD 
HETATM   12  C   UNL     1     -11.561  11.359  69.438  1.00  0.00    -0.391 C  
HETATM   13  C   UNL     1      -8.390   8.644  69.004  1.00  0.00    -0.119 C  
HETATM   14  C   UNL     1     -10.628  10.058  69.643  1.00  0.00    -0.278 C  
HETATM   15  C   UNL     1     -12.006  12.135  70.449  1.00  0.00    -0.360 C  
HETATM   16  C   UNL     1     -10.570   9.348  71.038  1.00  0.00    -0.400 C  
HETATM   17  C   UNL     1     -11.859   9.344  71.887  1.00  0.00    -0.402 C  
HETATM   18  C   UNL     1     -12.924   8.317  71.551  1.00  0.00    -0.310 C  
HETATM   19  C   UNL     1     -12.401   6.934  71.212  1.00  0.00    -0.422 C  
HETATM   20  C   UNL     1     -10.958   6.868  70.808  1.00  0.00    -0.297 C  
ENDROOT
BRANCH   4  21
HETATM   21  C   UNL     1      -8.155  12.921  68.257  1.00  0.00    -0.151 C  
HETATM   22  C   UNL     1      -7.059  13.406  68.354  1.00  0.00    -0.108 C  
ENDBRANCH   4  21
BRANCH   7  23
HETATM   23  C   UNL     1     -10.050  13.357  65.980  1.00  0.00    -0.308 C  
HETATM   24  C   UNL     1     -10.662  12.874  64.668  1.00  0.00    -0.373 C  
ENDBRANCH   7  23
TORSDOF 2
ENDMDL
MODEL       14
REMARK 921   NORMALIZED FREE ENERGY PREDICTED BY IDOCK:   -5.58 KCAL/MOL
REMARK 922        TOTAL FREE ENERGY PREDICTED BY IDOCK:   -6.46 KCAL/MOL
REMARK 923 INTER-LIGAND FREE ENERGY PREDICTED BY IDOCK:   -6.22 KCAL/MOL
REMARK 924 INTRA-LIGAND FREE ENERGY PREDICTED BY IDOCK:   -0.23 KCAL/MOL
REMARK 927      BINDING AFFINITY PREDICTED BY RF-SCORE:    0.00 PKD
ROOT
HETATM    1  C   UNL     1      -8.495  18.255  66.723  1.00  0.00    -0.272 C  
HETATM    2  C   UNL     1      -9.421  18.744  67.676  1.00  0.00    -0.330 C  
HETATM    3  C   UNL     1      -8.602  17.559  68.052  1.00  0.00    -0.250 C  
HETATM    4  C   UNL     1      -6.986  17.195  66.833  1.00  0.00    -0.212 C  
HETATM    5  C   UNL     1     -11.273  15.506  65.021  1.00  0.00    -0.364 C  
HETATM    6  O   UNL     1      -5.738  16.508  67.066  1.00  0.00    -0.231 OA 
HETATM    7  C   UNL     1      -7.060  17.905  67.999  1.00  0.00    -0.215 C  
HETATM    8  C   UNL     1      -7.081  16.221  68.868  1.00  0.00    -0.182 C  
HETATM    9  C   UNL     1      -9.122  16.651  65.978  1.00  0.00    -0.259 C  
HETATM   10  C   UNL     1     -10.987  14.318  65.909  1.00  0.00    -0.304 C  
HETATM   11  H   UNL     1      -4.992  16.340  66.503  1.00  0.00     0.000 HD 
HETATM   12  C   UNL     1      -7.600  15.001  67.819  1.00  0.00    -0.175 C  
HETATM   13  C   UNL     1     -10.583  16.802  65.480  1.00  0.00    -0.243 C  
HETATM   14  C   UNL     1      -8.941  15.195  66.942  1.00  0.00    -0.277 C  
HETATM   15  C   UNL     1      -6.691  14.027  67.601  1.00  0.00    -0.188 C  
HETATM   16  C   UNL     1      -9.504  14.003  66.098  1.00  0.00    -0.210 C  
HETATM   17  C   UNL     1      -9.320  12.580  66.669  1.00  0.00    -0.236 C  
HETATM   18  C   UNL     1     -10.290  12.115  67.738  1.00  0.00    -0.217 C  
HETATM   19  C   UNL     1     -11.738  12.509  67.510  1.00  0.00    -0.439 C  
HETATM   20  C   UNL     1     -11.957  13.648  66.559  1.00  0.00    -0.465 C  
ENDROOT
BRANCH   4  21
HETATM   21  C   UNL     1      -6.437  18.097  65.698  1.00  0.00    -0.287 C  
HETATM   22  C   UNL     1      -5.903  18.791  64.873  1.00  0.00    -0.302 C  
ENDBRANCH   4  21
BRANCH   7  23
HETATM   23  C   UNL     1      -6.095  18.929  68.554  1.00  0.00    -0.228 C  
HETATM   24  C   UNL     1      -6.734  19.714  69.695  1.00  0.00    -0.341 C  
ENDBRANCH   7  23
TORSDOF 2
ENDMDL
MODEL       15
REMARK 921   NORMALIZED FREE ENERGY PREDICTED BY IDOCK:   -5.54 KCAL/MOL
REMARK 922        TOTAL FREE ENERGY PREDICTED BY IDOCK:   -6.41 KCAL/MOL
REMARK 923 INTER-LIGAND FREE ENERGY PREDICTED BY IDOCK:   -6.18 KCAL/MOL
REMARK 924 INTRA-LIGAND FREE ENERGY PREDICTED BY IDOCK:   -0.23 KCAL/MOL
REMARK 927      BINDING AFFINITY PREDICTED BY RF-SCORE:    0.00 PKD
ROOT
HETATM    1  C   UNL     1      -8.867  15.240  68.029  1.00  0.00    -0.169 C  
HETATM    2  C   UNL     1      -7.812  15.805  67.273  1.00  0.00    -0.226 C  
HETATM    3  C   UNL     1      -9.036  15.378  66.541  1.00  0.00    -0.344 C  
HETATM    4  C   UNL     1     -10.675  15.006  67.727  1.00  0.00    -0.278 C  
HETATM    5  C   UNL     1      -7.458  11.248  67.535  1.00  0.00    -0.106 C  
HETATM    6  O   UNL     1     -12.091  15.035  67.450  1.00  0.00    -0.412 OA 
HETATM    7  C   UNL     1     -10.307  16.152  67.077  1.00  0.00    -0.290 C  
HETATM    8  C   UNL     1     -10.959  15.312  65.507  1.00  0.00    -0.365 C  
HETATM    9  C   UNL     1      -8.951  13.389  67.737  1.00  0.00    -0.205 C  
HETATM   10  C   UNL     1      -8.190  10.908  66.258  1.00  0.00    -0.165 C  
HETATM   11  H   UNL     1     -12.847  14.864  67.998  1.00  0.00     0.000 HD 
HETATM   12  C   UNL     1     -10.989  13.631  65.684  1.00  0.00    -0.294 C  
HETATM   13  C   UNL     1      -7.559  12.731  67.929  1.00  0.00    -0.138 C  
HETATM   14  C   UNL     1      -9.695  12.846  66.242  1.00  0.00    -0.268 C  
HETATM   15  C   UNL     1     -12.217  13.080  65.577  1.00  0.00    -0.521 C  
HETATM   16  C   UNL     1      -9.671  11.280  66.250  1.00  0.00    -0.246 C  
HETATM   17  C   UNL     1     -10.408  10.554  65.105  1.00  0.00    -0.310 C  
HETATM   18  C   UNL     1      -9.697  10.431  63.771  1.00  0.00    -0.351 C  
HETATM   19  C   UNL     1      -8.216  10.109  63.857  1.00  0.00    -0.164 C  
HETATM   20  C   UNL     1      -7.566  10.402  65.177  1.00  0.00    -0.103 C  
ENDROOT
BRANCH   4  21
HETATM   21  C   UNL     1     -10.825  15.285  69.245  1.00  0.00    -0.257 C  
HETATM   22  C   UNL     1     -10.987  15.387  70.432  1.00  0.00    -0.347 C  
ENDBRANCH   4  21
BRANCH   7  23
HETATM   23  C   UNL     1     -10.769  17.572  67.313  1.00  0.00    -0.222 C  
HETATM   24  C   UNL     1      -9.963  18.553  66.467  1.00  0.00    -0.401 C  
ENDBRANCH   7  23
TORSDOF 2
ENDMDL
MODEL       16
REMARK 921   NORMALIZED FREE ENERGY PREDICTED BY IDOCK:   -5.54 KCAL/MOL
REMARK 922        TOTAL FREE ENERGY PREDICTED BY IDOCK:   -6.41 KCAL/MOL
REMARK 923 INTER-LIGAND FREE ENERGY PREDICTED BY IDOCK:   -6.15 KCAL/MOL
REMARK 924 INTRA-LIGAND FREE ENERGY PREDICTED BY IDOCK:   -0.26 KCAL/MOL
REMARK 927      BINDING AFFINITY PREDICTED BY RF-SCORE:    0.00 PKD
ROOT
HETATM    1  C   UNL     1      -6.257  17.927  67.525  1.00  0.00    -0.171 C  
HETATM    2  C   UNL     1      -5.749  17.500  66.275  1.00  0.00    -0.243 C  
HETATM    3  C   UNL     1      -7.163  17.961  66.325  1.00  0.00    -0.324 C  
HETATM    4  C   UNL     1      -7.686  18.982  68.032  1.00  0.00    -0.273 C  
HETATM    5  C   UNL     1      -7.721  14.060  68.564  1.00  0.00    -0.139 C  
HETATM    6  O   UNL     1      -8.719  19.955  68.295  1.00  0.00    -0.302 OA 
HETATM    7  C   UNL     1      -7.246  19.458  66.827  1.00  0.00    -0.225 C  
HETATM    8  C   UNL     1      -9.006  19.127  66.205  1.00  0.00    -0.320 C  
HETATM    9  C   UNL     1      -7.434  16.639  68.216  1.00  0.00    -0.182 C  
HETATM   10  C   UNL     1      -9.102  14.174  67.962  1.00  0.00    -0.191 C  
HETATM   11  H   UNL     1      -8.960  20.426  69.083  1.00  0.00     0.000 HD 
HETATM   12  C   UNL     1      -9.787  17.980  67.171  1.00  0.00    -0.316 C  
HETATM   13  C   UNL     1      -6.789  15.228  68.199  1.00  0.00    -0.137 C  
HETATM   14  C   UNL     1      -9.055  16.591  67.542  1.00  0.00    -0.200 C  
HETATM   15  C   UNL     1     -10.902  18.432  67.783  1.00  0.00    -0.268 C  
HETATM   16  C   UNL     1      -9.842  15.467  68.297  1.00  0.00    -0.213 C  
HETATM   17  C   UNL     1     -11.348  15.327  67.990  1.00  0.00    -0.345 C  
HETATM   18  C   UNL     1     -11.747  14.583  66.730  1.00  0.00    -0.393 C  
HETATM   19  C   UNL     1     -10.935  13.335  66.434  1.00  0.00    -0.301 C  
HETATM   20  C   UNL     1      -9.605  13.250  67.122  1.00  0.00    -0.240 C  
ENDROOT
BRANCH   4  21
HETATM   21  C   UNL     1      -6.748  19.468  69.167  1.00  0.00    -0.373 C  
HETATM   22  C   UNL     1      -6.121  19.864  70.113  1.00  0.00    -0.369 C  
ENDBRANCH   4  21
BRANCH   7  23
HETATM   23  C   UNL     1      -6.666  20.814  66.493  1.00  0.00    -0.322 C  
HETATM   24  C   UNL     1      -6.106  20.829  65.074  1.00  0.00    -0.308 C  
ENDBRANCH   7  23
TORSDOF 2
ENDMDL
MODEL       17
REMARK 921   NORMALIZED FREE ENERGY PREDICTED BY IDOCK:   -5.51 KCAL/MOL
REMARK 922        TOTAL FREE ENERGY PREDICTED BY IDOCK:   -6.38 KCAL/MOL
REMARK 923 INTER-LIGAND FREE ENERGY PREDICTED BY IDOCK:   -6.15 KCAL/MOL
REMARK 924 INTRA-LIGAND FREE ENERGY PREDICTED BY IDOCK:   -0.24 KCAL/MOL
REMARK 927      BINDING AFFINITY PREDICTED BY RF-SCORE:    0.00 PKD
ROOT
HETATM    1  C   UNL     1      -8.845  14.850  67.608  1.00  0.00    -0.184 C  
HETATM    2  C   UNL     1      -8.593  14.781  68.999  1.00  0.00    -0.137 C  
HETATM    3  C   UNL     1      -9.336  15.966  68.488  1.00  0.00    -0.206 C  
HETATM    4  C   UNL     1     -10.059  15.780  66.571  1.00  0.00    -0.282 C  
HETATM    5  C   UNL     1      -5.271  17.023  66.787  1.00  0.00    -0.174 C  
HETATM    6  O   UNL     1     -11.157  16.421  65.889  1.00  0.00    -0.058 OA 
HETATM    7  C   UNL     1     -10.671  15.521  67.766  1.00  0.00    -0.297 C  
HETATM    8  C   UNL     1     -10.881  17.399  67.914  1.00  0.00    -0.270 C  
HETATM    9  C   UNL     1      -7.734  16.137  66.815  1.00  0.00    -0.288 C  
HETATM   10  C   UNL     1      -5.815  18.423  66.955  1.00  0.00    -0.165 C  
HETATM   11  H   UNL     1     -11.491  16.335  65.004  1.00  0.00     0.000 HD 
HETATM   12  C   UNL     1      -9.757  18.215  66.950  1.00  0.00    -0.318 C  
HETATM   13  C   UNL     1      -6.253  15.922  67.220  1.00  0.00    -0.117 C  
HETATM   14  C   UNL     1      -8.194  17.821  67.008  1.00  0.00    -0.239 C  
HETATM   15  C   UNL     1     -10.304  18.992  65.991  1.00  0.00    -0.512 C  
HETATM   16  C   UNL     1      -7.139  18.685  66.239  1.00  0.00    -0.277 C  
HETATM   17  C   UNL     1      -7.406  20.201  66.130  1.00  0.00    -0.312 C  
HETATM   18  C   UNL     1      -7.058  21.069  67.325  1.00  0.00    -0.399 C  
HETATM   19  C   UNL     1      -5.754  20.718  68.017  1.00  0.00    -0.332 C  
HETATM   20  C   UNL     1      -5.229  19.338  67.749  1.00  0.00    -0.174 C  
ENDROOT
BRANCH   4  21
HETATM   21  C   UNL     1     -10.068  14.509  65.685  1.00  0.00    -0.384 C  
HETATM   22  C   UNL     1     -10.082  13.597  64.901  1.00  0.00    -0.293 C  
ENDBRANCH   4  21
BRANCH   7  23
HETATM   23  C   UNL     1     -11.903  14.689  68.045  1.00  0.00    -0.343 C  
HETATM   24  C   UNL     1     -11.983  14.317  69.522  1.00  0.00    -0.384 C  
ENDBRANCH   7  23
TORSDOF 2
ENDMDL
MODEL       18
REMARK 921   NORMALIZED FREE ENERGY PREDICTED BY IDOCK:   -5.50 KCAL/MOL
REMARK 922        TOTAL FREE ENERGY PREDICTED BY IDOCK:   -6.37 KCAL/MOL
REMARK 923 INTER-LIGAND FREE ENERGY PREDICTED BY IDOCK:   -6.14 KCAL/MOL
REMARK 924 INTRA-LIGAND FREE ENERGY PREDICTED BY IDOCK:   -0.23 KCAL/MOL
REMARK 927      BINDING AFFINITY PREDICTED BY RF-SCORE:    0.00 PKD
ROOT
HETATM    1  C   UNL     1      -8.919   8.244  69.255  1.00  0.00    -0.147 C  
HETATM    2  C   UNL     1      -7.799   9.087  69.454  1.00  0.00    -0.094 C  
HETATM    3  C   UNL     1      -8.736   8.900  70.596  1.00  0.00    -0.230 C  
HETATM    4  C   UNL     1     -10.054   7.334  70.394  1.00  0.00    -0.192 C  
HETATM    5  C   UNL     1     -11.449  11.437  67.999  1.00  0.00    -0.377 C  
HETATM    6  O   UNL     1     -10.762   6.538  71.368  1.00  0.00    -0.227 OA 
HETATM    7  C   UNL     1      -8.829   7.374  71.000  1.00  0.00    -0.143 C  
HETATM    8  C   UNL     1      -9.715   8.241  72.434  1.00  0.00    -0.373 C  
HETATM    9  C   UNL     1     -10.482   9.272  69.109  1.00  0.00    -0.231 C  
HETATM   10  C   UNL     1     -11.991  11.839  69.351  1.00  0.00    -0.361 C  
HETATM   11  H   UNL     1     -11.370   5.815  71.274  1.00  0.00     0.000 HD 
HETATM   12  C   UNL     1     -11.156   8.956  71.916  1.00  0.00    -0.442 C  
HETATM   13  C   UNL     1     -10.305  10.412  68.072  1.00  0.00    -0.212 C  
HETATM   14  C   UNL     1     -11.177   9.889  70.599  1.00  0.00    -0.416 C  
HETATM   15  C   UNL     1     -12.265   8.478  72.518  1.00  0.00    -0.383 C  
HETATM   16  C   UNL     1     -12.474  10.678  70.218  1.00  0.00    -0.381 C  
HETATM   17  C   UNL     1     -13.357  11.195  71.375  1.00  0.00    -0.139 C  
HETATM   18  C   UNL     1     -12.935  12.475  72.069  1.00  0.00    -0.379 C  
HETATM   19  C   UNL     1     -12.418  13.566  71.149  1.00  0.00    -0.424 C  
HETATM   20  C   UNL     1     -11.964  13.110  69.794  1.00  0.00    -0.382 C  
ENDROOT
BRANCH   4  21
HETATM   21  C   UNL     1     -10.063   6.244  69.291  1.00  0.00    -0.213 C  
HETATM   22  C   UNL     1     -10.051   5.317  68.525  1.00  0.00    -0.232 C  
ENDBRANCH   4  21
BRANCH   7  23
HETATM   23  C   UNL     1      -7.914   6.230  71.376  1.00  0.00    -0.109 C  
HETATM   24  C   UNL     1      -6.547   6.749  71.809  1.00  0.00    -0.050 C  
ENDBRANCH   7  23
TORSDOF 2
ENDMDL
MODEL       19
REMARK 921   NORMALIZED FREE ENERGY PREDICTED BY IDOCK:   -5.45 KCAL/MOL
REMARK 922        TOTAL FREE ENERGY PREDICTED BY IDOCK:   -6.31 KCAL/MOL
REMARK 923 INTER-LIGAND FREE ENERGY PREDICTED BY IDOCK:   -6.06 KCAL/MOL
REMARK 924 INTRA-LIGAND FREE ENERGY PREDICTED BY IDOCK:   -0.25 KCAL/MOL
REMARK 927      BINDING AFFINITY PREDICTED BY RF-SCORE:    0.00 PKD
ROOT
HETATM    1  C   UNL     1     -11.260  15.303  66.905  1.00  0.00    -0.256 C  
HETATM    2  C   UNL     1     -11.355  15.174  65.499  1.00  0.00    -0.274 C  
HETATM    3  C   UNL     1     -10.119  14.669  66.157  1.00  0.00    -0.316 C  
HETATM    4  C   UNL     1     -10.242  14.467  68.201  1.00  0.00    -0.230 C  
HETATM    5  C   UNL     1      -9.330  19.098  66.706  1.00  0.00    -0.364 C  
HETATM    6  O   UNL     1      -9.523  13.630  69.131  1.00  0.00    -0.387 OA 
HETATM    7  C   UNL     1     -10.467  13.546  67.215  1.00  0.00    -0.248 C  
HETATM    8  C   UNL     1      -8.580  13.425  67.081  1.00  0.00    -0.201 C  
HETATM    9  C   UNL     1     -10.046  16.664  67.347  1.00  0.00    -0.274 C  
HETATM   10  C   UNL     1      -7.898  18.620  66.653  1.00  0.00    -0.271 C  
HETATM   11  H   UNL     1      -9.580  13.537  70.074  1.00  0.00     0.000 HD 
HETATM   12  C   UNL     1      -7.836  14.813  67.697  1.00  0.00    -0.191 C  
HETATM   13  C   UNL     1     -10.365  17.969  66.573  1.00  0.00    -0.376 C  
HETATM   14  C   UNL     1      -8.336  16.278  67.240  1.00  0.00    -0.203 C  
HETATM   15  C   UNL     1      -7.017  14.589  68.746  1.00  0.00    -0.104 C  
HETATM   16  C   UNL     1      -7.541  17.551  67.684  1.00  0.00    -0.203 C  
HETATM   17  C   UNL     1      -6.009  17.419  67.822  1.00  0.00    -0.147 C  
HETATM   18  C   UNL     1      -5.175  17.496  66.557  1.00  0.00    -0.219 C  
HETATM   19  C   UNL     1      -5.619  18.546  65.556  1.00  0.00    -0.228 C  
HETATM   20  C   UNL     1      -7.029  19.033  65.710  1.00  0.00    -0.302 C  
ENDROOT
BRANCH   4  21
HETATM   21  C   UNL     1     -11.504  14.610  69.089  1.00  0.00    -0.320 C  
HETATM   22  C   UNL     1     -12.408  14.759  69.867  1.00  0.00    -0.328 C  
ENDBRANCH   4  21
BRANCH   7  23
HETATM   23  C   UNL     1     -11.214  12.234  67.290  1.00  0.00    -0.358 C  
HETATM   24  C   UNL     1     -11.405  11.638  65.898  1.00  0.00    -0.262 C  
ENDBRANCH   7  23
TORSDOF 2
ENDMDL
MODEL       20
REMARK 921   NORMALIZED FREE ENERGY PREDICTED BY IDOCK:   -5.44 KCAL/MOL
REMARK 922        TOTAL FREE ENERGY PREDICTED BY IDOCK:   -6.30 KCAL/MOL
REMARK 923 INTER-LIGAND FREE ENERGY PREDICTED BY IDOCK:   -6.16 KCAL/MOL
REMARK 924 INTRA-LIGAND FREE ENERGY PREDICTED BY IDOCK:   -0.14 KCAL/MOL
REMARK 927      BINDING AFFINITY PREDICTED BY RF-SCORE:    0.00 PKD
ROOT
HETATM    1  C   UNL     1      -8.804  11.972  66.941  1.00  0.00    -0.197 C  
HETATM    2  C   UNL     1      -7.588  12.295  67.589  1.00  0.00    -0.144 C  
HETATM    3  C   UNL     1      -8.660  11.663  68.406  1.00  0.00    -0.156 C  
HETATM    4  C   UNL     1     -10.191  10.813  67.326  1.00  0.00    -0.205 C  
HETATM    5  C   UNL     1     -10.617  15.716  67.873  1.00  0.00    -0.278 C  
HETATM    6  O   UNL     1     -11.122   9.757  67.641  1.00  0.00    -0.449 OA 
HETATM    7  C   UNL     1      -9.048  10.247  67.820  1.00  0.00    -0.138 C  
HETATM    8  C   UNL     1      -9.927  10.260  69.500  1.00  0.00    -0.252 C  
HETATM    9  C   UNL     1     -10.149  13.174  67.458  1.00  0.00    -0.222 C  
HETATM   10  C   UNL     1     -11.228  15.344  69.204  1.00  0.00    -0.291 C  
HETATM   11  H   UNL     1     -11.828   9.364  67.142  1.00  0.00     0.000 HD 
HETATM   12  C   UNL     1     -11.165  11.411  69.529  1.00  0.00    -0.322 C  
HETATM   13  C   UNL     1      -9.675  14.642  67.304  1.00  0.00    -0.231 C  
HETATM   14  C   UNL     1     -10.888  12.920  69.031  1.00  0.00    -0.188 C  
HETATM   15  C   UNL     1     -12.397  10.901  69.741  1.00  0.00    -0.326 C  
HETATM   16  C   UNL     1     -11.988  14.020  69.213  1.00  0.00    -0.396 C  
HETATM   17  C   UNL     1     -12.892  13.920  70.460  1.00  0.00    -0.250 C  
HETATM   18  C   UNL     1     -12.340  14.434  71.777  1.00  0.00    -0.390 C  
HETATM   19  C   UNL     1     -11.553  15.728  71.683  1.00  0.00    -0.537 C  
HETATM   20  C   UNL     1     -11.038  16.076  70.318  1.00  0.00    -0.380 C  
ENDROOT
BRANCH   4  21
HETATM   21  C   UNL     1     -10.262  10.607  65.791  1.00  0.00    -0.317 C  
HETATM   22  C   UNL     1     -10.196  10.459  64.600  1.00  0.00    -0.305 C  
ENDBRANCH   4  21
BRANCH   7  23
HETATM   23  C   UNL     1      -8.383   8.947  67.427  1.00  0.00    -0.108 C  
HETATM   24  C   UNL     1      -6.988   8.846  68.035  1.00  0.00    -0.078 C  
ENDBRANCH   7  23
TORSDOF 2
ENDMDL
MODEL       21
REMARK 921   NORMALIZED FREE ENERGY PREDICTED BY IDOCK:   -5.36 KCAL/MOL
REMARK 922        TOTAL FREE ENERGY PREDICTED BY IDOCK:   -6.21 KCAL/MOL
REMARK 923 INTER-LIGAND FREE ENERGY PREDICTED BY IDOCK:   -6.18 KCAL/MOL
REMARK 924 INTRA-LIGAND FREE ENERGY PREDICTED BY IDOCK:   -0.03 KCAL/MOL
REMARK 927      BINDING AFFINITY PREDICTED BY RF-SCORE:    0.00 PKD
ROOT
HETATM    1  C   UNL     1     -11.573  12.253  67.561  1.00  0.00    -0.422 C  
HETATM    2  C   UNL     1     -11.786  12.257  66.161  1.00  0.00    -0.440 C  
HETATM    3  C   UNL     1     -10.385  12.121  66.647  1.00  0.00    -0.233 C  
HETATM    4  C   UNL     1     -10.198  11.664  68.644  1.00  0.00    -0.206 C  
HETATM    5  C   UNL     1     -10.992  16.471  67.764  1.00  0.00    -0.252 C  
HETATM    6  O   UNL     1      -9.147  11.015  69.390  1.00  0.00    -0.395 OA 
HETATM    7  C   UNL     1     -10.231  10.836  67.556  1.00  0.00    -0.231 C  
HETATM    8  C   UNL     1      -8.433  11.363  67.268  1.00  0.00    -0.148 C  
HETATM    9  C   UNL     1     -10.814  13.881  68.102  1.00  0.00    -0.262 C  
HETATM   10  C   UNL     1      -9.498  16.503  67.538  1.00  0.00    -0.224 C  
HETATM   11  H   UNL     1      -9.061  10.803  70.312  1.00  0.00     0.000 HD 
HETATM   12  C   UNL     1      -8.104  12.841  68.019  1.00  0.00    -0.162 C  
HETATM   13  C   UNL     1     -11.620  15.084  67.548  1.00  0.00    -0.315 C  
HETATM   14  C   UNL     1      -9.095  14.098  67.814  1.00  0.00    -0.190 C  
HETATM   15  C   UNL     1      -7.141  12.786  68.962  1.00  0.00    -0.025 C  
HETATM   16  C   UNL     1      -8.702  15.506  68.376  1.00  0.00    -0.174 C  
HETATM   17  C   UNL     1      -7.203  15.875  68.381  1.00  0.00    -0.121 C  
HETATM   18  C   UNL     1      -6.591  16.363  67.081  1.00  0.00    -0.234 C  
HETATM   19  C   UNL     1      -7.460  17.311  66.276  1.00  0.00    -0.354 C  
HETATM   20  C   UNL     1      -8.924  17.283  66.603  1.00  0.00    -0.279 C  
ENDROOT
BRANCH   4  21
HETATM   21  C   UNL     1     -11.327  11.280  69.635  1.00  0.00    -0.359 C  
HETATM   22  C   UNL     1     -12.117  10.979  70.490  1.00  0.00    -0.470 C  
ENDBRANCH   4  21
BRANCH   7  23
HETATM   23  C   UNL     1     -10.507   9.350  67.498  1.00  0.00    -0.343 C  
HETATM   24  C   UNL     1      -9.906   8.736  66.237  1.00  0.00    -0.342 C  
ENDBRANCH   7  23
TORSDOF 2
ENDMDL
MODEL       22
REMARK 921   NORMALIZED FREE ENERGY PREDICTED BY IDOCK:   -5.31 KCAL/MOL
REMARK 922        TOTAL FREE ENERGY PREDICTED BY IDOCK:   -6.16 KCAL/MOL
REMARK 923 INTER-LIGAND FREE ENERGY PREDICTED BY IDOCK:   -5.90 KCAL/MOL
REMARK 924 INTRA-LIGAND FREE ENERGY PREDICTED BY IDOCK:   -0.26 KCAL/MOL
REMARK 927      BINDING AFFINITY PREDICTED BY RF-SCORE:    0.00 PKD
ROOT
HETATM    1  C   UNL     1     -10.925   6.037  70.831  1.00  0.00    -0.355 C  
HETATM    2  C   UNL     1      -9.717   5.356  71.119  1.00  0.00    -0.229 C  
HETATM    3  C   UNL     1      -9.646   6.827  70.899  1.00  0.00    -0.173 C  
HETATM    4  C   UNL     1     -11.457   7.803  70.947  1.00  0.00    -0.279 C  
HETATM    5  C   UNL     1     -10.483   5.617  66.613  1.00  0.00    -0.340 C  
HETATM    6  O   UNL     1     -11.806   9.171  71.242  1.00  0.00    -0.288 OA 
HETATM    7  C   UNL     1     -10.548   7.593  71.948  1.00  0.00    -0.257 C  
HETATM    8  C   UNL     1      -9.549   8.994  71.153  1.00  0.00    -0.356 C  
HETATM    9  C   UNL     1     -10.977   6.521  69.019  1.00  0.00    -0.378 C  
HETATM   10  C   UNL     1      -9.703   6.883  66.341  1.00  0.00    -0.127 C  
HETATM   11  H   UNL     1     -12.642   9.621  71.265  1.00  0.00     0.000 HD 
HETATM   12  C   UNL     1      -9.971   9.197  69.528  1.00  0.00    -0.193 C  
HETATM   13  C   UNL     1     -10.656   5.307  68.109  1.00  0.00    -0.076 C  
HETATM   14  C   UNL     1     -10.038   7.925  68.538  1.00  0.00    -0.216 C  
HETATM   15  C   UNL     1     -10.479  10.412  69.230  1.00  0.00    -0.257 C  
HETATM   16  C   UNL     1     -10.269   8.137  67.004  1.00  0.00    -0.378 C  
HETATM   17  C   UNL     1      -9.668   9.407  66.365  1.00  0.00    -0.315 C  
HETATM   18  C   UNL     1      -8.193   9.391  66.011  1.00  0.00    -0.111 C  
HETATM   19  C   UNL     1      -7.690   8.094  65.404  1.00  0.00    -0.101 C  
HETATM   20  C   UNL     1      -8.549   6.889  65.648  1.00  0.00    -0.119 C  
ENDROOT
BRANCH   4  21
HETATM   21  C   UNL     1     -12.834   7.218  71.352  1.00  0.00    -0.425 C  
HETATM   22  C   UNL     1     -13.949   6.874  71.642  1.00  0.00    -0.298 C  
ENDBRANCH   4  21
BRANCH   7  23
HETATM   23  C   UNL     1     -10.743   7.681  73.445  1.00  0.00    -0.330 C  
HETATM   24  C   UNL     1      -9.574   7.037  74.183  1.00  0.00    -0.298 C  
ENDBRANCH   7  23
TORSDOF 2
ENDMDL
MODEL       23
REMARK 921   NORMALIZED FREE ENERGY PREDICTED BY IDOCK:   -5.28 KCAL/MOL
REMARK 922        TOTAL FREE ENERGY PREDICTED BY IDOCK:   -6.12 KCAL/MOL
REMARK 923 INTER-LIGAND FREE ENERGY PREDICTED BY IDOCK:   -5.93 KCAL/MOL
REMARK 924 INTRA-LIGAND FREE ENERGY PREDICTED BY IDOCK:   -0.19 KCAL/MOL
REMARK 927      BINDING AFFINITY PREDICTED BY RF-SCORE:    0.00 PKD
ROOT
HETATM    1  C   UNL     1     -11.341  11.878  67.833  1.00  0.00    -0.358 C  
HETATM    2  C   UNL     1     -11.745  12.124  66.499  1.00  0.00    -0.392 C  
HETATM    3  C   UNL     1     -10.299  12.267  66.821  1.00  0.00    -0.238 C  
HETATM    4  C   UNL     1      -9.724  11.461  68.624  1.00  0.00    -0.176 C  
HETATM    5  C   UNL     1     -11.772  15.953  69.008  1.00  0.00    -0.377 C  
HETATM    6  O   UNL     1      -8.452  10.974  69.100  1.00  0.00    -0.317 OA 
HETATM    7  C   UNL     1      -9.711  10.907  67.374  1.00  0.00    -0.190 C  
HETATM    8  C   UNL     1      -8.154  11.945  67.075  1.00  0.00    -0.167 C  
HETATM    9  C   UNL     1     -10.928  13.495  68.690  1.00  0.00    -0.289 C  
HETATM   10  C   UNL     1     -10.378  16.432  68.674  1.00  0.00    -0.273 C  
HETATM   11  H   UNL     1      -8.187  10.602  69.933  1.00  0.00     0.000 HD 
HETATM   12  C   UNL     1      -8.088  13.262  68.133  1.00  0.00    -0.159 C  
HETATM   13  C   UNL     1     -12.072  14.528  68.513  1.00  0.00    -0.257 C  
HETATM   14  C   UNL     1      -9.372  14.221  68.323  1.00  0.00    -0.208 C  
HETATM   15  C   UNL     1      -7.015  13.267  68.953  1.00  0.00    -0.096 C  
HETATM   16  C   UNL     1      -9.253  15.529  69.176  1.00  0.00    -0.246 C  
HETATM   17  C   UNL     1      -7.903  16.276  69.147  1.00  0.00    -0.231 C  
HETATM   18  C   UNL     1      -7.618  17.176  67.959  1.00  0.00    -0.192 C  
HETATM   19  C   UNL     1      -8.797  18.006  67.483  1.00  0.00    -0.252 C  
HETATM   20  C   UNL     1     -10.148  17.518  67.913  1.00  0.00    -0.330 C  
ENDROOT
BRANCH   4  21
HETATM   21  C   UNL     1     -10.574  10.587  69.582  1.00  0.00    -0.281 C  
HETATM   22  C   UNL     1     -11.128   9.874  70.376  1.00  0.00    -0.382 C  
ENDBRANCH   4  21
BRANCH   7  23
HETATM   23  C   UNL     1      -9.626   9.450  66.979  1.00  0.00    -0.209 C  
HETATM   24  C   UNL     1      -9.483   9.306  65.467  1.00  0.00    -0.309 C  
ENDBRANCH   7  23
TORSDOF 2
ENDMDL
MODEL       24
REMARK 921   NORMALIZED FREE ENERGY PREDICTED BY IDOCK:   -5.28 KCAL/MOL
REMARK 922        TOTAL FREE ENERGY PREDICTED BY IDOCK:   -6.12 KCAL/MOL
REMARK 923 INTER-LIGAND FREE ENERGY PREDICTED BY IDOCK:   -5.96 KCAL/MOL
REMARK 924 INTRA-LIGAND FREE ENERGY PREDICTED BY IDOCK:   -0.16 KCAL/MOL
REMARK 927      BINDING AFFINITY PREDICTED BY RF-SCORE:    0.00 PKD
ROOT
HETATM    1  C   UNL     1      -9.358   9.029  67.358  1.00  0.00    -0.167 C  
HETATM    2  C   UNL     1      -8.139   9.726  67.181  1.00  0.00    -0.116 C  
HETATM    3  C   UNL     1      -8.733   9.707  68.546  1.00  0.00    -0.120 C  
HETATM    4  C   UNL     1     -10.225   8.318  68.826  1.00  0.00    -0.210 C  
HETATM    5  C   UNL     1     -11.757  12.472  66.610  1.00  0.00    -0.453 C  
HETATM    6  O   UNL     1     -10.717   7.659  70.012  1.00  0.00    -0.235 OA 
HETATM    7  C   UNL     1      -8.883   8.222  69.071  1.00  0.00    -0.143 C  
HETATM    8  C   UNL     1      -9.227   9.252  70.625  1.00  0.00    -0.321 C  
HETATM    9  C   UNL     1     -10.771  10.244  67.569  1.00  0.00    -0.348 C  
HETATM   10  C   UNL     1     -11.850  12.993  68.025  1.00  0.00    -0.391 C  
HETATM   11  H   UNL     1     -11.406   7.018  70.141  1.00  0.00     0.000 HD 
HETATM   12  C   UNL     1     -10.665  10.127  70.468  1.00  0.00    -0.295 C  
HETATM   13  C   UNL     1     -10.763  11.310  66.442  1.00  0.00    -0.320 C  
HETATM   14  C   UNL     1     -10.946  11.004  69.143  1.00  0.00    -0.289 C  
HETATM   15  C   UNL     1     -11.608   9.820  71.384  1.00  0.00    -0.452 C  
HETATM   16  C   UNL     1     -12.200  11.939  69.073  1.00  0.00    -0.103 C  
HETATM   17  C   UNL     1     -12.659  12.610  70.386  1.00  0.00    -0.115 C  
HETATM   18  C   UNL     1     -11.917  13.851  70.843  1.00  0.00    -0.310 C  
HETATM   19  C   UNL     1     -11.557  14.829  69.740  1.00  0.00    -0.338 C  
HETATM   20  C   UNL     1     -11.556  14.266  68.350  1.00  0.00    -0.354 C  
ENDROOT
BRANCH   4  21
HETATM   21  C   UNL     1     -10.666   7.197  67.851  1.00  0.00    -0.258 C  
HETATM   22  C   UNL     1     -11.026   6.415  67.012  1.00  0.00    -0.463 C  
ENDBRANCH   4  21
BRANCH   7  23
HETATM   23  C   UNL     1      -8.036   6.985  69.266  1.00  0.00    -0.119 C  
HETATM   24  C   UNL     1      -6.553   7.342  69.302  1.00  0.00    -0.037 C  
ENDBRANCH   7  23
TORSDOF 2
ENDMDL
MODEL       25
REMARK 921   NORMALIZED FREE ENERGY PREDICTED BY IDOCK:   -5.24 KCAL/MOL
REMARK 922        TOTAL FREE ENERGY PREDICTED BY IDOCK:   -6.08 KCAL/MOL
REMARK 923 INTER-LIGAND FREE ENERGY PREDICTED BY IDOCK:   -5.84 KCAL/MOL
REMARK 924 INTRA-LIGAND FREE ENERGY PREDICTED BY IDOCK:   -0.24 KCAL/MOL
REMARK 927      BINDING AFFINITY PREDICTED BY RF-SCORE:    0.00 PKD
ROOT
HETATM    1  C   UNL     1      -9.702  11.895  65.787  1.00  0.00    -0.258 C  
HETATM    2  C   UNL     1     -10.586  11.571  64.730  1.00  0.00    -0.362 C  
HETATM    3  C   UNL     1     -11.056  11.334  66.122  1.00  0.00    -0.207 C  
HETATM    4  C   UNL     1      -9.931  12.239  67.588  1.00  0.00    -0.198 C  
HETATM    5  C   UNL     1      -8.007   7.986  65.936  1.00  0.00    -0.107 C  
HETATM    6  O   UNL     1     -10.254  12.655  68.931  1.00  0.00    -0.405 OA 
HETATM    7  C   UNL     1     -11.058  12.681  66.950  1.00  0.00    -0.315 C  
HETATM    8  C   UNL     1     -12.005  11.493  68.084  1.00  0.00    -0.206 C  
HETATM    9  C   UNL     1      -9.006  10.327  66.548  1.00  0.00    -0.161 C  
HETATM   10  C   UNL     1      -8.964   7.364  66.927  1.00  0.00    -0.150 C  
HETATM   11  H   UNL     1      -9.734  13.074  69.607  1.00  0.00     0.000 HD 
HETATM   12  C   UNL     1     -10.992  10.270  68.666  1.00  0.00    -0.289 C  
HETATM   13  C   UNL     1      -8.435   9.384  65.458  1.00  0.00    -0.153 C  
HETATM   14  C   UNL     1     -10.046   9.443  67.653  1.00  0.00    -0.262 C  
HETATM   15  C   UNL     1     -10.863  10.244  70.009  1.00  0.00    -0.364 C  
HETATM   16  C   UNL     1      -9.236   8.208  68.170  1.00  0.00    -0.136 C  
HETATM   17  C   UNL     1      -9.881   7.349  69.279  1.00  0.00    -0.168 C  
HETATM   18  C   UNL     1     -10.926   6.330  68.866  1.00  0.00    -0.435 C  
HETATM   19  C   UNL     1     -10.613   5.565  67.593  1.00  0.00    -0.239 C  
HETATM   20  C   UNL     1      -9.599   6.201  66.689  1.00  0.00    -0.181 C  
ENDROOT
BRANCH   4  21
HETATM   21  C   UNL     1      -8.781  13.261  67.399  1.00  0.00    -0.206 C  
HETATM   22  C   UNL     1      -7.837  14.004  67.351  1.00  0.00    -0.188 C  
ENDBRANCH   4  21
BRANCH   7  23
HETATM   23  C   UNL     1     -11.606  14.087  66.852  1.00  0.00    -0.407 C  
HETATM   24  C   UNL     1     -12.668  14.180  65.760  1.00  0.00    -0.443 C  
ENDBRANCH   7  23
TORSDOF 2
ENDMDL
MODEL       26
REMARK 921   NORMALIZED FREE ENERGY PREDICTED BY IDOCK:   -5.20 KCAL/MOL
REMARK 922        TOTAL FREE ENERGY PREDICTED BY IDOCK:   -6.03 KCAL/MOL
REMARK 923 INTER-LIGAND FREE ENERGY PREDICTED BY IDOCK:   -6.32 KCAL/MOL
REMARK 924 INTRA-LIGAND FREE ENERGY PREDICTED BY IDOCK:    0.29 KCAL/MOL
REMARK 927      BINDING AFFINITY PREDICTED BY RF-SCORE:    0.00 PKD
ROOT
HETATM    1  C   UNL     1     -11.558   7.753  71.957  1.00  0.00    -0.347 C  
HETATM    2  C   UNL     1     -12.809   7.337  71.440  1.00  0.00    -0.425 C  
HETATM    3  C   UNL     1     -11.615   7.196  70.561  1.00  0.00    -0.331 C  
HETATM    4  C   UNL     1      -9.803   7.379  71.517  1.00  0.00    -0.173 C  
HETATM    5  C   UNL     1     -11.931  11.715  70.429  1.00  0.00    -0.448 C  
HETATM    6  O   UNL     1      -8.489   6.880  71.194  1.00  0.00    -0.122 OA 
HETATM    7  C   UNL     1     -10.534   6.258  71.232  1.00  0.00    -0.264 C  
HETATM    8  C   UNL     1      -9.883   6.447  69.462  1.00  0.00    -0.176 C  
HETATM    9  C   UNL     1     -11.033   9.366  71.155  1.00  0.00    -0.430 C  
HETATM   10  C   UNL     1     -11.298  11.495  69.075  1.00  0.00    -0.339 C  
HETATM   11  H   UNL     1      -7.652   6.964  71.636  1.00  0.00     0.000 HD 
HETATM   12  C   UNL     1      -9.395   8.037  69.159  1.00  0.00    -0.151 C  
HETATM   13  C   UNL     1     -12.171  10.418  71.219  1.00  0.00    -0.491 C  
HETATM   14  C   UNL     1     -10.363   9.273  69.534  1.00  0.00    -0.223 C  
HETATM   15  C   UNL     1      -8.089   8.170  68.844  1.00  0.00    -0.116 C  
HETATM   16  C   UNL     1      -9.978  10.728  69.103  1.00  0.00    -0.206 C  
HETATM   17  C   UNL     1      -9.223  10.897  67.767  1.00  0.00    -0.155 C  
HETATM   18  C   UNL     1     -10.036  10.870  66.487  1.00  0.00    -0.269 C  
HETATM   19  C   UNL     1     -11.360  11.609  66.549  1.00  0.00    -0.331 C  
HETATM   20  C   UNL     1     -11.897  11.862  67.927  1.00  0.00    -0.308 C  
ENDROOT
BRANCH   4  21
HETATM   21  C   UNL     1      -9.546   7.469  73.043  1.00  0.00    -0.268 C  
HETATM   22  C   UNL     1      -9.262   7.451  74.212  1.00  0.00    -0.188 C  
ENDBRANCH   4  21
BRANCH   7  23
HETATM   23  C   UNL     1     -10.431   4.876  71.836  1.00  0.00    -0.233 C  
HETATM   24  C   UNL     1     -11.406   4.717  72.998  1.00  0.00    -0.325 C  
ENDBRANCH   7  23
TORSDOF 2
ENDMDL
MODEL       27
REMARK 921   NORMALIZED FREE ENERGY PREDICTED BY IDOCK:   -5.18 KCAL/MOL
REMARK 922        TOTAL FREE ENERGY PREDICTED BY IDOCK:   -6.01 KCAL/MOL
REMARK 923 INTER-LIGAND FREE ENERGY PREDICTED BY IDOCK:   -5.80 KCAL/MOL
REMARK 924 INTRA-LIGAND FREE ENERGY PREDICTED BY IDOCK:   -0.21 KCAL/MOL
REMARK 927      BINDING AFFINITY PREDICTED BY RF-SCORE:    0.00 PKD
ROOT
HETATM    1  C   UNL     1      -9.024   8.493  69.002  1.00  0.00    -0.146 C  
HETATM    2  C   UNL     1      -7.809   8.851  69.634  1.00  0.00    -0.090 C  
HETATM    3  C   UNL     1      -9.079   9.208  70.324  1.00  0.00    -0.247 C  
HETATM    4  C   UNL     1     -10.759   8.269  69.596  1.00  0.00    -0.194 C  
HETATM    5  C   UNL     1      -9.366  12.208  66.940  1.00  0.00    -0.203 C  
HETATM    6  O   UNL     1     -12.029   7.959  70.205  1.00  0.00    -0.478 OA 
HETATM    7  C   UNL     1      -9.934   7.913  70.628  1.00  0.00    -0.188 C  
HETATM    8  C   UNL     1     -10.830   9.250  71.629  1.00  0.00    -0.418 C  
HETATM    9  C   UNL     1      -9.853  10.018  68.288  1.00  0.00    -0.163 C  
HETATM   10  C   UNL     1     -10.138  12.977  67.987  1.00  0.00    -0.235 C  
HETATM   11  H   UNL     1     -12.804   7.525  69.869  1.00  0.00     0.000 HD 
HETATM   12  C   UNL     1     -11.553  10.390  70.612  1.00  0.00    -0.440 C  
HETATM   13  C   UNL     1      -8.861  10.839  67.424  1.00  0.00    -0.129 C  
HETATM   14  C   UNL     1     -10.712  11.061  69.410  1.00  0.00    -0.247 C  
HETATM   15  C   UNL     1     -12.896  10.473  70.731  1.00  0.00    -0.454 C  
HETATM   16  C   UNL     1     -11.334  12.231  68.576  1.00  0.00    -0.332 C  
HETATM   17  C   UNL     1     -12.273  13.209  69.316  1.00  0.00    -0.165 C  
HETATM   18  C   UNL     1     -11.638  14.308  70.147  1.00  0.00    -0.312 C  
HETATM   19  C   UNL     1     -10.423  14.968  69.520  1.00  0.00    -0.245 C  
HETATM   20  C   UNL     1      -9.748  14.185  68.435  1.00  0.00    -0.226 C  
ENDROOT
BRANCH   4  21
HETATM   21  C   UNL     1     -10.823   7.126  68.551  1.00  0.00    -0.141 C  
HETATM   22  C   UNL     1     -10.931   6.317  67.668  1.00  0.00    -0.438 C  
ENDBRANCH   4  21
BRANCH   7  23
HETATM   23  C   UNL     1      -9.779   6.568  71.302  1.00  0.00    -0.186 C  
HETATM   24  C   UNL     1      -8.644   6.601  72.322  1.00  0.00    -0.121 C  
ENDBRANCH   7  23
TORSDOF 2
ENDMDL
MODEL       28
REMARK 921   NORMALIZED FREE ENERGY PREDICTED BY IDOCK:   -5.14 KCAL/MOL
REMARK 922        TOTAL FREE ENERGY PREDICTED BY IDOCK:   -5.97 KCAL/MOL
REMARK 923 INTER-LIGAND FREE ENERGY PREDICTED BY IDOCK:   -5.71 KCAL/MOL
REMARK 924 INTRA-LIGAND FREE ENERGY PREDICTED BY IDOCK:   -0.26 KCAL/MOL
REMARK 927      BINDING AFFINITY PREDICTED BY RF-SCORE:    0.00 PKD
ROOT
HETATM    1  C   UNL     1      -8.972   5.624  69.162  1.00  0.00    -0.120 C  
HETATM    2  C   UNL     1     -10.010   4.662  69.223  1.00  0.00    -0.231 C  
HETATM    3  C   UNL     1     -10.291   5.939  68.512  1.00  0.00    -0.268 C  
HETATM    4  C   UNL     1      -8.632   7.072  68.067  1.00  0.00    -0.124 C  
HETATM    5  C   UNL     1     -10.216   7.601  72.728  1.00  0.00    -0.336 C  
HETATM    6  O   UNL     1      -8.388   8.064  67.048  1.00  0.00    -0.114 OA 
HETATM    7  C   UNL     1      -9.287   6.142  67.307  1.00  0.00    -0.117 C  
HETATM    8  C   UNL     1     -10.581   7.494  67.005  1.00  0.00    -0.409 C  
HETATM    9  C   UNL     1      -9.347   7.051  70.320  1.00  0.00    -0.159 C  
HETATM   10  C   UNL     1     -11.173   8.595  72.111  1.00  0.00    -0.438 C  
HETATM   11  H   UNL     1      -7.622   8.586  66.842  1.00  0.00     0.000 HD 
HETATM   12  C   UNL     1     -10.525   8.671  68.218  1.00  0.00    -0.234 C  
HETATM   13  C   UNL     1      -9.706   6.539  71.739  1.00  0.00    -0.168 C  
HETATM   14  C   UNL     1     -10.518   8.240  69.773  1.00  0.00    -0.220 C  
HETATM   15  C   UNL     1     -10.231   9.913  67.778  1.00  0.00    -0.241 C  
HETATM   16  C   UNL     1     -10.631   9.333  70.889  1.00  0.00    -0.366 C  
HETATM   17  C   UNL     1     -11.491  10.577  70.580  1.00  0.00    -0.433 C  
HETATM   18  C   UNL     1     -12.995  10.452  70.727  1.00  0.00    -0.422 C  
HETATM   19  C   UNL     1     -13.460   9.662  71.937  1.00  0.00    -0.496 C  
HETATM   20  C   UNL     1     -12.438   8.750  72.547  1.00  0.00    -0.368 C  
ENDROOT
BRANCH   4  21
HETATM   21  C   UNL     1      -7.144   6.670  68.228  1.00  0.00    -0.083 C  
HETATM   22  C   UNL     1      -5.963   6.449  68.276  1.00  0.00    -0.017 C  
ENDBRANCH   4  21
BRANCH   7  23
HETATM   23  C   UNL     1      -8.801   5.400  66.082  1.00  0.00    -0.139 C  
HETATM   24  C   UNL     1      -9.718   4.224  65.762  1.00  0.00    -0.208 C  
ENDBRANCH   7  23
TORSDOF 2
ENDMDL
MODEL       29
REMARK 921   NORMALIZED FREE ENERGY PREDICTED BY IDOCK:   -5.03 KCAL/MOL
REMARK 922        TOTAL FREE ENERGY PREDICTED BY IDOCK:   -5.84 KCAL/MOL
REMARK 923 INTER-LIGAND FREE ENERGY PREDICTED BY IDOCK:   -5.66 KCAL/MOL
REMARK 924 INTRA-LIGAND FREE ENERGY PREDICTED BY IDOCK:   -0.18 KCAL/MOL
REMARK 927      BINDING AFFINITY PREDICTED BY RF-SCORE:    0.00 PKD
ROOT
HETATM    1  C   UNL     1     -11.559  14.297  67.746  1.00  0.00    -0.383 C  
HETATM    2  C   UNL     1     -11.955  14.661  69.056  1.00  0.00    -0.318 C  
HETATM    3  C   UNL     1     -10.497  14.535  68.784  1.00  0.00    -0.246 C  
HETATM    4  C   UNL     1      -9.985  14.464  66.793  1.00  0.00    -0.263 C  
HETATM    5  C   UNL     1     -11.523  10.124  68.615  1.00  0.00    -0.105 C  
HETATM    6  O   UNL     1      -8.766  14.803  66.098  1.00  0.00    -0.449 OA 
HETATM    7  C   UNL     1     -10.053  15.534  67.641  1.00  0.00    -0.243 C  
HETATM    8  C   UNL     1      -8.396  14.923  68.330  1.00  0.00    -0.153 C  
HETATM    9  C   UNL     1     -10.958  12.520  67.724  1.00  0.00    -0.270 C  
HETATM   10  C   UNL     1     -10.091  10.004  69.082  1.00  0.00    -0.219 C  
HETATM   11  H   UNL     1      -8.530  14.770  65.179  1.00  0.00     0.000 HD 
HETATM   12  C   UNL     1      -8.169  13.280  68.003  1.00  0.00    -0.162 C  
HETATM   13  C   UNL     1     -11.984  11.576  68.402  1.00  0.00    -0.268 C  
HETATM   14  C   UNL     1      -9.338  12.215  68.328  1.00  0.00    -0.198 C  
HETATM   15  C   UNL     1      -7.089  13.005  67.241  1.00  0.00    -0.055 C  
HETATM   16  C   UNL     1      -9.063  10.681  68.176  1.00  0.00    -0.148 C  
HETATM   17  C   UNL     1      -7.640  10.178  68.500  1.00  0.00    -0.088 C  
HETATM   18  C   UNL     1      -7.278   9.970  69.958  1.00  0.00    -0.158 C  
HETATM   19  C   UNL     1      -8.365   9.340  70.808  1.00  0.00    -0.230 C  
HETATM   20  C   UNL     1      -9.755   9.428  70.251  1.00  0.00    -0.292 C  
ENDROOT
BRANCH   4  21
HETATM   21  C   UNL     1     -10.910  14.698  65.571  1.00  0.00    -0.352 C  
HETATM   22  C   UNL     1     -11.658  14.761  64.631  1.00  0.00    -0.401 C  
ENDBRANCH   4  21
BRANCH   7  23
HETATM   23  C   UNL     1     -10.133  17.008  67.311  1.00  0.00    -0.295 C  
HETATM   24  C   UNL     1     -10.287  17.840  68.580  1.00  0.00    -0.366 C  
ENDBRANCH   7  23
TORSDOF 2
ENDMDL
MODEL       30
REMARK 921   NORMALIZED FREE ENERGY PREDICTED BY IDOCK:   -5.01 KCAL/MOL
REMARK 922        TOTAL FREE ENERGY PREDICTED BY IDOCK:   -5.82 KCAL/MOL
REMARK 923 INTER-LIGAND FREE ENERGY PREDICTED BY IDOCK:   -5.57 KCAL/MOL
REMARK 924 INTRA-LIGAND FREE ENERGY PREDICTED BY IDOCK:   -0.25 KCAL/MOL
REMARK 927      BINDING AFFINITY PREDICTED BY RF-SCORE:    0.00 PKD
ROOT
HETATM    1  C   UNL     1      -9.976   9.968  64.917  1.00  0.00    -0.286 C  
HETATM    2  C   UNL     1      -9.530  10.315  63.619  1.00  0.00    -0.348 C  
HETATM    3  C   UNL     1      -8.757  10.840  64.778  1.00  0.00    -0.118 C  
HETATM    4  C   UNL     1      -9.173   9.938  66.580  1.00  0.00    -0.153 C  
HETATM    5  C   UNL     1     -12.446  13.422  65.291  1.00  0.00    -0.532 C  
HETATM    6  O   UNL     1      -8.395   9.792  67.787  1.00  0.00    -0.113 OA 
HETATM    7  C   UNL     1      -8.200   9.653  65.662  1.00  0.00    -0.121 C  
HETATM    8  C   UNL     1      -7.286  11.160  66.360  1.00  0.00    -0.094 C  
HETATM    9  C   UNL     1     -10.784  11.450  65.738  1.00  0.00    -0.309 C  
HETATM   10  C   UNL     1     -11.428  14.363  65.892  1.00  0.00    -0.341 C  
HETATM   11  H   UNL     1      -8.586   9.376  68.618  1.00  0.00     0.000 HD 
HETATM   12  C   UNL     1      -8.356  12.216  67.133  1.00  0.00    -0.183 C  
HETATM   13  C   UNL     1     -11.848  12.090  64.809  1.00  0.00    -0.325 C  
HETATM   14  C   UNL     1      -9.718  12.677  66.402  1.00  0.00    -0.259 C  
HETATM   15  C   UNL     1      -8.104  12.405  68.446  1.00  0.00    -0.143 C  
HETATM   16  C   UNL     1     -10.622  13.779  67.051  1.00  0.00    -0.278 C  
HETATM   17  C   UNL     1      -9.916  14.901  67.842  1.00  0.00    -0.219 C  
HETATM   18  C   UNL     1      -9.306  16.045  67.055  1.00  0.00    -0.233 C  
HETATM   19  C   UNL     1     -10.140  16.540  65.887  1.00  0.00    -0.359 C  
HETATM   20  C   UNL     1     -11.184  15.586  65.386  1.00  0.00    -0.228 C  
ENDROOT
BRANCH   4  21
HETATM   21  C   UNL     1     -10.050   8.684  66.829  1.00  0.00    -0.366 C  
HETATM   22  C   UNL     1     -10.654   7.684  67.114  1.00  0.00    -0.410 C  
ENDBRANCH   4  21
BRANCH   7  23
HETATM   23  C   UNL     1      -7.380   8.392  65.504  1.00  0.00    -0.083 C  
HETATM   24  C   UNL     1      -6.643   8.389  64.169  1.00  0.00    -0.071 C  
ENDBRANCH   7  23
TORSDOF 2
ENDMDL
MODEL       31
REMARK 921   NORMALIZED FREE ENERGY PREDICTED BY IDOCK:   -4.97 KCAL/MOL
REMARK 922        TOTAL FREE ENERGY PREDICTED BY IDOCK:   -5.77 KCAL/MOL
REMARK 923 INTER-LIGAND FREE ENERGY PREDICTED BY IDOCK:   -5.51 KCAL/MOL
REMARK 924 INTRA-LIGAND FREE ENERGY PREDICTED BY IDOCK:   -0.26 KCAL/MOL
REMARK 927      BINDING AFFINITY PREDICTED BY RF-SCORE:    0.00 PKD
ROOT
HETATM    1  C   UNL     1      -9.994  14.127  67.354  1.00  0.00    -0.240 C  
HETATM    2  C   UNL     1      -9.358  14.745  66.250  1.00  0.00    -0.310 C  
HETATM    3  C   UNL     1      -9.795  13.331  66.093  1.00  0.00    -0.286 C  
HETATM    4  C   UNL     1     -11.098  12.657  67.535  1.00  0.00    -0.272 C  
HETATM    5  C   UNL     1      -6.352  12.586  68.945  1.00  0.00    -0.086 C  
HETATM    6  O   UNL     1     -12.083  11.603  67.527  1.00  0.00    -0.611 OA 
HETATM    7  C   UNL     1     -11.356  13.201  66.307  1.00  0.00    -0.348 C  
HETATM    8  C   UNL     1     -10.886  11.503  65.606  1.00  0.00    -0.310 C  
HETATM    9  C   UNL     1      -8.831  12.897  68.162  1.00  0.00    -0.194 C  
HETATM   10  C   UNL     1      -6.331  11.263  68.217  1.00  0.00    -0.049 C  
HETATM   11  H   UNL     1     -12.685  11.292  68.193  1.00  0.00     0.000 HD 
HETATM   12  C   UNL     1      -9.919  10.642  66.692  1.00  0.00    -0.259 C  
HETATM   13  C   UNL     1      -7.452  13.543  68.457  1.00  0.00    -0.122 C  
HETATM   14  C   UNL     1      -8.633  11.342  67.371  1.00  0.00    -0.142 C  
HETATM   15  C   UNL     1     -10.453   9.476  67.114  1.00  0.00    -0.322 C  
HETATM   16  C   UNL     1      -7.650  10.494  68.246  1.00  0.00    -0.096 C  
HETATM   17  C   UNL     1      -7.429   9.021  67.841  1.00  0.00    -0.085 C  
HETATM   18  C   UNL     1      -6.463   8.736  66.707  1.00  0.00    -0.060 C  
HETATM   19  C   UNL     1      -5.198   9.573  66.713  1.00  0.00    -0.041 C  
HETATM   20  C   UNL     1      -5.262  10.838  67.517  1.00  0.00    -0.036 C  
ENDROOT
BRANCH   4  21
HETATM   21  C   UNL     1     -11.797  13.491  68.640  1.00  0.00    -0.404 C  
HETATM   22  C   UNL     1     -12.386  14.032  69.538  1.00  0.00    -0.275 C  
ENDBRANCH   4  21
BRANCH   7  23
HETATM   23  C   UNL     1     -12.639  13.805  65.784  1.00  0.00    -0.525 C  
HETATM   24  C   UNL     1     -12.408  14.488  64.440  1.00  0.00    -0.437 C  
ENDBRANCH   7  23
TORSDOF 2
ENDMDL
MODEL       32
REMARK 921   NORMALIZED FREE ENERGY PREDICTED BY IDOCK:   -4.94 KCAL/MOL
REMARK 922        TOTAL FREE ENERGY PREDICTED BY IDOCK:   -5.74 KCAL/MOL
REMARK 923 INTER-LIGAND FREE ENERGY PREDICTED BY IDOCK:   -6.07 KCAL/MOL
REMARK 924 INTRA-LIGAND FREE ENERGY PREDICTED BY IDOCK:    0.33 KCAL/MOL
REMARK 927      BINDING AFFINITY PREDICTED BY RF-SCORE:    0.00 PKD
ROOT
HETATM    1  C   UNL     1      -9.355   7.014  67.381  1.00  0.00    -0.141 C  
HETATM    2  C   UNL     1     -10.369   6.367  66.635  1.00  0.00    -0.223 C  
HETATM    3  C   UNL     1     -10.591   7.789  67.014  1.00  0.00    -0.396 C  
HETATM    4  C   UNL     1      -8.917   8.784  67.677  1.00  0.00    -0.135 C  
HETATM    5  C   UNL     1     -11.073   5.982  71.143  1.00  0.00    -0.336 C  
HETATM    6  O   UNL     1      -8.573  10.186  67.694  1.00  0.00    -0.118 OA 
HETATM    7  C   UNL     1      -9.451   8.711  66.420  1.00  0.00    -0.295 C  
HETATM    8  C   UNL     1     -10.729   9.969  67.035  1.00  0.00    -0.248 C  
HETATM    9  C   UNL     1      -9.902   7.231  69.162  1.00  0.00    -0.166 C  
HETATM   10  C   UNL     1     -11.970   7.185  71.318  1.00  0.00    -0.374 C  
HETATM   11  H   UNL     1      -7.799  10.645  67.999  1.00  0.00     0.000 HD 
HETATM   12  C   UNL     1     -10.850   9.940  68.721  1.00  0.00    -0.240 C  
HETATM   13  C   UNL     1     -10.421   5.894  69.753  1.00  0.00    -0.340 C  
HETATM   14  C   UNL     1     -11.024   8.538  69.502  1.00  0.00    -0.057 C  
HETATM   15  C   UNL     1     -10.533  11.105  69.324  1.00  0.00    -0.183 C  
HETATM   16  C   UNL     1     -11.299   8.530  71.043  1.00  0.00    -0.313 C  
HETATM   17  C   UNL     1     -12.143   9.686  71.621  1.00  0.00    -0.481 C  
HETATM   18  C   UNL     1     -13.651   9.600  71.480  1.00  0.00    -0.376 C  
HETATM   19  C   UNL     1     -14.242   8.223  71.717  1.00  0.00    -0.544 C  
HETATM   20  C   UNL     1     -13.282   7.077  71.601  1.00  0.00    -0.368 C  
ENDROOT
BRANCH   4  21
HETATM   21  C   UNL     1      -7.450   8.282  67.658  1.00  0.00    -0.094 C  
HETATM   22  C   UNL     1      -6.283   8.000  67.594  1.00  0.00    -0.052 C  
ENDBRANCH   4  21
BRANCH   7  23
HETATM   23  C   UNL     1      -8.802   9.017  65.089  1.00  0.00    -0.224 C  
HETATM   24  C   UNL     1      -9.567  10.112  64.352  1.00  0.00    -0.366 C  
ENDBRANCH   7  23
TORSDOF 2
ENDMDL
MODEL       33
REMARK 921   NORMALIZED FREE ENERGY PREDICTED BY IDOCK:   -4.88 KCAL/MOL
REMARK 922        TOTAL FREE ENERGY PREDICTED BY IDOCK:   -5.67 KCAL/MOL
REMARK 923 INTER-LIGAND FREE ENERGY PREDICTED BY IDOCK:   -5.43 KCAL/MOL
REMARK 924 INTRA-LIGAND FREE ENERGY PREDICTED BY IDOCK:   -0.24 KCAL/MOL
REMARK 927      BINDING AFFINITY PREDICTED BY RF-SCORE:    0.00 PKD
ROOT
HETATM    1  C   UNL     1     -10.495  10.167  70.046  1.00  0.00    -0.325 C  
HETATM    2  C   UNL     1     -11.885  10.431  70.049  1.00  0.00    -0.351 C  
HETATM    3  C   UNL     1     -11.365   9.476  69.033  1.00  0.00     0.116 C  
HETATM    4  C   UNL     1      -9.455   8.795  69.376  1.00  0.00    -0.161 C  
HETATM    5  C   UNL     1      -9.629  13.261  67.245  1.00  0.00    -0.234 C  
HETATM    6  O   UNL     1      -8.772   7.592  68.964  1.00  0.00    -0.135 OA 
HETATM    7  C   UNL     1     -10.656   8.247  69.732  1.00  0.00    -0.228 C  
HETATM    8  C   UNL     1     -10.784   7.685  67.926  1.00  0.00    -0.176 C  
HETATM    9  C   UNL     1      -9.680  11.010  68.582  1.00  0.00    -0.198 C  
HETATM   10  C   UNL     1      -9.784  12.461  65.972  1.00  0.00    -0.253 C  
HETATM   11  H   UNL     1      -7.890   7.278  69.122  1.00  0.00     0.000 HD 
HETATM   12  C   UNL     1      -9.804   8.630  66.924  1.00  0.00    -0.305 C  
HETATM   13  C   UNL     1     -10.080  12.507  68.507  1.00  0.00    -0.186 C  
HETATM   14  C   UNL     1      -9.858  10.240  67.013  1.00  0.00    -0.238 C  
HETATM   15  C   UNL     1      -8.839   7.943  66.277  1.00  0.00    -0.188 C  
HETATM   16  C   UNL     1      -9.072  11.109  65.975  1.00  0.00    -0.217 C  
HETATM   17  C   UNL     1      -8.948  10.559  64.538  1.00  0.00    -0.231 C  
HETATM   18  C   UNL     1     -10.131  10.740  63.605  1.00  0.00    -0.375 C  
HETATM   19  C   UNL     1     -10.819  12.090  63.694  1.00  0.00    -0.510 C  
HETATM   20  C   UNL     1     -10.564  12.866  64.952  1.00  0.00    -0.342 C  
ENDROOT
BRANCH   4  21
HETATM   21  C   UNL     1      -8.583   9.023  70.637  1.00  0.00    -0.245 C  
HETATM   22  C   UNL     1      -7.885   9.080  71.615  1.00  0.00     0.025 C  
ENDBRANCH   4  21
BRANCH   7  23
HETATM   23  C   UNL     1     -10.951   7.196  70.779  1.00  0.00    -0.278 C  
HETATM   24  C   UNL     1     -12.443   7.146  71.091  1.00  0.00    -0.400 C  
ENDBRANCH   7  23
TORSDOF 2
ENDMDL
MODEL       34
REMARK 921   NORMALIZED FREE ENERGY PREDICTED BY IDOCK:   -4.86 KCAL/MOL
REMARK 922        TOTAL FREE ENERGY PREDICTED BY IDOCK:   -5.65 KCAL/MOL
REMARK 923 INTER-LIGAND FREE ENERGY PREDICTED BY IDOCK:   -5.42 KCAL/MOL
REMARK 924 INTRA-LIGAND FREE ENERGY PREDICTED BY IDOCK:   -0.23 KCAL/MOL
REMARK 927      BINDING AFFINITY PREDICTED BY RF-SCORE:    0.00 PKD
ROOT
HETATM    1  C   UNL     1      -8.272  11.180  67.432  1.00  0.00    -0.132 C  
HETATM    2  C   UNL     1      -8.163  11.018  68.834  1.00  0.00    -0.127 C  
HETATM    3  C   UNL     1      -9.444  11.555  68.299  1.00  0.00    -0.189 C  
HETATM    4  C   UNL     1      -9.700  11.333  66.270  1.00  0.00    -0.216 C  
HETATM    5  C   UNL     1      -6.879  15.208  67.511  1.00  0.00    -0.203 C  
HETATM    6  O   UNL     1     -10.886  11.269  65.450  1.00  0.00    -0.261 OA 
HETATM    7  C   UNL     1     -10.107  10.527  67.297  1.00  0.00    -0.242 C  
HETATM    8  C   UNL     1     -11.488  11.796  67.569  1.00  0.00    -0.373 C  
HETATM    9  C   UNL     1      -8.184  13.000  66.986  1.00  0.00    -0.071 C  
HETATM   10  C   UNL     1      -8.209  15.902  67.696  1.00  0.00    -0.164 C  
HETATM   11  H   UNL     1     -11.004  11.166  64.513  1.00  0.00     0.000 HD 
HETATM   12  C   UNL     1     -11.072  13.298  66.916  1.00  0.00    -0.310 C  
HETATM   13  C   UNL     1      -6.956  13.678  67.647  1.00  0.00    -0.183 C  
HETATM   14  C   UNL     1      -9.635  13.958  67.237  1.00  0.00    -0.243 C  
HETATM   15  C   UNL     1     -11.900  13.734  65.942  1.00  0.00    -0.405 C  
HETATM   16  C   UNL     1      -9.319  15.417  66.765  1.00  0.00    -0.267 C  
HETATM   17  C   UNL     1     -10.488  16.425  66.743  1.00  0.00    -0.273 C  
HETATM   18  C   UNL     1     -10.889  17.072  68.055  1.00  0.00    -0.330 C  
HETATM   19  C   UNL     1      -9.734  17.482  68.951  1.00  0.00    -0.259 C  
HETATM   20  C   UNL     1      -8.424  16.810  68.666  1.00  0.00    -0.259 C  
ENDROOT
BRANCH   4  21
HETATM   21  C   UNL     1      -8.809  10.529  65.288  1.00  0.00    -0.205 C  
HETATM   22  C   UNL     1      -8.220   9.849  64.491  1.00  0.00    -0.162 C  
ENDBRANCH   4  21
BRANCH   7  23
HETATM   23  C   UNL     1     -10.533   9.076  67.258  1.00  0.00    -0.343 C  
HETATM   24  C   UNL     1     -10.526   8.471  68.658  1.00  0.00    -0.200 C  
ENDBRANCH   7  23
TORSDOF 2
ENDMDL
MODEL       35
REMARK 921   NORMALIZED FREE ENERGY PREDICTED BY IDOCK:   -4.85 KCAL/MOL
REMARK 922        TOTAL FREE ENERGY PREDICTED BY IDOCK:   -5.63 KCAL/MOL
REMARK 923 INTER-LIGAND FREE ENERGY PREDICTED BY IDOCK:   -5.46 KCAL/MOL
REMARK 924 INTRA-LIGAND FREE ENERGY PREDICTED BY IDOCK:   -0.17 KCAL/MOL
REMARK 927      BINDING AFFINITY PREDICTED BY RF-SCORE:    0.00 PKD
ROOT
HETATM    1  C   UNL     1      -9.814  16.117  68.186  1.00  0.00    -0.227 C  
HETATM    2  C   UNL     1      -9.026  16.245  69.355  1.00  0.00    -0.071 C  
HETATM    3  C   UNL     1      -8.801  15.049  68.497  1.00  0.00    -0.181 C  
HETATM    4  C   UNL     1      -9.630  15.159  66.618  1.00  0.00    -0.253 C  
HETATM    5  C   UNL     1     -12.851  13.856  70.146  1.00  0.00    -0.053 C  
HETATM    6  O   UNL     1      -9.294  14.504  65.377  1.00  0.00    -0.460 OA 
HETATM    7  C   UNL     1      -8.369  15.481  67.038  1.00  0.00    -0.265 C  
HETATM    8  C   UNL     1      -8.037  13.614  67.039  1.00  0.00    -0.004 C  
HETATM    9  C   UNL     1     -11.108  14.779  68.424  1.00  0.00    -0.274 C  
HETATM   10  C   UNL     1     -12.285  12.474  69.916  1.00  0.00    -0.233 C  
HETATM   11  H   UNL     1      -9.676  14.555  64.509  1.00  0.00     0.000 HD 
HETATM   12  C   UNL     1      -9.479  12.739  67.153  1.00  0.00    -0.223 C  
HETATM   13  C   UNL     1     -11.893  14.991  69.745  1.00  0.00    -0.357 C  
HETATM   14  C   UNL     1     -10.573  13.113  68.279  1.00  0.00    -0.260 C  
HETATM   15  C   UNL     1      -9.725  11.928  66.102  1.00  0.00    -0.251 C  
HETATM   16  C   UNL     1     -11.828  12.199  68.485  1.00  0.00    -0.365 C  
HETATM   17  C   UNL     1     -11.648  10.684  68.254  1.00  0.00    -0.245 C  
HETATM   18  C   UNL     1     -11.027   9.866  69.371  1.00  0.00    -0.263 C  
HETATM   19  C   UNL     1     -11.492  10.229  70.769  1.00  0.00    -0.438 C  
HETATM   20  C   UNL     1     -12.112  11.587  70.914  1.00  0.00    -0.352 C  
ENDROOT
BRANCH   4  21
HETATM   21  C   UNL     1     -10.295  16.389  65.949  1.00  0.00    -0.378 C  
HETATM   22  C   UNL     1     -10.699  17.389  65.418  1.00  0.00    -0.040 C  
ENDBRANCH   4  21
BRANCH   7  23
HETATM   23  C   UNL     1      -7.329  16.342  66.358  1.00  0.00    -0.066 C  
HETATM   24  C   UNL     1      -6.097  16.505  67.242  1.00  0.00    -0.204 C  
ENDBRANCH   7  23
TORSDOF 2
ENDMDL
MODEL       36
REMARK 921   NORMALIZED FREE ENERGY PREDICTED BY IDOCK:   -4.83 KCAL/MOL
REMARK 922        TOTAL FREE ENERGY PREDICTED BY IDOCK:   -5.62 KCAL/MOL
REMARK 923 INTER-LIGAND FREE ENERGY PREDICTED BY IDOCK:   -5.39 KCAL/MOL
REMARK 924 INTRA-LIGAND FREE ENERGY PREDICTED BY IDOCK:   -0.23 KCAL/MOL
REMARK 927      BINDING AFFINITY PREDICTED BY RF-SCORE:    0.00 PKD
ROOT
HETATM    1  C   UNL     1     -10.196   9.690  68.414  1.00  0.00    -0.214 C  
HETATM    2  C   UNL     1     -10.324   9.292  67.061  1.00  0.00    -0.325 C  
HETATM    3  C   UNL     1      -9.094  10.035  67.450  1.00  0.00    -0.146 C  
HETATM    4  C   UNL     1      -8.762  10.171  69.476  1.00  0.00    -0.174 C  
HETATM    5  C   UNL     1     -12.010  13.491  67.760  1.00  0.00    -0.369 C  
HETATM    6  O   UNL     1      -7.555  10.359  70.244  1.00  0.00    -0.404 OA 
HETATM    7  C   UNL     1      -8.300   9.254  68.572  1.00  0.00    -0.119 C  
HETATM    8  C   UNL     1      -7.068  10.595  68.044  1.00  0.00    -0.085 C  
HETATM    9  C   UNL     1     -10.465  11.540  68.571  1.00  0.00    -0.228 C  
HETATM   10  C   UNL     1     -10.767  14.276  67.412  1.00  0.00    -0.282 C  
HETATM   11  H   UNL     1      -7.402  10.421  71.179  1.00  0.00     0.000 HD 
HETATM   12  C   UNL     1      -7.624  12.134  68.469  1.00  0.00    -0.124 C  
HETATM   13  C   UNL     1     -11.775  11.975  67.864  1.00  0.00    -0.393 C  
HETATM   14  C   UNL     1      -9.131  12.585  68.109  1.00  0.00    -0.204 C  
HETATM   15  C   UNL     1      -6.821  12.801  69.325  1.00  0.00    -0.012 C  
HETATM   16  C   UNL     1      -9.588  14.062  68.358  1.00  0.00    -0.222 C  
HETATM   17  C   UNL     1      -8.532  15.172  68.170  1.00  0.00    -0.152 C  
HETATM   18  C   UNL     1      -8.236  15.636  66.757  1.00  0.00    -0.300 C  
HETATM   19  C   UNL     1      -9.451  15.778  65.858  1.00  0.00    -0.377 C  
HETATM   20  C   UNL     1     -10.675  15.033  66.301  1.00  0.00    -0.322 C  
ENDROOT
BRANCH   4  21
HETATM   21  C   UNL     1      -9.537   9.451  70.609  1.00  0.00    -0.331 C  
HETATM   22  C   UNL     1     -10.029   8.861  71.534  1.00  0.00    -0.391 C  
ENDBRANCH   4  21
BRANCH   7  23
HETATM   23  C   UNL     1      -7.721   7.880  68.821  1.00  0.00    -0.112 C  
HETATM   24  C   UNL     1      -7.412   7.175  67.504  1.00  0.00    -0.101 C  
ENDBRANCH   7  23
TORSDOF 2
ENDMDL
MODEL       37
REMARK 921   NORMALIZED FREE ENERGY PREDICTED BY IDOCK:   -4.81 KCAL/MOL
REMARK 922        TOTAL FREE ENERGY PREDICTED BY IDOCK:   -5.60 KCAL/MOL
REMARK 923 INTER-LIGAND FREE ENERGY PREDICTED BY IDOCK:   -5.35 KCAL/MOL
REMARK 924 INTRA-LIGAND FREE ENERGY PREDICTED BY IDOCK:   -0.25 KCAL/MOL
REMARK 927      BINDING AFFINITY PREDICTED BY RF-SCORE:    0.00 PKD
ROOT
HETATM    1  C   UNL     1      -8.085  10.692  67.099  1.00  0.00    -0.121 C  
HETATM    2  C   UNL     1      -7.918  10.409  68.476  1.00  0.00    -0.114 C  
HETATM    3  C   UNL     1      -9.265  10.847  68.018  1.00  0.00    -0.156 C  
HETATM    4  C   UNL     1      -9.553  10.792  65.982  1.00  0.00    -0.201 C  
HETATM    5  C   UNL     1      -7.148  14.826  67.548  1.00  0.00    -0.209 C  
HETATM    6  O   UNL     1     -10.747  10.672  65.181  1.00  0.00    -0.186 OA 
HETATM    7  C   UNL     1      -9.838   9.850  66.932  1.00  0.00    -0.252 C  
HETATM    8  C   UNL     1     -11.344  10.922  67.352  1.00  0.00    -0.273 C  
HETATM    9  C   UNL     1      -8.213  12.544  66.832  1.00  0.00    -0.070 C  
HETATM   10  C   UNL     1      -8.540  15.343  67.824  1.00  0.00    -0.162 C  
HETATM   11  H   UNL     1     -10.880  10.646  64.241  1.00  0.00     0.000 HD 
HETATM   12  C   UNL     1     -11.116  12.518  66.842  1.00  0.00    -0.323 C  
HETATM   13  C   UNL     1      -7.050  13.291  67.535  1.00  0.00    -0.156 C  
HETATM   14  C   UNL     1      -9.753  13.303  67.202  1.00  0.00    -0.236 C  
HETATM   15  C   UNL     1     -12.016  12.947  65.931  1.00  0.00    -0.504 C  
HETATM   16  C   UNL     1      -9.615  14.826  66.870  1.00  0.00    -0.251 C  
HETATM   17  C   UNL     1     -10.890  15.692  66.968  1.00  0.00    -0.294 C  
HETATM   18  C   UNL     1     -11.323  16.161  68.344  1.00  0.00    -0.345 C  
HETATM   19  C   UNL     1     -10.196  16.612  69.255  1.00  0.00    -0.291 C  
HETATM   20  C   UNL     1      -8.827  16.124  68.882  1.00  0.00    -0.248 C  
ENDROOT
BRANCH   4  21
HETATM   21  C   UNL     1      -8.607  10.192  64.911  1.00  0.00    -0.188 C  
HETATM   22  C   UNL     1      -7.960   9.752  63.998  1.00  0.00    -0.147 C  
ENDBRANCH   4  21
BRANCH   7  23
HETATM   23  C   UNL     1     -10.101   8.371  66.759  1.00  0.00    -0.373 C  
HETATM   24  C   UNL     1     -10.312   7.695  68.110  1.00  0.00    -0.250 C  
ENDBRANCH   7  23
TORSDOF 2
ENDMDL
MODEL       38
REMARK 921   NORMALIZED FREE ENERGY PREDICTED BY IDOCK:   -4.78 KCAL/MOL
REMARK 922        TOTAL FREE ENERGY PREDICTED BY IDOCK:   -5.57 KCAL/MOL
REMARK 923 INTER-LIGAND FREE ENERGY PREDICTED BY IDOCK:   -5.66 KCAL/MOL
REMARK 924 INTRA-LIGAND FREE ENERGY PREDICTED BY IDOCK:    0.10 KCAL/MOL
REMARK 927      BINDING AFFINITY PREDICTED BY RF-SCORE:    0.00 PKD
ROOT
HETATM    1  C   UNL     1      -9.645  13.446  68.469  1.00  0.00    -0.141 C  
HETATM    2  C   UNL     1     -10.424  13.598  69.641  1.00  0.00     0.440 C  
HETATM    3  C   UNL     1     -10.977  14.138  68.369  1.00  0.00    -0.270 C  
HETATM    4  C   UNL     1     -10.030  13.487  66.662  1.00  0.00    -0.282 C  
HETATM    5  C   UNL     1      -7.691  17.204  68.948  1.00  0.00    -0.230 C  
HETATM    6  O   UNL     1     -10.479  13.370  65.296  1.00  0.00    -0.300 OA 
HETATM    7  C   UNL     1     -11.135  12.988  67.295  1.00  0.00    -0.303 C  
HETATM    8  C   UNL     1     -12.075  14.432  66.504  1.00  0.00    -0.395 C  
HETATM    9  C   UNL     1      -8.897  15.095  67.975  1.00  0.00    -0.170 C  
HETATM   10  C   UNL     1      -8.671  18.066  68.186  1.00  0.00    -0.277 C  
HETATM   11  H   UNL     1     -10.042  13.069  64.509  1.00  0.00     0.000 HD 
HETATM   12  C   UNL     1     -11.024  15.689  66.090  1.00  0.00    -0.206 C  
HETATM   13  C   UNL     1      -8.181  15.765  69.176  1.00  0.00    -0.247 C  
HETATM   14  C   UNL     1      -9.950  16.240  67.160  1.00  0.00    -0.257 C  
HETATM   15  C   UNL     1     -10.992  15.979  64.772  1.00  0.00    -0.373 C  
HETATM   16  C   UNL     1      -9.093  17.508  66.828  1.00  0.00    -0.276 C  
HETATM   17  C   UNL     1      -9.755  18.608  65.971  1.00  0.00    -0.140 C  
HETATM   18  C   UNL     1     -10.691  19.578  66.666  1.00  0.00    -0.552 C  
HETATM   19  C   UNL     1     -10.231  20.051  68.032  1.00  0.00    -0.538 C  
HETATM   20  C   UNL     1      -9.202  19.190  68.703  1.00  0.00    -0.429 C  
ENDROOT
BRANCH   4  21
HETATM   21  C   UNL     1      -8.945  12.386  66.546  1.00  0.00    -0.145 C  
HETATM   22  C   UNL     1      -8.186  11.455  66.501  1.00  0.00    -0.152 C  
ENDBRANCH   4  21
BRANCH   7  23
HETATM   23  C   UNL     1     -11.774  11.624  67.161  1.00  0.00    -0.215 C  
HETATM   24  C   UNL     1     -12.025  11.006  68.533  1.00  0.00    -0.206 C  
ENDBRANCH   7  23
TORSDOF 2
ENDMDL
MODEL       39
REMARK 921   NORMALIZED FREE ENERGY PREDICTED BY IDOCK:   -4.69 KCAL/MOL
REMARK 922        TOTAL FREE ENERGY PREDICTED BY IDOCK:   -5.46 KCAL/MOL
REMARK 923 INTER-LIGAND FREE ENERGY PREDICTED BY IDOCK:   -5.42 KCAL/MOL
REMARK 924 INTRA-LIGAND FREE ENERGY PREDICTED BY IDOCK:   -0.05 KCAL/MOL
REMARK 927      BINDING AFFINITY PREDICTED BY RF-SCORE:    0.00 PKD
ROOT
HETATM    1  C   UNL     1     -10.165   7.243  69.774  1.00  0.00    -0.214 C  
HETATM    2  C   UNL     1     -11.356   6.834  69.127  1.00  0.00    -0.188 C  
HETATM    3  C   UNL     1     -11.380   6.948  70.611  1.00  0.00    -0.366 C  
HETATM    4  C   UNL     1      -9.795   7.971  71.431  1.00  0.00    -0.171 C  
HETATM    5  C   UNL     1      -8.769   3.254  70.331  1.00  0.00    -0.124 C  
HETATM    6  O   UNL     1      -9.651   8.690  72.674  1.00  0.00    -0.254 OA 
HETATM    7  C   UNL     1     -11.033   8.423  71.064  1.00  0.00    -0.288 C  
HETATM    8  C   UNL     1     -11.651   7.626  72.669  1.00  0.00    -0.371 C  
HETATM    9  C   UNL     1      -9.370   5.783  70.643  1.00  0.00    -0.186 C  
HETATM   10  C   UNL     1      -9.404   2.979  71.674  1.00  0.00    -0.198 C  
HETATM   11  H   UNL     1      -8.919   9.163  73.052  1.00  0.00     0.000 HD 
HETATM   12  C   UNL     1     -10.589   6.422  73.199  1.00  0.00    -0.278 C  
HETATM   13  C   UNL     1      -9.233   4.571  69.685  1.00  0.00    -0.195 C  
HETATM   14  C   UNL     1     -10.066   5.288  72.177  1.00  0.00    -0.241 C  
HETATM   15  C   UNL     1     -10.047   6.650  74.414  1.00  0.00    -0.343 C  
HETATM   16  C   UNL     1      -9.216   4.085  72.710  1.00  0.00    -0.135 C  
HETATM   17  C   UNL     1      -9.535   3.562  74.127  1.00  0.00    -0.115 C  
HETATM   18  C   UNL     1     -10.722   2.630  74.286  1.00  0.00    -0.204 C  
HETATM   19  C   UNL     1     -10.874   1.589  73.193  1.00  0.00    -0.237 C  
HETATM   20  C   UNL     1     -10.157   1.888  71.910  1.00  0.00    -0.210 C  
ENDROOT
BRANCH   4  21
HETATM   21  C   UNL     1      -8.697   8.770  70.681  1.00  0.00    -0.208 C  
HETATM   22  C   UNL     1      -7.766   9.340  70.177  1.00  0.00    -0.122 C  
ENDBRANCH   4  21
BRANCH   7  23
HETATM   23  C   UNL     1     -11.491   9.840  70.805  1.00  0.00    -0.417 C  
HETATM   24  C   UNL     1     -13.011   9.941  70.887  1.00  0.00    -0.351 C  
ENDBRANCH   7  23
TORSDOF 2
ENDMDL
MODEL       40
REMARK 921   NORMALIZED FREE ENERGY PREDICTED BY IDOCK:   -4.67 KCAL/MOL
REMARK 922        TOTAL FREE ENERGY PREDICTED BY IDOCK:   -5.44 KCAL/MOL
REMARK 923 INTER-LIGAND FREE ENERGY PREDICTED BY IDOCK:   -5.18 KCAL/MOL
REMARK 924 INTRA-LIGAND FREE ENERGY PREDICTED BY IDOCK:   -0.26 KCAL/MOL
REMARK 927      BINDING AFFINITY PREDICTED BY RF-SCORE:    0.00 PKD
ROOT
HETATM    1  C   UNL     1     -10.498   8.063  71.002  1.00  0.00    -0.229 C  
HETATM    2  C   UNL     1     -11.545   7.358  70.361  1.00  0.00    -0.210 C  
HETATM    3  C   UNL     1     -10.298   7.601  69.585  1.00  0.00    -0.213 C  
HETATM    4  C   UNL     1      -8.681   8.206  70.703  1.00  0.00    -0.135 C  
HETATM    5  C   UNL     1     -11.833  11.865  69.613  1.00  0.00    -0.406 C  
HETATM    6  O   UNL     1      -7.260   8.103  70.475  1.00  0.00    -0.047 OA 
HETATM    7  C   UNL     1      -9.052   6.950  70.309  1.00  0.00    -0.153 C  
HETATM    8  C   UNL     1      -8.351   7.420  68.611  1.00  0.00    -0.129 C  
HETATM    9  C   UNL     1     -10.379   9.805  70.316  1.00  0.00    -0.348 C  
HETATM   10  C   UNL     1     -11.067  11.911  68.312  1.00  0.00    -0.289 C  
HETATM   11  H   UNL     1      -6.513   8.382  70.992  1.00  0.00     0.000 HD 
HETATM   12  C   UNL     1      -8.298   9.099  68.418  1.00  0.00    -0.120 C  
HETATM   13  C   UNL     1     -11.764  10.503  70.324  1.00  0.00    -0.420 C  
HETATM   14  C   UNL     1      -9.593  10.000  68.758  1.00  0.00    -0.168 C  
HETATM   15  C   UNL     1      -7.060   9.600  68.225  1.00  0.00    -0.078 C  
HETATM   16  C   UNL     1      -9.592  11.530  68.424  1.00  0.00    -0.195 C  
HETATM   17  C   UNL     1      -8.818  11.982  67.167  1.00  0.00    -0.188 C  
HETATM   18  C   UNL     1      -9.497  11.817  65.820  1.00  0.00    -0.232 C  
HETATM   19  C   UNL     1     -10.974  12.165  65.797  1.00  0.00    -0.338 C  
HETATM   20  C   UNL     1     -11.658  12.175  67.131  1.00  0.00    -0.405 C  
ENDROOT
BRANCH   4  21
HETATM   21  C   UNL     1      -8.570   8.265  72.248  1.00  0.00    -0.257 C  
HETATM   22  C   UNL     1      -8.362   8.307  73.431  1.00  0.00    -0.252 C  
ENDBRANCH   4  21
BRANCH   7  23
HETATM   23  C   UNL     1      -8.617   5.611  70.861  1.00  0.00    -0.129 C  
HETATM   24  C   UNL     1      -9.500   4.490  70.322  1.00  0.00    -0.241 C  
ENDBRANCH   7  23
TORSDOF 2
ENDMDL
MODEL       41
REMARK 921   NORMALIZED FREE ENERGY PREDICTED BY IDOCK:   -4.62 KCAL/MOL
REMARK 922        TOTAL FREE ENERGY PREDICTED BY IDOCK:   -5.39 KCAL/MOL
REMARK 923 INTER-LIGAND FREE ENERGY PREDICTED BY IDOCK:   -5.16 KCAL/MOL
REMARK 924 INTRA-LIGAND FREE ENERGY PREDICTED BY IDOCK:   -0.23 KCAL/MOL
REMARK 927      BINDING AFFINITY PREDICTED BY RF-SCORE:    0.00 PKD
ROOT
HETATM    1  C   UNL     1      -9.650   9.122  70.853  1.00  0.00    -0.347 C  
HETATM    2  C   UNL     1     -10.412  10.020  70.066  1.00  0.00    -0.337 C  
HETATM    3  C   UNL     1     -10.715   8.567  69.947  1.00  0.00    -0.224 C  
HETATM    4  C   UNL     1      -9.911   7.385  71.426  1.00  0.00    -0.185 C  
HETATM    5  C   UNL     1      -6.711   8.525  67.824  1.00  0.00    -0.066 C  
HETATM    6  O   UNL     1     -10.302   6.100  71.952  1.00  0.00    -0.201 OA 
HETATM    7  C   UNL     1     -11.145   7.968  71.346  1.00  0.00    -0.278 C  
HETATM    8  C   UNL     1     -11.579   6.571  70.141  1.00  0.00    -0.466 C  
HETATM    9  C   UNL     1      -8.428   8.196  69.772  1.00  0.00    -0.125 C  
HETATM   10  C   UNL     1      -7.355   7.357  67.114  1.00  0.00    -0.097 C  
HETATM   11  H   UNL     1      -9.931   5.555  72.635  1.00  0.00     0.000 HD 
HETATM   12  C   UNL     1     -10.186   5.907  69.451  1.00  0.00    -0.284 C  
HETATM   13  C   UNL     1      -7.612   9.174  68.888  1.00  0.00    -0.076 C  
HETATM   14  C   UNL     1      -9.055   6.865  68.813  1.00  0.00    -0.133 C  
HETATM   15  C   UNL     1     -10.001   4.596  69.717  1.00  0.00    -0.295 C  
HETATM   16  C   UNL     1      -7.849   6.242  68.033  1.00  0.00    -0.104 C  
HETATM   17  C   UNL     1      -8.115   4.952  67.228  1.00  0.00    -0.106 C  
HETATM   18  C   UNL     1      -8.762   5.090  65.863  1.00  0.00    -0.131 C  
HETATM   19  C   UNL     1      -8.256   6.250  65.025  1.00  0.00    -0.132 C  
HETATM   20  C   UNL     1      -7.561   7.341  65.783  1.00  0.00    -0.091 C  
ENDROOT
BRANCH   4  21
HETATM   21  C   UNL     1      -9.190   7.849  72.718  1.00  0.00    -0.282 C  
HETATM   22  C   UNL     1      -8.711   8.141  73.782  1.00  0.00    -0.292 C  
ENDBRANCH   4  21
BRANCH   7  23
HETATM   23  C   UNL     1     -12.147   8.233  72.447  1.00  0.00    -0.430 C  
HETATM   24  C   UNL     1     -13.341   9.021  71.916  1.00  0.00    -0.474 C  
ENDBRANCH   7  23
TORSDOF 2
ENDMDL
MODEL       42
REMARK 921   NORMALIZED FREE ENERGY PREDICTED BY IDOCK:   -4.54 KCAL/MOL
REMARK 922        TOTAL FREE ENERGY PREDICTED BY IDOCK:   -5.30 KCAL/MOL
REMARK 923 INTER-LIGAND FREE ENERGY PREDICTED BY IDOCK:   -5.10 KCAL/MOL
REMARK 924 INTRA-LIGAND FREE ENERGY PREDICTED BY IDOCK:   -0.20 KCAL/MOL
REMARK 927      BINDING AFFINITY PREDICTED BY RF-SCORE:    0.00 PKD
ROOT
HETATM    1  C   UNL     1     -11.367  13.007  67.478  1.00  0.00    -0.346 C  
HETATM    2  C   UNL     1     -12.020  13.180  68.722  1.00  0.00    -0.316 C  
HETATM    3  C   UNL     1     -10.566  13.492  68.654  1.00  0.00    -0.259 C  
HETATM    4  C   UNL     1      -9.800  13.663  66.753  1.00  0.00    -0.271 C  
HETATM    5  C   UNL     1     -10.231   8.985  68.317  1.00  0.00    -0.241 C  
HETATM    6  O   UNL     1      -8.653  14.370  66.236  1.00  0.00    -0.414 OA 
HETATM    7  C   UNL     1     -10.287  14.628  67.590  1.00  0.00    -0.233 C  
HETATM    8  C   UNL     1      -8.628  14.488  68.498  1.00  0.00    -0.175 C  
HETATM    9  C   UNL     1     -10.277  11.481  67.528  1.00  0.00    -0.207 C  
HETATM   10  C   UNL     1      -8.900   9.261  68.977  1.00  0.00    -0.136 C  
HETATM   11  H   UNL     1      -8.300  14.449  65.358  1.00  0.00     0.000 HD 
HETATM   12  C   UNL     1      -7.893  12.997  68.195  1.00  0.00    -0.145 C  
HETATM   13  C   UNL     1     -11.063  10.251  68.051  1.00  0.00    -0.336 C  
HETATM   14  C   UNL     1      -8.732  11.627  68.349  1.00  0.00    -0.158 C  
HETATM   15  C   UNL     1      -6.690  13.080  67.588  1.00  0.00    -0.158 C  
HETATM   16  C   UNL     1      -8.005  10.245  68.227  1.00  0.00    -0.106 C  
HETATM   17  C   UNL     1      -6.552  10.159  68.741  1.00  0.00    -0.052 C  
HETATM   18  C   UNL     1      -6.339   9.997  70.234  1.00  0.00    -0.107 C  
HETATM   19  C   UNL     1      -7.297   9.041  70.921  1.00  0.00    -0.119 C  
HETATM   20  C   UNL     1      -8.567   8.752  70.178  1.00  0.00    -0.149 C  
ENDROOT
BRANCH   4  21
HETATM   21  C   UNL     1     -10.585  13.677  65.416  1.00  0.00    -0.322 C  
HETATM   22  C   UNL     1     -11.165  13.570  64.368  1.00  0.00    -0.399 C  
ENDBRANCH   4  21
BRANCH   7  23
HETATM   23  C   UNL     1     -10.749  16.030  67.261  1.00  0.00    -0.295 C  
HETATM   24  C   UNL     1     -11.375  16.695  68.483  1.00  0.00    -0.152 C  
ENDBRANCH   7  23
TORSDOF 2
ENDMDL
MODEL       43
REMARK 921   NORMALIZED FREE ENERGY PREDICTED BY IDOCK:   -4.53 KCAL/MOL
REMARK 922        TOTAL FREE ENERGY PREDICTED BY IDOCK:   -5.28 KCAL/MOL
REMARK 923 INTER-LIGAND FREE ENERGY PREDICTED BY IDOCK:   -5.05 KCAL/MOL
REMARK 924 INTRA-LIGAND FREE ENERGY PREDICTED BY IDOCK:   -0.23 KCAL/MOL
REMARK 927      BINDING AFFINITY PREDICTED BY RF-SCORE:    0.00 PKD
ROOT
HETATM    1  C   UNL     1     -11.204  13.054  66.847  1.00  0.00    -0.331 C  
HETATM    2  C   UNL     1     -11.860  12.410  67.924  1.00  0.00    -0.370 C  
HETATM    3  C   UNL     1     -10.513  12.990  68.182  1.00  0.00    -0.252 C  
HETATM    4  C   UNL     1      -9.833  14.288  66.739  1.00  0.00    -0.270 C  
HETATM    5  C   UNL     1      -9.186   9.515  65.593  1.00  0.00    -0.281 C  
HETATM    6  O   UNL     1      -8.881  15.371  66.789  1.00  0.00    -0.227 OA 
HETATM    7  C   UNL     1     -10.511  14.546  67.899  1.00  0.00    -0.242 C  
HETATM    8  C   UNL     1      -8.850  14.276  68.772  1.00  0.00    -0.094 C  
HETATM    9  C   UNL     1      -9.800  11.983  66.213  1.00  0.00    -0.250 C  
HETATM   10  C   UNL     1      -7.941   9.656  66.436  1.00  0.00    -0.108 C  
HETATM   11  H   UNL     1      -8.568  15.971  66.123  1.00  0.00     0.000 HD 
HETATM   12  C   UNL     1      -7.804  13.351  67.819  1.00  0.00    -0.158 C  
HETATM   13  C   UNL     1     -10.284  10.536  65.936  1.00  0.00    -0.311 C  
HETATM   14  C   UNL     1      -8.314  11.974  67.149  1.00  0.00    -0.181 C  
HETATM   15  C   UNL     1      -6.659  13.978  67.475  1.00  0.00    -0.101 C  
HETATM   16  C   UNL     1      -7.299  11.042  66.406  1.00  0.00    -0.128 C  
HETATM   17  C   UNL     1      -5.856  10.985  66.951  1.00  0.00    -0.083 C  
HETATM   18  C   UNL     1      -5.590  10.102  68.156  1.00  0.00    -0.038 C  
HETATM   19  C   UNL     1      -6.300   8.761  68.142  1.00  0.00    -0.056 C  
HETATM   20  C   UNL     1      -7.484   8.665  67.226  1.00  0.00    -0.089 C  
ENDROOT
BRANCH   4  21
HETATM   21  C   UNL     1     -10.622  14.853  65.530  1.00  0.00    -0.373 C  
HETATM   22  C   UNL     1     -11.209  15.402  64.635  1.00  0.00    -0.374 C  
ENDBRANCH   4  21
BRANCH   7  23
HETATM   23  C   UNL     1     -11.280  15.785  68.298  1.00  0.00    -0.356 C  
HETATM   24  C   UNL     1     -11.987  15.578  69.634  1.00  0.00    -0.380 C  
ENDBRANCH   7  23
TORSDOF 2
ENDMDL
MODEL       44
REMARK 921   NORMALIZED FREE ENERGY PREDICTED BY IDOCK:   -4.53 KCAL/MOL
REMARK 922        TOTAL FREE ENERGY PREDICTED BY IDOCK:   -5.28 KCAL/MOL
REMARK 923 INTER-LIGAND FREE ENERGY PREDICTED BY IDOCK:   -5.03 KCAL/MOL
REMARK 924 INTRA-LIGAND FREE ENERGY PREDICTED BY IDOCK:   -0.24 KCAL/MOL
REMARK 927      BINDING AFFINITY PREDICTED BY RF-SCORE:    0.00 PKD
ROOT
HETATM    1  C   UNL     1     -11.930  12.991  67.084  1.00  0.00    -0.389 C  
HETATM    2  C   UNL     1     -12.636  13.752  66.122  1.00  0.00    -0.423 C  
HETATM    3  C   UNL     1     -11.149  13.764  66.057  1.00  0.00    -0.291 C  
HETATM    4  C   UNL     1     -10.218  12.302  67.164  1.00  0.00    -0.211 C  
HETATM    5  C   UNL     1     -11.608  16.239  69.826  1.00  0.00    -0.140 C  
HETATM    6  O   UNL     1      -8.925  11.674  67.037  1.00  0.00    -0.170 OA 
HETATM    7  C   UNL     1     -10.586  12.301  65.847  1.00  0.00    -0.290 C  
HETATM    8  C   UNL     1      -9.057  13.384  65.556  1.00  0.00     0.751 C  
HETATM    9  C   UNL     1     -11.141  14.126  68.352  1.00  0.00    -0.273 C  
HETATM   10  C   UNL     1     -10.306  16.822  69.331  1.00  0.00    -0.276 C  
HETATM   11  H   UNL     1      -8.495  10.999  67.548  1.00  0.00     0.000 HD 
HETATM   12  C   UNL     1      -8.582  14.160  66.981  1.00  0.00    -0.204 C  
HETATM   13  C   UNL     1     -12.175  15.134  68.919  1.00  0.00    -0.138 C  
HETATM   14  C   UNL     1      -9.664  14.951  67.880  1.00  0.00    -0.206 C  
HETATM   15  C   UNL     1      -7.339  13.842  67.403  1.00  0.00    -0.125 C  
HETATM   16  C   UNL     1      -9.192  15.802  69.106  1.00  0.00    -0.256 C  
HETATM   17  C   UNL     1      -7.823  16.508  68.995  1.00  0.00    -0.226 C  
HETATM   18  C   UNL     1      -7.761  17.814  68.225  1.00  0.00    -0.266 C  
HETATM   19  C   UNL     1      -8.927  18.756  68.460  1.00  0.00    -0.375 C  
HETATM   20  C   UNL     1     -10.166  18.126  69.023  1.00  0.00    -0.237 C  
ENDROOT
BRANCH   4  21
HETATM   21  C   UNL     1     -10.880  11.109  67.900  1.00  0.00    -0.285 C  
HETATM   22  C   UNL     1     -11.280  10.143  68.494  1.00  0.00    -0.226 C  
ENDBRANCH   4  21
BRANCH   7  23
HETATM   23  C   UNL     1     -10.761  11.129  64.908  1.00  0.00    -0.318 C  
HETATM   24  C   UNL     1     -11.217  11.601  63.531  1.00  0.00    -0.462 C  
ENDBRANCH   7  23
TORSDOF 2
ENDMDL
MODEL       45
REMARK 921   NORMALIZED FREE ENERGY PREDICTED BY IDOCK:   -4.47 KCAL/MOL
REMARK 922        TOTAL FREE ENERGY PREDICTED BY IDOCK:   -5.22 KCAL/MOL
REMARK 923 INTER-LIGAND FREE ENERGY PREDICTED BY IDOCK:   -5.34 KCAL/MOL
REMARK 924 INTRA-LIGAND FREE ENERGY PREDICTED BY IDOCK:    0.12 KCAL/MOL
REMARK 927      BINDING AFFINITY PREDICTED BY RF-SCORE:    0.00 PKD
ROOT
HETATM    1  C   UNL     1      -7.928   9.592  68.717  1.00  0.00    -0.089 C  
HETATM    2  C   UNL     1      -7.081  10.544  69.335  1.00  0.00    -0.110 C  
HETATM    3  C   UNL     1      -8.036   9.802  70.203  1.00  0.00    -0.201 C  
HETATM    4  C   UNL     1      -8.890   8.142  69.338  1.00  0.00    -0.143 C  
HETATM    5  C   UNL     1     -11.065  12.402  68.058  1.00  0.00    -0.288 C  
HETATM    6  O   UNL     1      -9.455   6.943  69.906  1.00  0.00    -0.157 OA 
HETATM    7  C   UNL     1      -7.773   8.245  70.121  1.00  0.00    -0.084 C  
HETATM    8  C   UNL     1      -8.973   8.390  71.581  1.00  0.00    -0.261 C  
HETATM    9  C   UNL     1      -9.681  10.254  68.626  1.00  0.00    -0.171 C  
HETATM   10  C   UNL     1     -11.808  12.219  69.360  1.00  0.00    -0.370 C  
HETATM   11  H   UNL     1      -9.848   6.176  69.507  1.00  0.00     0.000 HD 
HETATM   12  C   UNL     1     -10.497   8.909  71.067  1.00  0.00    -0.316 C  
HETATM   13  C   UNL     1      -9.709  11.678  68.012  1.00  0.00    -0.182 C  
HETATM   14  C   UNL     1     -10.638  10.192  70.097  1.00  0.00    -0.337 C  
HETATM   15  C   UNL     1     -11.497   8.036  71.313  1.00  0.00    -0.299 C  
HETATM   16  C   UNL     1     -12.055  10.765  69.757  1.00  0.00    -0.389 C  
HETATM   17  C   UNL     1     -13.138  10.678  70.854  1.00  0.00    -0.342 C  
HETATM   18  C   UNL     1     -13.118  11.724  71.953  1.00  0.00    -0.482 C  
HETATM   19  C   UNL     1     -12.816  13.137  71.491  1.00  0.00    -0.401 C  
HETATM   20  C   UNL     1     -12.144  13.252  70.155  1.00  0.00    -0.403 C  
ENDROOT
BRANCH   4  21
HETATM   21  C   UNL     1      -8.525   7.493  67.978  1.00  0.00    -0.123 C  
HETATM   22  C   UNL     1      -8.283   6.884  66.970  1.00  0.00    -0.120 C  
ENDBRANCH   4  21
BRANCH   7  23
HETATM   23  C   UNL     1      -6.635   7.263  70.289  1.00  0.00    -0.047 C  
HETATM   24  C   UNL     1      -5.351   7.811  69.673  1.00  0.00    -0.023 C  
ENDBRANCH   7  23
TORSDOF 2
ENDMDL
MODEL       46
REMARK 921   NORMALIZED FREE ENERGY PREDICTED BY IDOCK:   -4.47 KCAL/MOL
REMARK 922        TOTAL FREE ENERGY PREDICTED BY IDOCK:   -5.21 KCAL/MOL
REMARK 923 INTER-LIGAND FREE ENERGY PREDICTED BY IDOCK:   -4.96 KCAL/MOL
REMARK 924 INTRA-LIGAND FREE ENERGY PREDICTED BY IDOCK:   -0.25 KCAL/MOL
REMARK 927      BINDING AFFINITY PREDICTED BY RF-SCORE:    0.00 PKD
ROOT
HETATM    1  C   UNL     1      -8.907  10.431  66.911  1.00  0.00    -0.141 C  
HETATM    2  C   UNL     1      -8.464  10.250  65.578  1.00  0.00    -0.167 C  
HETATM    3  C   UNL     1      -7.992  11.460  66.306  1.00  0.00    -0.037 C  
HETATM    4  C   UNL     1      -8.289  11.423  68.341  1.00  0.00    -0.153 C  
HETATM    5  C   UNL     1     -12.308  12.730  65.763  1.00  0.00    -0.388 C  
HETATM    6  O   UNL     1      -7.618  12.098  69.425  1.00  0.00    -0.327 OA 
HETATM    7  C   UNL     1      -7.194  11.053  67.610  1.00  0.00    -0.093 C  
HETATM    8  C   UNL     1      -6.833  12.908  67.460  1.00  0.00    -0.155 C  
HETATM    9  C   UNL     1     -10.188  11.800  66.984  1.00  0.00    -0.240 C  
HETATM   10  C   UNL     1     -11.672  14.100  65.788  1.00  0.00    -0.360 C  
HETATM   11  H   UNL     1      -7.755  12.081  70.365  1.00  0.00     0.000 HD 
HETATM   12  C   UNL     1      -8.234  13.822  67.707  1.00  0.00    -0.174 C  
HETATM   13  C   UNL     1     -11.303  11.578  65.929  1.00  0.00    -0.174 C  
HETATM   14  C   UNL     1      -9.597  13.453  66.928  1.00  0.00    -0.257 C  
HETATM   15  C   UNL     1      -8.171  14.667  68.759  1.00  0.00    -0.156 C  
HETATM   16  C   UNL     1     -10.842  14.397  67.035  1.00  0.00    -0.297 C  
HETATM   17  C   UNL     1     -10.574  15.912  67.160  1.00  0.00    -0.316 C  
HETATM   18  C   UNL     1     -10.258  16.683  65.893  1.00  0.00    -0.358 C  
HETATM   19  C   UNL     1     -11.088  16.298  64.682  1.00  0.00    -0.259 C  
HETATM   20  C   UNL     1     -11.753  14.956  64.752  1.00  0.00    -0.402 C  
ENDROOT
BRANCH   4  21
HETATM   21  C   UNL     1      -8.777  10.230  69.203  1.00  0.00    -0.176 C  
HETATM   22  C   UNL     1      -9.117   9.367  69.969  1.00  0.00    -0.244 C  
ENDBRANCH   4  21
BRANCH   7  23
HETATM   23  C   UNL     1      -6.029  10.178  68.015  1.00  0.00    -0.041 C  
HETATM   24  C   UNL     1      -5.238   9.727  66.790  1.00  0.00    -0.041 C  
ENDBRANCH   7  23
TORSDOF 2
ENDMDL
MODEL       47
REMARK 921   NORMALIZED FREE ENERGY PREDICTED BY IDOCK:   -4.46 KCAL/MOL
REMARK 922        TOTAL FREE ENERGY PREDICTED BY IDOCK:   -5.21 KCAL/MOL
REMARK 923 INTER-LIGAND FREE ENERGY PREDICTED BY IDOCK:   -5.03 KCAL/MOL
REMARK 924 INTRA-LIGAND FREE ENERGY PREDICTED BY IDOCK:   -0.18 KCAL/MOL
REMARK 927      BINDING AFFINITY PREDICTED BY RF-SCORE:    0.00 PKD
ROOT
HETATM    1  C   UNL     1     -11.263  11.294  67.319  1.00  0.00    -0.364 C  
HETATM    2  C   UNL     1     -11.730  11.124  68.644  1.00  0.00    -0.389 C  
HETATM    3  C   UNL     1     -10.341  11.626  68.459  1.00  0.00    -0.224 C  
HETATM    4  C   UNL     1      -9.897  12.279  66.560  1.00  0.00    -0.229 C  
HETATM    5  C   UNL     1      -9.629   7.364  67.095  1.00  0.00    -0.204 C  
HETATM    6  O   UNL     1      -8.917  13.217  66.068  1.00  0.00    -0.436 OA 
HETATM    7  C   UNL     1     -10.340  12.982  67.646  1.00  0.00    -0.222 C  
HETATM    8  C   UNL     1      -8.556  12.872  68.278  1.00  0.00    -0.170 C  
HETATM    9  C   UNL     1     -10.036   9.941  66.889  1.00  0.00    -0.285 C  
HETATM   10  C   UNL     1      -8.245   7.666  67.621  1.00  0.00    -0.121 C  
HETATM   11  H   UNL     1      -8.712  13.518  65.190  1.00  0.00     0.000 HD 
HETATM   12  C   UNL     1      -7.735  11.580  67.560  1.00  0.00    -0.132 C  
HETATM   13  C   UNL     1     -10.610   8.540  67.226  1.00  0.00    -0.315 C  
HETATM   14  C   UNL     1      -8.404  10.112  67.515  1.00  0.00    -0.118 C  
HETATM   15  C   UNL     1      -6.654  11.938  66.836  1.00  0.00    -0.083 C  
HETATM   16  C   UNL     1      -7.575   8.889  66.998  1.00  0.00    -0.094 C  
HETATM   17  C   UNL     1      -6.059   8.885  67.288  1.00  0.00    -0.058 C  
HETATM   18  C   UNL     1      -5.604   8.449  68.667  1.00  0.00    -0.037 C  
HETATM   19  C   UNL     1      -6.348   7.259  69.245  1.00  0.00    -0.036 C  
HETATM   20  C   UNL     1      -7.683   6.968  68.627  1.00  0.00    -0.120 C  
ENDROOT
BRANCH   4  21
HETATM   21  C   UNL     1     -10.876  12.466  65.373  1.00  0.00    -0.320 C  
HETATM   22  C   UNL     1     -11.538  12.641  64.384  1.00  0.00    -0.415 C  
ENDBRANCH   4  21
BRANCH   7  23
HETATM   23  C   UNL     1     -10.981  14.351  67.697  1.00  0.00    -0.294 C  
HETATM   24  C   UNL     1     -11.882  14.482  68.921  1.00  0.00    -0.359 C  
ENDBRANCH   7  23
TORSDOF 2
ENDMDL
MODEL       48
REMARK 921   NORMALIZED FREE ENERGY PREDICTED BY IDOCK:   -4.39 KCAL/MOL
REMARK 922        TOTAL FREE ENERGY PREDICTED BY IDOCK:   -5.13 KCAL/MOL
REMARK 923 INTER-LIGAND FREE ENERGY PREDICTED BY IDOCK:   -4.91 KCAL/MOL
REMARK 924 INTRA-LIGAND FREE ENERGY PREDICTED BY IDOCK:   -0.22 KCAL/MOL
REMARK 927      BINDING AFFINITY PREDICTED BY RF-SCORE:    0.00 PKD
ROOT
HETATM    1  C   UNL     1     -11.161   7.629  69.869  1.00  0.00    -0.160 C  
HETATM    2  C   UNL     1     -11.230   6.263  69.503  1.00  0.00    -0.500 C  
HETATM    3  C   UNL     1      -9.960   6.753  70.106  1.00  0.00    -0.191 C  
HETATM    4  C   UNL     1     -10.085   8.591  71.022  1.00  0.00    -0.205 C  
HETATM    5  C   UNL     1      -9.576   8.844  66.103  1.00  0.00    -0.335 C  
HETATM    6  O   UNL     1      -9.303   9.200  72.071  1.00  0.00    -0.337 OA 
HETATM    7  C   UNL     1     -10.217   7.338  71.553  1.00  0.00    -0.206 C  
HETATM    8  C   UNL     1      -8.325   7.247  71.467  1.00  0.00    -0.109 C  
HETATM    9  C   UNL     1     -10.078   8.566  68.658  1.00  0.00    -0.207 C  
HETATM   10  C   UNL     1      -8.107   8.685  66.416  1.00  0.00    -0.100 C  
HETATM   11  H   UNL     1      -9.361  10.048  72.494  1.00  0.00     0.000 HD 
HETATM   12  C   UNL     1      -7.715   8.337  70.329  1.00  0.00    -0.084 C  
HETATM   13  C   UNL     1     -10.505   8.283  67.194  1.00  0.00    -0.386 C  
HETATM   14  C   UNL     1      -8.339   8.400  68.842  1.00  0.00    -0.119 C  
HETATM   15  C   UNL     1      -6.889   9.276  70.840  1.00  0.00    -0.103 C  
HETATM   16  C   UNL     1      -7.666   9.293  67.747  1.00  0.00    -0.088 C  
HETATM   17  C   UNL     1      -6.130   9.438  67.795  1.00  0.00    -0.053 C  
HETATM   18  C   UNL     1      -5.294   8.314  67.212  1.00  0.00    -0.037 C  
HETATM   19  C   UNL     1      -5.820   7.725  65.917  1.00  0.00    -0.037 C  
HETATM   20  C   UNL     1      -7.270   7.983  65.630  1.00  0.00    -0.071 C  
ENDROOT
BRANCH   4  21
HETATM   21  C   UNL     1     -11.363   9.422  71.302  1.00  0.00    -0.436 C  
HETATM   22  C   UNL     1     -12.336  10.044  71.638  1.00  0.00    -0.486 C  
ENDBRANCH   4  21
BRANCH   7  23
HETATM   23  C   UNL     1     -10.845   6.920  72.864  1.00  0.00    -0.318 C  
HETATM   24  C   UNL     1     -11.005   5.404  72.929  1.00  0.00    -0.338 C  
ENDBRANCH   7  23
TORSDOF 2
ENDMDL
MODEL       49
REMARK 921   NORMALIZED FREE ENERGY PREDICTED BY IDOCK:   -4.38 KCAL/MOL
REMARK 922        TOTAL FREE ENERGY PREDICTED BY IDOCK:   -5.11 KCAL/MOL
REMARK 923 INTER-LIGAND FREE ENERGY PREDICTED BY IDOCK:   -4.96 KCAL/MOL
REMARK 924 INTRA-LIGAND FREE ENERGY PREDICTED BY IDOCK:   -0.15 KCAL/MOL
REMARK 927      BINDING AFFINITY PREDICTED BY RF-SCORE:    0.00 PKD
ROOT
HETATM    1  C   UNL     1      -8.772   9.260  69.166  1.00  0.00    -0.139 C  
HETATM    2  C   UNL     1      -8.173   9.467  70.432  1.00  0.00    -0.220 C  
HETATM    3  C   UNL     1      -9.322  10.338  70.059  1.00  0.00     0.061 C  
HETATM    4  C   UNL     1     -10.417   9.691  68.442  1.00  0.00    -0.223 C  
HETATM    5  C   UNL     1      -6.274  12.106  67.209  1.00  0.00    -0.152 C  
HETATM    6  O   UNL     1     -11.785   9.928  68.048  1.00  0.00    -0.531 OA 
HETATM    7  C   UNL     1     -10.614   9.471  69.778  1.00  0.00    -0.257 C  
HETATM    8  C   UNL     1     -11.299  11.238  69.832  1.00  0.00    -0.329 C  
HETATM    9  C   UNL     1      -8.302  10.649  67.995  1.00  0.00    -0.118 C  
HETATM   10  C   UNL     1      -7.130  13.334  67.413  1.00  0.00    -0.111 C  
HETATM   11  H   UNL     1     -12.290   9.628  67.302  1.00  0.00     0.000 HD 
HETATM   12  C   UNL     1     -10.727  12.153  68.531  1.00  0.00    -0.257 C  
HETATM   13  C   UNL     1      -6.767  10.873  67.984  1.00  0.00    -0.063 C  
HETATM   14  C   UNL     1      -9.152  12.174  68.178  1.00  0.00    -0.196 C  
HETATM   15  C   UNL     1     -11.691  12.615  67.706  1.00  0.00    -0.412 C  
HETATM   16  C   UNL     1      -8.609  13.147  67.079  1.00  0.00    -0.168 C  
HETATM   17  C   UNL     1      -9.309  14.515  66.932  1.00  0.00    -0.258 C  
HETATM   18  C   UNL     1      -8.932  15.612  67.910  1.00  0.00    -0.180 C  
HETATM   19  C   UNL     1      -7.453  15.705  68.233  1.00  0.00    -0.116 C  
HETATM   20  C   UNL     1      -6.646  14.476  67.937  1.00  0.00    -0.178 C  
ENDROOT
BRANCH   4  21
HETATM   21  C   UNL     1     -10.289   8.338  67.696  1.00  0.00    -0.313 C  
HETATM   22  C   UNL     1     -10.305   7.307  67.078  1.00  0.00    -0.376 C  
ENDBRANCH   4  21
BRANCH   7  23
HETATM   23  C   UNL     1     -11.453   8.410  70.454  1.00  0.00    -0.129 C  
HETATM   24  C   UNL     1     -10.861   8.033  71.809  1.00  0.00    -0.297 C  
ENDBRANCH   7  23
TORSDOF 2
ENDMDL
MODEL       50
REMARK 921   NORMALIZED FREE ENERGY PREDICTED BY IDOCK:   -4.38 KCAL/MOL
REMARK 922        TOTAL FREE ENERGY PREDICTED BY IDOCK:   -5.11 KCAL/MOL
REMARK 923 INTER-LIGAND FREE ENERGY PREDICTED BY IDOCK:   -4.87 KCAL/MOL
REMARK 924 INTRA-LIGAND FREE ENERGY PREDICTED BY IDOCK:   -0.24 KCAL/MOL
REMARK 927      BINDING AFFINITY PREDICTED BY RF-SCORE:    0.00 PKD
ROOT
HETATM    1  C   UNL     1     -10.464   8.603  71.662  1.00  0.00    -0.366 C  
HETATM    2  C   UNL     1     -11.075   9.696  71.001  1.00  0.00    -0.438 C  
HETATM    3  C   UNL     1     -11.039   8.389  70.288  1.00  0.00    -0.216 C  
HETATM    4  C   UNL     1     -10.566   6.769  71.465  1.00  0.00    -0.219 C  
HETATM    5  C   UNL     1      -6.625   9.370  69.974  1.00  0.00    -0.059 C  
HETATM    6  O   UNL     1     -10.859   5.363  71.330  1.00  0.00    -0.222 OA 
HETATM    7  C   UNL     1     -11.790   7.276  71.123  1.00  0.00    -0.345 C  
HETATM    8  C   UNL     1     -11.523   6.433  69.447  1.00  0.00    -0.374 C  
HETATM    9  C   UNL     1      -8.799   8.228  70.883  1.00  0.00    -0.171 C  
HETATM   10  C   UNL     1      -6.760   8.536  68.721  1.00  0.00    -0.058 C  
HETATM   11  H   UNL     1     -10.641   4.615  71.874  1.00  0.00     0.000 HD 
HETATM   12  C   UNL     1      -9.880   6.157  69.159  1.00  0.00    -0.176 C  
HETATM   13  C   UNL     1      -7.936   9.511  70.767  1.00  0.00    -0.090 C  
HETATM   14  C   UNL     1      -8.805   7.343  69.367  1.00  0.00    -0.137 C  
HETATM   15  C   UNL     1      -9.549   4.856  69.012  1.00  0.00    -0.224 C  
HETATM   16  C   UNL     1      -7.312   7.130  68.944  1.00  0.00    -0.093 C  
HETATM   17  C   UNL     1      -7.043   6.239  67.712  1.00  0.00    -0.081 C  
HETATM   18  C   UNL     1      -7.211   6.862  66.339  1.00  0.00    -0.075 C  
HETATM   19  C   UNL     1      -6.685   8.279  66.206  1.00  0.00    -0.057 C  
HETATM   20  C   UNL     1      -6.503   9.026  67.494  1.00  0.00    -0.064 C  
ENDROOT
BRANCH   4  21
HETATM   21  C   UNL     1     -10.420   6.733  73.008  1.00  0.00    -0.280 C  
HETATM   22  C   UNL     1     -10.252   6.597  74.191  1.00  0.00    -0.390 C  
ENDBRANCH   4  21
BRANCH   7  23
HETATM   23  C   UNL     1     -13.133   7.045  71.779  1.00  0.00    -0.343 C  
HETATM   24  C   UNL     1     -14.128   8.127  71.372  1.00  0.00    -0.396 C  
ENDBRANCH   7  23
TORSDOF 2
ENDMDL
MODEL       51
REMARK 921   NORMALIZED FREE ENERGY PREDICTED BY IDOCK:   -4.34 KCAL/MOL
REMARK 922        TOTAL FREE ENERGY PREDICTED BY IDOCK:   -5.08 KCAL/MOL
REMARK 923 INTER-LIGAND FREE ENERGY PREDICTED BY IDOCK:   -4.94 KCAL/MOL
REMARK 924 INTRA-LIGAND FREE ENERGY PREDICTED BY IDOCK:   -0.13 KCAL/MOL
REMARK 927      BINDING AFFINITY PREDICTED BY RF-SCORE:    0.00 PKD
ROOT
HETATM    1  C   UNL     1      -9.495   7.701  71.646  1.00  0.00    -0.174 C  
HETATM    2  C   UNL     1      -9.562   8.386  72.883  1.00  0.00    -0.269 C  
HETATM    3  C   UNL     1     -10.096   9.079  71.678  1.00  0.00    -0.405 C  
HETATM    4  C   UNL     1     -10.387   7.873  70.037  1.00  0.00    -0.221 C  
HETATM    5  C   UNL     1      -5.696   9.344  70.627  1.00  0.00    -0.052 C  
HETATM    6  O   UNL     1     -11.263   7.992  68.898  1.00  0.00    -0.396 OA 
HETATM    7  C   UNL     1     -11.264   8.239  71.021  1.00  0.00    -0.291 C  
HETATM    8  C   UNL     1     -11.380   9.900  70.114  1.00  0.00    -0.335 C  
HETATM    9  C   UNL     1      -8.155   8.450  70.566  1.00  0.00    -0.107 C  
HETATM   10  C   UNL     1      -6.173  10.587  69.912  1.00  0.00    -0.090 C  
HETATM   11  H   UNL     1     -11.398   7.435  68.140  1.00  0.00     0.000 HD 
HETATM   12  C   UNL     1     -10.021  10.160  69.143  1.00  0.00    -0.221 C  
HETATM   13  C   UNL     1      -6.818   8.573  71.341  1.00  0.00    -0.076 C  
HETATM   14  C   UNL     1      -8.538   9.954  69.744  1.00  0.00    -0.219 C  
HETATM   15  C   UNL     1     -10.291  10.284  67.826  1.00  0.00    -0.246 C  
HETATM   16  C   UNL     1      -7.286  10.352  68.892  1.00  0.00    -0.082 C  
HETATM   17  C   UNL     1      -7.424  11.568  67.951  1.00  0.00    -0.103 C  
HETATM   18  C   UNL     1      -7.294  12.952  68.558  1.00  0.00    -0.115 C  
HETATM   19  C   UNL     1      -6.201  13.097  69.600  1.00  0.00    -0.112 C  
HETATM   20  C   UNL     1      -5.720  11.818  70.217  1.00  0.00    -0.155 C  
ENDROOT
BRANCH   4  21
HETATM   21  C   UNL     1     -10.281   6.328  69.971  1.00  0.00    -0.237 C  
HETATM   22  C   UNL     1     -10.234   5.139  69.802  1.00  0.00    -0.357 C  
ENDBRANCH   4  21
BRANCH   7  23
HETATM   23  C   UNL     1     -12.577   7.600  71.412  1.00  0.00    -0.359 C  
HETATM   24  C   UNL     1     -13.374   8.519  72.333  1.00  0.00    -0.321 C  
ENDBRANCH   7  23
TORSDOF 2
ENDMDL
MODEL       52
REMARK 921   NORMALIZED FREE ENERGY PREDICTED BY IDOCK:   -4.31 KCAL/MOL
REMARK 922        TOTAL FREE ENERGY PREDICTED BY IDOCK:   -5.04 KCAL/MOL
REMARK 923 INTER-LIGAND FREE ENERGY PREDICTED BY IDOCK:   -5.33 KCAL/MOL
REMARK 924 INTRA-LIGAND FREE ENERGY PREDICTED BY IDOCK:    0.29 KCAL/MOL
REMARK 927      BINDING AFFINITY PREDICTED BY RF-SCORE:    0.00 PKD
ROOT
HETATM    1  C   UNL     1      -9.343  12.782  68.378  1.00  0.00    -0.143 C  
HETATM    2  C   UNL     1      -8.231  13.658  68.411  1.00  0.00    -0.146 C  
HETATM    3  C   UNL     1      -9.073  13.655  67.183  1.00  0.00    -0.241 C  
HETATM    4  C   UNL     1     -10.896  12.723  67.379  1.00  0.00    -0.240 C  
HETATM    5  C   UNL     1      -7.134   9.601  66.596  1.00  0.00    -0.086 C  
HETATM    6  O   UNL     1     -12.140  12.880  66.665  1.00  0.00    -0.408 OA 
HETATM    7  C   UNL     1     -10.567  14.042  67.527  1.00  0.00    -0.260 C  
HETATM    8  C   UNL     1     -10.543  14.111  65.633  1.00  0.00    -0.317 C  
HETATM    9  C   UNL     1      -8.988  11.334  67.239  1.00  0.00    -0.149 C  
HETATM   10  C   UNL     1      -7.366   9.951  65.145  1.00  0.00    -0.133 C  
HETATM   11  H   UNL     1     -12.982  12.450  66.756  1.00  0.00     0.000 HD 
HETATM   12  C   UNL     1     -10.313  12.573  64.971  1.00  0.00    -0.323 C  
HETATM   13  C   UNL     1      -7.625  10.678  67.578  1.00  0.00    -0.093 C  
HETATM   14  C   UNL     1      -9.128  11.621  65.512  1.00  0.00    -0.048 C  
HETATM   15  C   UNL     1     -11.325  12.145  64.187  1.00  0.00    -0.449 C  
HETATM   16  C   UNL     1      -8.817  10.268  64.787  1.00  0.00    -0.217 C  
HETATM   17  C   UNL     1      -9.022  10.218  63.258  1.00  0.00    -0.253 C  
HETATM   18  C   UNL     1      -7.929  10.794  62.378  1.00  0.00    -0.215 C  
HETATM   19  C   UNL     1      -6.512  10.481  62.823  1.00  0.00    -0.104 C  
HETATM   20  C   UNL     1      -6.361  10.067  64.257  1.00  0.00    -0.132 C  
ENDROOT
BRANCH   4  21
HETATM   21  C   UNL     1     -11.550  12.192  68.681  1.00  0.00    -0.372 C  
HETATM   22  C   UNL     1     -11.950  11.803  69.746  1.00  0.00    -0.392 C  
ENDBRANCH   4  21
BRANCH   7  23
HETATM   23  C   UNL     1     -11.335  15.143  68.224  1.00  0.00    -0.338 C  
HETATM   24  C   UNL     1     -10.709  15.468  69.577  1.00  0.00    -0.272 C  
ENDBRANCH   7  23
TORSDOF 2
ENDMDL
MODEL       53
REMARK 921   NORMALIZED FREE ENERGY PREDICTED BY IDOCK:   -4.28 KCAL/MOL
REMARK 922        TOTAL FREE ENERGY PREDICTED BY IDOCK:   -5.00 KCAL/MOL
REMARK 923 INTER-LIGAND FREE ENERGY PREDICTED BY IDOCK:   -4.83 KCAL/MOL
REMARK 924 INTRA-LIGAND FREE ENERGY PREDICTED BY IDOCK:   -0.17 KCAL/MOL
REMARK 927      BINDING AFFINITY PREDICTED BY RF-SCORE:    0.00 PKD
ROOT
HETATM    1  C   UNL     1     -10.976   6.815  70.789  1.00  0.00    -0.306 C  
HETATM    2  C   UNL     1     -10.481   5.512  71.037  1.00  0.00    -0.314 C  
HETATM    3  C   UNL     1      -9.492   6.621  70.938  1.00  0.00    -0.169 C  
HETATM    4  C   UNL     1     -10.292   8.513  71.040  1.00  0.00    -0.209 C  
HETATM    5  C   UNL     1     -10.635   6.441  66.557  1.00  0.00    -0.151 C  
HETATM    6  O   UNL     1      -9.726   9.779  71.440  1.00  0.00    -0.217 OA 
HETATM    7  C   UNL     1      -9.779   7.725  72.033  1.00  0.00    -0.224 C  
HETATM    8  C   UNL     1      -8.076   8.228  71.367  1.00  0.00    -0.148 C  
HETATM    9  C   UNL     1     -10.603   7.321  69.022  1.00  0.00    -0.214 C  
HETATM   10  C   UNL     1      -9.221   6.948  66.399  1.00  0.00    -0.186 C  
HETATM   11  H   UNL     1     -10.096  10.652  71.487  1.00  0.00     0.000 HD 
HETATM   12  C   UNL     1      -8.178   8.739  69.759  1.00  0.00    -0.117 C  
HETATM   13  C   UNL     1     -11.057   6.228  68.020  1.00  0.00    -0.365 C  
HETATM   14  C   UNL     1      -8.965   7.847  68.668  1.00  0.00    -0.134 C  
HETATM   15  C   UNL     1      -7.794  10.017  69.554  1.00  0.00    -0.155 C  
HETATM   16  C   UNL     1      -8.917   8.241  67.153  1.00  0.00    -0.154 C  
HETATM   17  C   UNL     1      -7.616   8.884  66.627  1.00  0.00    -0.089 C  
HETATM   18  C   UNL     1      -6.457   7.964  66.294  1.00  0.00    -0.047 C  
HETATM   19  C   UNL     1      -6.840   6.675  65.590  1.00  0.00    -0.048 C  
HETATM   20  C   UNL     1      -8.277   6.266  65.724  1.00  0.00    -0.136 C  
ENDROOT
BRANCH   4  21
HETATM   21  C   UNL     1     -11.755   8.903  71.377  1.00  0.00    -0.385 C  
HETATM   22  C   UNL     1     -12.842   9.295  71.708  1.00  0.00    -0.461 C  
ENDBRANCH   4  21
BRANCH   7  23
HETATM   23  C   UNL     1      -9.967   7.835  73.529  1.00  0.00    -0.286 C  
HETATM   24  C   UNL     1      -9.818   6.471  74.196  1.00  0.00    -0.318 C  
ENDBRANCH   7  23
TORSDOF 2
ENDMDL
MODEL       54
REMARK 921   NORMALIZED FREE ENERGY PREDICTED BY IDOCK:   -4.27 KCAL/MOL
REMARK 922        TOTAL FREE ENERGY PREDICTED BY IDOCK:   -4.99 KCAL/MOL
REMARK 923 INTER-LIGAND FREE ENERGY PREDICTED BY IDOCK:   -4.76 KCAL/MOL
REMARK 924 INTRA-LIGAND FREE ENERGY PREDICTED BY IDOCK:   -0.23 KCAL/MOL
REMARK 927      BINDING AFFINITY PREDICTED BY RF-SCORE:    0.00 PKD
ROOT
HETATM    1  C   UNL     1      -9.039  10.096  69.425  1.00  0.00    -0.217 C  
HETATM    2  C   UNL     1      -7.627  10.154  69.517  1.00  0.00    -0.139 C  
HETATM    3  C   UNL     1      -8.224   9.032  68.741  1.00  0.00    -0.117 C  
HETATM    4  C   UNL     1     -10.213   9.263  68.267  1.00  0.00    -0.201 C  
HETATM    5  C   UNL     1      -9.438   7.621  72.873  1.00  0.00    -0.262 C  
HETATM    6  O   UNL     1     -11.020   8.713  67.206  1.00  0.00    -0.434 OA 
HETATM    7  C   UNL     1      -9.097   9.583  67.543  1.00  0.00    -0.142 C  
HETATM    8  C   UNL     1      -8.979   7.731  67.158  1.00  0.00    -0.138 C  
HETATM    9  C   UNL     1      -9.699   8.713  70.508  1.00  0.00    -0.210 C  
HETATM   10  C   UNL     1      -9.339   6.274  72.196  1.00  0.00    -0.152 C  
HETATM   11  H   UNL     1     -11.938   8.820  66.987  1.00  0.00     0.000 HD 
HETATM   12  C   UNL     1      -9.806   6.815  68.314  1.00  0.00    -0.144 C  
HETATM   13  C   UNL     1      -9.121   8.805  71.944  1.00  0.00    -0.291 C  
HETATM   14  C   UNL     1      -9.564   7.076  69.887  1.00  0.00    -0.159 C  
HETATM   15  C   UNL     1     -10.825   6.080  67.819  1.00  0.00    -0.380 C  
HETATM   16  C   UNL     1     -10.206   6.120  70.948  1.00  0.00    -0.250 C  
HETATM   17  C   UNL     1     -10.348   4.630  70.567  1.00  0.00    -0.109 C  
HETATM   18  C   UNL     1      -9.123   3.746  70.698  1.00  0.00    -0.181 C  
HETATM   19  C   UNL     1      -8.282   3.991  71.937  1.00  0.00    -0.091 C  
HETATM   20  C   UNL     1      -8.483   5.319  72.605  1.00  0.00    -0.117 C  
ENDROOT
BRANCH   4  21
HETATM   21  C   UNL     1     -11.091  10.525  68.469  1.00  0.00    -0.329 C  
HETATM   22  C   UNL     1     -11.866  11.438  68.581  1.00  0.00    -0.377 C  
ENDBRANCH   4  21
BRANCH   7  23
HETATM   23  C   UNL     1      -8.964  10.518  66.362  1.00  0.00    -0.174 C  
HETATM   24  C   UNL     1      -7.528  10.539  65.846  1.00  0.00    -0.147 C  
ENDBRANCH   7  23
TORSDOF 2
ENDMDL
MODEL       55
REMARK 921   NORMALIZED FREE ENERGY PREDICTED BY IDOCK:   -4.25 KCAL/MOL
REMARK 922        TOTAL FREE ENERGY PREDICTED BY IDOCK:   -4.97 KCAL/MOL
REMARK 923 INTER-LIGAND FREE ENERGY PREDICTED BY IDOCK:   -4.71 KCAL/MOL
REMARK 924 INTRA-LIGAND FREE ENERGY PREDICTED BY IDOCK:   -0.26 KCAL/MOL
REMARK 927      BINDING AFFINITY PREDICTED BY RF-SCORE:    0.00 PKD
ROOT
HETATM    1  C   UNL     1      -8.722   7.111  71.748  1.00  0.00    -0.121 C  
HETATM    2  C   UNL     1      -9.454   7.874  72.689  1.00  0.00    -0.284 C  
HETATM    3  C   UNL     1     -10.172   7.404  71.472  1.00  0.00    -0.205 C  
HETATM    4  C   UNL     1      -9.200   5.942  70.399  1.00  0.00    -0.158 C  
HETATM    5  C   UNL     1      -7.564  10.522  69.468  1.00  0.00    -0.148 C  
HETATM    6  O   UNL     1      -9.685   4.926  69.497  1.00  0.00    -0.158 OA 
HETATM    7  C   UNL     1     -10.144   5.825  71.381  1.00  0.00    -0.249 C  
HETATM    8  C   UNL     1     -11.402   6.300  70.044  1.00  0.00    -0.486 C  
HETATM    9  C   UNL     1      -8.357   8.144  70.225  1.00  0.00    -0.124 C  
HETATM   10  C   UNL     1      -8.738  10.567  68.519  1.00  0.00    -0.140 C  
HETATM   11  H   UNL     1      -9.236   4.251  69.002  1.00  0.00     0.000 HD 
HETATM   12  C   UNL     1     -10.655   7.125  68.772  1.00  0.00    -0.219 C  
HETATM   13  C   UNL     1      -7.733   9.510  70.614  1.00  0.00    -0.151 C  
HETATM   14  C   UNL     1      -9.664   8.363  69.073  1.00  0.00    -0.171 C  
HETATM   15  C   UNL     1     -10.752   6.510  67.574  1.00  0.00    -0.395 C  
HETATM   16  C   UNL     1      -9.105   9.224  67.890  1.00  0.00    -0.133 C  
HETATM   17  C   UNL     1     -10.024   9.430  66.667  1.00  0.00    -0.326 C  
HETATM   18  C   UNL     1     -11.103  10.492  66.763  1.00  0.00    -0.061 C  
HETATM   19  C   UNL     1     -10.680  11.780  67.445  1.00  0.00    -0.277 C  
HETATM   20  C   UNL     1      -9.463  11.683  68.315  1.00  0.00    -0.191 C  
ENDROOT
BRANCH   4  21
HETATM   21  C   UNL     1      -7.918   5.169  70.802  1.00  0.00    -0.096 C  
HETATM   22  C   UNL     1      -6.928   4.517  71.004  1.00  0.00    -0.036 C  
ENDBRANCH   4  21
BRANCH   7  23
HETATM   23  C   UNL     1     -10.494   4.622  72.227  1.00  0.00    -0.238 C  
HETATM   24  C   UNL     1     -11.489   4.998  73.321  1.00  0.00    -0.339 C  
ENDBRANCH   7  23
TORSDOF 2
ENDMDL
MODEL       56
REMARK 921   NORMALIZED FREE ENERGY PREDICTED BY IDOCK:   -4.23 KCAL/MOL
REMARK 922        TOTAL FREE ENERGY PREDICTED BY IDOCK:   -4.95 KCAL/MOL
REMARK 923 INTER-LIGAND FREE ENERGY PREDICTED BY IDOCK:   -4.71 KCAL/MOL
REMARK 924 INTRA-LIGAND FREE ENERGY PREDICTED BY IDOCK:   -0.24 KCAL/MOL
REMARK 927      BINDING AFFINITY PREDICTED BY RF-SCORE:    0.00 PKD
ROOT
HETATM    1  C   UNL     1      -9.713   8.619  68.278  1.00  0.00    -0.171 C  
HETATM    2  C   UNL     1     -10.633   8.213  67.282  1.00  0.00    -0.344 C  
HETATM    3  C   UNL     1      -9.503   9.087  66.865  1.00  0.00    -0.219 C  
HETATM    4  C   UNL     1      -7.979   9.254  68.237  1.00  0.00    -0.102 C  
HETATM    5  C   UNL     1     -11.846  12.197  69.183  1.00  0.00    -0.361 C  
HETATM    6  O   UNL     1      -6.580   9.573  68.089  1.00  0.00    -0.061 OA 
HETATM    7  C   UNL     1      -8.115   8.396  67.180  1.00  0.00    -0.104 C  
HETATM    8  C   UNL     1      -7.613   9.867  66.094  1.00  0.00    -0.104 C  
HETATM    9  C   UNL     1      -9.978  10.427  68.702  1.00  0.00    -0.186 C  
HETATM   10  C   UNL     1     -11.175  13.116  68.190  1.00  0.00    -0.304 C  
HETATM   11  H   UNL     1      -5.876   9.650  68.722  1.00  0.00     0.000 HD 
HETATM   12  C   UNL     1      -7.903  11.333  66.884  1.00  0.00    -0.156 C  
HETATM   13  C   UNL     1     -11.471  10.716  69.007  1.00  0.00    -0.342 C  
HETATM   14  C   UNL     1      -9.330  11.615  67.583  1.00  0.00    -0.178 C  
HETATM   15  C   UNL     1      -6.801  12.084  67.091  1.00  0.00    -0.136 C  
HETATM   16  C   UNL     1      -9.650  13.032  68.168  1.00  0.00    -0.227 C  
HETATM   17  C   UNL     1      -9.048  14.253  67.440  1.00  0.00    -0.199 C  
HETATM   18  C   UNL     1      -9.753  14.750  66.192  1.00  0.00    -0.338 C  
HETATM   19  C   UNL     1     -11.268  14.758  66.268  1.00  0.00    -0.343 C  
HETATM   20  C   UNL     1     -11.868  13.881  67.326  1.00  0.00    -0.442 C  
ENDROOT
BRANCH   4  21
HETATM   21  C   UNL     1      -7.799   8.450  69.550  1.00  0.00    -0.102 C  
HETATM   22  C   UNL     1      -7.551   7.791  70.525  1.00  0.00    -0.079 C  
ENDBRANCH   4  21
BRANCH   7  23
HETATM   23  C   UNL     1      -7.396   7.094  66.911  1.00  0.00    -0.088 C  
HETATM   24  C   UNL     1      -8.040   6.349  65.746  1.00  0.00    -0.127 C  
ENDBRANCH   7  23
TORSDOF 2
ENDMDL
MODEL       57
REMARK 921   NORMALIZED FREE ENERGY PREDICTED BY IDOCK:   -4.18 KCAL/MOL
REMARK 922        TOTAL FREE ENERGY PREDICTED BY IDOCK:   -4.89 KCAL/MOL
REMARK 923 INTER-LIGAND FREE ENERGY PREDICTED BY IDOCK:   -4.63 KCAL/MOL
REMARK 924 INTRA-LIGAND FREE ENERGY PREDICTED BY IDOCK:   -0.26 KCAL/MOL
REMARK 927      BINDING AFFINITY PREDICTED BY RF-SCORE:    0.00 PKD
ROOT
HETATM    1  C   UNL     1      -9.880   6.450  68.633  1.00  0.00    -0.152 C  
HETATM    2  C   UNL     1     -11.151   6.151  68.086  1.00  0.00    -0.328 C  
HETATM    3  C   UNL     1     -10.269   7.076  67.322  1.00  0.00    -0.301 C  
HETATM    4  C   UNL     1      -8.302   7.100  67.924  1.00  0.00    -0.118 C  
HETATM    5  C   UNL     1     -11.283   9.884  70.732  1.00  0.00    -0.427 C  
HETATM    6  O   UNL     1      -7.086   7.447  67.230  1.00  0.00    -0.079 OA 
HETATM    7  C   UNL     1      -8.908   6.366  66.942  1.00  0.00    -0.119 C  
HETATM    8  C   UNL     1      -8.855   7.954  65.908  1.00  0.00    -0.183 C  
HETATM    9  C   UNL     1      -9.867   8.196  69.317  1.00  0.00    -0.182 C  
HETATM   10  C   UNL     1     -11.060  10.915  69.650  1.00  0.00    -0.328 C  
HETATM   11  H   UNL     1      -6.178   7.458  67.508  1.00  0.00     0.000 HD 
HETATM   12  C   UNL     1      -8.725   9.320  66.896  1.00  0.00    -0.136 C  
HETATM   13  C   UNL     1     -11.077   8.436  70.257  1.00  0.00    -0.216 C  
HETATM   14  C   UNL     1      -9.708   9.509  68.161  1.00  0.00    -0.166 C  
HETATM   15  C   UNL     1      -7.609  10.052  66.692  1.00  0.00    -0.104 C  
HETATM   16  C   UNL     1      -9.693  10.847  68.973  1.00  0.00    -0.181 C  
HETATM   17  C   UNL     1      -9.408  12.148  68.192  1.00  0.00    -0.204 C  
HETATM   18  C   UNL     1     -10.555  12.776  67.422  1.00  0.00    -0.241 C  
HETATM   19  C   UNL     1     -11.894  12.762  68.136  1.00  0.00    -0.372 C  
HETATM   20  C   UNL     1     -12.024  11.766  69.250  1.00  0.00    -0.354 C  
ENDROOT
BRANCH   4  21
HETATM   21  C   UNL     1      -7.615   6.155  68.943  1.00  0.00    -0.092 C  
HETATM   22  C   UNL     1      -6.988   5.501  69.733  1.00  0.00    -0.062 C  
ENDBRANCH   4  21
BRANCH   7  23
HETATM   23  C   UNL     1      -8.423   5.109  66.256  1.00  0.00    -0.114 C  
HETATM   24  C   UNL     1      -9.532   4.490  65.411  1.00  0.00    -0.175 C  
ENDBRANCH   7  23
TORSDOF 2
ENDMDL
MODEL       58
REMARK 921   NORMALIZED FREE ENERGY PREDICTED BY IDOCK:   -4.15 KCAL/MOL
REMARK 922        TOTAL FREE ENERGY PREDICTED BY IDOCK:   -4.86 KCAL/MOL
REMARK 923 INTER-LIGAND FREE ENERGY PREDICTED BY IDOCK:   -4.62 KCAL/MOL
REMARK 924 INTRA-LIGAND FREE ENERGY PREDICTED BY IDOCK:   -0.24 KCAL/MOL
REMARK 927      BINDING AFFINITY PREDICTED BY RF-SCORE:    0.00 PKD
ROOT
HETATM    1  C   UNL     1      -9.096   9.647  70.265  1.00  0.00    -0.272 C  
HETATM    2  C   UNL     1      -7.699   9.857  70.176  1.00  0.00    -0.188 C  
HETATM    3  C   UNL     1      -8.375   9.206  69.021  1.00  0.00    -0.127 C  
HETATM    4  C   UNL     1     -10.427   9.351  69.018  1.00  0.00    -0.217 C  
HETATM    5  C   UNL     1      -8.686   5.744  71.930  1.00  0.00    -0.135 C  
HETATM    6  O   UNL     1     -11.396   9.299  67.950  1.00  0.00    -0.436 OA 
HETATM    7  C   UNL     1      -9.492  10.151  68.421  1.00  0.00    -0.147 C  
HETATM    8  C   UNL     1      -9.353   8.785  67.114  1.00  0.00    -0.188 C  
HETATM    9  C   UNL     1      -9.459   7.828  70.546  1.00  0.00    -0.163 C  
HETATM   10  C   UNL     1      -8.649   4.954  70.643  1.00  0.00    -0.123 C  
HETATM   11  H   UNL     1     -12.343   9.366  67.949  1.00  0.00     0.000 HD 
HETATM   12  C   UNL     1      -9.890   7.302  67.723  1.00  0.00    -0.181 C  
HETATM   13  C   UNL     1      -8.619   7.267  71.722  1.00  0.00    -0.121 C  
HETATM   14  C   UNL     1      -9.360   6.767  69.150  1.00  0.00    -0.135 C  
HETATM   15  C   UNL     1     -10.945   6.777  67.064  1.00  0.00    -0.439 C  
HETATM   16  C   UNL     1      -9.732   5.324  69.632  1.00  0.00    -0.250 C  
HETATM   17  C   UNL     1      -9.867   4.228  68.554  1.00  0.00    -0.115 C  
HETATM   18  C   UNL     1      -8.595   3.588  68.032  1.00  0.00    -0.118 C  
HETATM   19  C   UNL     1      -7.543   3.295  69.086  1.00  0.00    -0.048 C  
HETATM   20  C   UNL     1      -7.680   4.059  70.369  1.00  0.00    -0.045 C  
ENDROOT
BRANCH   4  21
HETATM   21  C   UNL     1     -11.315  10.194  69.969  1.00  0.00    -0.351 C  
HETATM   22  C   UNL     1     -12.100  10.793  70.655  1.00  0.00    -0.467 C  
ENDBRANCH   4  21
BRANCH   7  23
HETATM   23  C   UNL     1      -9.641  11.561  67.897  1.00  0.00    -0.178 C  
HETATM   24  C   UNL     1      -8.322  12.067  67.320  1.00  0.00    -0.176 C  
ENDBRANCH   7  23
TORSDOF 2
ENDMDL
MODEL       59
REMARK 921   NORMALIZED FREE ENERGY PREDICTED BY IDOCK:   -4.14 KCAL/MOL
REMARK 922        TOTAL FREE ENERGY PREDICTED BY IDOCK:   -4.85 KCAL/MOL
REMARK 923 INTER-LIGAND FREE ENERGY PREDICTED BY IDOCK:   -4.60 KCAL/MOL
REMARK 924 INTRA-LIGAND FREE ENERGY PREDICTED BY IDOCK:   -0.26 KCAL/MOL
REMARK 927      BINDING AFFINITY PREDICTED BY RF-SCORE:    0.00 PKD
ROOT
HETATM    1  C   UNL     1      -9.042   8.401  70.675  1.00  0.00    -0.174 C  
HETATM    2  C   UNL     1     -10.113   9.164  71.200  1.00  0.00    -0.384 C  
HETATM    3  C   UNL     1     -10.369   8.369  69.967  1.00  0.00    -0.211 C  
HETATM    4  C   UNL     1      -8.941   6.952  69.534  1.00  0.00    -0.143 C  
HETATM    5  C   UNL     1      -7.706  11.529  68.105  1.00  0.00    -0.120 C  
HETATM    6  O   UNL     1      -9.001   5.724  68.778  1.00  0.00    -0.116 OA 
HETATM    7  C   UNL     1     -10.112   6.831  70.231  1.00  0.00    -0.196 C  
HETATM    8  C   UNL     1     -10.964   6.829  68.537  1.00  0.00    -0.258 C  
HETATM    9  C   UNL     1      -8.376   9.210  69.119  1.00  0.00    -0.123 C  
HETATM   10  C   UNL     1      -8.540  11.193  66.891  1.00  0.00    -0.148 C  
HETATM   11  H   UNL     1      -8.342   5.070  68.578  1.00  0.00     0.000 HD 
HETATM   12  C   UNL     1      -9.985   7.550  67.363  1.00  0.00    -0.246 C  
HETATM   13  C   UNL     1      -8.078  10.713  69.355  1.00  0.00    -0.102 C  
HETATM   14  C   UNL     1      -9.297   8.982  67.641  1.00  0.00    -0.154 C  
HETATM   15  C   UNL     1      -9.641   6.733  66.345  1.00  0.00    -0.149 C  
HETATM   16  C   UNL     1      -8.527   9.718  66.493  1.00  0.00    -0.127 C  
HETATM   17  C   UNL     1      -9.057   9.539  65.055  1.00  0.00    -0.281 C  
HETATM   18  C   UNL     1     -10.244  10.382  64.627  1.00  0.00    -0.305 C  
HETATM   19  C   UNL     1     -10.213  11.824  65.102  1.00  0.00    -0.309 C  
HETATM   20  C   UNL     1      -9.308  12.104  66.264  1.00  0.00    -0.221 C  
ENDROOT
BRANCH   4  21
HETATM   21  C   UNL     1      -7.750   6.510  70.422  1.00  0.00    -0.098 C  
HETATM   22  C   UNL     1      -6.785   6.105  71.014  1.00  0.00    -0.061 C  
ENDBRANCH   4  21
BRANCH   7  23
HETATM   23  C   UNL     1     -10.540   5.745  71.193  1.00  0.00    -0.315 C  
HETATM   24  C   UNL     1     -11.784   6.168  71.968  1.00  0.00    -0.354 C  
ENDBRANCH   7  23
TORSDOF 2
ENDMDL
MODEL       60
REMARK 921   NORMALIZED FREE ENERGY PREDICTED BY IDOCK:   -4.12 KCAL/MOL
REMARK 922        TOTAL FREE ENERGY PREDICTED BY IDOCK:   -4.82 KCAL/MOL
REMARK 923 INTER-LIGAND FREE ENERGY PREDICTED BY IDOCK:   -4.72 KCAL/MOL
REMARK 924 INTRA-LIGAND FREE ENERGY PREDICTED BY IDOCK:   -0.10 KCAL/MOL
REMARK 927      BINDING AFFINITY PREDICTED BY RF-SCORE:    0.00 PKD
ROOT
HETATM    1  C   UNL     1      -9.902   8.331  68.220  1.00  0.00    -0.192 C  
HETATM    2  C   UNL     1     -11.088   7.605  67.954  1.00  0.00     0.169 C  
HETATM    3  C   UNL     1     -10.198   7.922  66.803  1.00  0.00    -0.358 C  
HETATM    4  C   UNL     1      -8.309   8.555  67.313  1.00  0.00    -0.115 C  
HETATM    5  C   UNL     1     -11.739  12.118  67.547  1.00  0.00    -0.385 C  
HETATM    6  O   UNL     1      -7.054   8.516  66.600  1.00  0.00    -0.075 OA 
HETATM    7  C   UNL     1      -8.761   7.298  67.019  1.00  0.00    -0.123 C  
HETATM    8  C   UNL     1      -8.710   7.848  65.206  1.00  0.00    -0.032 C  
HETATM    9  C   UNL     1     -10.077  10.097  67.611  1.00  0.00    -0.231 C  
HETATM   10  C   UNL     1     -11.477  12.234  66.063  1.00  0.00    -0.434 C  
HETATM   11  H   UNL     1      -6.182   8.808  66.836  1.00  0.00     0.000 HD 
HETATM   12  C   UNL     1      -8.773   9.533  65.078  1.00  0.00    -0.205 C  
HETATM   13  C   UNL     1     -11.389  10.739  68.130  1.00  0.00    -0.377 C  
HETATM   14  C   UNL     1      -9.890  10.371  65.886  1.00  0.00    -0.294 C  
HETATM   15  C   UNL     1      -7.693  10.089  64.487  1.00  0.00    -0.145 C  
HETATM   16  C   UNL     1     -10.047  11.909  65.638  1.00  0.00    -0.274 C  
HETATM   17  C   UNL     1      -9.773  12.430  64.211  1.00  0.00    -0.009 C  
HETATM   18  C   UNL     1     -10.875  12.280  63.179  1.00  0.00    -0.184 C  
HETATM   19  C   UNL     1     -12.275  12.570  63.686  1.00  0.00    -0.642 C  
HETATM   20  C   UNL     1     -12.450  12.511  65.175  1.00  0.00    -0.451 C  
ENDROOT
BRANCH   4  21
HETATM   21  C   UNL     1      -7.666   8.571  68.723  1.00  0.00    -0.102 C  
HETATM   22  C   UNL     1      -7.153   8.462  69.805  1.00  0.00    -0.051 C  
ENDBRANCH   4  21
BRANCH   7  23
HETATM   23  C   UNL     1      -8.125   5.961  67.328  1.00  0.00    -0.102 C  
HETATM   24  C   UNL     1      -8.876   4.831  66.632  1.00  0.00    -0.110 C  
ENDBRANCH   7  23
TORSDOF 2
ENDMDL
MODEL       61
REMARK 921   NORMALIZED FREE ENERGY PREDICTED BY IDOCK:   -4.11 KCAL/MOL
REMARK 922        TOTAL FREE ENERGY PREDICTED BY IDOCK:   -4.81 KCAL/MOL
REMARK 923 INTER-LIGAND FREE ENERGY PREDICTED BY IDOCK:   -4.61 KCAL/MOL
REMARK 924 INTRA-LIGAND FREE ENERGY PREDICTED BY IDOCK:   -0.20 KCAL/MOL
REMARK 927      BINDING AFFINITY PREDICTED BY RF-SCORE:    0.00 PKD
ROOT
HETATM    1  C   UNL     1      -9.071   6.457  67.953  1.00  0.00    -0.112 C  
HETATM    2  C   UNL     1      -7.960   7.288  68.235  1.00  0.00    -0.124 C  
HETATM    3  C   UNL     1      -8.042   5.980  68.941  1.00  0.00    -0.104 C  
HETATM    4  C   UNL     1      -9.401   4.651  68.156  1.00  0.00    -0.135 C  
HETATM    5  C   UNL     1     -11.427   8.056  71.125  1.00  0.00    -0.302 C  
HETATM    6  O   UNL     1      -9.478   3.211  68.203  1.00  0.00    -0.197 OA 
HETATM    7  C   UNL     1      -8.064   4.786  67.905  1.00  0.00    -0.092 C  
HETATM    8  C   UNL     1      -7.799   3.900  69.560  1.00  0.00    -0.052 C  
HETATM    9  C   UNL     1     -10.267   6.467  69.398  1.00  0.00    -0.230 C  
HETATM   10  C   UNL     1     -10.998   7.111  72.222  1.00  0.00    -0.277 C  
HETATM   11  H   UNL     1     -10.105   2.597  67.840  1.00  0.00     0.000 HD 
HETATM   12  C   UNL     1      -9.161   4.042  70.551  1.00  0.00    -0.198 C  
HETATM   13  C   UNL     1     -10.606   7.917  69.832  1.00  0.00    -0.242 C  
HETATM   14  C   UNL     1      -9.849   5.482  70.791  1.00  0.00    -0.247 C  
HETATM   15  C   UNL     1      -9.739   2.867  70.879  1.00  0.00    -0.142 C  
HETATM   16  C   UNL     1     -11.006   5.634  71.835  1.00  0.00    -0.297 C  
HETATM   17  C   UNL     1     -10.949   4.742  73.093  1.00  0.00    -0.374 C  
HETATM   18  C   UNL     1     -10.040   5.176  74.227  1.00  0.00    -0.261 C  
HETATM   19  C   UNL     1     -10.045   6.664  74.523  1.00  0.00    -0.276 C  
HETATM   20  C   UNL     1     -10.553   7.542  73.418  1.00  0.00    -0.409 C  
ENDROOT
BRANCH   4  21
HETATM   21  C   UNL     1     -10.204   4.789  66.837  1.00  0.00    -0.230 C  
HETATM   22  C   UNL     1     -10.733   4.840  65.759  1.00  0.00    -0.220 C  
ENDBRANCH   4  21
BRANCH   7  23
HETATM   23  C   UNL     1      -7.257   4.267  66.736  1.00  0.00    -0.072 C  
HETATM   24  C   UNL     1      -5.876   4.914  66.700  1.00  0.00    -0.022 C  
ENDBRANCH   7  23
TORSDOF 2
ENDMDL
MODEL       62
REMARK 921   NORMALIZED FREE ENERGY PREDICTED BY IDOCK:   -4.10 KCAL/MOL
REMARK 922        TOTAL FREE ENERGY PREDICTED BY IDOCK:   -4.81 KCAL/MOL
REMARK 923 INTER-LIGAND FREE ENERGY PREDICTED BY IDOCK:   -4.80 KCAL/MOL
REMARK 924 INTRA-LIGAND FREE ENERGY PREDICTED BY IDOCK:   -0.01 KCAL/MOL
REMARK 927      BINDING AFFINITY PREDICTED BY RF-SCORE:    0.00 PKD
ROOT
HETATM    1  C   UNL     1     -11.055  10.937  67.472  1.00  0.00    -0.375 C  
HETATM    2  C   UNL     1     -11.852  11.375  68.558  1.00  0.00    -0.364 C  
HETATM    3  C   UNL     1     -10.420  11.782  68.543  1.00  0.00    -0.233 C  
HETATM    4  C   UNL     1      -9.457  11.512  66.746  1.00  0.00    -0.189 C  
HETATM    5  C   UNL     1      -9.789   7.391  69.469  1.00  0.00    -0.165 C  
HETATM    6  O   UNL     1      -8.302  12.154  66.166  1.00  0.00    -0.389 OA 
HETATM    7  C   UNL     1     -10.090  12.618  67.242  1.00  0.00    -0.215 C  
HETATM    8  C   UNL     1      -8.539  12.865  68.304  1.00  0.00    -0.170 C  
HETATM    9  C   UNL     1      -9.891   9.578  68.034  1.00  0.00    -0.181 C  
HETATM   10  C   UNL     1      -8.559   7.943  70.150  1.00  0.00    -0.134 C  
HETATM   11  H   UNL     1      -7.858  12.030  65.336  1.00  0.00     0.000 HD 
HETATM   12  C   UNL     1      -7.688  11.415  68.485  1.00  0.00    -0.133 C  
HETATM   13  C   UNL     1     -10.658   8.466  68.795  1.00  0.00    -0.154 C  
HETATM   14  C   UNL     1      -8.458  10.067  68.924  1.00  0.00    -0.132 C  
HETATM   15  C   UNL     1      -6.432  11.439  67.992  1.00  0.00    -0.057 C  
HETATM   16  C   UNL     1      -7.644   8.769  69.248  1.00  0.00    -0.093 C  
HETATM   17  C   UNL     1      -6.255   8.947  69.899  1.00  0.00    -0.034 C  
HETATM   18  C   UNL     1      -6.202   9.201  71.394  1.00  0.00    -0.078 C  
HETATM   19  C   UNL     1      -7.174   8.381  72.222  1.00  0.00    -0.119 C  
HETATM   20  C   UNL     1      -8.334   7.798  71.470  1.00  0.00    -0.119 C  
ENDROOT
BRANCH   4  21
HETATM   21  C   UNL     1     -10.087  11.107  65.388  1.00  0.00    -0.317 C  
HETATM   22  C   UNL     1     -10.508  10.882  64.285  1.00  0.00    -0.405 C  
ENDBRANCH   4  21
BRANCH   7  23
HETATM   23  C   UNL     1     -10.593  13.839  66.505  1.00  0.00    -0.279 C  
HETATM   24  C   UNL     1     -11.994  14.217  66.976  1.00  0.00    -0.463 C  
ENDBRANCH   7  23
TORSDOF 2
ENDMDL
MODEL       63
REMARK 921   NORMALIZED FREE ENERGY PREDICTED BY IDOCK:   -4.07 KCAL/MOL
REMARK 922        TOTAL FREE ENERGY PREDICTED BY IDOCK:   -4.77 KCAL/MOL
REMARK 923 INTER-LIGAND FREE ENERGY PREDICTED BY IDOCK:   -4.55 KCAL/MOL
REMARK 924 INTRA-LIGAND FREE ENERGY PREDICTED BY IDOCK:   -0.22 KCAL/MOL
REMARK 927      BINDING AFFINITY PREDICTED BY RF-SCORE:    0.00 PKD
ROOT
HETATM    1  C   UNL     1      -8.821   9.151  70.028  1.00  0.00    -0.193 C  
HETATM    2  C   UNL     1      -7.734   8.583  69.321  1.00  0.00    -0.093 C  
HETATM    3  C   UNL     1      -8.881   7.695  69.655  1.00  0.00    -0.140 C  
HETATM    4  C   UNL     1     -10.590   8.669  70.258  1.00  0.00    -0.223 C  
HETATM    5  C   UNL     1      -7.222   8.144  73.849  1.00  0.00    -0.194 C  
HETATM    6  O   UNL     1     -11.981   8.285  70.222  1.00  0.00    -0.464 OA 
HETATM    7  C   UNL     1     -10.218   8.242  69.013  1.00  0.00    -0.226 C  
HETATM    8  C   UNL     1     -10.715   6.510  69.604  1.00  0.00    -0.323 C  
HETATM    9  C   UNL     1      -8.809   8.562  71.810  1.00  0.00    -0.278 C  
HETATM   10  C   UNL     1      -7.841   6.773  73.997  1.00  0.00    -0.112 C  
HETATM   11  H   UNL     1     -12.769   8.735  70.499  1.00  0.00     0.000 HD 
HETATM   12  C   UNL     1     -10.693   6.414  71.292  1.00  0.00    -0.288 C  
HETATM   13  C   UNL     1      -7.412   8.760  72.453  1.00  0.00     0.066 C  
HETATM   14  C   UNL     1      -9.415   6.944  72.122  1.00  0.00    -0.148 C  
HETATM   15  C   UNL     1     -11.887   6.121  71.850  1.00  0.00    -0.316 C  
HETATM   16  C   UNL     1      -9.331   6.704  73.667  1.00  0.00    -0.173 C  
HETATM   17  C   UNL     1      -9.949   5.401  74.218  1.00  0.00    -0.240 C  
HETATM   18  C   UNL     1      -9.134   4.127  74.104  1.00  0.00    -0.097 C  
HETATM   19  C   UNL     1      -7.653   4.282  74.397  1.00  0.00    -0.076 C  
HETATM   20  C   UNL     1      -7.117   5.680  74.305  1.00  0.00    -0.082 C  
ENDROOT
BRANCH   4  21
HETATM   21  C   UNL     1     -10.866  10.194  70.233  1.00  0.00    -0.370 C  
HETATM   22  C   UNL     1     -11.162  11.354  70.126  1.00  0.00    -0.076 C  
ENDBRANCH   4  21
BRANCH   7  23
HETATM   23  C   UNL     1     -10.753   8.663  67.662  1.00  0.00    -0.194 C  
HETATM   24  C   UNL     1      -9.880   8.113  66.538  1.00  0.00    -0.309 C  
ENDBRANCH   7  23
TORSDOF 2
ENDMDL
MODEL       64
REMARK 921   NORMALIZED FREE ENERGY PREDICTED BY IDOCK:   -3.98 KCAL/MOL
REMARK 922        TOTAL FREE ENERGY PREDICTED BY IDOCK:   -4.67 KCAL/MOL
REMARK 923 INTER-LIGAND FREE ENERGY PREDICTED BY IDOCK:   -4.63 KCAL/MOL
REMARK 924 INTRA-LIGAND FREE ENERGY PREDICTED BY IDOCK:   -0.04 KCAL/MOL
REMARK 927      BINDING AFFINITY PREDICTED BY RF-SCORE:    0.00 PKD
ROOT
HETATM    1  C   UNL     1      -8.035   7.101  69.057  1.00  0.00    -0.120 C  
HETATM    2  C   UNL     1      -7.586   5.953  68.360  1.00  0.00    -0.090 C  
HETATM    3  C   UNL     1      -9.024   6.012  68.742  1.00  0.00    -0.118 C  
HETATM    4  C   UNL     1      -9.694   7.868  69.325  1.00  0.00    -0.159 C  
HETATM    5  C   UNL     1      -7.321   5.392  72.896  1.00  0.00    -0.092 C  
HETATM    6  O   UNL     1     -11.009   8.463  69.320  1.00  0.00    -0.416 OA 
HETATM    7  C   UNL     1      -9.724   7.273  68.093  1.00  0.00    -0.155 C  
HETATM    8  C   UNL     1     -11.192   6.275  68.758  1.00  0.00    -0.357 C  
HETATM    9  C   UNL     1      -8.342   6.682  70.860  1.00  0.00    -0.125 C  
HETATM   10  C   UNL     1      -8.667   4.739  73.105  1.00  0.00    -0.109 C  
HETATM   11  H   UNL     1     -11.318   9.319  69.588  1.00  0.00     0.000 HD 
HETATM   12  C   UNL     1     -11.180   6.226  70.448  1.00  0.00    -0.439 C  
HETATM   13  C   UNL     1      -7.120   5.955  71.479  1.00  0.00    -0.078 C  
HETATM   14  C   UNL     1      -9.831   5.834  71.243  1.00  0.00    -0.223 C  
HETATM   15  C   UNL     1     -12.265   6.778  71.031  1.00  0.00    -0.405 C  
HETATM   16  C   UNL     1      -9.867   5.632  72.795  1.00  0.00    -0.183 C  
HETATM   17  C   UNL     1     -11.156   5.040  73.404  1.00  0.00    -0.404 C  
HETATM   18  C   UNL     1     -11.348   3.537  73.331  1.00  0.00    -0.203 C  
HETATM   19  C   UNL     1     -10.101   2.715  73.600  1.00  0.00    -0.177 C  
HETATM   20  C   UNL     1      -8.799   3.444  73.448  1.00  0.00    -0.085 C  
ENDROOT
BRANCH   4  21
HETATM   21  C   UNL     1      -8.932   9.215  69.243  1.00  0.00    -0.145 C  
HETATM   22  C   UNL     1      -8.448  10.312  69.149  1.00  0.00    -0.164 C  
ENDBRANCH   4  21
BRANCH   7  23
HETATM   23  C   UNL     1      -9.911   7.908  66.734  1.00  0.00    -0.333 C  
HETATM   24  C   UNL     1      -8.957   7.295  65.713  1.00  0.00    -0.052 C  
ENDBRANCH   7  23
TORSDOF 2
ENDMDL
MODEL       65
REMARK 921   NORMALIZED FREE ENERGY PREDICTED BY IDOCK:   -3.96 KCAL/MOL
REMARK 922        TOTAL FREE ENERGY PREDICTED BY IDOCK:   -4.64 KCAL/MOL
REMARK 923 INTER-LIGAND FREE ENERGY PREDICTED BY IDOCK:   -4.49 KCAL/MOL
REMARK 924 INTRA-LIGAND FREE ENERGY PREDICTED BY IDOCK:   -0.15 KCAL/MOL
REMARK 927      BINDING AFFINITY PREDICTED BY RF-SCORE:    0.00 PKD
ROOT
HETATM    1  C   UNL     1     -10.764  10.360  66.673  1.00  0.00    -0.198 C  
HETATM    2  C   UNL     1     -11.333  10.601  67.947  1.00  0.00    -0.342 C  
HETATM    3  C   UNL     1      -9.848  10.615  67.838  1.00  0.00    -0.181 C  
HETATM    4  C   UNL     1      -9.117  10.719  65.918  1.00  0.00    -0.188 C  
HETATM    5  C   UNL     1     -10.452   6.155  67.298  1.00  0.00    -0.317 C  
HETATM    6  O   UNL     1      -7.864  11.203  65.390  1.00  0.00    -0.363 OA 
HETATM    7  C   UNL     1      -9.372  11.721  66.814  1.00  0.00    -0.199 C  
HETATM    8  C   UNL     1      -7.753  11.203  67.652  1.00  0.00    -0.113 C  
HETATM    9  C   UNL     1     -10.008   8.644  66.618  1.00  0.00    -0.357 C  
HETATM   10  C   UNL     1      -9.075   6.123  67.919  1.00  0.00    -0.117 C  
HETATM   11  H   UNL     1      -7.527  11.252  64.503  1.00  0.00     0.000 HD 
HETATM   12  C   UNL     1      -7.346   9.610  67.259  1.00  0.00    -0.087 C  
HETATM   13  C   UNL     1     -11.015   7.575  67.118  1.00  0.00    -0.164 C  
HETATM   14  C   UNL     1      -8.443   8.433  67.386  1.00  0.00    -0.124 C  
HETATM   15  C   UNL     1      -6.169   9.477  66.612  1.00  0.00    -0.065 C  
HETATM   16  C   UNL     1      -8.019   6.941  67.179  1.00  0.00    -0.113 C  
HETATM   17  C   UNL     1      -6.600   6.536  67.634  1.00  0.00    -0.061 C  
HETATM   18  C   UNL     1      -6.383   6.260  69.110  1.00  0.00    -0.041 C  
HETATM   19  C   UNL     1      -7.497   5.487  69.791  1.00  0.00    -0.070 C  
HETATM   20  C   UNL     1      -8.819   5.498  69.085  1.00  0.00    -0.106 C  
ENDROOT
BRANCH   4  21
HETATM   21  C   UNL     1      -9.919  10.958  64.614  1.00  0.00    -0.369 C  
HETATM   22  C   UNL     1     -10.446  11.098  63.542  1.00  0.00    -0.422 C  
ENDBRANCH   4  21
BRANCH   7  23
HETATM   23  C   UNL     1      -9.547  13.202  66.561  1.00  0.00    -0.268 C  
HETATM   24  C   UNL     1      -9.565  13.977  67.875  1.00  0.00    -0.221 C  
ENDBRANCH   7  23
TORSDOF 2
ENDMDL
MODEL       66
REMARK 921   NORMALIZED FREE ENERGY PREDICTED BY IDOCK:   -3.94 KCAL/MOL
REMARK 922        TOTAL FREE ENERGY PREDICTED BY IDOCK:   -4.62 KCAL/MOL
REMARK 923 INTER-LIGAND FREE ENERGY PREDICTED BY IDOCK:   -5.49 KCAL/MOL
REMARK 924 INTRA-LIGAND FREE ENERGY PREDICTED BY IDOCK:    0.87 KCAL/MOL
REMARK 927      BINDING AFFINITY PREDICTED BY RF-SCORE:    0.00 PKD
ROOT
HETATM    1  C   UNL     1     -10.665  12.076  66.675  1.00  0.00    -0.280 C  
HETATM    2  C   UNL     1     -11.435  11.931  67.854  1.00  0.00    -0.385 C  
HETATM    3  C   UNL     1     -10.914  13.287  67.531  1.00  0.00    -0.281 C  
HETATM    4  C   UNL     1     -10.215  13.517  65.610  1.00  0.00    -0.296 C  
HETATM    5  C   UNL     1      -6.965  11.380  68.673  1.00  0.00    -0.087 C  
HETATM    6  O   UNL     1     -10.075  14.681  64.769  1.00  0.00    -0.459 OA 
HETATM    7  C   UNL     1     -11.455  13.775  66.128  1.00  0.00    -0.350 C  
HETATM    8  C   UNL     1     -10.680  15.348  66.848  1.00  0.00    -0.314 C  
HETATM    9  C   UNL     1      -8.854  12.298  67.111  1.00  0.00    -0.194 C  
HETATM   10  C   UNL     1      -6.645  12.805  69.058  1.00  0.00    -0.099 C  
HETATM   11  H   UNL     1      -9.753  14.787  63.882  1.00  0.00     0.000 HD 
HETATM   12  C   UNL     1      -9.002  15.195  66.979  1.00  0.00    -0.255 C  
HETATM   13  C   UNL     1      -8.377  11.197  68.094  1.00  0.00    -0.136 C  
HETATM   14  C   UNL     1      -8.353  13.887  67.667  1.00  0.00    -0.183 C  
HETATM   15  C   UNL     1      -8.300  16.092  66.254  1.00  0.00    -0.322 C  
HETATM   16  C   UNL     1      -6.811  13.825  67.933  1.00  0.00    -0.159 C  
HETATM   17  C   UNL     1      -6.098  15.147  68.288  1.00  0.00    -0.121 C  
HETATM   18  C   UNL     1      -6.196  15.642  69.718  1.00  0.00    -0.166 C  
HETATM   19  C   UNL     1      -6.073  14.566  70.782  1.00  0.00    -0.148 C  
HETATM   20  C   UNL     1      -6.330  13.163  70.317  1.00  0.00     0.092 C  
ENDROOT
BRANCH   4  21
HETATM   21  C   UNL     1     -10.331  12.511  64.437  1.00  0.00    -0.378 C  
HETATM   22  C   UNL     1     -10.518  11.794  63.490  1.00  0.00    -0.500 C  
ENDBRANCH   4  21
BRANCH   7  23
HETATM   23  C   UNL     1     -12.771  13.952  65.404  1.00  0.00    -0.525 C  
HETATM   24  C   UNL     1     -12.641  14.983  64.287  1.00  0.00     0.051 C  
ENDBRANCH   7  23
TORSDOF 2
ENDMDL
MODEL       67
REMARK 921   NORMALIZED FREE ENERGY PREDICTED BY IDOCK:   -3.93 KCAL/MOL
REMARK 922        TOTAL FREE ENERGY PREDICTED BY IDOCK:   -4.61 KCAL/MOL
REMARK 923 INTER-LIGAND FREE ENERGY PREDICTED BY IDOCK:   -4.39 KCAL/MOL
REMARK 924 INTRA-LIGAND FREE ENERGY PREDICTED BY IDOCK:   -0.23 KCAL/MOL
REMARK 927      BINDING AFFINITY PREDICTED BY RF-SCORE:    0.00 PKD
ROOT
HETATM    1  C   UNL     1     -10.617   7.531  71.558  1.00  0.00    -0.236 C  
HETATM    2  C   UNL     1     -11.758   6.860  71.056  1.00  0.00    -0.392 C  
HETATM    3  C   UNL     1     -10.463   6.640  70.357  1.00  0.00    -0.249 C  
HETATM    4  C   UNL     1      -8.797   7.260  71.392  1.00  0.00    -0.130 C  
HETATM    5  C   UNL     1     -11.149  10.916  69.023  1.00  0.00    -0.302 C  
HETATM    6  O   UNL     1      -7.415   6.848  71.331  1.00  0.00    -0.080 OA 
HETATM    7  C   UNL     1      -9.390   6.029  71.344  1.00  0.00    -0.159 C  
HETATM    8  C   UNL     1      -8.556   5.840  69.652  1.00  0.00    -0.116 C  
HETATM    9  C   UNL     1     -10.143   8.940  70.414  1.00  0.00    -0.232 C  
HETATM   10  C   UNL     1     -10.346  10.437  67.836  1.00  0.00    -0.227 C  
HETATM   11  H   UNL     1      -6.647   7.135  71.809  1.00  0.00     0.000 HD 
HETATM   12  C   UNL     1      -8.175   7.349  68.990  1.00  0.00    -0.128 C  
HETATM   13  C   UNL     1     -11.367   9.839  70.098  1.00  0.00    -0.305 C  
HETATM   14  C   UNL     1      -9.282   8.521  68.941  1.00  0.00    -0.146 C  
HETATM   15  C   UNL     1      -6.857   7.546  68.771  1.00  0.00    -0.065 C  
HETATM   16  C   UNL     1      -8.976   9.856  68.183  1.00  0.00    -0.118 C  
HETATM   17  C   UNL     1      -8.089   9.770  66.923  1.00  0.00    -0.113 C  
HETATM   18  C   UNL     1      -8.742   9.331  65.626  1.00  0.00    -0.193 C  
HETATM   19  C   UNL     1     -10.122   9.908  65.373  1.00  0.00    -0.270 C  
HETATM   20  C   UNL     1     -10.836  10.435  66.582  1.00  0.00    -0.140 C  
ENDROOT
BRANCH   4  21
HETATM   21  C   UNL     1      -8.728   7.758  72.859  1.00  0.00    -0.220 C  
HETATM   22  C   UNL     1      -8.593   8.054  74.016  1.00  0.00    -0.296 C  
ENDBRANCH   4  21
BRANCH   7  23
HETATM   23  C   UNL     1      -9.239   4.862  72.294  1.00  0.00    -0.151 C  
HETATM   24  C   UNL     1     -10.352   3.841  72.080  1.00  0.00    -0.120 C  
ENDBRANCH   7  23
TORSDOF 2
ENDMDL
MODEL       68
REMARK 921   NORMALIZED FREE ENERGY PREDICTED BY IDOCK:   -3.92 KCAL/MOL
REMARK 922        TOTAL FREE ENERGY PREDICTED BY IDOCK:   -4.60 KCAL/MOL
REMARK 923 INTER-LIGAND FREE ENERGY PREDICTED BY IDOCK:   -4.45 KCAL/MOL
REMARK 924 INTRA-LIGAND FREE ENERGY PREDICTED BY IDOCK:   -0.15 KCAL/MOL
REMARK 927      BINDING AFFINITY PREDICTED BY RF-SCORE:    0.00 PKD
ROOT
HETATM    1  C   UNL     1      -9.353   7.195  68.354  1.00  0.00    -0.135 C  
HETATM    2  C   UNL     1     -10.686   6.954  67.942  1.00  0.00    -0.294 C  
HETATM    3  C   UNL     1     -10.477   7.581  69.276  1.00  0.00    -0.216 C  
HETATM    4  C   UNL     1      -8.583   8.313  69.607  1.00  0.00    -0.129 C  
HETATM    5  C   UNL     1      -8.987   3.430  70.319  1.00  0.00    -0.175 C  
HETATM    6  O   UNL     1      -8.088   9.344  70.487  1.00  0.00    -0.161 OA 
HETATM    7  C   UNL     1      -9.697   8.950  69.135  1.00  0.00    -0.168 C  
HETATM    8  C   UNL     1     -10.279   8.982  70.939  1.00  0.00    -0.324 C  
HETATM    9  C   UNL     1      -8.857   5.965  69.682  1.00  0.00    -0.131 C  
HETATM   10  C   UNL     1      -9.484   3.840  71.685  1.00  0.00    -0.213 C  
HETATM   11  H   UNL     1      -7.214   9.682  70.639  1.00  0.00     0.000 HD 
HETATM   12  C   UNL     1      -9.508   7.784  71.849  1.00  0.00    -0.197 C  
HETATM   13  C   UNL     1      -9.173   4.512  69.242  1.00  0.00    -0.195 C  
HETATM   14  C   UNL     1      -9.443   6.265  71.310  1.00  0.00    -0.171 C  
HETATM   15  C   UNL     1      -8.764   8.253  72.874  1.00  0.00    -0.291 C  
HETATM   16  C   UNL     1      -8.874   5.131  72.227  1.00  0.00    -0.134 C  
HETATM   17  C   UNL     1      -9.124   5.254  73.746  1.00  0.00    -0.123 C  
HETATM   18  C   UNL     1     -10.479   4.829  74.277  1.00  0.00    -0.337 C  
HETATM   19  C   UNL     1     -11.046   3.565  73.656  1.00  0.00    -0.314 C  
HETATM   20  C   UNL     1     -10.457   3.172  72.334  1.00  0.00    -0.080 C  
ENDROOT
BRANCH   4  21
HETATM   21  C   UNL     1      -7.427   8.440  68.582  1.00  0.00    -0.093 C  
HETATM   22  C   UNL     1      -6.454   8.530  67.881  1.00  0.00    -0.057 C  
ENDBRANCH   4  21
BRANCH   7  23
HETATM   23  C   UNL     1      -9.800  10.255  68.379  1.00  0.00    -0.168 C  
HETATM   24  C   UNL     1     -11.016  10.255  67.459  1.00  0.00    -0.344 C  
ENDBRANCH   7  23
TORSDOF 2
ENDMDL
MODEL       69
REMARK 921   NORMALIZED FREE ENERGY PREDICTED BY IDOCK:   -3.89 KCAL/MOL
REMARK 922        TOTAL FREE ENERGY PREDICTED BY IDOCK:   -4.57 KCAL/MOL
REMARK 923 INTER-LIGAND FREE ENERGY PREDICTED BY IDOCK:   -4.44 KCAL/MOL
REMARK 924 INTRA-LIGAND FREE ENERGY PREDICTED BY IDOCK:   -0.12 KCAL/MOL
REMARK 927      BINDING AFFINITY PREDICTED BY RF-SCORE:    0.00 PKD
ROOT
HETATM    1  C   UNL     1      -9.522   6.543  66.975  1.00  0.00    -0.161 C  
HETATM    2  C   UNL     1     -10.927   6.661  66.851  1.00  0.00    -0.396 C  
HETATM    3  C   UNL     1     -10.211   7.709  67.629  1.00  0.00    -0.277 C  
HETATM    4  C   UNL     1      -8.169   7.733  67.383  1.00  0.00    -0.123 C  
HETATM    5  C   UNL     1      -9.750   4.324  70.607  1.00  0.00    -0.274 C  
HETATM    6  O   UNL     1      -7.191   8.782  67.542  1.00  0.00    -0.079 OA 
HETATM    7  C   UNL     1      -9.138   8.440  66.727  1.00  0.00    -0.192 C  
HETATM    8  C   UNL     1      -9.199   9.534  68.274  1.00  0.00    -0.132 C  
HETATM    9  C   UNL     1      -9.072   5.999  68.713  1.00  0.00    -0.124 C  
HETATM   10  C   UNL     1      -9.739   5.482  71.579  1.00  0.00    -0.201 C  
HETATM   11  H   UNL     1      -6.248   8.793  67.429  1.00  0.00     0.000 HD 
HETATM   12  C   UNL     1      -8.594   8.714  69.623  1.00  0.00    -0.131 C  
HETATM   13  C   UNL     1      -9.891   4.752  69.137  1.00  0.00    -0.254 C  
HETATM   14  C   UNL     1      -9.107   7.224  69.970  1.00  0.00    -0.148 C  
HETATM   15  C   UNL     1      -7.510   9.289  70.186  1.00  0.00    -0.098 C  
HETATM   16  C   UNL     1      -8.668   6.536  71.306  1.00  0.00    -0.130 C  
HETATM   17  C   UNL     1      -8.471   7.442  72.541  1.00  0.00    -0.131 C  
HETATM   18  C   UNL     1      -9.707   7.864  73.313  1.00  0.00    -0.352 C  
HETATM   19  C   UNL     1     -10.750   6.778  73.501  1.00  0.00    -0.319 C  
HETATM   20  C   UNL     1     -10.660   5.621  72.551  1.00  0.00    -0.267 C  
ENDROOT
BRANCH   4  21
HETATM   21  C   UNL     1      -7.330   6.916  66.367  1.00  0.00    -0.073 C  
HETATM   22  C   UNL     1      -6.592   6.366  65.593  1.00  0.00    -0.047 C  
ENDBRANCH   4  21
BRANCH   7  23
HETATM   23  C   UNL     1      -9.055   9.165  65.402  1.00  0.00    -0.271 C  
HETATM   24  C   UNL     1     -10.249  10.097  65.219  1.00  0.00    -0.261 C  
ENDBRANCH   7  23
TORSDOF 2
ENDMDL
MODEL       70
REMARK 921   NORMALIZED FREE ENERGY PREDICTED BY IDOCK:   -3.88 KCAL/MOL
REMARK 922        TOTAL FREE ENERGY PREDICTED BY IDOCK:   -4.56 KCAL/MOL
REMARK 923 INTER-LIGAND FREE ENERGY PREDICTED BY IDOCK:   -4.41 KCAL/MOL
REMARK 924 INTRA-LIGAND FREE ENERGY PREDICTED BY IDOCK:   -0.15 KCAL/MOL
REMARK 927      BINDING AFFINITY PREDICTED BY RF-SCORE:    0.00 PKD
ROOT
HETATM    1  C   UNL     1      -8.811  10.724  65.394  1.00  0.00    -0.202 C  
HETATM    2  C   UNL     1      -9.708  10.705  64.298  1.00  0.00    -0.372 C  
HETATM    3  C   UNL     1     -10.178  10.127  65.587  1.00  0.00    -0.288 C  
HETATM    4  C   UNL     1      -9.024  10.598  67.224  1.00  0.00    -0.136 C  
HETATM    5  C   UNL     1      -7.214   6.872  64.513  1.00  0.00    -0.073 C  
HETATM    6  O   UNL     1      -9.331  10.661  68.633  1.00  0.00    -0.161 OA 
HETATM    7  C   UNL     1     -10.142  11.215  66.734  1.00  0.00    -0.255 C  
HETATM    8  C   UNL     1     -11.113   9.796  67.533  1.00  0.00    -0.089 C  
HETATM    9  C   UNL     1      -8.151   8.998  65.718  1.00  0.00    -0.109 C  
HETATM   10  C   UNL     1      -8.181   6.037  65.319  1.00  0.00    -0.138 C  
HETATM   11  H   UNL     1      -8.798  10.878  69.388  1.00  0.00     0.000 HD 
HETATM   12  C   UNL     1     -10.129   8.442  67.770  1.00  0.00    -0.263 C  
HETATM   13  C   UNL     1      -7.608   8.355  64.415  1.00  0.00    -0.115 C  
HETATM   14  C   UNL     1      -9.209   7.883  66.568  1.00  0.00    -0.238 C  
HETATM   15  C   UNL     1      -9.995   8.068  69.060  1.00  0.00    -0.186 C  
HETATM   16  C   UNL     1      -8.427   6.538  66.741  1.00  0.00    -0.113 C  
HETATM   17  C   UNL     1      -9.088   5.437  67.598  1.00  0.00    -0.109 C  
HETATM   18  C   UNL     1     -10.160   4.583  66.948  1.00  0.00    -0.200 C  
HETATM   19  C   UNL     1      -9.871   4.166  65.517  1.00  0.00    -0.210 C  
HETATM   20  C   UNL     1      -8.846   4.990  64.797  1.00  0.00    -0.128 C  
ENDROOT
BRANCH   4  21
HETATM   21  C   UNL     1      -7.849  11.607  67.293  1.00  0.00    -0.157 C  
HETATM   22  C   UNL     1      -7.005  12.463  67.274  1.00  0.00    -0.129 C  
ENDBRANCH   4  21
BRANCH   7  23
HETATM   23  C   UNL     1     -10.656  12.611  67.008  1.00  0.00    -0.255 C  
HETATM   24  C   UNL     1     -11.811  12.956  66.072  1.00  0.00    -0.485 C  
ENDBRANCH   7  23
TORSDOF 2
ENDMDL
MODEL       71
REMARK 921   NORMALIZED FREE ENERGY PREDICTED BY IDOCK:   -3.83 KCAL/MOL
REMARK 922        TOTAL FREE ENERGY PREDICTED BY IDOCK:   -4.51 KCAL/MOL
REMARK 923 INTER-LIGAND FREE ENERGY PREDICTED BY IDOCK:   -4.30 KCAL/MOL
REMARK 924 INTRA-LIGAND FREE ENERGY PREDICTED BY IDOCK:   -0.21 KCAL/MOL
REMARK 927      BINDING AFFINITY PREDICTED BY RF-SCORE:    0.00 PKD
ROOT
HETATM    1  C   UNL     1      -8.677  10.710  68.881  1.00  0.00    -0.163 C  
HETATM    2  C   UNL     1      -7.550  10.693  69.738  1.00  0.00    -0.054 C  
HETATM    3  C   UNL     1      -7.688   9.582  68.756  1.00  0.00    -0.080 C  
HETATM    4  C   UNL     1      -9.065   9.908  67.263  1.00  0.00    -0.135 C  
HETATM    5  C   UNL     1     -11.068   8.369  71.521  1.00  0.00    -0.329 C  
HETATM    6  O   UNL     1      -9.185   9.369  65.929  1.00  0.00    -0.179 OA 
HETATM    7  C   UNL     1      -7.718  10.143  67.278  1.00  0.00    -0.095 C  
HETATM    8  C   UNL     1      -7.523   8.276  67.014  1.00  0.00    -0.088 C  
HETATM    9  C   UNL     1      -9.910   9.399  69.412  1.00  0.00    -0.183 C  
HETATM   10  C   UNL     1     -10.695   6.998  71.006  1.00  0.00    -0.256 C  
HETATM   11  H   UNL     1      -9.821   9.520  65.240  1.00  0.00     0.000 HD 
HETATM   12  C   UNL     1      -8.907   7.443  67.515  1.00  0.00    -0.127 C  
HETATM   13  C   UNL     1     -10.217   9.504  70.928  1.00  0.00    -0.356 C  
HETATM   14  C   UNL     1      -9.558   7.739  68.962  1.00  0.00    -0.155 C  
HETATM   15  C   UNL     1      -9.527   6.750  66.536  1.00  0.00    -0.193 C  
HETATM   16  C   UNL     1     -10.737   6.852  69.486  1.00  0.00    -0.276 C  
HETATM   17  C   UNL     1     -10.739   5.362  69.083  1.00  0.00    -0.168 C  
HETATM   18  C   UNL     1      -9.848   4.416  69.865  1.00  0.00    -0.290 C  
HETATM   19  C   UNL     1      -9.817   4.653  71.364  1.00  0.00    -0.264 C  
HETATM   20  C   UNL     1     -10.270   6.010  71.815  1.00  0.00    -0.242 C  
ENDROOT
BRANCH   4  21
HETATM   21  C   UNL     1      -9.828  11.221  66.951  1.00  0.00    -0.220 C  
HETATM   22  C   UNL     1     -10.442  12.193  66.599  1.00  0.00    -0.248 C  
ENDBRANCH   4  21
BRANCH   7  23
HETATM   23  C   UNL     1      -6.896  11.033  66.372  1.00  0.00    -0.118 C  
HETATM   24  C   UNL     1      -5.409  10.901  66.686  1.00  0.00    -0.079 C  
ENDBRANCH   7  23
TORSDOF 2
ENDMDL
MODEL       72
REMARK 921   NORMALIZED FREE ENERGY PREDICTED BY IDOCK:   -3.81 KCAL/MOL
REMARK 922        TOTAL FREE ENERGY PREDICTED BY IDOCK:   -4.48 KCAL/MOL
REMARK 923 INTER-LIGAND FREE ENERGY PREDICTED BY IDOCK:   -4.36 KCAL/MOL
REMARK 924 INTRA-LIGAND FREE ENERGY PREDICTED BY IDOCK:   -0.12 KCAL/MOL
REMARK 927      BINDING AFFINITY PREDICTED BY RF-SCORE:    0.00 PKD
ROOT
HETATM    1  C   UNL     1      -8.136  10.694  68.102  1.00  0.00    -0.114 C  
HETATM    2  C   UNL     1      -9.111  10.129  68.959  1.00  0.00    -0.176 C  
HETATM    3  C   UNL     1      -9.194   9.805  67.509  1.00  0.00    -0.145 C  
HETATM    4  C   UNL     1      -7.515  10.268  66.415  1.00  0.00    -0.114 C  
HETATM    5  C   UNL     1     -10.492  14.138  67.233  1.00  0.00    -0.272 C  
HETATM    6  O   UNL     1      -6.994   9.738  65.178  1.00  0.00    -0.104 OA 
HETATM    7  C   UNL     1      -7.870   9.093  67.018  1.00  0.00    -0.102 C  
HETATM    8  C   UNL     1      -9.045   8.850  65.550  1.00  0.00    -0.248 C  
HETATM    9  C   UNL     1      -8.897  12.068  67.076  1.00  0.00    -0.197 C  
HETATM   10  C   UNL     1     -11.238  13.603  66.033  1.00  0.00    -0.302 C  
HETATM   11  H   UNL     1      -6.219   9.952  64.673  1.00  0.00     0.000 HD 
HETATM   12  C   UNL     1      -9.407  10.327  64.810  1.00  0.00    -0.313 C  
HETATM   13  C   UNL     1      -9.666  13.073  67.973  1.00  0.00    -0.224 C  
HETATM   14  C   UNL     1      -9.874  11.591  65.697  1.00  0.00    -0.269 C  
HETATM   15  C   UNL     1      -9.028  10.411  63.517  1.00  0.00    -0.247 C  
HETATM   16  C   UNL     1     -10.363  12.903  64.995  1.00  0.00    -0.334 C  
HETATM   17  C   UNL     1     -11.120  12.753  63.659  1.00  0.00    -0.443 C  
HETATM   18  C   UNL     1     -12.591  12.386  63.716  1.00  0.00    -0.541 C  
HETATM   19  C   UNL     1     -13.387  13.083  64.804  1.00  0.00     0.562 C  
HETATM   20  C   UNL     1     -12.579  13.657  65.930  1.00  0.00    -0.478 C  
ENDROOT
BRANCH   4  21
HETATM   21  C   UNL     1      -6.140  10.742  66.951  1.00  0.00    -0.071 C  
HETATM   22  C   UNL     1      -5.131  11.139  67.471  1.00  0.00    -0.040 C  
ENDBRANCH   4  21
BRANCH   7  23
HETATM   23  C   UNL     1      -7.004   7.907  67.380  1.00  0.00    -0.075 C  
HETATM   24  C   UNL     1      -7.818   6.843  68.108  1.00  0.00    -0.114 C  
ENDBRANCH   7  23
TORSDOF 2
ENDMDL
MODEL       73
REMARK 921   NORMALIZED FREE ENERGY PREDICTED BY IDOCK:   -3.80 KCAL/MOL
REMARK 922        TOTAL FREE ENERGY PREDICTED BY IDOCK:   -4.46 KCAL/MOL
REMARK 923 INTER-LIGAND FREE ENERGY PREDICTED BY IDOCK:   -4.21 KCAL/MOL
REMARK 924 INTRA-LIGAND FREE ENERGY PREDICTED BY IDOCK:   -0.25 KCAL/MOL
REMARK 927      BINDING AFFINITY PREDICTED BY RF-SCORE:    0.00 PKD
ROOT
HETATM    1  C   UNL     1      -9.619  10.104  68.771  1.00  0.00    -0.170 C  
HETATM    2  C   UNL     1      -8.695   9.941  69.831  1.00  0.00    -0.225 C  
HETATM    3  C   UNL     1      -8.251   9.562  68.461  1.00  0.00    -0.113 C  
HETATM    4  C   UNL     1      -9.450  10.246  66.937  1.00  0.00    -0.169 C  
HETATM    5  C   UNL     1     -11.149   6.141  69.122  1.00  0.00    -0.448 C  
HETATM    6  O   UNL     1      -9.180  10.517  65.545  1.00  0.00    -0.169 OA 
HETATM    7  C   UNL     1      -8.328  10.804  67.485  1.00  0.00    -0.115 C  
HETATM    8  C   UNL     1      -7.360   9.530  66.467  1.00  0.00    -0.090 C  
HETATM    9  C   UNL     1     -10.266   8.433  68.216  1.00  0.00    -0.244 C  
HETATM   10  C   UNL     1     -10.192   5.447  68.181  1.00  0.00    -0.226 C  
HETATM   11  H   UNL     1      -9.733  10.833  64.842  1.00  0.00     0.000 HD 
HETATM   12  C   UNL     1      -8.334   8.210  66.060  1.00  0.00    -0.132 C  
HETATM   13  C   UNL     1     -10.769   7.601  69.424  1.00  0.00    -0.188 C  
HETATM   14  C   UNL     1      -9.218   7.469  67.189  1.00  0.00    -0.161 C  
HETATM   15  C   UNL     1      -8.496   8.023  64.733  1.00  0.00    -0.037 C  
HETATM   16  C   UNL     1      -9.988   6.151  66.841  1.00  0.00    -0.211 C  
HETATM   17  C   UNL     1      -9.335   5.195  65.819  1.00  0.00    -0.163 C  
HETATM   18  C   UNL     1      -8.237   4.273  66.315  1.00  0.00    -0.102 C  
HETATM   19  C   UNL     1      -8.485   3.649  67.676  1.00  0.00    -0.105 C  
HETATM   20  C   UNL     1      -9.502   4.345  68.531  1.00  0.00    -0.217 C  
ENDROOT
BRANCH   4  21
HETATM   21  C   UNL     1     -10.638  11.237  67.042  1.00  0.00    -0.287 C  
HETATM   22  C   UNL     1     -11.579  11.984  67.004  1.00  0.00    -0.387 C  
ENDBRANCH   4  21
BRANCH   7  23
HETATM   23  C   UNL     1      -7.837  12.232  67.405  1.00  0.00    -0.171 C  
HETATM   24  C   UNL     1      -6.748  12.490  68.442  1.00  0.00    -0.081 C  
ENDBRANCH   7  23
TORSDOF 2
ENDMDL
MODEL       74
REMARK 921   NORMALIZED FREE ENERGY PREDICTED BY IDOCK:   -3.79 KCAL/MOL
REMARK 922        TOTAL FREE ENERGY PREDICTED BY IDOCK:   -4.46 KCAL/MOL
REMARK 923 INTER-LIGAND FREE ENERGY PREDICTED BY IDOCK:   -4.20 KCAL/MOL
REMARK 924 INTRA-LIGAND FREE ENERGY PREDICTED BY IDOCK:   -0.26 KCAL/MOL
REMARK 927      BINDING AFFINITY PREDICTED BY RF-SCORE:    0.00 PKD
ROOT
HETATM    1  C   UNL     1      -8.333   7.300  68.721  1.00  0.00    -0.129 C  
HETATM    2  C   UNL     1      -7.217   7.223  69.589  1.00  0.00    -0.079 C  
HETATM    3  C   UNL     1      -8.260   8.241  69.892  1.00  0.00    -0.123 C  
HETATM    4  C   UNL     1     -10.038   7.991  68.887  1.00  0.00    -0.201 C  
HETATM    5  C   UNL     1      -6.529  10.232  66.208  1.00  0.00    -0.095 C  
HETATM    6  O   UNL     1     -11.385   8.409  69.194  1.00  0.00    -0.346 OA 
HETATM    7  C   UNL     1      -9.664   7.551  70.127  1.00  0.00    -0.172 C  
HETATM    8  C   UNL     1      -9.970   9.330  70.705  1.00  0.00    -0.357 C  
HETATM    9  C   UNL     1      -8.210   8.832  67.646  1.00  0.00    -0.110 C  
HETATM   10  C   UNL     1      -7.005  11.471  66.930  1.00  0.00    -0.134 C  
HETATM   11  H   UNL     1     -12.205   8.294  68.730  1.00  0.00     0.000 HD 
HETATM   12  C   UNL     1      -9.888  10.414  69.411  1.00  0.00    -0.235 C  
HETATM   13  C   UNL     1      -6.820   8.925  66.964  1.00  0.00    -0.073 C  
HETATM   14  C   UNL     1      -8.644  10.366  68.384  1.00  0.00    -0.128 C  
HETATM   15  C   UNL     1     -11.030  11.097  69.180  1.00  0.00    -0.295 C  
HETATM   16  C   UNL     1      -8.490  11.472  67.287  1.00  0.00    -0.152 C  
HETATM   17  C   UNL     1      -8.961  12.898  67.646  1.00  0.00    -0.192 C  
HETATM   18  C   UNL     1      -8.028  13.764  68.471  1.00  0.00    -0.131 C  
HETATM   19  C   UNL     1      -6.561  13.673  68.092  1.00  0.00    -0.124 C  
HETATM   20  C   UNL     1      -6.168  12.454  67.312  1.00  0.00    -0.144 C  
ENDROOT
BRANCH   4  21
HETATM   21  C   UNL     1     -10.463   6.790  68.005  1.00  0.00    -0.253 C  
HETATM   22  C   UNL     1     -10.908   5.899  67.331  1.00  0.00    -0.341 C  
ENDBRANCH   4  21
BRANCH   7  23
HETATM   23  C   UNL     1     -10.278   6.460  70.975  1.00  0.00    -0.227 C  
HETATM   24  C   UNL     1      -9.401   6.156  72.186  1.00  0.00    -0.155 C  
ENDBRANCH   7  23
TORSDOF 2
ENDMDL
MODEL       75
REMARK 921   NORMALIZED FREE ENERGY PREDICTED BY IDOCK:   -3.75 KCAL/MOL
REMARK 922        TOTAL FREE ENERGY PREDICTED BY IDOCK:   -4.41 KCAL/MOL
REMARK 923 INTER-LIGAND FREE ENERGY PREDICTED BY IDOCK:   -4.16 KCAL/MOL
REMARK 924 INTRA-LIGAND FREE ENERGY PREDICTED BY IDOCK:   -0.25 KCAL/MOL
REMARK 927      BINDING AFFINITY PREDICTED BY RF-SCORE:    0.00 PKD
ROOT
HETATM    1  C   UNL     1      -9.827   9.093  67.270  1.00  0.00    -0.244 C  
HETATM    2  C   UNL     1     -11.009   9.831  67.523  1.00  0.00    -0.205 C  
HETATM    3  C   UNL     1      -9.853  10.040  68.438  1.00  0.00    -0.169 C  
HETATM    4  C   UNL     1      -8.057   9.306  67.754  1.00  0.00    -0.104 C  
HETATM    5  C   UNL     1     -10.964   5.866  69.812  1.00  0.00    -0.452 C  
HETATM    6  O   UNL     1      -6.692   9.670  68.049  1.00  0.00    -0.061 OA 
HETATM    7  C   UNL     1      -8.592  10.559  67.638  1.00  0.00    -0.118 C  
HETATM    8  C   UNL     1      -8.071  10.804  69.444  1.00  0.00    -0.053 C  
HETATM    9  C   UNL     1      -9.633   7.729  68.543  1.00  0.00    -0.151 C  
HETATM   10  C   UNL     1     -10.368   6.377  71.103  1.00  0.00    -0.244 C  
HETATM   11  H   UNL     1      -5.863   9.331  67.733  1.00  0.00     0.000 HD 
HETATM   12  C   UNL     1      -7.885   9.320  70.231  1.00  0.00    -0.148 C  
HETATM   13  C   UNL     1     -10.933   6.894  68.668  1.00  0.00    -0.203 C  
HETATM   14  C   UNL     1      -9.036   8.192  70.128  1.00  0.00    -0.146 C  
HETATM   15  C   UNL     1      -6.640   9.086  70.696  1.00  0.00    -0.060 C  
HETATM   16  C   UNL     1      -8.933   6.888  70.988  1.00  0.00    -0.151 C  
HETATM   17  C   UNL     1      -8.285   7.008  72.385  1.00  0.00    -0.111 C  
HETATM   18  C   UNL     1      -9.142   7.537  73.519  1.00  0.00    -0.286 C  
HETATM   19  C   UNL     1     -10.571   7.025  73.540  1.00  0.00    -0.405 C  
HETATM   20  C   UNL     1     -11.076   6.462  72.245  1.00  0.00    -0.302 C  
ENDROOT
BRANCH   4  21
HETATM   21  C   UNL     1      -7.746   8.731  66.349  1.00  0.00    -0.099 C  
HETATM   22  C   UNL     1      -7.392   8.330  65.271  1.00  0.00    -0.081 C  
ENDBRANCH   4  21
BRANCH   7  23
HETATM   23  C   UNL     1      -8.219  11.669  66.680  1.00  0.00    -0.140 C  
HETATM   24  C   UNL     1      -9.171  12.852  66.824  1.00  0.00    -0.230 C  
ENDBRANCH   7  23
TORSDOF 2
ENDMDL
MODEL       76
REMARK 921   NORMALIZED FREE ENERGY PREDICTED BY IDOCK:   -3.75 KCAL/MOL
REMARK 922        TOTAL FREE ENERGY PREDICTED BY IDOCK:   -4.41 KCAL/MOL
REMARK 923 INTER-LIGAND FREE ENERGY PREDICTED BY IDOCK:   -4.15 KCAL/MOL
REMARK 924 INTRA-LIGAND FREE ENERGY PREDICTED BY IDOCK:   -0.25 KCAL/MOL
REMARK 927      BINDING AFFINITY PREDICTED BY RF-SCORE:    0.00 PKD
ROOT
HETATM    1  C   UNL     1      -6.948   6.659  67.930  1.00  0.00    -0.083 C  
HETATM    2  C   UNL     1      -7.220   5.291  68.173  1.00  0.00    -0.071 C  
HETATM    3  C   UNL     1      -8.379   6.195  67.934  1.00  0.00    -0.117 C  
HETATM    4  C   UNL     1      -7.901   8.033  67.144  1.00  0.00    -0.105 C  
HETATM    5  C   UNL     1      -7.248   7.738  72.043  1.00  0.00    -0.072 C  
HETATM    6  O   UNL     1      -8.666   8.973  66.361  1.00  0.00    -0.124 OA 
HETATM    7  C   UNL     1      -8.272   6.878  66.512  1.00  0.00    -0.117 C  
HETATM    8  C   UNL     1     -10.038   7.307  67.051  1.00  0.00    -0.316 C  
HETATM    9  C   UNL     1      -7.410   7.685  69.430  1.00  0.00    -0.087 C  
HETATM   10  C   UNL     1      -8.727   8.040  72.088  1.00  0.00    -0.212 C  
HETATM   11  H   UNL     1      -8.445   9.822  65.996  1.00  0.00     0.000 HD 
HETATM   12  C   UNL     1     -10.031   8.357  68.376  1.00  0.00    -0.208 C  
HETATM   13  C   UNL     1      -6.788   7.096  70.723  1.00  0.00    -0.053 C  
HETATM   14  C   UNL     1      -9.115   8.038  69.665  1.00  0.00    -0.152 C  
HETATM   15  C   UNL     1     -10.622   9.550  68.147  1.00  0.00    -0.265 C  
HETATM   16  C   UNL     1      -9.236   8.923  70.951  1.00  0.00    -0.286 C  
HETATM   17  C   UNL     1     -10.629   9.497  71.290  1.00  0.00    -0.358 C  
HETATM   18  C   UNL     1     -11.622   8.581  71.980  1.00  0.00    -0.432 C  
HETATM   19  C   UNL     1     -11.035   7.696  73.065  1.00  0.00    -0.457 C  
HETATM   20  C   UNL     1      -9.550   7.497  73.006  1.00  0.00    -0.268 C  
ENDROOT
BRANCH   4  21
HETATM   21  C   UNL     1      -6.521   8.504  66.617  1.00  0.00    -0.060 C  
HETATM   22  C   UNL     1      -5.512   8.943  66.132  1.00  0.00    -0.037 C  
ENDBRANCH   4  21
BRANCH   7  23
HETATM   23  C   UNL     1      -8.095   6.486  65.062  1.00  0.00    -0.127 C  
HETATM   24  C   UNL     1      -8.489   5.028  64.843  1.00  0.00    -0.147 C  
ENDBRANCH   7  23
TORSDOF 2
ENDMDL
MODEL       77
REMARK 921   NORMALIZED FREE ENERGY PREDICTED BY IDOCK:   -3.73 KCAL/MOL
REMARK 922        TOTAL FREE ENERGY PREDICTED BY IDOCK:   -4.39 KCAL/MOL
REMARK 923 INTER-LIGAND FREE ENERGY PREDICTED BY IDOCK:   -4.35 KCAL/MOL
REMARK 924 INTRA-LIGAND FREE ENERGY PREDICTED BY IDOCK:   -0.05 KCAL/MOL
REMARK 927      BINDING AFFINITY PREDICTED BY RF-SCORE:    0.00 PKD
ROOT
HETATM    1  C   UNL     1      -8.087   3.640  67.102  1.00  0.00    -0.091 C  
HETATM    2  C   UNL     1      -8.748   2.419  67.379  1.00  0.00    -0.138 C  
HETATM    3  C   UNL     1      -9.591   3.614  67.099  1.00  0.00    -0.194 C  
HETATM    4  C   UNL     1      -8.593   5.208  66.265  1.00  0.00    -0.114 C  
HETATM    5  C   UNL     1      -8.081   4.883  71.179  1.00  0.00    -0.101 C  
HETATM    6  O   UNL     1      -9.046   6.306  65.447  1.00  0.00    -0.366 OA 
HETATM    7  C   UNL     1      -9.282   4.192  65.660  1.00  0.00    -0.149 C  
HETATM    8  C   UNL     1     -10.848   5.134  66.162  1.00  0.00    -0.163 C  
HETATM    9  C   UNL     1      -8.238   4.802  68.567  1.00  0.00    -0.083 C  
HETATM   10  C   UNL     1      -9.409   5.605  71.196  1.00  0.00    -0.180 C  
HETATM   11  H   UNL     1      -8.585   7.042  65.061  1.00  0.00     0.000 HD 
HETATM   12  C   UNL     1     -10.543   6.176  67.458  1.00  0.00    -0.344 C  
HETATM   13  C   UNL     1      -7.822   4.096  69.884  1.00  0.00    -0.052 C  
HETATM   14  C   UNL     1      -9.767   5.643  68.769  1.00  0.00    -0.178 C  
HETATM   15  C   UNL     1     -10.758   7.482  67.188  1.00  0.00    -0.379 C  
HETATM   16  C   UNL     1      -9.631   6.564  70.028  1.00  0.00    -0.169 C  
HETATM   17  C   UNL     1     -10.798   7.528  70.331  1.00  0.00    -0.255 C  
HETATM   18  C   UNL     1     -12.018   6.964  71.032  1.00  0.00    -0.422 C  
HETATM   19  C   UNL     1     -11.722   5.979  72.149  1.00  0.00    -0.335 C  
HETATM   20  C   UNL     1     -10.359   5.354  72.116  1.00  0.00    -0.265 C  
ENDROOT
BRANCH   4  21
HETATM   21  C   UNL     1      -7.133   5.240  65.745  1.00  0.00    -0.068 C  
HETATM   22  C   UNL     1      -6.026   5.376  65.297  1.00  0.00    -0.025 C  
ENDBRANCH   4  21
BRANCH   7  23
HETATM   23  C   UNL     1      -9.219   3.722  64.224  1.00  0.00    -0.141 C  
HETATM   24  C   UNL     1     -10.484   2.957  63.849  1.00  0.00    -0.133 C  
ENDBRANCH   7  23
TORSDOF 2
ENDMDL
MODEL       78
REMARK 921   NORMALIZED FREE ENERGY PREDICTED BY IDOCK:   -3.71 KCAL/MOL
REMARK 922        TOTAL FREE ENERGY PREDICTED BY IDOCK:   -4.37 KCAL/MOL
REMARK 923 INTER-LIGAND FREE ENERGY PREDICTED BY IDOCK:   -4.15 KCAL/MOL
REMARK 924 INTRA-LIGAND FREE ENERGY PREDICTED BY IDOCK:   -0.22 KCAL/MOL
REMARK 927      BINDING AFFINITY PREDICTED BY RF-SCORE:    0.00 PKD
ROOT
HETATM    1  C   UNL     1      -7.892   7.684  67.298  1.00  0.00    -0.117 C  
HETATM    2  C   UNL     1      -6.884   6.710  67.495  1.00  0.00    -0.076 C  
HETATM    3  C   UNL     1      -8.249   6.404  68.004  1.00  0.00    -0.116 C  
HETATM    4  C   UNL     1      -9.738   7.631  67.290  1.00  0.00    -0.169 C  
HETATM    5  C   UNL     1      -7.170   9.589  71.043  1.00  0.00    -0.001 C  
HETATM    6  O   UNL     1     -11.160   7.432  67.138  1.00  0.00    -0.557 OA 
HETATM    7  C   UNL     1      -9.302   6.421  66.824  1.00  0.00    -0.167 C  
HETATM    8  C   UNL     1     -10.288   5.665  68.256  1.00  0.00    -0.253 C  
HETATM    9  C   UNL     1      -8.287   8.539  68.921  1.00  0.00    -0.118 C  
HETATM   10  C   UNL     1      -8.119   8.778  71.894  1.00  0.00    -0.090 C  
HETATM   11  H   UNL     1     -11.847   7.998  66.808  1.00  0.00     0.000 HD 
HETATM   12  C   UNL     1     -10.540   6.796  69.486  1.00  0.00    -0.265 C  
HETATM   13  C   UNL     1      -6.995   9.040  69.617  1.00  0.00    -0.054 C  
HETATM   14  C   UNL     1      -9.309   7.671  70.055  1.00  0.00    -0.154 C  
HETATM   15  C   UNL     1     -11.838   7.070  69.737  1.00  0.00     0.030 C  
HETATM   16  C   UNL     1      -9.515   8.596  71.301  1.00  0.00    -0.289 C  
HETATM   17  C   UNL     1     -10.507   8.119  72.383  1.00  0.00    -0.389 C  
HETATM   18  C   UNL     1     -10.019   7.092  73.387  1.00  0.00    -0.296 C  
HETATM   19  C   UNL     1      -8.605   7.307  73.894  1.00  0.00    -0.218 C  
HETATM   20  C   UNL     1      -7.738   8.183  73.040  1.00  0.00    -0.199 C  
ENDROOT
BRANCH   4  21
HETATM   21  C   UNL     1      -9.628   8.699  66.172  1.00  0.00    -0.305 C  
HETATM   22  C   UNL     1      -9.577   9.609  65.388  1.00  0.00    -0.361 C  
ENDBRANCH   4  21
BRANCH   7  23
HETATM   23  C   UNL     1      -9.512   5.791  65.466  1.00  0.00     0.145 C  
HETATM   24  C   UNL     1      -8.550   4.627  65.253  1.00  0.00    -0.133 C  
ENDBRANCH   7  23
TORSDOF 2
ENDMDL
MODEL       79
REMARK 921   NORMALIZED FREE ENERGY PREDICTED BY IDOCK:   -3.71 KCAL/MOL
REMARK 922        TOTAL FREE ENERGY PREDICTED BY IDOCK:   -4.36 KCAL/MOL
REMARK 923 INTER-LIGAND FREE ENERGY PREDICTED BY IDOCK:   -4.18 KCAL/MOL
REMARK 924 INTRA-LIGAND FREE ENERGY PREDICTED BY IDOCK:   -0.19 KCAL/MOL
REMARK 927      BINDING AFFINITY PREDICTED BY RF-SCORE:    0.00 PKD
ROOT
HETATM    1  C   UNL     1      -6.381  12.827  68.298  1.00  0.00    -0.078 C  
HETATM    2  C   UNL     1      -6.456  13.020  69.699  1.00  0.00    -0.044 C  
HETATM    3  C   UNL     1      -7.730  13.040  68.930  1.00  0.00     0.088 C  
HETATM    4  C   UNL     1      -7.601  12.307  67.012  1.00  0.00    -0.071 C  
HETATM    5  C   UNL     1      -6.074  16.995  67.461  1.00  0.00    -0.163 C  
HETATM    6  O   UNL     1      -8.589  11.729  66.133  1.00  0.00    -0.345 OA 
HETATM    7  C   UNL     1      -7.948  11.670  68.172  1.00  0.00    -0.141 C  
HETATM    8  C   UNL     1      -9.629  12.525  67.982  1.00  0.00    -0.212 C  
HETATM    9  C   UNL     1      -6.684  14.450  67.407  1.00  0.00    -0.002 C  
HETATM   10  C   UNL     1      -7.547  17.309  67.340  1.00  0.00    -0.201 C  
HETATM   11  H   UNL     1      -8.529  11.390  65.248  1.00  0.00     0.000 HD 
HETATM   12  C   UNL     1      -9.506  13.898  67.003  1.00  0.00    -0.256 C  
HETATM   13  C   UNL     1      -5.785  15.577  67.980  1.00  0.00    -0.147 C  
HETATM   14  C   UNL     1      -8.349  14.991  67.272  1.00  0.00    -0.228 C  
HETATM   15  C   UNL     1     -10.254  13.853  65.881  1.00  0.00    -0.326 C  
HETATM   16  C   UNL     1      -8.340  16.336  66.470  1.00  0.00    -0.343 C  
HETATM   17  C   UNL     1      -9.707  16.941  66.084  1.00  0.00    -0.296 C  
HETATM   18  C   UNL     1     -10.458  17.726  67.143  1.00  0.00    -0.338 C  
HETATM   19  C   UNL     1      -9.598  18.634  68.003  1.00  0.00    -0.348 C  
HETATM   20  C   UNL     1      -8.133  18.313  68.020  1.00  0.00    -0.279 C  
ENDROOT
BRANCH   4  21
HETATM   21  C   UNL     1      -6.395  11.589  66.355  1.00  0.00     0.012 C  
HETATM   22  C   UNL     1      -5.538  10.947  65.807  1.00  0.00    -0.138 C  
ENDBRANCH   4  21
BRANCH   7  23
HETATM   23  C   UNL     1      -7.985  10.188  68.470  1.00  0.00    -0.104 C  
HETATM   24  C   UNL     1      -8.555   9.929  69.861  1.00  0.00    -0.216 C  
ENDBRANCH   7  23
TORSDOF 2
ENDMDL
MODEL       80
REMARK 921   NORMALIZED FREE ENERGY PREDICTED BY IDOCK:   -3.63 KCAL/MOL
REMARK 922        TOTAL FREE ENERGY PREDICTED BY IDOCK:   -4.28 KCAL/MOL
REMARK 923 INTER-LIGAND FREE ENERGY PREDICTED BY IDOCK:   -4.09 KCAL/MOL
REMARK 924 INTRA-LIGAND FREE ENERGY PREDICTED BY IDOCK:   -0.19 KCAL/MOL
REMARK 927      BINDING AFFINITY PREDICTED BY RF-SCORE:    0.00 PKD
ROOT
HETATM    1  C   UNL     1      -7.750   8.851  67.362  1.00  0.00    -0.096 C  
HETATM    2  C   UNL     1      -8.234   7.961  66.372  1.00  0.00    -0.121 C  
HETATM    3  C   UNL     1      -9.212   8.496  67.360  1.00  0.00    -0.163 C  
HETATM    4  C   UNL     1      -8.550  10.106  68.456  1.00  0.00    -0.118 C  
HETATM    5  C   UNL     1      -6.964   5.740  70.169  1.00  0.00    -0.065 C  
HETATM    6  O   UNL     1      -9.257  11.169  69.128  1.00  0.00    -0.378 OA 
HETATM    7  C   UNL     1      -9.268  10.075  67.292  1.00  0.00    -0.159 C  
HETATM    8  C   UNL     1     -10.761   9.648  68.381  1.00  0.00    -0.251 C  
HETATM    9  C   UNL     1      -7.674   7.985  69.025  1.00  0.00    -0.100 C  
HETATM   10  C   UNL     1      -8.310   5.710  70.854  1.00  0.00    -0.124 C  
HETATM   11  H   UNL     1      -8.951  11.913  69.634  1.00  0.00     0.000 HD 
HETATM   12  C   UNL     1     -10.268   8.990  69.858  1.00  0.00    -0.214 C  
HETATM   13  C   UNL     1      -6.928   6.630  68.915  1.00  0.00    -0.079 C  
HETATM   14  C   UNL     1      -9.186   7.793  69.898  1.00  0.00    -0.146 C  
HETATM   15  C   UNL     1     -10.642   9.705  70.941  1.00  0.00    -0.386 C  
HETATM   16  C   UNL     1      -8.857   7.080  71.252  1.00  0.00    -0.133 C  
HETATM   17  C   UNL     1     -10.005   6.931  72.273  1.00  0.00    -0.176 C  
HETATM   18  C   UNL     1     -10.995   5.801  72.065  1.00  0.00    -0.317 C  
HETATM   19  C   UNL     1     -10.385   4.484  71.621  1.00  0.00    -0.160 C  
HETATM   20  C   UNL     1      -9.016   4.575  71.017  1.00  0.00    -0.165 C  
ENDROOT
BRANCH   4  21
HETATM   21  C   UNL     1      -7.245  10.916  68.250  1.00  0.00    -0.084 C  
HETATM   22  C   UNL     1      -6.298  11.622  68.022  1.00  0.00    -0.047 C  
ENDBRANCH   4  21
BRANCH   7  23
HETATM   23  C   UNL     1      -9.480  11.172  66.273  1.00  0.00    -0.220 C  
HETATM   24  C   UNL     1      -9.985  10.597  64.954  1.00  0.00    -0.382 C  
ENDBRANCH   7  23
TORSDOF 2
ENDMDL
MODEL       81
REMARK 921   NORMALIZED FREE ENERGY PREDICTED BY IDOCK:   -3.62 KCAL/MOL
REMARK 922        TOTAL FREE ENERGY PREDICTED BY IDOCK:   -4.26 KCAL/MOL
REMARK 923 INTER-LIGAND FREE ENERGY PREDICTED BY IDOCK:   -4.46 KCAL/MOL
REMARK 924 INTRA-LIGAND FREE ENERGY PREDICTED BY IDOCK:    0.20 KCAL/MOL
REMARK 927      BINDING AFFINITY PREDICTED BY RF-SCORE:    0.00 PKD
ROOT
HETATM    1  C   UNL     1      -8.865  11.607  68.551  1.00  0.00    -0.131 C  
HETATM    2  C   UNL     1      -7.697  12.001  67.855  1.00  0.00    -0.134 C  
HETATM    3  C   UNL     1      -8.503  10.889  67.281  1.00  0.00    -0.125 C  
HETATM    4  C   UNL     1     -10.391  10.684  68.071  1.00  0.00    -0.178 C  
HETATM    5  C   UNL     1      -6.833   8.645  70.847  1.00  0.00    -0.061 C  
HETATM    6  O   UNL     1     -11.601  10.107  67.538  1.00  0.00    -0.503 OA 
HETATM    7  C   UNL     1      -9.975  11.370  66.964  1.00  0.00    -0.227 C  
HETATM    8  C   UNL     1      -9.895   9.680  66.110  1.00  0.00    -0.334 C  
HETATM    9  C   UNL     1      -8.580   9.964  69.411  1.00  0.00    -0.180 C  
HETATM   10  C   UNL     1      -7.002   7.476  69.905  1.00  0.00    -0.059 C  
HETATM   11  H   UNL     1     -12.473  10.013  67.903  1.00  0.00     0.000 HD 
HETATM   12  C   UNL     1      -9.755   8.432  67.242  1.00  0.00    -0.240 C  
HETATM   13  C   UNL     1      -7.275   9.991  70.248  1.00  0.00    -0.155 C  
HETATM   14  C   UNL     1      -8.653   8.518  68.418  1.00  0.00    -0.139 C  
HETATM   15  C   UNL     1     -10.772   7.545  67.225  1.00  0.00    -0.365 C  
HETATM   16  C   UNL     1      -8.417   7.291  69.361  1.00  0.00    -0.133 C  
HETATM   17  C   UNL     1      -8.584   5.883  68.750  1.00  0.00    -0.110 C  
HETATM   18  C   UNL     1      -7.430   5.321  67.941  1.00  0.00    -0.076 C  
HETATM   19  C   UNL     1      -6.051   5.588  68.516  1.00  0.00    -0.022 C  
HETATM   20  C   UNL     1      -5.967   6.715  69.502  1.00  0.00    -0.022 C  
ENDROOT
BRANCH   4  21
HETATM   21  C   UNL     1     -11.114  11.645  69.049  1.00  0.00    -0.297 C  
HETATM   22  C   UNL     1     -11.685  12.295  69.884  1.00  0.00    -0.346 C  
ENDBRANCH   4  21
BRANCH   7  23
HETATM   23  C   UNL     1     -10.684  12.468  66.203  1.00  0.00    -0.290 C  
HETATM   24  C   UNL     1     -10.504  12.288  64.698  1.00  0.00    -0.334 C  
ENDBRANCH   7  23
TORSDOF 2
ENDMDL
MODEL       82
REMARK 921   NORMALIZED FREE ENERGY PREDICTED BY IDOCK:   -3.53 KCAL/MOL
REMARK 922        TOTAL FREE ENERGY PREDICTED BY IDOCK:   -4.17 KCAL/MOL
REMARK 923 INTER-LIGAND FREE ENERGY PREDICTED BY IDOCK:   -4.04 KCAL/MOL
REMARK 924 INTRA-LIGAND FREE ENERGY PREDICTED BY IDOCK:   -0.13 KCAL/MOL
REMARK 927      BINDING AFFINITY PREDICTED BY RF-SCORE:    0.00 PKD
ROOT
HETATM    1  C   UNL     1     -10.660   6.197  68.243  1.00  0.00    -0.324 C  
HETATM    2  C   UNL     1     -10.586   5.473  67.029  1.00  0.00    -0.332 C  
HETATM    3  C   UNL     1      -9.315   5.725  67.762  1.00  0.00    -0.105 C  
HETATM    4  C   UNL     1      -9.542   6.360  69.705  1.00  0.00    -0.151 C  
HETATM    5  C   UNL     1     -10.050   9.969  66.354  1.00  0.00    -0.307 C  
HETATM    6  O   UNL     1      -8.675   6.272  70.855  1.00  0.00    -0.134 OA 
HETATM    7  C   UNL     1      -9.372   5.096  69.212  1.00  0.00    -0.172 C  
HETATM    8  C   UNL     1      -7.542   5.559  69.027  1.00  0.00    -0.087 C  
HETATM    9  C   UNL     1      -9.994   7.934  68.000  1.00  0.00    -0.213 C  
HETATM   10  C   UNL     1      -8.541  10.012  66.420  1.00  0.00    -0.136 C  
HETATM   11  H   UNL     1      -8.780   6.565  71.752  1.00  0.00     0.000 HD 
HETATM   12  C   UNL     1      -7.343   7.236  68.958  1.00  0.00    -0.091 C  
HETATM   13  C   UNL     1     -10.649   8.615  66.770  1.00  0.00    -0.223 C  
HETATM   14  C   UNL     1      -8.249   8.125  67.960  1.00  0.00    -0.129 C  
HETATM   15  C   UNL     1      -6.590   7.751  69.953  1.00  0.00    -0.037 C  
HETATM   16  C   UNL     1      -7.949   9.651  67.781  1.00  0.00    -0.105 C  
HETATM   17  C   UNL     1      -6.475  10.100  67.868  1.00  0.00    -0.062 C  
HETATM   18  C   UNL     1      -5.605   9.915  66.640  1.00  0.00    -0.046 C  
HETATM   19  C   UNL     1      -6.276  10.245  65.319  1.00  0.00    -0.127 C  
HETATM   20  C   UNL     1      -7.775  10.258  65.340  1.00  0.00    -0.146 C  
ENDROOT
BRANCH   4  21
HETATM   21  C   UNL     1     -10.855   6.434  70.527  1.00  0.00    -0.335 C  
HETATM   22  C   UNL     1     -11.932   6.486  71.058  1.00  0.00    -0.358 C  
ENDBRANCH   4  21
BRANCH   7  23
HETATM   23  C   UNL     1      -9.659   3.768  69.875  1.00  0.00    -0.255 C  
HETATM   24  C   UNL     1      -9.439   2.616  68.900  1.00  0.00    -0.166 C  
ENDBRANCH   7  23
TORSDOF 2
ENDMDL
MODEL       83
REMARK 921   NORMALIZED FREE ENERGY PREDICTED BY IDOCK:   -3.50 KCAL/MOL
REMARK 922        TOTAL FREE ENERGY PREDICTED BY IDOCK:   -4.13 KCAL/MOL
REMARK 923 INTER-LIGAND FREE ENERGY PREDICTED BY IDOCK:   -3.96 KCAL/MOL
REMARK 924 INTRA-LIGAND FREE ENERGY PREDICTED BY IDOCK:   -0.17 KCAL/MOL
REMARK 927      BINDING AFFINITY PREDICTED BY RF-SCORE:    0.00 PKD
ROOT
HETATM    1  C   UNL     1      -9.282   9.050  67.344  1.00  0.00    -0.158 C  
HETATM    2  C   UNL     1     -10.556   8.740  66.811  1.00  0.00    -0.220 C  
HETATM    3  C   UNL     1     -10.410   8.747  68.292  1.00  0.00    -0.252 C  
HETATM    4  C   UNL     1      -8.695   9.641  68.994  1.00  0.00    -0.142 C  
HETATM    5  C   UNL     1      -8.034   4.977  67.470  1.00  0.00    -0.095 C  
HETATM    6  O   UNL     1      -8.380  10.261  70.258  1.00  0.00    -0.365 OA 
HETATM    7  C   UNL     1      -9.942  10.169  68.801  1.00  0.00    -0.187 C  
HETATM    8  C   UNL     1     -10.419   9.285  70.409  1.00  0.00    -0.296 C  
HETATM    9  C   UNL     1      -8.469   7.499  68.018  1.00  0.00    -0.123 C  
HETATM   10  C   UNL     1      -8.530   4.632  68.855  1.00  0.00    -0.088 C  
HETATM   11  H   UNL     1      -7.588  10.674  70.581  1.00  0.00     0.000 HD 
HETATM   12  C   UNL     1      -9.366   8.002  70.733  1.00  0.00    -0.167 C  
HETATM   13  C   UNL     1      -8.499   6.355  66.971  1.00  0.00    -0.112 C  
HETATM   14  C   UNL     1      -9.016   6.924  69.584  1.00  0.00    -0.144 C  
HETATM   15  C   UNL     1      -8.682   8.119  71.891  1.00  0.00    -0.206 C  
HETATM   16  C   UNL     1      -8.174   5.652  69.935  1.00  0.00    -0.109 C  
HETATM   17  C   UNL     1      -8.361   5.041  71.340  1.00  0.00    -0.118 C  
HETATM   18  C   UNL     1      -9.567   4.151  71.571  1.00  0.00    -0.238 C  
HETATM   19  C   UNL     1      -9.891   3.199  70.434  1.00  0.00     0.044 C  
HETATM   20  C   UNL     1      -9.305   3.559  69.101  1.00  0.00    -0.242 C  
ENDROOT
BRANCH   4  21
HETATM   21  C   UNL     1      -7.649  10.445  68.180  1.00  0.00    -0.091 C  
HETATM   22  C   UNL     1      -6.802  10.962  67.501  1.00  0.00    -0.079 C  
ENDBRANCH   4  21
BRANCH   7  23
HETATM   23  C   UNL     1     -10.355  11.620  68.692  1.00  0.00    -0.229 C  
HETATM   24  C   UNL     1     -11.811  11.737  68.250  1.00  0.00    -0.340 C  
ENDBRANCH   7  23
TORSDOF 2
ENDMDL
MODEL       84
REMARK 921   NORMALIZED FREE ENERGY PREDICTED BY IDOCK:   -3.45 KCAL/MOL
REMARK 922        TOTAL FREE ENERGY PREDICTED BY IDOCK:   -4.08 KCAL/MOL
REMARK 923 INTER-LIGAND FREE ENERGY PREDICTED BY IDOCK:   -4.28 KCAL/MOL
REMARK 924 INTRA-LIGAND FREE ENERGY PREDICTED BY IDOCK:    0.20 KCAL/MOL
REMARK 927      BINDING AFFINITY PREDICTED BY RF-SCORE:    0.00 PKD
ROOT
HETATM    1  C   UNL     1      -8.551   7.358  71.060  1.00  0.00    -0.134 C  
HETATM    2  C   UNL     1      -8.084   8.484  71.781  1.00  0.00    -0.191 C  
HETATM    3  C   UNL     1      -9.012   8.728  70.643  1.00  0.00    -0.219 C  
HETATM    4  C   UNL     1      -9.996   7.060  69.949  1.00  0.00    -0.177 C  
HETATM    5  C   UNL     1      -5.382   7.518  68.214  1.00  0.00    -0.026 C  
HETATM    6  O   UNL     1     -11.245   6.902  69.243  1.00  0.00    -0.443 OA 
HETATM    7  C   UNL     1     -10.389   7.987  70.875  1.00  0.00    -0.221 C  
HETATM    8  C   UNL     1     -10.763   9.111  69.394  1.00  0.00    -0.210 C  
HETATM    9  C   UNL     1      -7.710   7.271  69.386  1.00  0.00    -0.107 C  
HETATM   10  C   UNL     1      -6.032   8.434  67.205  1.00  0.00    -0.054 C  
HETATM   11  H   UNL     1     -11.699   6.132  68.924  1.00  0.00     0.000 HD 
HETATM   12  C   UNL     1      -9.888   8.631  68.030  1.00  0.00    -0.201 C  
HETATM   13  C   UNL     1      -6.170   7.387  69.528  1.00  0.00    -0.031 C  
HETATM   14  C   UNL     1      -8.302   8.352  68.134  1.00  0.00    -0.128 C  
HETATM   15  C   UNL     1     -10.650   8.265  66.977  1.00  0.00    -0.328 C  
HETATM   16  C   UNL     1      -7.469   8.067  66.839  1.00  0.00    -0.091 C  
HETATM   17  C   UNL     1      -7.902   8.789  65.545  1.00  0.00    -0.098 C  
HETATM   18  C   UNL     1      -7.464  10.229  65.357  1.00  0.00    -0.145 C  
HETATM   19  C   UNL     1      -6.041  10.531  65.789  1.00  0.00    -0.133 C  
HETATM   20  C   UNL     1      -5.427   9.541  66.734  1.00  0.00    -0.046 C  
ENDROOT
BRANCH   4  21
HETATM   21  C   UNL     1     -10.013   5.643  70.579  1.00  0.00    -0.265 C  
HETATM   22  C   UNL     1     -10.029   4.501  70.953  1.00  0.00    -0.263 C  
ENDBRANCH   4  21
BRANCH   7  23
HETATM   23  C   UNL     1     -11.474   7.885  71.923  1.00  0.00    -0.328 C  
HETATM   24  C   UNL     1     -12.285   9.175  71.993  1.00  0.00    -0.443 C  
ENDBRANCH   7  23
TORSDOF 2
ENDMDL
MODEL       85
REMARK 921   NORMALIZED FREE ENERGY PREDICTED BY IDOCK:   -3.43 KCAL/MOL
REMARK 922        TOTAL FREE ENERGY PREDICTED BY IDOCK:   -4.05 KCAL/MOL
REMARK 923 INTER-LIGAND FREE ENERGY PREDICTED BY IDOCK:   -3.82 KCAL/MOL
REMARK 924 INTRA-LIGAND FREE ENERGY PREDICTED BY IDOCK:   -0.23 KCAL/MOL
REMARK 927      BINDING AFFINITY PREDICTED BY RF-SCORE:    0.00 PKD
ROOT
HETATM    1  C   UNL     1      -6.612  10.451  68.753  1.00  0.00    -0.052 C  
HETATM    2  C   UNL     1      -6.453  10.822  70.109  1.00  0.00    -0.155 C  
HETATM    3  C   UNL     1      -7.814  10.424  69.656  1.00  0.00    -0.138 C  
HETATM    4  C   UNL     1      -7.880   9.471  67.834  1.00  0.00    -0.091 C  
HETATM    5  C   UNL     1      -7.600  14.402  67.497  1.00  0.00    -0.212 C  
HETATM    6  O   UNL     1      -8.834   8.551  67.263  1.00  0.00    -0.128 OA 
HETATM    7  C   UNL     1      -7.806   8.945  69.095  1.00  0.00    -0.093 C  
HETATM    8  C   UNL     1      -9.657   9.335  69.223  1.00  0.00    -0.161 C  
HETATM    9  C   UNL     1      -7.508  11.806  67.814  1.00  0.00    -0.117 C  
HETATM   10  C   UNL     1      -9.097  14.332  67.692  1.00  0.00    -0.192 C  
HETATM   11  H   UNL     1      -8.864   8.111  66.422  1.00  0.00     0.000 HD 
HETATM   12  C   UNL     1     -10.102  10.539  68.123  1.00  0.00    -0.180 C  
HETATM   13  C   UNL     1      -6.846  13.186  68.060  1.00  0.00    -0.118 C  
HETATM   14  C   UNL     1      -9.249  11.905  68.019  1.00  0.00    -0.190 C  
HETATM   15  C   UNL     1     -11.020  10.152  67.212  1.00  0.00    -0.250 C  
HETATM   16  C   UNL     1      -9.759  13.081  67.119  1.00  0.00    -0.230 C  
HETATM   17  C   UNL     1     -11.286  13.277  67.006  1.00  0.00    -0.346 C  
HETATM   18  C   UNL     1     -11.991  14.004  68.136  1.00  0.00    -0.382 C  
HETATM   19  C   UNL     1     -11.251  15.208  68.689  1.00  0.00    -0.295 C  
HETATM   20  C   UNL     1      -9.780  15.254  68.396  1.00  0.00    -0.213 C  
ENDROOT
BRANCH   4  21
HETATM   21  C   UNL     1      -6.683   8.976  66.983  1.00  0.00    -0.069 C  
HETATM   22  C   UNL     1      -5.817   8.628  66.225  1.00  0.00    -0.047 C  
ENDBRANCH   4  21
BRANCH   7  23
HETATM   23  C   UNL     1      -7.386   7.558  69.525  1.00  0.00    -0.084 C  
HETATM   24  C   UNL     1      -7.343   7.451  71.046  1.00  0.00    -0.073 C  
ENDBRANCH   7  23
TORSDOF 2
ENDMDL
MODEL       86
REMARK 921   NORMALIZED FREE ENERGY PREDICTED BY IDOCK:   -3.43 KCAL/MOL
REMARK 922        TOTAL FREE ENERGY PREDICTED BY IDOCK:   -4.05 KCAL/MOL
REMARK 923 INTER-LIGAND FREE ENERGY PREDICTED BY IDOCK:   -3.80 KCAL/MOL
REMARK 924 INTRA-LIGAND FREE ENERGY PREDICTED BY IDOCK:   -0.25 KCAL/MOL
REMARK 927      BINDING AFFINITY PREDICTED BY RF-SCORE:    0.00 PKD
ROOT
HETATM    1  C   UNL     1      -9.255   5.962  65.967  1.00  0.00    -0.143 C  
HETATM    2  C   UNL     1      -8.552   7.179  66.140  1.00  0.00    -0.151 C  
HETATM    3  C   UNL     1      -7.949   5.944  66.713  1.00  0.00    -0.102 C  
HETATM    4  C   UNL     1      -8.768   4.181  66.040  1.00  0.00    -0.115 C  
HETATM    5  C   UNL     1     -11.386   6.352  69.638  1.00  0.00    -0.479 C  
HETATM    6  O   UNL     1      -8.237   2.843  65.953  1.00  0.00    -0.085 OA 
HETATM    7  C   UNL     1      -7.682   4.873  65.580  1.00  0.00    -0.087 C  
HETATM    8  C   UNL     1      -6.758   4.148  67.068  1.00  0.00    -0.047 C  
HETATM    9  C   UNL     1     -10.041   5.436  67.588  1.00  0.00    -0.217 C  
HETATM   10  C   UNL     1     -10.400   5.653  70.546  1.00  0.00    -0.327 C  
HETATM   11  H   UNL     1      -8.615   2.029  65.641  1.00  0.00     0.000 HD 
HETATM   12  C   UNL     1      -7.835   3.681  68.285  1.00  0.00    -0.067 C  
HETATM   13  C   UNL     1     -10.852   6.599  68.218  1.00  0.00    -0.322 C  
HETATM   14  C   UNL     1      -8.991   4.691  68.782  1.00  0.00    -0.143 C  
HETATM   15  C   UNL     1      -7.802   2.366  68.585  1.00  0.00    -0.058 C  
HETATM   16  C   UNL     1      -9.878   4.319  70.017  1.00  0.00    -0.275 C  
HETATM   17  C   UNL     1      -9.214   3.509  71.151  1.00  0.00    -0.192 C  
HETATM   18  C   UNL     1      -8.359   4.262  72.152  1.00  0.00    -0.103 C  
HETATM   19  C   UNL     1      -8.917   5.603  72.594  1.00  0.00    -0.132 C  
HETATM   20  C   UNL     1      -9.946   6.207  71.686  1.00  0.00    -0.203 C  
ENDROOT
BRANCH   4  21
HETATM   21  C   UNL     1      -9.799   3.995  64.897  1.00  0.00    -0.203 C  
HETATM   22  C   UNL     1     -10.615   3.737  64.052  1.00  0.00    -0.274 C  
ENDBRANCH   4  21
BRANCH   7  23
HETATM   23  C   UNL     1      -6.981   4.768  64.245  1.00  0.00    -0.049 C  
HETATM   24  C   UNL     1      -6.057   5.961  64.021  1.00  0.00    -0.025 C  
ENDBRANCH   7  23
TORSDOF 2
ENDMDL
MODEL       87
REMARK 921   NORMALIZED FREE ENERGY PREDICTED BY IDOCK:   -3.42 KCAL/MOL
REMARK 922        TOTAL FREE ENERGY PREDICTED BY IDOCK:   -4.04 KCAL/MOL
REMARK 923 INTER-LIGAND FREE ENERGY PREDICTED BY IDOCK:   -4.18 KCAL/MOL
REMARK 924 INTRA-LIGAND FREE ENERGY PREDICTED BY IDOCK:    0.13 KCAL/MOL
REMARK 927      BINDING AFFINITY PREDICTED BY RF-SCORE:    0.00 PKD
ROOT
HETATM    1  C   UNL     1      -9.335   8.329  68.014  1.00  0.00    -0.141 C  
HETATM    2  C   UNL     1     -10.307   8.337  66.984  1.00  0.00    -0.393 C  
HETATM    3  C   UNL     1     -10.556   7.463  68.164  1.00  0.00    -0.216 C  
HETATM    4  C   UNL     1      -9.364   7.844  69.796  1.00  0.00    -0.153 C  
HETATM    5  C   UNL     1      -7.178   5.059  66.335  1.00  0.00    -0.077 C  
HETATM    6  O   UNL     1      -9.553   7.599  71.206  1.00  0.00    -0.157 OA 
HETATM    7  C   UNL     1     -10.610   8.319  69.493  1.00  0.00    -0.216 C  
HETATM    8  C   UNL     1     -11.248   6.626  70.059  1.00  0.00    -0.425 C  
HETATM    9  C   UNL     1      -8.361   6.727  67.970  1.00  0.00    -0.120 C  
HETATM   10  C   UNL     1      -7.912   3.930  67.020  1.00  0.00    -0.095 C  
HETATM   11  H   UNL     1      -9.002   7.775  71.959  1.00  0.00     0.000 HD 
HETATM   12  C   UNL     1     -10.027   5.459  69.982  1.00  0.00    -0.303 C  
HETATM   13  C   UNL     1      -7.830   6.436  66.542  1.00  0.00    -0.104 C  
HETATM   14  C   UNL     1      -9.132   5.302  68.649  1.00  0.00    -0.129 C  
HETATM   15  C   UNL     1      -9.719   4.894  71.168  1.00  0.00    -0.245 C  
HETATM   16  C   UNL     1      -8.117   4.117  68.522  1.00  0.00    -0.077 C  
HETATM   17  C   UNL     1      -8.501   2.778  69.188  1.00  0.00    -0.098 C  
HETATM   18  C   UNL     1      -9.461   1.868  68.446  1.00  0.00    -0.234 C  
HETATM   19  C   UNL     1      -9.229   1.771  66.949  1.00  0.00    -0.027 C  
HETATM   20  C   UNL     1      -8.429   2.886  66.344  1.00  0.00    -0.105 C  
ENDROOT
BRANCH   4  21
HETATM   21  C   UNL     1      -8.380   9.026  69.992  1.00  0.00    -0.144 C  
HETATM   22  C   UNL     1      -7.630   9.926  70.264  1.00  0.00    -0.172 C  
ENDBRANCH   4  21
BRANCH   7  23
HETATM   23  C   UNL     1     -11.332   9.524  70.052  1.00  0.00    -0.204 C  
HETATM   24  C   UNL     1     -11.424  10.633  69.009  1.00  0.00    -0.342 C  
ENDBRANCH   7  23
TORSDOF 2
ENDMDL
MODEL       88
REMARK 921   NORMALIZED FREE ENERGY PREDICTED BY IDOCK:   -3.39 KCAL/MOL
REMARK 922        TOTAL FREE ENERGY PREDICTED BY IDOCK:   -4.01 KCAL/MOL
REMARK 923 INTER-LIGAND FREE ENERGY PREDICTED BY IDOCK:   -3.96 KCAL/MOL
REMARK 924 INTRA-LIGAND FREE ENERGY PREDICTED BY IDOCK:   -0.05 KCAL/MOL
REMARK 927      BINDING AFFINITY PREDICTED BY RF-SCORE:    0.00 PKD
ROOT
HETATM    1  C   UNL     1      -7.972  14.255  68.571  1.00  0.00    -0.145 C  
HETATM    2  C   UNL     1      -8.579  13.711  67.413  1.00  0.00    -0.212 C  
HETATM    3  C   UNL     1      -7.596  14.813  67.225  1.00  0.00    -0.195 C  
HETATM    4  C   UNL     1      -6.432  15.232  68.869  1.00  0.00    -0.103 C  
HETATM    5  C   UNL     1     -10.935  17.283  69.039  1.00  0.00     0.098 C  
HETATM    6  O   UNL     1      -5.128  15.837  68.997  1.00  0.00    -0.099 OA 
HETATM    7  C   UNL     1      -6.182  14.408  67.806  1.00  0.00    -0.151 C  
HETATM    8  C   UNL     1      -5.799  15.993  66.838  1.00  0.00     0.325 C  
HETATM    9  C   UNL     1      -8.683  15.953  68.933  1.00  0.00    -0.225 C  
HETATM   10  C   UNL     1     -10.293  18.359  68.195  1.00  0.00    -0.393 C  
HETATM   11  H   UNL     1      -4.591  16.030  69.756  1.00  0.00     0.000 HD 
HETATM   12  C   UNL     1      -6.534  17.336  67.555  1.00  0.00    -0.161 C  
HETATM   13  C   UNL     1     -10.234  15.918  68.940  1.00  0.00    -0.226 C  
HETATM   14  C   UNL     1      -8.095  17.292  67.961  1.00  0.00    -0.221 C  
HETATM   15  C   UNL     1      -5.672  18.287  67.974  1.00  0.00    -0.161 C  
HETATM   16  C   UNL     1      -8.808  18.589  68.472  1.00  0.00    -0.351 C  
HETATM   17  C   UNL     1      -8.347  19.936  67.875  1.00  0.00    -0.326 C  
HETATM   18  C   UNL     1      -8.887  20.328  66.513  1.00  0.00    -0.303 C  
HETATM   19  C   UNL     1     -10.357  20.023  66.291  1.00  0.00    -0.570 C  
HETATM   20  C   UNL     1     -10.952  19.000  67.211  1.00  0.00    -0.365 C  
ENDROOT
BRANCH   4  21
HETATM   21  C   UNL     1      -6.344  14.430  70.192  1.00  0.00    -0.158 C  
HETATM   22  C   UNL     1      -6.159  13.784  71.189  1.00  0.00     0.021 C  
ENDBRANCH   4  21
BRANCH   7  23
HETATM   23  C   UNL     1      -5.169  13.292  67.684  1.00  0.00    -0.026 C  
HETATM   24  C   UNL     1      -5.742  12.126  66.884  1.00  0.00    -0.009 C  
ENDBRANCH   7  23
TORSDOF 2
ENDMDL
MODEL       89
REMARK 921   NORMALIZED FREE ENERGY PREDICTED BY IDOCK:   -3.32 KCAL/MOL
REMARK 922        TOTAL FREE ENERGY PREDICTED BY IDOCK:   -3.93 KCAL/MOL
REMARK 923 INTER-LIGAND FREE ENERGY PREDICTED BY IDOCK:   -3.75 KCAL/MOL
REMARK 924 INTRA-LIGAND FREE ENERGY PREDICTED BY IDOCK:   -0.18 KCAL/MOL
REMARK 927      BINDING AFFINITY PREDICTED BY RF-SCORE:    0.00 PKD
ROOT
HETATM    1  C   UNL     1     -10.591   5.804  71.170  1.00  0.00    -0.315 C  
HETATM    2  C   UNL     1     -11.010   5.409  69.876  1.00  0.00    -0.032 C  
HETATM    3  C   UNL     1      -9.547   5.548  70.117  1.00  0.00    -0.223 C  
HETATM    4  C   UNL     1      -8.999   5.668  72.097  1.00  0.00    -0.137 C  
HETATM    5  C   UNL     1     -10.596   9.957  70.207  1.00  0.00    -0.359 C  
HETATM    6  O   UNL     1      -7.765   5.351  72.775  1.00  0.00    -0.096 OA 
HETATM    7  C   UNL     1      -9.076   4.578  71.274  1.00  0.00    -0.178 C  
HETATM    8  C   UNL     1      -7.436   5.182  70.540  1.00  0.00    -0.070 C  
HETATM    9  C   UNL     1     -10.000   7.585  71.141  1.00  0.00    -0.187 C  
HETATM   10  C   UNL     1      -9.173  10.074  69.711  1.00  0.00    -0.227 C  
HETATM   11  H   UNL     1      -7.512   5.406  73.689  1.00  0.00     0.000 HD 
HETATM   12  C   UNL     1      -7.213   6.834  70.826  1.00  0.00    -0.070 C  
HETATM   13  C   UNL     1     -11.045   8.508  70.461  1.00  0.00    -0.265 C  
HETATM   14  C   UNL     1      -8.393   7.885  70.499  1.00  0.00    -0.124 C  
HETATM   15  C   UNL     1      -6.121   7.131  71.561  1.00  0.00    -0.037 C  
HETATM   16  C   UNL     1      -8.125   9.423  70.611  1.00  0.00    -0.197 C  
HETATM   17  C   UNL     1      -6.711   9.926  70.250  1.00  0.00    -0.126 C  
HETATM   18  C   UNL     1      -6.377  10.104  68.781  1.00  0.00    -0.048 C  
HETATM   19  C   UNL     1      -7.485  10.709  67.937  1.00  0.00    -0.090 C  
HETATM   20  C   UNL     1      -8.863  10.625  68.522  1.00  0.00    -0.148 C  
ENDROOT
BRANCH   4  21
HETATM   21  C   UNL     1      -9.899   5.456  73.340  1.00  0.00    -0.173 C  
HETATM   22  C   UNL     1     -10.588   5.172  74.284  1.00  0.00    -0.290 C  
ENDBRANCH   4  21
BRANCH   7  23
HETATM   23  C   UNL     1      -9.142   3.112  71.639  1.00  0.00    -0.169 C  
HETATM   24  C   UNL     1      -9.359   2.253  70.396  1.00  0.00    -0.190 C  
ENDBRANCH   7  23
TORSDOF 2
ENDMDL
MODEL       90
REMARK 921   NORMALIZED FREE ENERGY PREDICTED BY IDOCK:   -3.31 KCAL/MOL
REMARK 922        TOTAL FREE ENERGY PREDICTED BY IDOCK:   -3.92 KCAL/MOL
REMARK 923 INTER-LIGAND FREE ENERGY PREDICTED BY IDOCK:   -4.04 KCAL/MOL
REMARK 924 INTRA-LIGAND FREE ENERGY PREDICTED BY IDOCK:    0.13 KCAL/MOL
REMARK 927      BINDING AFFINITY PREDICTED BY RF-SCORE:    0.00 PKD
ROOT
HETATM    1  C   UNL     1      -9.706  12.566  66.552  1.00  0.00    -0.249 C  
HETATM    2  C   UNL     1      -9.671  11.666  65.459  1.00  0.00    -0.259 C  
HETATM    3  C   UNL     1     -10.606  11.361  66.577  1.00  0.00    -0.309 C  
HETATM    4  C   UNL     1     -10.939  12.915  67.883  1.00  0.00    -0.241 C  
HETATM    5  C   UNL     1      -6.741  10.440  68.756  1.00  0.00    -0.053 C  
HETATM    6  O   UNL     1     -12.043  13.215  68.762  1.00  0.00    -0.310 OA 
HETATM    7  C   UNL     1     -11.645  12.537  66.774  1.00  0.00    -0.446 C  
HETATM    8  C   UNL     1     -12.360  11.159  67.863  1.00  0.00     1.028 C  
HETATM    9  C   UNL     1      -8.858  11.803  68.042  1.00  0.00    -0.164 C  
HETATM   10  C   UNL     1      -7.651   9.495  69.505  1.00  0.00    -0.096 C  
HETATM   11  H   UNL     1     -12.197  13.933  69.364  1.00  0.00     0.000 HD 
HETATM   12  C   UNL     1     -11.349  10.839  69.180  1.00  0.00    -0.348 C  
HETATM   13  C   UNL     1      -7.457  11.256  67.667  1.00  0.00    -0.101 C  
HETATM   14  C   UNL     1      -9.767  10.612  68.958  1.00  0.00    -0.214 C  
HETATM   15  C   UNL     1     -11.919  11.048  70.386  1.00  0.00    -0.459 C  
HETATM   16  C   UNL     1      -8.866  10.156  70.154  1.00  0.00     0.100 C  
HETATM   17  C   UNL     1      -9.499   9.216  71.203  1.00  0.00    -0.331 C  
HETATM   18  C   UNL     1      -9.585   7.739  70.869  1.00  0.00    -0.173 C  
HETATM   19  C   UNL     1      -8.362   7.163  70.179  1.00  0.00    -0.137 C  
HETATM   20  C   UNL     1      -7.460   8.162  69.519  1.00  0.00    -0.087 C  
ENDROOT
BRANCH   4  21
HETATM   21  C   UNL     1     -10.474  14.387  67.737  1.00  0.00    -0.245 C  
HETATM   22  C   UNL     1     -10.090  15.503  67.507  1.00  0.00    -0.241 C  
ENDBRANCH   4  21
BRANCH   7  23
HETATM   23  C   UNL     1     -12.645  13.331  65.964  1.00  0.00    -0.279 C  
HETATM   24  C   UNL     1     -12.336  13.232  64.474  1.00  0.00    -0.428 C  
ENDBRANCH   7  23
TORSDOF 2
ENDMDL
MODEL       91
REMARK 921   NORMALIZED FREE ENERGY PREDICTED BY IDOCK:   -3.22 KCAL/MOL
REMARK 922        TOTAL FREE ENERGY PREDICTED BY IDOCK:   -3.82 KCAL/MOL
REMARK 923 INTER-LIGAND FREE ENERGY PREDICTED BY IDOCK:   -3.57 KCAL/MOL
REMARK 924 INTRA-LIGAND FREE ENERGY PREDICTED BY IDOCK:   -0.26 KCAL/MOL
REMARK 927      BINDING AFFINITY PREDICTED BY RF-SCORE:    0.00 PKD
ROOT
HETATM    1  C   UNL     1      -5.995  14.270  68.313  1.00  0.00    -0.120 C  
HETATM    2  C   UNL     1      -5.466  14.776  67.101  1.00  0.00     0.828 C  
HETATM    3  C   UNL     1      -6.884  15.096  67.424  1.00  0.00    -0.166 C  
HETATM    4  C   UNL     1      -7.436  14.733  69.372  1.00  0.00    -0.147 C  
HETATM    5  C   UNL     1      -7.455  10.695  66.507  1.00  0.00    -0.134 C  
HETATM    6  O   UNL     1      -8.478  15.293  70.199  1.00  0.00    -0.215 OA 
HETATM    7  C   UNL     1      -6.981  15.885  68.792  1.00  0.00    -0.132 C  
HETATM    8  C   UNL     1      -8.730  16.060  68.082  1.00  0.00    -0.173 C  
HETATM    9  C   UNL     1      -7.175  12.854  67.960  1.00  0.00    -0.115 C  
HETATM   10  C   UNL     1      -8.828  11.187  66.112  1.00  0.00    -0.195 C  
HETATM   11  H   UNL     1      -8.733  15.125  71.098  1.00  0.00     0.000 HD 
HETATM   12  C   UNL     1      -9.520  14.566  68.033  1.00  0.00    -0.209 C  
HETATM   13  C   UNL     1      -6.524  11.806  67.021  1.00  0.00    -0.147 C  
HETATM   14  C   UNL     1      -8.786  13.275  67.401  1.00  0.00    -0.204 C  
HETATM   15  C   UNL     1     -10.646  14.505  68.775  1.00  0.00    -0.248 C  
HETATM   16  C   UNL     1      -9.579  11.938  67.210  1.00  0.00    -0.181 C  
HETATM   17  C   UNL     1     -11.080  12.046  66.866  1.00  0.00    -0.352 C  
HETATM   18  C   UNL     1     -11.457  12.327  65.424  1.00  0.00    -0.402 C  
HETATM   19  C   UNL     1     -10.635  11.584  64.387  1.00  0.00    -0.392 C  
HETATM   20  C   UNL     1      -9.314  11.056  64.864  1.00  0.00    -0.243 C  
ENDROOT
BRANCH   4  21
HETATM   21  C   UNL     1      -6.517  14.338  70.557  1.00  0.00    -0.035 C  
HETATM   22  C   UNL     1      -5.906  14.024  71.543  1.00  0.00    -0.172 C  
ENDBRANCH   4  21
BRANCH   7  23
HETATM   23  C   UNL     1      -6.403  17.118  69.448  1.00  0.00    -0.238 C  
HETATM   24  C   UNL     1      -5.728  18.016  68.416  1.00  0.00    -0.173 C  
ENDBRANCH   7  23
TORSDOF 2
ENDMDL
MODEL       92
REMARK 921   NORMALIZED FREE ENERGY PREDICTED BY IDOCK:   -3.21 KCAL/MOL
REMARK 922        TOTAL FREE ENERGY PREDICTED BY IDOCK:   -3.80 KCAL/MOL
REMARK 923 INTER-LIGAND FREE ENERGY PREDICTED BY IDOCK:   -4.15 KCAL/MOL
REMARK 924 INTRA-LIGAND FREE ENERGY PREDICTED BY IDOCK:    0.34 KCAL/MOL
REMARK 927      BINDING AFFINITY PREDICTED BY RF-SCORE:    0.00 PKD
ROOT
HETATM    1  C   UNL     1      -9.935   6.388  70.077  1.00  0.00    -0.200 C  
HETATM    2  C   UNL     1     -11.313   6.124  69.885  1.00  0.00    -0.454 C  
HETATM    3  C   UNL     1     -10.415   6.010  68.703  1.00  0.00    -0.297 C  
HETATM    4  C   UNL     1      -8.406   5.951  69.138  1.00  0.00    -0.106 C  
HETATM    5  C   UNL     1     -10.308  10.522  69.108  1.00  0.00    -0.240 C  
HETATM    6  O   UNL     1      -7.280   5.407  68.419  1.00  0.00    -0.068 OA 
HETATM    7  C   UNL     1      -9.292   4.926  68.956  1.00  0.00    -0.183 C  
HETATM    8  C   UNL     1      -9.119   5.283  67.102  1.00  0.00    -0.112 C  
HETATM    9  C   UNL     1      -9.486   8.046  69.324  1.00  0.00    -0.155 C  
HETATM   10  C   UNL     1     -10.082  10.425  67.618  1.00  0.00    -0.223 C  
HETATM   11  H   UNL     1      -6.352   5.379  68.620  1.00  0.00     0.000 HD 
HETATM   12  C   UNL     1      -8.575   6.861  66.835  1.00  0.00    -0.116 C  
HETATM   13  C   UNL     1     -10.456   9.158  69.802  1.00  0.00    -0.234 C  
HETATM   14  C   UNL     1      -9.282   8.105  67.581  1.00  0.00    -0.150 C  
HETATM   15  C   UNL     1      -7.393   6.942  66.188  1.00  0.00    -0.076 C  
HETATM   16  C   UNL     1      -8.883   9.572  67.206  1.00  0.00    -0.136 C  
HETATM   17  C   UNL     1      -8.497   9.850  65.738  1.00  0.00    -0.142 C  
HETATM   18  C   UNL     1      -9.619  10.034  64.734  1.00  0.00    -0.374 C  
HETATM   19  C   UNL     1     -10.799  10.849  65.229  1.00  0.00    -0.123 C  
HETATM   20  C   UNL     1     -10.924  10.969  66.719  1.00  0.00    -0.279 C  
ENDROOT
BRANCH   4  21
HETATM   21  C   UNL     1      -7.745   5.837  70.536  1.00  0.00    -0.099 C  
HETATM   22  C   UNL     1      -7.295   5.849  71.651  1.00  0.00    -0.092 C  
ENDBRANCH   4  21
BRANCH   7  23
HETATM   23  C   UNL     1      -9.170   3.476  69.369  1.00  0.00    -0.227 C  
HETATM   24  C   UNL     1      -9.845   3.237  70.716  1.00  0.00    -0.060 C  
ENDBRANCH   7  23
TORSDOF 2
ENDMDL
MODEL       93
REMARK 921   NORMALIZED FREE ENERGY PREDICTED BY IDOCK:   -3.16 KCAL/MOL
REMARK 922        TOTAL FREE ENERGY PREDICTED BY IDOCK:   -3.76 KCAL/MOL
REMARK 923 INTER-LIGAND FREE ENERGY PREDICTED BY IDOCK:   -4.36 KCAL/MOL
REMARK 924 INTRA-LIGAND FREE ENERGY PREDICTED BY IDOCK:    0.60 KCAL/MOL
REMARK 927      BINDING AFFINITY PREDICTED BY RF-SCORE:    0.00 PKD
ROOT
HETATM    1  C   UNL     1      -8.801   6.157  65.756  1.00  0.00    -0.133 C  
HETATM    2  C   UNL     1      -7.591   6.892  65.749  1.00  0.00    -0.091 C  
HETATM    3  C   UNL     1      -7.831   5.966  66.889  1.00  0.00    -0.101 C  
HETATM    4  C   UNL     1      -9.356   4.614  66.607  1.00  0.00    -0.149 C  
HETATM    5  C   UNL     1     -10.903   9.104  68.006  1.00  0.00    -0.135 C  
HETATM    6  O   UNL     1      -9.615   3.318  67.186  1.00  0.00    -0.341 OA 
HETATM    7  C   UNL     1      -8.015   4.481  66.375  1.00  0.00    -0.103 C  
HETATM    8  C   UNL     1      -7.849   4.257  68.250  1.00  0.00    -0.075 C  
HETATM    9  C   UNL     1      -9.972   6.855  67.045  1.00  0.00    -0.257 C  
HETATM   10  C   UNL     1     -10.587   8.596  69.393  1.00  0.00    -0.207 C  
HETATM   11  H   UNL     1     -10.319   2.694  67.055  1.00  0.00     0.000 HD 
HETATM   12  C   UNL     1      -9.172   4.926  69.063  1.00  0.00    -0.165 C  
HETATM   13  C   UNL     1     -10.119   8.391  66.892  1.00  0.00    -0.364 C  
HETATM   14  C   UNL     1      -9.668   6.422  68.720  1.00  0.00    -0.135 C  
HETATM   15  C   UNL     1      -9.891   4.039  69.784  1.00  0.00    -0.173 C  
HETATM   16  C   UNL     1     -10.787   7.094  69.586  1.00  0.00    -0.254 C  
HETATM   17  C   UNL     1     -10.830   6.740  71.088  1.00  0.00    -0.275 C  
HETATM   18  C   UNL     1      -9.862   7.455  72.012  1.00  0.00    -0.191 C  
HETATM   19  C   UNL     1      -9.675   8.934  71.729  1.00  0.00    -0.365 C  
HETATM   20  C   UNL     1     -10.079   9.387  70.357  1.00  0.00    -0.310 C  
ENDROOT
BRANCH   4  21
HETATM   21  C   UNL     1     -10.148   4.343  65.302  1.00  0.00    -0.218 C  
HETATM   22  C   UNL     1     -10.755   4.014  64.317  1.00  0.00    -0.191 C  
ENDBRANCH   4  21
BRANCH   7  23
HETATM   23  C   UNL     1      -7.292   3.468  65.517  1.00  0.00    -0.076 C  
HETATM   24  C   UNL     1      -7.062   2.171  66.287  1.00  0.00    -0.052 C  
ENDBRANCH   7  23
TORSDOF 2
ENDMDL
MODEL       94
REMARK 921   NORMALIZED FREE ENERGY PREDICTED BY IDOCK:   -3.09 KCAL/MOL
REMARK 922        TOTAL FREE ENERGY PREDICTED BY IDOCK:   -3.67 KCAL/MOL
REMARK 923 INTER-LIGAND FREE ENERGY PREDICTED BY IDOCK:   -4.24 KCAL/MOL
REMARK 924 INTRA-LIGAND FREE ENERGY PREDICTED BY IDOCK:    0.57 KCAL/MOL
REMARK 927      BINDING AFFINITY PREDICTED BY RF-SCORE:    0.00 PKD
ROOT
HETATM    1  C   UNL     1      -9.262   4.909  67.219  1.00  0.00    -0.133 C  
HETATM    2  C   UNL     1     -10.558   4.688  66.694  1.00  0.00     0.013 C  
HETATM    3  C   UNL     1     -10.039   6.084  66.692  1.00  0.00    -0.226 C  
HETATM    4  C   UNL     1      -8.018   6.261  67.030  1.00  0.00    -0.109 C  
HETATM    5  C   UNL     1     -10.690   5.689  71.159  1.00  0.00    -0.310 C  
HETATM    6  O   UNL     1      -7.067   7.285  66.671  1.00  0.00    -0.074 OA 
HETATM    7  C   UNL     1      -8.704   6.183  65.850  1.00  0.00    -0.158 C  
HETATM    8  C   UNL     1      -9.151   8.002  66.142  1.00  0.00    -0.224 C  
HETATM    9  C   UNL     1      -9.380   5.747  68.894  1.00  0.00    -0.141 C  
HETATM   10  C   UNL     1     -10.893   7.181  71.033  1.00  0.00    -0.262 C  
HETATM   11  H   UNL     1      -6.134   7.367  66.827  1.00  0.00     0.000 HD 
HETATM   12  C   UNL     1      -9.022   8.404  67.779  1.00  0.00    -0.140 C  
HETATM   13  C   UNL     1     -10.365   4.995  69.826  1.00  0.00    -0.286 C  
HETATM   14  C   UNL     1      -9.707   7.472  68.905  1.00  0.00    -0.151 C  
HETATM   15  C   UNL     1      -8.118   9.370  68.048  1.00  0.00    -0.106 C  
HETATM   16  C   UNL     1      -9.725   7.935  70.400  1.00  0.00    -0.179 C  
HETATM   17  C   UNL     1      -9.845   9.450  70.674  1.00  0.00    -0.340 C  
HETATM   18  C   UNL     1     -11.224  10.076  70.596  1.00  0.00    -0.425 C  
HETATM   19  C   UNL     1     -12.343   9.248  71.199  1.00  0.00    -0.363 C  
HETATM   20  C   UNL     1     -12.049   7.786  71.366  1.00  0.00    -0.335 C  
ENDROOT
BRANCH   4  21
HETATM   21  C   UNL     1      -6.970   5.121  67.110  1.00  0.00    -0.064 C  
HETATM   22  C   UNL     1      -6.186   4.211  67.056  1.00  0.00    -0.036 C  
ENDBRANCH   4  21
BRANCH   7  23
HETATM   23  C   UNL     1      -8.190   5.837  64.471  1.00  0.00    -0.122 C  
HETATM   24  C   UNL     1      -7.989   7.097  63.635  1.00  0.00    -0.070 C  
ENDBRANCH   7  23
TORSDOF 2
ENDMDL
MODEL       95
REMARK 921   NORMALIZED FREE ENERGY PREDICTED BY IDOCK:   -3.06 KCAL/MOL
REMARK 922        TOTAL FREE ENERGY PREDICTED BY IDOCK:   -3.64 KCAL/MOL
REMARK 923 INTER-LIGAND FREE ENERGY PREDICTED BY IDOCK:   -3.40 KCAL/MOL
REMARK 924 INTRA-LIGAND FREE ENERGY PREDICTED BY IDOCK:   -0.24 KCAL/MOL
REMARK 927      BINDING AFFINITY PREDICTED BY RF-SCORE:    0.00 PKD
ROOT
HETATM    1  C   UNL     1      -9.786   4.101  66.056  1.00  0.00    -0.212 C  
HETATM    2  C   UNL     1     -10.699   4.124  64.974  1.00  0.00    -0.120 C  
HETATM    3  C   UNL     1      -9.315   4.610  64.721  1.00  0.00    -0.109 C  
HETATM    4  C   UNL     1      -7.942   4.125  66.174  1.00  0.00    -0.098 C  
HETATM    5  C   UNL     1     -10.712   8.076  67.286  1.00  0.00    -0.280 C  
HETATM    6  O   UNL     1      -6.508   3.975  66.132  1.00  0.00    -0.035 OA 
HETATM    7  C   UNL     1      -8.259   3.471  65.015  1.00  0.00    -0.094 C  
HETATM    8  C   UNL     1      -7.217   4.791  64.141  1.00  0.00    -0.051 C  
HETATM    9  C   UNL     1      -9.485   5.843  66.683  1.00  0.00    -0.165 C  
HETATM   10  C   UNL     1      -9.697   8.814  66.444  1.00  0.00    -0.335 C  
HETATM   11  H   UNL     1      -5.874   3.751  66.803  1.00  0.00     0.000 HD 
HETATM   12  C   UNL     1      -7.082   6.185  65.088  1.00  0.00    -0.064 C  
HETATM   13  C   UNL     1     -10.823   6.580  66.949  1.00  0.00    -0.427 C  
HETATM   14  C   UNL     1      -8.394   6.854  65.747  1.00  0.00    -0.142 C  
HETATM   15  C   UNL     1      -5.817   6.503  65.437  1.00  0.00    -0.026 C  
HETATM   16  C   UNL     1      -8.286   8.231  66.485  1.00  0.00    -0.106 C  
HETATM   17  C   UNL     1      -7.261   9.249  65.940  1.00  0.00    -0.091 C  
HETATM   18  C   UNL     1      -7.658  10.072  64.729  1.00  0.00    -0.143 C  
HETATM   19  C   UNL     1      -9.090  10.575  64.733  1.00  0.00    -0.242 C  
HETATM   20  C   UNL     1     -10.029   9.847  65.647  1.00  0.00    -0.353 C  
ENDROOT
BRANCH   4  21
HETATM   21  C   UNL     1      -8.145   3.181  67.387  1.00  0.00    -0.081 C  
HETATM   22  C   UNL     1      -8.200   2.392  68.292  1.00  0.00    -0.072 C  
ENDBRANCH   4  21
BRANCH   7  23
HETATM   23  C   UNL     1      -7.981   2.036  64.625  1.00  0.00    -0.073 C  
HETATM   24  C   UNL     1      -8.761   1.655  63.371  1.00  0.00    -0.083 C  
ENDBRANCH   7  23
TORSDOF 2
ENDMDL
MODEL       96
REMARK 921   NORMALIZED FREE ENERGY PREDICTED BY IDOCK:   -3.03 KCAL/MOL
REMARK 922        TOTAL FREE ENERGY PREDICTED BY IDOCK:   -3.60 KCAL/MOL
REMARK 923 INTER-LIGAND FREE ENERGY PREDICTED BY IDOCK:   -3.82 KCAL/MOL
REMARK 924 INTRA-LIGAND FREE ENERGY PREDICTED BY IDOCK:    0.22 KCAL/MOL
REMARK 927      BINDING AFFINITY PREDICTED BY RF-SCORE:    0.00 PKD
ROOT
HETATM    1  C   UNL     1      -6.977   8.050  67.054  1.00  0.00    -0.074 C  
HETATM    2  C   UNL     1      -5.877   7.744  67.891  1.00  0.00    -0.040 C  
HETATM    3  C   UNL     1      -6.947   6.718  67.752  1.00  0.00    -0.083 C  
HETATM    4  C   UNL     1      -8.254   7.029  66.194  1.00  0.00    -0.125 C  
HETATM    5  C   UNL     1      -9.290   9.703  70.230  1.00  0.00    -0.292 C  
HETATM    6  O   UNL     1      -9.086   6.123  65.439  1.00  0.00    -0.364 OA 
HETATM    7  C   UNL     1      -7.111   6.280  66.241  1.00  0.00    -0.068 C  
HETATM    8  C   UNL     1      -8.151   4.992  67.165  1.00  0.00    -0.107 C  
HETATM    9  C   UNL     1      -8.495   8.417  68.093  1.00  0.00    -0.132 C  
HETATM   10  C   UNL     1      -9.985   8.441  70.683  1.00  0.00    -0.212 C  
HETATM   11  H   UNL     1      -9.689   6.267  64.719  1.00  0.00     0.000 HD 
HETATM   12  C   UNL     1      -9.508   5.704  67.878  1.00  0.00    -0.120 C  
HETATM   13  C   UNL     1      -8.178   9.460  69.196  1.00  0.00    -0.112 C  
HETATM   14  C   UNL     1      -9.356   7.042  68.767  1.00  0.00    -0.134 C  
HETATM   15  C   UNL     1     -10.689   5.226  67.432  1.00  0.00    -0.088 C  
HETATM   16  C   UNL     1     -10.587   7.602  69.557  1.00  0.00    -0.227 C  
HETATM   17  C   UNL     1     -11.595   6.578  70.121  1.00  0.00    -0.466 C  
HETATM   18  C   UNL     1     -11.241   5.879  71.419  1.00  0.00    -0.285 C  
HETATM   19  C   UNL     1     -10.600   6.763  72.473  1.00  0.00    -0.249 C  
HETATM   20  C   UNL     1      -9.993   8.038  71.967  1.00  0.00    -0.275 C  
ENDROOT
BRANCH   4  21
HETATM   21  C   UNL     1      -8.147   8.089  65.069  1.00  0.00    -0.145 C  
HETATM   22  C   UNL     1      -8.095   8.823  64.118  1.00  0.00    -0.162 C  
ENDBRANCH   4  21
BRANCH   7  23
HETATM   23  C   UNL     1      -6.266   5.760  65.101  1.00  0.00    -0.036 C  
HETATM   24  C   UNL     1      -5.882   4.302  65.332  1.00  0.00    -0.022 C  
ENDBRANCH   7  23
TORSDOF 2
ENDMDL
MODEL       97
REMARK 921   NORMALIZED FREE ENERGY PREDICTED BY IDOCK:   -2.99 KCAL/MOL
REMARK 922        TOTAL FREE ENERGY PREDICTED BY IDOCK:   -3.57 KCAL/MOL
REMARK 923 INTER-LIGAND FREE ENERGY PREDICTED BY IDOCK:   -3.75 KCAL/MOL
REMARK 924 INTRA-LIGAND FREE ENERGY PREDICTED BY IDOCK:    0.18 KCAL/MOL
REMARK 927      BINDING AFFINITY PREDICTED BY RF-SCORE:    0.00 PKD
ROOT
HETATM    1  C   UNL     1      -8.836   8.411  68.825  1.00  0.00    -0.140 C  
HETATM    2  C   UNL     1      -9.854   9.089  68.114  1.00  0.00    -0.191 C  
HETATM    3  C   UNL     1     -10.101   7.670  68.490  1.00  0.00    -0.205 C  
HETATM    4  C   UNL     1      -8.807   6.904  69.894  1.00  0.00    -0.142 C  
HETATM    5  C   UNL     1      -6.981   6.913  65.292  1.00  0.00    -0.052 C  
HETATM    6  O   UNL     1      -8.942   5.823  70.840  1.00  0.00    -0.142 OA 
HETATM    7  C   UNL     1     -10.033   7.487  70.059  1.00  0.00    -0.186 C  
HETATM    8  C   UNL     1     -10.751   5.833  69.476  1.00  0.00    -0.408 C  
HETATM    9  C   UNL     1      -7.971   7.184  67.700  1.00  0.00    -0.114 C  
HETATM   10  C   UNL     1      -7.753   5.620  65.164  1.00  0.00    -0.090 C  
HETATM   11  H   UNL     1      -8.345   5.470  71.488  1.00  0.00     0.000 HD 
HETATM   12  C   UNL     1      -9.614   4.958  68.581  1.00  0.00    -0.215 C  
HETATM   13  C   UNL     1      -7.531   7.857  66.374  1.00  0.00    -0.087 C  
HETATM   14  C   UNL     1      -8.798   5.667  67.383  1.00  0.00    -0.105 C  
HETATM   15  C   UNL     1      -9.285   3.762  69.114  1.00  0.00    -0.226 C  
HETATM   16  C   UNL     1      -7.869   4.813  66.455  1.00  0.00    -0.099 C  
HETATM   17  C   UNL     1      -8.307   3.364  66.153  1.00  0.00    -0.103 C  
HETATM   18  C   UNL     1      -9.359   3.151  65.082  1.00  0.00    -0.143 C  
HETATM   19  C   UNL     1      -9.209   4.023  63.849  1.00  0.00    -0.142 C  
HETATM   20  C   UNL     1      -8.369   5.253  64.024  1.00  0.00    -0.125 C  
ENDROOT
BRANCH   4  21
HETATM   21  C   UNL     1      -7.740   7.673  70.714  1.00  0.00    -0.085 C  
HETATM   22  C   UNL     1      -6.973   8.372  71.321  1.00  0.00    -0.068 C  
ENDBRANCH   4  21
BRANCH   7  23
HETATM   23  C   UNL     1     -10.647   8.075  71.310  1.00  0.00    -0.245 C  
HETATM   24  C   UNL     1     -10.997   9.546  71.102  1.00  0.00    -0.438 C  
ENDBRANCH   7  23
TORSDOF 2
ENDMDL
MODEL       98
REMARK 921   NORMALIZED FREE ENERGY PREDICTED BY IDOCK:   -2.98 KCAL/MOL
REMARK 922        TOTAL FREE ENERGY PREDICTED BY IDOCK:   -3.56 KCAL/MOL
REMARK 923 INTER-LIGAND FREE ENERGY PREDICTED BY IDOCK:   -3.83 KCAL/MOL
REMARK 924 INTRA-LIGAND FREE ENERGY PREDICTED BY IDOCK:    0.28 KCAL/MOL
REMARK 927      BINDING AFFINITY PREDICTED BY RF-SCORE:    0.00 PKD
ROOT
HETATM    1  C   UNL     1      -9.807   6.347  67.395  1.00  0.00    -0.158 C  
HETATM    2  C   UNL     1      -9.956   7.749  67.260  1.00  0.00    -0.277 C  
HETATM    3  C   UNL     1      -8.730   7.246  67.940  1.00  0.00    -0.123 C  
HETATM    4  C   UNL     1      -8.361   5.237  67.694  1.00  0.00    -0.106 C  
HETATM    5  C   UNL     1     -11.694   6.235  71.216  1.00  0.00    -0.300 C  
HETATM    6  O   UNL     1      -7.142   4.467  67.756  1.00  0.00    -0.062 OA 
HETATM    7  C   UNL     1      -7.901   6.307  66.975  1.00  0.00    -0.104 C  
HETATM    8  C   UNL     1      -6.702   6.590  68.416  1.00  0.00    -0.068 C  
HETATM    9  C   UNL     1     -10.102   5.836  69.176  1.00  0.00    -0.257 C  
HETATM   10  C   UNL     1     -10.471   6.448  72.077  1.00  0.00    -0.236 C  
HETATM   11  H   UNL     1      -6.971   3.540  67.642  1.00  0.00     0.000 HD 
HETATM   12  C   UNL     1      -7.275   5.870  69.834  1.00  0.00    -0.073 C  
HETATM   13  C   UNL     1     -11.433   6.426  69.712  1.00  0.00    -0.468 C  
HETATM   14  C   UNL     1      -8.795   6.113  70.316  1.00  0.00    -0.149 C  
HETATM   15  C   UNL     1      -6.465   4.916  70.342  1.00  0.00    -0.031 C  
HETATM   16  C   UNL     1      -9.270   5.579  71.710  1.00  0.00    -0.158 C  
HETATM   17  C   UNL     1      -8.236   5.569  72.856  1.00  0.00    -0.109 C  
HETATM   18  C   UNL     1      -7.976   6.873  73.586  1.00  0.00    -0.114 C  
HETATM   19  C   UNL     1      -9.211   7.708  73.872  1.00  0.00    -0.303 C  
HETATM   20  C   UNL     1     -10.413   7.395  73.032  1.00  0.00    -0.373 C  
ENDROOT
BRANCH   4  21
HETATM   21  C   UNL     1      -9.101   4.249  66.757  1.00  0.00    -0.141 C  
HETATM   22  C   UNL     1      -9.657   3.563  65.940  1.00  0.00    -0.106 C  
ENDBRANCH   4  21
BRANCH   7  23
HETATM   23  C   UNL     1      -7.296   6.334  65.590  1.00  0.00    -0.080 C  
HETATM   24  C   UNL     1      -6.106   7.287  65.537  1.00  0.00    -0.038 C  
ENDBRANCH   7  23
TORSDOF 2
ENDMDL
MODEL       99
REMARK 921   NORMALIZED FREE ENERGY PREDICTED BY IDOCK:   -2.97 KCAL/MOL
REMARK 922        TOTAL FREE ENERGY PREDICTED BY IDOCK:   -3.54 KCAL/MOL
REMARK 923 INTER-LIGAND FREE ENERGY PREDICTED BY IDOCK:   -3.37 KCAL/MOL
REMARK 924 INTRA-LIGAND FREE ENERGY PREDICTED BY IDOCK:   -0.17 KCAL/MOL
REMARK 927      BINDING AFFINITY PREDICTED BY RF-SCORE:    0.00 PKD
ROOT
HETATM    1  C   UNL     1      -8.732  13.318  68.571  1.00  0.00    -0.059 C  
HETATM    2  C   UNL     1      -7.360  13.493  68.270  1.00  0.00    -0.116 C  
HETATM    3  C   UNL     1      -8.256  13.037  67.172  1.00  0.00    -0.132 C  
HETATM    4  C   UNL     1     -10.268  13.246  67.547  1.00  0.00    -0.222 C  
HETATM    5  C   UNL     1      -8.267   9.205  69.592  1.00  0.00    -0.116 C  
HETATM    6  O   UNL     1     -11.403  13.380  66.667  1.00  0.00    -0.305 OA 
HETATM    7  C   UNL     1      -9.403  14.094  66.911  1.00  0.00    -0.274 C  
HETATM    8  C   UNL     1      -9.563  12.927  65.425  1.00  0.00     0.063 C  
HETATM    9  C   UNL     1      -9.144  11.489  68.661  1.00  0.00    -0.124 C  
HETATM   10  C   UNL     1      -8.491   8.607  68.223  1.00  0.00    -0.131 C  
HETATM   11  H   UNL     1     -12.332  13.477  66.840  1.00  0.00     0.000 HD 
HETATM   12  C   UNL     1     -10.072  11.390  65.911  1.00  0.00    -0.286 C  
HETATM   13  C   UNL     1      -8.151  10.739  69.585  1.00  0.00     0.106 C  
HETATM   14  C   UNL     1      -9.341  10.638  67.138  1.00  0.00    -0.172 C  
HETATM   15  C   UNL     1     -11.251  10.998  65.381  1.00  0.00     0.113 C  
HETATM   16  C   UNL     1      -9.707   9.153  67.476  1.00  0.00    -0.204 C  
HETATM   17  C   UNL     1     -10.083   8.228  66.299  1.00  0.00    -0.101 C  
HETATM   18  C   UNL     1      -8.954   7.630  65.481  1.00  0.00     0.042 C  
HETATM   19  C   UNL     1      -7.758   7.155  66.286  1.00  0.00    -0.100 C  
HETATM   20  C   UNL     1      -7.635   7.731  67.665  1.00  0.00    -0.113 C  
ENDROOT
BRANCH   4  21
HETATM   21  C   UNL     1     -10.935  13.972  68.744  1.00  0.00    -0.282 C  
HETATM   22  C   UNL     1     -11.475  14.627  69.595  1.00  0.00    -0.329 C  
ENDBRANCH   4  21
BRANCH   7  23
HETATM   23  C   UNL     1      -9.558  15.569  66.618  1.00  0.00    -0.273 C  
HETATM   24  C   UNL     1      -8.198  16.226  66.408  1.00  0.00    -0.354 C  
ENDBRANCH   7  23
TORSDOF 2
ENDMDL
MODEL      100
REMARK 921   NORMALIZED FREE ENERGY PREDICTED BY IDOCK:   -2.90 KCAL/MOL
REMARK 922        TOTAL FREE ENERGY PREDICTED BY IDOCK:   -3.46 KCAL/MOL
REMARK 923 INTER-LIGAND FREE ENERGY PREDICTED BY IDOCK:   -3.58 KCAL/MOL
REMARK 924 INTRA-LIGAND FREE ENERGY PREDICTED BY IDOCK:    0.12 KCAL/MOL
REMARK 927      BINDING AFFINITY PREDICTED BY RF-SCORE:    0.00 PKD
ROOT
HETATM    1  C   UNL     1      -9.214   9.450  69.714  1.00  0.00    -0.209 C  
HETATM    2  C   UNL     1     -10.300  10.184  69.178  1.00  0.00    -0.237 C  
HETATM    3  C   UNL     1     -10.190   8.745  68.813  1.00  0.00    -0.224 C  
HETATM    4  C   UNL     1      -8.888   7.650  69.969  1.00  0.00    -0.143 C  
HETATM    5  C   UNL     1      -6.670  10.254  66.390  1.00  0.00    -0.100 C  
HETATM    6  O   UNL     1      -8.821   6.241  70.274  1.00  0.00    -0.149 OA 
HETATM    7  C   UNL     1     -10.236   7.834  70.105  1.00  0.00    -0.205 C  
HETATM    8  C   UNL     1     -10.415   6.575  68.699  1.00  0.00    -0.252 C  
HETATM    9  C   UNL     1      -7.938   9.119  68.379  1.00  0.00    -0.103 C  
HETATM   10  C   UNL     1      -7.045   9.070  65.529  1.00  0.00    -0.081 C  
HETATM   11  H   UNL     1      -8.220   5.736  70.808  1.00  0.00     0.000 HD 
HETATM   12  C   UNL     1      -8.998   6.483  67.781  1.00  0.00    -0.114 C  
HETATM   13  C   UNL     1      -7.564  10.424  67.630  1.00  0.00    -0.089 C  
HETATM   14  C   UNL     1      -8.286   7.827  67.242  1.00  0.00    -0.119 C  
HETATM   15  C   UNL     1      -8.413   5.266  67.778  1.00  0.00    -0.105 C  
HETATM   16  C   UNL     1      -7.071   7.729  66.260  1.00  0.00    -0.070 C  
HETATM   17  C   UNL     1      -7.065   6.561  65.251  1.00  0.00    -0.061 C  
HETATM   18  C   UNL     1      -7.905   6.705  63.996  1.00  0.00    -0.112 C  
HETATM   19  C   UNL     1      -7.871   8.079  63.353  1.00  0.00    -0.147 C  
HETATM   20  C   UNL     1      -7.418   9.199  64.242  1.00  0.00    -0.106 C  
ENDROOT
BRANCH   4  21
HETATM   21  C   UNL     1      -8.160   8.105  71.260  1.00  0.00    -0.119 C  
HETATM   22  C   UNL     1      -7.703   8.453  72.317  1.00  0.00    -0.153 C  
ENDBRANCH   4  21
BRANCH   7  23
HETATM   23  C   UNL     1     -11.112   7.607  71.317  1.00  0.00    -0.268 C  
HETATM   24  C   UNL     1     -11.899   8.868  71.661  1.00  0.00    -0.415 C  
ENDBRANCH   7  23
TORSDOF 2
ENDMDL
MODEL      101
REMARK 921   NORMALIZED FREE ENERGY PREDICTED BY IDOCK:   -2.88 KCAL/MOL
REMARK 922        TOTAL FREE ENERGY PREDICTED BY IDOCK:   -3.44 KCAL/MOL
REMARK 923 INTER-LIGAND FREE ENERGY PREDICTED BY IDOCK:   -4.13 KCAL/MOL
REMARK 924 INTRA-LIGAND FREE ENERGY PREDICTED BY IDOCK:    0.69 KCAL/MOL
REMARK 927      BINDING AFFINITY PREDICTED BY RF-SCORE:    0.00 PKD
ROOT
HETATM    1  C   UNL     1      -8.174  12.342  67.360  1.00  0.00    -0.180 C  
HETATM    2  C   UNL     1      -7.534  13.306  68.176  1.00  0.00    -0.128 C  
HETATM    3  C   UNL     1      -7.953  12.028  68.814  1.00  0.00    -0.014 C  
HETATM    4  C   UNL     1      -8.444  10.520  67.504  1.00  0.00    -0.118 C  
HETATM    5  C   UNL     1     -12.085  13.796  68.230  1.00  0.00    -0.314 C  
HETATM    6  O   UNL     1      -8.442   9.084  67.644  1.00  0.00    -0.116 OA 
HETATM    7  C   UNL     1      -7.251  10.796  68.114  1.00  0.00    -0.083 C  
HETATM    8  C   UNL     1      -8.016  10.017  69.664  1.00  0.00    -0.176 C  
HETATM    9  C   UNL     1     -10.006  12.277  67.756  1.00  0.00    -0.200 C  
HETATM   10  C   UNL     1     -12.371  12.953  69.451  1.00  0.00     0.003 C  
HETATM   11  H   UNL     1      -8.668   8.388  67.039  1.00  0.00     0.000 HD 
HETATM   12  C   UNL     1      -9.705  10.045  69.589  1.00  0.00    -0.255 C  
HETATM   13  C   UNL     1     -10.632  13.696  67.737  1.00  0.00    -0.247 C  
HETATM   14  C   UNL     1     -10.482  11.406  69.205  1.00  0.00    -0.104 C  
HETATM   15  C   UNL     1     -10.285   8.827  69.614  1.00  0.00    -0.210 C  
HETATM   16  C   UNL     1     -12.044  11.469  69.296  1.00  0.00    -0.344 C  
HETATM   17  C   UNL     1     -12.724  10.644  70.409  1.00  0.00    -0.340 C  
HETATM   18  C   UNL     1     -12.746  11.227  71.810  1.00  0.00    -0.379 C  
HETATM   19  C   UNL     1     -13.027  12.716  71.883  1.00  0.00    -0.402 C  
HETATM   20  C   UNL     1     -12.794  13.482  70.615  1.00  0.00    -0.189 C  
ENDROOT
BRANCH   4  21
HETATM   21  C   UNL     1      -8.260  10.510  65.965  1.00  0.00    -0.150 C  
HETATM   22  C   UNL     1      -8.012  10.444  64.790  1.00  0.00    -0.103 C  
ENDBRANCH   4  21
BRANCH   7  23
HETATM   23  C   UNL     1      -5.862  10.324  67.748  1.00  0.00    -0.045 C  
HETATM   24  C   UNL     1      -5.664   8.864  68.144  1.00  0.00    -0.039 C  
ENDBRANCH   7  23
TORSDOF 2
ENDMDL
MODEL      102
REMARK 921   NORMALIZED FREE ENERGY PREDICTED BY IDOCK:   -2.85 KCAL/MOL
REMARK 922        TOTAL FREE ENERGY PREDICTED BY IDOCK:   -3.41 KCAL/MOL
REMARK 923 INTER-LIGAND FREE ENERGY PREDICTED BY IDOCK:   -3.55 KCAL/MOL
REMARK 924 INTRA-LIGAND FREE ENERGY PREDICTED BY IDOCK:    0.14 KCAL/MOL
REMARK 927      BINDING AFFINITY PREDICTED BY RF-SCORE:    0.00 PKD
ROOT
HETATM    1  C   UNL     1      -9.578   9.283  68.910  1.00  0.00    -0.155 C  
HETATM    2  C   UNL     1      -9.483  10.242  69.948  1.00  0.00    -0.061 C  
HETATM    3  C   UNL     1      -8.479   9.142  69.928  1.00  0.00    -0.151 C  
HETATM    4  C   UNL     1      -8.391   8.076  68.171  1.00  0.00    -0.127 C  
HETATM    5  C   UNL     1     -12.063   6.665  71.177  1.00  0.00    -0.391 C  
HETATM    6  O   UNL     1      -7.334   7.303  67.565  1.00  0.00    -0.087 OA 
HETATM    7  C   UNL     1      -7.659   9.158  68.576  1.00  0.00    -0.085 C  
HETATM    8  C   UNL     1      -6.684   7.931  69.643  1.00  0.00    -0.042 C  
HETATM    9  C   UNL     1     -10.238   7.663  69.587  1.00  0.00    -0.204 C  
HETATM   10  C   UNL     1     -10.980   5.844  71.837  1.00  0.00    -0.321 C  
HETATM   11  H   UNL     1      -7.293   6.811  66.754  1.00  0.00     0.000 HD 
HETATM   12  C   UNL     1      -7.587   6.533  69.942  1.00  0.00    -0.100 C  
HETATM   13  C   UNL     1     -11.531   7.890  70.414  1.00  0.00    -0.154 C  
HETATM   14  C   UNL     1      -9.110   6.642  70.464  1.00  0.00    -0.152 C  
HETATM   15  C   UNL     1      -7.031   5.397  69.469  1.00  0.00    -0.062 C  
HETATM   16  C   UNL     1      -9.885   5.351  70.894  1.00  0.00    -0.249 C  
HETATM   17  C   UNL     1      -9.068   4.219  71.553  1.00  0.00    -0.176 C  
HETATM   18  C   UNL     1      -8.733   4.355  73.026  1.00  0.00    -0.104 C  
HETATM   19  C   UNL     1      -9.852   4.898  73.894  1.00  0.00    -0.173 C  
HETATM   20  C   UNL     1     -10.934   5.640  73.167  1.00  0.00    -0.326 C  
ENDROOT
BRANCH   4  21
HETATM   21  C   UNL     1      -9.111   8.395  66.836  1.00  0.00    -0.179 C  
HETATM   22  C   UNL     1      -9.565   8.613  65.744  1.00  0.00    -0.134 C  
ENDBRANCH   4  21
BRANCH   7  23
HETATM   23  C   UNL     1      -6.837  10.117  67.745  1.00  0.00    -0.075 C  
HETATM   24  C   UNL     1      -5.569  10.529  68.488  1.00  0.00    -0.040 C  
ENDBRANCH   7  23
TORSDOF 2
ENDMDL
MODEL      103
REMARK 921   NORMALIZED FREE ENERGY PREDICTED BY IDOCK:   -2.67 KCAL/MOL
REMARK 922        TOTAL FREE ENERGY PREDICTED BY IDOCK:   -3.21 KCAL/MOL
REMARK 923 INTER-LIGAND FREE ENERGY PREDICTED BY IDOCK:   -3.08 KCAL/MOL
REMARK 924 INTRA-LIGAND FREE ENERGY PREDICTED BY IDOCK:   -0.13 KCAL/MOL
REMARK 927      BINDING AFFINITY PREDICTED BY RF-SCORE:    0.00 PKD
ROOT
HETATM    1  C   UNL     1     -10.919  16.335  68.350  1.00  0.00    -0.351 C  
HETATM    2  C   UNL     1     -12.327  16.377  68.487  1.00  0.00     1.139 C  
HETATM    3  C   UNL     1     -11.658  15.054  68.624  1.00  0.00    -0.347 C  
HETATM    4  C   UNL     1      -9.618  15.132  68.872  1.00  0.00    -0.223 C  
HETATM    5  C   UNL     1     -11.071  15.569  64.160  1.00  0.00     0.250 C  
HETATM    6  O   UNL     1      -8.685  14.212  69.478  1.00  0.00    -0.201 OA 
HETATM    7  C   UNL     1     -10.612  15.076  69.810  1.00  0.00    -0.232 C  
HETATM    8  C   UNL     1     -10.726  13.232  69.385  1.00  0.00     0.104 C  
HETATM    9  C   UNL     1     -10.454  15.565  66.704  1.00  0.00    -0.299 C  
HETATM   10  C   UNL     1     -11.111  14.060  64.208  1.00  0.00    -0.198 C  
HETATM   11  H   UNL     1      -7.743  14.248  69.593  1.00  0.00     0.000 HD 
HETATM   12  C   UNL     1     -10.093  12.921  67.848  1.00  0.00    -0.232 C  
HETATM   13  C   UNL     1     -11.223  16.237  65.537  1.00  0.00     0.101 C  
HETATM   14  C   UNL     1     -10.545  13.815  66.584  1.00  0.00    -0.274 C  
HETATM   15  C   UNL     1      -9.035  12.082  67.839  1.00  0.00    -0.182 C  
HETATM   16  C   UNL     1     -10.083  13.421  65.140  1.00  0.00    -0.266 C  
HETATM   17  C   UNL     1      -9.929  11.917  64.830  1.00  0.00    -0.262 C  
HETATM   18  C   UNL     1     -11.184  11.129  64.506  1.00  0.00    -0.064 C  
HETATM   19  C   UNL     1     -12.183  11.846  63.617  1.00  0.00    -0.586 C  
HETATM   20  C   UNL     1     -12.041  13.338  63.555  1.00  0.00    -0.550 C  
ENDROOT
BRANCH   4  21
HETATM   21  C   UNL     1      -8.742  16.390  69.105  1.00  0.00    -0.185 C  
HETATM   22  C   UNL     1      -7.997  17.330  69.189  1.00  0.00    -0.019 C  
ENDBRANCH   4  21
BRANCH   7  23
HETATM   23  C   UNL     1     -10.554  15.418  71.282  1.00  0.00     0.258 C  
HETATM   24  C   UNL     1     -11.829  14.974  71.992  1.00  0.00    -0.462 C  
ENDBRANCH   7  23
TORSDOF 2
ENDMDL
MODEL      104
REMARK 921   NORMALIZED FREE ENERGY PREDICTED BY IDOCK:   -2.67 KCAL/MOL
REMARK 922        TOTAL FREE ENERGY PREDICTED BY IDOCK:   -3.20 KCAL/MOL
REMARK 923 INTER-LIGAND FREE ENERGY PREDICTED BY IDOCK:   -4.21 KCAL/MOL
REMARK 924 INTRA-LIGAND FREE ENERGY PREDICTED BY IDOCK:    1.01 KCAL/MOL
REMARK 927      BINDING AFFINITY PREDICTED BY RF-SCORE:    0.00 PKD
ROOT
HETATM    1  C   UNL     1      -9.271  11.280  65.584  1.00  0.00    -0.231 C  
HETATM    2  C   UNL     1     -10.106  10.693  64.603  1.00  0.00    -0.417 C  
HETATM    3  C   UNL     1     -10.206  10.176  65.995  1.00  0.00    -0.288 C  
HETATM    4  C   UNL     1      -9.326  11.360  67.429  1.00  0.00    -0.167 C  
HETATM    5  C   UNL     1      -6.132   8.455  65.005  1.00  0.00    -0.052 C  
HETATM    6  O   UNL     1      -9.569  11.500  68.845  1.00  0.00    -0.361 OA 
HETATM    7  C   UNL     1     -10.622  11.331  66.992  1.00  0.00    -0.287 C  
HETATM    8  C   UNL     1     -10.806   9.773  68.056  1.00  0.00    -0.276 C  
HETATM    9  C   UNL     1      -7.885  10.102  66.040  1.00  0.00    -0.122 C  
HETATM   10  C   UNL     1      -6.578   7.415  66.007  1.00  0.00    -0.049 C  
HETATM   11  H   UNL     1      -9.163  12.047  69.506  1.00  0.00     0.000 HD 
HETATM   12  C   UNL     1      -9.304   9.053  68.346  1.00  0.00    -0.143 C  
HETATM   13  C   UNL     1      -7.163   9.573  64.774  1.00  0.00    -0.112 C  
HETATM   14  C   UNL     1      -8.281   8.781  67.128  1.00  0.00    -0.104 C  
HETATM   15  C   UNL     1      -8.960   8.984  69.650  1.00  0.00    -0.153 C  
HETATM   16  C   UNL     1      -6.965   7.970  67.376  1.00  0.00    -0.075 C  
HETATM   17  C   UNL     1      -7.016   6.839  68.425  1.00  0.00    -0.077 C  
HETATM   18  C   UNL     1      -7.607   5.507  68.002  1.00  0.00    -0.081 C  
HETATM   19  C   UNL     1      -7.220   5.044  66.610  1.00  0.00    -0.081 C  
HETATM   20  C   UNL     1      -6.714   6.114  65.689  1.00  0.00    -0.048 C  
ENDROOT
BRANCH   4  21
HETATM   21  C   UNL     1      -8.739  12.783  67.248  1.00  0.00    -0.200 C  
HETATM   22  C   UNL     1      -8.346  13.893  67.003  1.00  0.00    -0.113 C  
ENDBRANCH   4  21
BRANCH   7  23
HETATM   23  C   UNL     1     -11.704  12.376  67.149  1.00  0.00    -0.415 C  
HETATM   24  C   UNL     1     -11.748  12.899  68.582  1.00  0.00    -0.359 C  
ENDBRANCH   7  23
TORSDOF 2
ENDMDL
MODEL      105
REMARK 921   NORMALIZED FREE ENERGY PREDICTED BY IDOCK:   -2.62 KCAL/MOL
REMARK 922        TOTAL FREE ENERGY PREDICTED BY IDOCK:   -3.15 KCAL/MOL
REMARK 923 INTER-LIGAND FREE ENERGY PREDICTED BY IDOCK:   -3.18 KCAL/MOL
REMARK 924 INTRA-LIGAND FREE ENERGY PREDICTED BY IDOCK:    0.03 KCAL/MOL
REMARK 927      BINDING AFFINITY PREDICTED BY RF-SCORE:    0.00 PKD
ROOT
HETATM    1  C   UNL     1      -9.527   9.236  65.964  1.00  0.00    -0.311 C  
HETATM    2  C   UNL     1     -10.724   9.002  66.685  1.00  0.00    -0.043 C  
HETATM    3  C   UNL     1      -9.657   9.797  67.354  1.00  0.00    -0.187 C  
HETATM    4  C   UNL     1      -8.169  10.479  66.108  1.00  0.00    -0.151 C  
HETATM    5  C   UNL     1      -7.593   5.765  67.509  1.00  0.00    -0.093 C  
HETATM    6  O   UNL     1      -7.264  11.599  66.212  1.00  0.00    -0.367 OA 
HETATM    7  C   UNL     1      -9.319  11.096  66.518  1.00  0.00    -0.199 C  
HETATM    8  C   UNL     1      -8.414  11.404  68.154  1.00  0.00    -0.152 C  
HETATM    9  C   UNL     1      -8.140   8.180  66.659  1.00  0.00    -0.103 C  
HETATM   10  C   UNL     1      -6.972   6.383  68.740  1.00  0.00    -0.080 C  
HETATM   11  H   UNL     1      -6.577  11.914  65.636  1.00  0.00     0.000 HD 
HETATM   12  C   UNL     1      -7.143  10.309  68.362  1.00  0.00    -0.078 C  
HETATM   13  C   UNL     1      -8.575   6.696  66.778  1.00  0.00    -0.118 C  
HETATM   14  C   UNL     1      -7.384   8.728  68.146  1.00  0.00    -0.087 C  
HETATM   15  C   UNL     1      -5.923  10.880  68.455  1.00  0.00    -0.042 C  
HETATM   16  C   UNL     1      -6.250   7.707  68.497  1.00  0.00    -0.039 C  
HETATM   17  C   UNL     1      -5.330   8.051  69.689  1.00  0.00    -0.023 C  
HETATM   18  C   UNL     1      -5.846   7.765  71.086  1.00  0.00    -0.034 C  
HETATM   19  C   UNL     1      -6.597   6.456  71.241  1.00  0.00    -0.051 C  
HETATM   20  C   UNL     1      -7.123   5.857  69.970  1.00  0.00    -0.071 C  
ENDROOT
BRANCH   4  21
HETATM   21  C   UNL     1      -8.128  10.410  64.560  1.00  0.00    -0.114 C  
HETATM   22  C   UNL     1      -8.208  10.404  63.361  1.00  0.00    -0.142 C  
ENDBRANCH   4  21
BRANCH   7  23
HETATM   23  C   UNL     1     -10.028  12.287  65.914  1.00  0.00    -0.272 C  
HETATM   24  C   UNL     1     -11.541  12.095  65.952  1.00  0.00    -0.425 C  
ENDBRANCH   7  23
TORSDOF 2
ENDMDL
MODEL      106
REMARK 921   NORMALIZED FREE ENERGY PREDICTED BY IDOCK:   -2.53 KCAL/MOL
REMARK 922        TOTAL FREE ENERGY PREDICTED BY IDOCK:   -3.05 KCAL/MOL
REMARK 923 INTER-LIGAND FREE ENERGY PREDICTED BY IDOCK:   -4.32 KCAL/MOL
REMARK 924 INTRA-LIGAND FREE ENERGY PREDICTED BY IDOCK:    1.26 KCAL/MOL
REMARK 927      BINDING AFFINITY PREDICTED BY RF-SCORE:    0.00 PKD
ROOT
HETATM    1  C   UNL     1      -5.684  15.464  68.450  1.00  0.00    -0.105 C  
HETATM    2  C   UNL     1      -5.163  16.364  69.410  1.00  0.00    -0.129 C  
HETATM    3  C   UNL     1      -6.615  16.043  69.481  1.00  0.00    -0.201 C  
HETATM    4  C   UNL     1      -7.199  14.410  68.374  1.00  0.00    -0.114 C  
HETATM    5  C   UNL     1      -6.735  18.559  65.713  1.00  0.00    -0.316 C  
HETATM    6  O   UNL     1      -8.318  13.508  68.505  1.00  0.00    -0.209 OA 
HETATM    7  C   UNL     1      -6.835  14.491  69.690  1.00  0.00    -0.142 C  
HETATM    8  C   UNL     1      -8.566  15.203  69.988  1.00  0.00     0.382 C  
HETATM    9  C   UNL     1      -6.712  16.395  67.186  1.00  0.00    -0.239 C  
HETATM   10  C   UNL     1      -8.134  18.836  66.214  1.00  0.00    -0.270 C  
HETATM   11  H   UNL     1      -8.588  12.754  67.995  1.00  0.00     0.000 HD 
HETATM   12  C   UNL     1      -9.209  15.854  68.567  1.00  0.00    -0.200 C  
HETATM   13  C   UNL     1      -5.932  17.609  66.617  1.00  0.00    -0.217 C  
HETATM   14  C   UNL     1      -8.335  16.868  67.665  1.00  0.00    -0.192 C  
HETATM   15  C   UNL     1     -10.350  15.266  68.149  1.00  0.00    -0.242 C  
HETATM   16  C   UNL     1      -8.990  17.592  66.442  1.00  0.00    -0.255 C  
HETATM   17  C   UNL     1     -10.482  17.974  66.558  1.00  0.00    -0.341 C  
HETATM   18  C   UNL     1     -10.832  19.232  67.330  1.00  0.00    -0.554 C  
HETATM   19  C   UNL     1      -9.907  20.412  67.092  1.00  0.00    -0.601 C  
HETATM   20  C   UNL     1      -8.561  20.075  66.524  1.00  0.00    -0.366 C  
ENDROOT
BRANCH   4  21
HETATM   21  C   UNL     1      -6.290  13.396  67.635  1.00  0.00    -0.162 C  
HETATM   22  C   UNL     1      -5.620  12.526  67.144  1.00  0.00     0.002 C  
ENDBRANCH   4  21
BRANCH   7  23
HETATM   23  C   UNL     1      -6.399  13.387  70.627  1.00  0.00     0.246 C  
HETATM   24  C   UNL     1      -5.150  12.688  70.098  1.00  0.00    -0.091 C  
ENDBRANCH   7  23
TORSDOF 2
ENDMDL
MODEL      107
REMARK 921   NORMALIZED FREE ENERGY PREDICTED BY IDOCK:   -2.53 KCAL/MOL
REMARK 922        TOTAL FREE ENERGY PREDICTED BY IDOCK:   -3.05 KCAL/MOL
REMARK 923 INTER-LIGAND FREE ENERGY PREDICTED BY IDOCK:   -3.74 KCAL/MOL
REMARK 924 INTRA-LIGAND FREE ENERGY PREDICTED BY IDOCK:    0.68 KCAL/MOL
REMARK 927      BINDING AFFINITY PREDICTED BY RF-SCORE:    0.00 PKD
ROOT
HETATM    1  C   UNL     1     -10.637  13.626  66.934  1.00  0.00    -0.271 C  
HETATM    2  C   UNL     1     -11.645  13.533  65.944  1.00  0.00    -0.359 C  
HETATM    3  C   UNL     1     -11.864  12.805  67.224  1.00  0.00    -0.414 C  
HETATM    4  C   UNL     1     -10.608  13.349  68.760  1.00  0.00    -0.210 C  
HETATM    5  C   UNL     1      -8.587  10.146  65.570  1.00  0.00    -0.162 C  
HETATM    6  O   UNL     1     -10.749  13.271  70.194  1.00  0.00     0.104 OA 
HETATM    7  C   UNL     1     -11.857  13.808  68.446  1.00  0.00    -0.411 C  
HETATM    8  C   UNL     1     -12.498  12.203  69.226  1.00  0.00     0.253 C  
HETATM    9  C   UNL     1      -9.687  12.012  67.041  1.00  0.00    -0.204 C  
HETATM   10  C   UNL     1      -9.312   9.117  66.405  1.00  0.00    -0.261 C  
HETATM   11  H   UNL     1     -10.170  13.523  70.903  1.00  0.00     0.000 HD 
HETATM   12  C   UNL     1     -11.297  11.013  69.242  1.00  0.00    -0.350 C  
HETATM   13  C   UNL     1      -9.212  11.550  65.639  1.00  0.00    -0.184 C  
HETATM   14  C   UNL     1     -10.452  10.688  67.906  1.00  0.00    -0.243 C  
HETATM   15  C   UNL     1     -10.954  10.583  70.474  1.00  0.00    -0.173 C  
HETATM   16  C   UNL     1      -9.459   9.478  67.882  1.00  0.00    -0.149 C  
HETATM   17  C   UNL     1      -9.838   8.232  68.711  1.00  0.00    -0.179 C  
HETATM   18  C   UNL     1     -10.836   7.261  68.112  1.00  0.00    -0.130 C  
HETATM   19  C   UNL     1     -10.660   6.988  66.629  1.00  0.00    -0.184 C  
HETATM   20  C   UNL     1      -9.867   8.012  65.873  1.00  0.00     0.250 C  
ENDROOT
BRANCH   4  21
HETATM   21  C   UNL     1      -9.601  14.528  68.784  1.00  0.00    -0.193 C  
HETATM   22  C   UNL     1      -8.851  15.457  68.921  1.00  0.00    -0.211 C  
ENDBRANCH   4  21
BRANCH   7  23
HETATM   23  C   UNL     1     -12.542  15.082  68.888  1.00  0.00     0.277 C  
HETATM   24  C   UNL     1     -12.855  15.041  70.380  1.00  0.00    -0.332 C  
ENDBRANCH   7  23
TORSDOF 2
ENDMDL
MODEL      108
REMARK 921   NORMALIZED FREE ENERGY PREDICTED BY IDOCK:   -2.49 KCAL/MOL
REMARK 922        TOTAL FREE ENERGY PREDICTED BY IDOCK:   -3.00 KCAL/MOL
REMARK 923 INTER-LIGAND FREE ENERGY PREDICTED BY IDOCK:   -3.63 KCAL/MOL
REMARK 924 INTRA-LIGAND FREE ENERGY PREDICTED BY IDOCK:    0.63 KCAL/MOL
REMARK 927      BINDING AFFINITY PREDICTED BY RF-SCORE:    0.00 PKD
ROOT
HETATM    1  C   UNL     1      -6.708  16.716  67.228  1.00  0.00    -0.213 C  
HETATM    2  C   UNL     1      -6.345  16.650  65.861  1.00  0.00     1.343 C  
HETATM    3  C   UNL     1      -7.753  17.011  66.187  1.00  0.00    -0.292 C  
HETATM    4  C   UNL     1      -8.086  17.532  68.149  1.00  0.00    -0.249 C  
HETATM    5  C   UNL     1      -7.957  12.643  67.378  1.00  0.00    -0.177 C  
HETATM    6  O   UNL     1      -9.099  18.350  68.770  1.00  0.00    -0.313 OA 
HETATM    7  C   UNL     1      -7.804  18.322  67.069  1.00  0.00    -0.237 C  
HETATM    8  C   UNL     1      -9.620  18.073  66.582  1.00  0.00    -0.315 C  
HETATM    9  C   UNL     1      -7.766  15.235  67.686  1.00  0.00    -0.185 C  
HETATM   10  C   UNL     1      -9.403  12.837  66.985  1.00  0.00    -0.229 C  
HETATM   11  H   UNL     1      -9.252  18.591  69.676  1.00  0.00     0.000 HD 
HETATM   12  C   UNL     1     -10.255  16.679  67.296  1.00  0.00    -0.290 C  
HETATM   13  C   UNL     1      -7.101  13.911  67.229  1.00  0.00     0.061 C  
HETATM   14  C   UNL     1      -9.455  15.280  67.208  1.00  0.00    -0.212 C  
HETATM   15  C   UNL     1     -11.297  16.901  68.126  1.00  0.00     0.043 C  
HETATM   16  C   UNL     1     -10.123  13.962  67.726  1.00  0.00    -0.241 C  
HETATM   17  C   UNL     1     -11.652  13.829  67.563  1.00  0.00    -0.387 C  
HETATM   18  C   UNL     1     -12.185  13.415  66.205  1.00  0.00    -0.456 C  
HETATM   19  C   UNL     1     -11.391  12.327  65.505  1.00  0.00    -0.394 C  
HETATM   20  C   UNL     1      -9.986  12.136  65.994  1.00  0.00    -0.257 C  
ENDROOT
BRANCH   4  21
HETATM   21  C   UNL     1      -7.027  17.757  69.259  1.00  0.00    -0.152 C  
HETATM   22  C   UNL     1      -6.141  17.843  70.067  1.00  0.00    -0.115 C  
ENDBRANCH   4  21
BRANCH   7  23
HETATM   23  C   UNL     1      -7.296  19.746  67.038  1.00  0.00    -0.251 C  
HETATM   24  C   UNL     1      -8.449  20.730  66.866  1.00  0.00    -0.117 C  
ENDBRANCH   7  23
TORSDOF 2
ENDMDL
MODEL      109
REMARK 921   NORMALIZED FREE ENERGY PREDICTED BY IDOCK:   -2.46 KCAL/MOL
REMARK 922        TOTAL FREE ENERGY PREDICTED BY IDOCK:   -2.97 KCAL/MOL
REMARK 923 INTER-LIGAND FREE ENERGY PREDICTED BY IDOCK:   -2.71 KCAL/MOL
REMARK 924 INTRA-LIGAND FREE ENERGY PREDICTED BY IDOCK:   -0.26 KCAL/MOL
REMARK 927      BINDING AFFINITY PREDICTED BY RF-SCORE:    0.00 PKD
ROOT
HETATM    1  C   UNL     1      -8.905   3.903  68.109  1.00  0.00    -0.140 C  
HETATM    2  C   UNL     1      -9.735   3.887  66.962  1.00  0.00    -0.186 C  
HETATM    3  C   UNL     1      -8.525   4.754  66.928  1.00  0.00    -0.105 C  
HETATM    4  C   UNL     1      -7.147   4.383  68.410  1.00  0.00    -0.056 C  
HETATM    5  C   UNL     1     -10.942   7.205  69.876  1.00  0.00    -0.278 C  
HETATM    6  O   UNL     1      -5.726   4.622  68.485  1.00  0.00    -0.015 OA 
HETATM    7  C   UNL     1      -7.214   3.894  67.135  1.00  0.00    -0.067 C  
HETATM    8  C   UNL     1      -6.530   5.577  66.594  1.00  0.00    -0.050 C  
HETATM    9  C   UNL     1      -9.123   5.518  69.039  1.00  0.00    -0.131 C  
HETATM   10  C   UNL     1     -10.126   8.323  69.270  1.00  0.00    -0.199 C  
HETATM   11  H   UNL     1      -5.089   4.450  69.169  1.00  0.00     0.000 HD 
HETATM   12  C   UNL     1      -6.828   6.759  67.765  1.00  0.00    -0.081 C  
HETATM   13  C   UNL     1     -10.624   5.819  69.290  1.00  0.00    -0.376 C  
HETATM   14  C   UNL     1      -8.305   6.931  68.393  1.00  0.00    -0.120 C  
HETATM   15  C   UNL     1      -5.717   7.325  68.284  1.00  0.00    -0.023 C  
HETATM   16  C   UNL     1      -8.613   8.129  69.353  1.00  0.00    -0.135 C  
HETATM   17  C   UNL     1      -7.880   9.461  69.085  1.00  0.00    -0.080 C  
HETATM   18  C   UNL     1      -8.424  10.361  67.992  1.00  0.00    -0.119 C  
HETATM   19  C   UNL     1      -9.937  10.465  67.938  1.00  0.00    -0.192 C  
HETATM   20  C   UNL     1     -10.687   9.362  68.624  1.00  0.00    -0.196 C  
ENDROOT
BRANCH   4  21
HETATM   21  C   UNL     1      -7.145   3.213  69.426  1.00  0.00    -0.041 C  
HETATM   22  C   UNL     1      -7.049   2.360  70.269  1.00  0.00    -0.033 C  
ENDBRANCH   4  21
BRANCH   7  23
HETATM   23  C   UNL     1      -6.535   2.678  66.544  1.00  0.00    -0.031 C  
HETATM   24  C   UNL     1      -7.143   2.322  65.191  1.00  0.00    -0.056 C  
ENDBRANCH   7  23
TORSDOF 2
ENDMDL
MODEL      110
REMARK 921   NORMALIZED FREE ENERGY PREDICTED BY IDOCK:   -2.28 KCAL/MOL
REMARK 922        TOTAL FREE ENERGY PREDICTED BY IDOCK:   -2.77 KCAL/MOL
REMARK 923 INTER-LIGAND FREE ENERGY PREDICTED BY IDOCK:   -2.89 KCAL/MOL
REMARK 924 INTRA-LIGAND FREE ENERGY PREDICTED BY IDOCK:    0.13 KCAL/MOL
REMARK 927      BINDING AFFINITY PREDICTED BY RF-SCORE:    0.00 PKD
ROOT
HETATM    1  C   UNL     1      -8.321   5.816  72.480  1.00  0.00    -0.117 C  
HETATM    2  C   UNL     1      -9.691   5.566  72.736  1.00  0.00    -0.166 C  
HETATM    3  C   UNL     1      -9.118   5.048  71.463  1.00  0.00    -0.169 C  
HETATM    4  C   UNL     1      -7.063   5.041  71.371  1.00  0.00    -0.057 C  
HETATM    5  C   UNL     1      -9.089   9.451  70.389  1.00  0.00    -0.302 C  
HETATM    6  O   UNL     1      -6.136   4.250  70.599  1.00  0.00    -0.016 OA 
HETATM    7  C   UNL     1      -7.926   4.050  71.751  1.00  0.00    -0.071 C  
HETATM    8  C   UNL     1      -8.243   3.800  69.898  1.00  0.00    -0.069 C  
HETATM    9  C   UNL     1      -8.142   7.134  71.156  1.00  0.00    -0.104 C  
HETATM   10  C   UNL     1      -9.245   8.881  68.998  1.00  0.00    -0.140 C  
HETATM   11  H   UNL     1      -5.187   4.247  70.557  1.00  0.00     0.000 HD 
HETATM   12  C   UNL     1      -7.847   5.189  69.020  1.00  0.00    -0.081 C  
HETATM   13  C   UNL     1      -9.003   8.380  71.490  1.00  0.00    -0.251 C  
HETATM   14  C   UNL     1      -8.390   6.634  69.491  1.00  0.00    -0.131 C  
HETATM   15  C   UNL     1      -6.871   5.012  68.104  1.00  0.00    -0.056 C  
HETATM   16  C   UNL     1      -8.157   7.891  68.587  1.00  0.00    -0.126 C  
HETATM   17  C   UNL     1      -8.167   7.677  67.058  1.00  0.00    -0.117 C  
HETATM   18  C   UNL     1      -9.513   7.586  66.365  1.00  0.00    -0.208 C  
HETATM   19  C   UNL     1     -10.561   8.566  66.861  1.00  0.00    -0.279 C  
HETATM   20  C   UNL     1     -10.308   9.152  68.218  1.00  0.00    -0.256 C  
ENDROOT
BRANCH   4  21
HETATM   21  C   UNL     1      -6.066   5.342  72.519  1.00  0.00    -0.031 C  
HETATM   22  C   UNL     1      -5.204   5.570  73.326  1.00  0.00    -0.022 C  
ENDBRANCH   4  21
BRANCH   7  23
HETATM   23  C   UNL     1      -7.646   2.799  72.553  1.00  0.00    -0.053 C  
HETATM   24  C   UNL     1      -8.279   2.889  73.938  1.00  0.00    -0.072 C  
ENDBRANCH   7  23
TORSDOF 2
ENDMDL
MODEL      111
REMARK 921   NORMALIZED FREE ENERGY PREDICTED BY IDOCK:   -2.16 KCAL/MOL
REMARK 922        TOTAL FREE ENERGY PREDICTED BY IDOCK:   -2.63 KCAL/MOL
REMARK 923 INTER-LIGAND FREE ENERGY PREDICTED BY IDOCK:   -2.69 KCAL/MOL
REMARK 924 INTRA-LIGAND FREE ENERGY PREDICTED BY IDOCK:    0.06 KCAL/MOL
REMARK 927      BINDING AFFINITY PREDICTED BY RF-SCORE:    0.00 PKD
ROOT
HETATM    1  C   UNL     1     -10.084   5.581  70.228  1.00  0.00    -0.305 C  
HETATM    2  C   UNL     1     -10.113   4.222  70.621  1.00  0.00    -0.140 C  
HETATM    3  C   UNL     1      -8.782   4.845  70.385  1.00  0.00    -0.123 C  
HETATM    4  C   UNL     1      -8.789   6.899  70.273  1.00  0.00    -0.148 C  
HETATM    5  C   UNL     1     -10.141   4.668  66.065  1.00  0.00    -0.287 C  
HETATM    6  O   UNL     1      -7.761   7.881  70.517  1.00  0.00    -0.083 OA 
HETATM    7  C   UNL     1      -8.564   6.081  71.346  1.00  0.00    -0.129 C  
HETATM    8  C   UNL     1      -6.837   5.814  70.610  1.00  0.00    -0.053 C  
HETATM    9  C   UNL     1      -9.641   5.718  68.410  1.00  0.00    -0.147 C  
HETATM   10  C   UNL     1      -8.651   4.569  65.836  1.00  0.00    -0.115 C  
HETATM   11  H   UNL     1      -7.764   8.829  70.466  1.00  0.00     0.000 HD 
HETATM   12  C   UNL     1      -6.822   6.155  68.954  1.00  0.00    -0.066 C  
HETATM   13  C   UNL     1     -10.533   4.787  67.547  1.00  0.00     0.033 C  
HETATM   14  C   UNL     1      -7.948   5.529  67.982  1.00  0.00    -0.096 C  
HETATM   15  C   UNL     1      -5.990   7.156  68.598  1.00  0.00    -0.026 C  
HETATM   16  C   UNL     1      -7.835   5.714  66.431  1.00  0.00    -0.101 C  
HETATM   17  C   UNL     1      -6.417   5.745  65.822  1.00  0.00    -0.043 C  
HETATM   18  C   UNL     1      -5.719   4.419  65.586  1.00  0.00    -0.022 C  
HETATM   19  C   UNL     1      -6.604   3.313  65.042  1.00  0.00    -0.040 C  
HETATM   20  C   UNL     1      -8.078   3.509  65.236  1.00  0.00    -0.097 C  
ENDROOT
BRANCH   4  21
HETATM   21  C   UNL     1      -9.970   7.857  70.577  1.00  0.00    -0.191 C  
HETATM   22  C   UNL     1     -10.803   8.677  70.858  1.00  0.00    -0.288 C  
ENDBRANCH   4  21
BRANCH   7  23
HETATM   23  C   UNL     1      -8.615   6.410  72.821  1.00  0.00    -0.125 C  
HETATM   24  C   UNL     1      -7.645   5.532  73.606  1.00  0.00    -0.098 C  
ENDBRANCH   7  23
TORSDOF 2
ENDMDL
MODEL      112
REMARK 921   NORMALIZED FREE ENERGY PREDICTED BY IDOCK:   -1.92 KCAL/MOL
REMARK 922        TOTAL FREE ENERGY PREDICTED BY IDOCK:   -2.36 KCAL/MOL
REMARK 923 INTER-LIGAND FREE ENERGY PREDICTED BY IDOCK:   -2.48 KCAL/MOL
REMARK 924 INTRA-LIGAND FREE ENERGY PREDICTED BY IDOCK:    0.12 KCAL/MOL
REMARK 927      BINDING AFFINITY PREDICTED BY RF-SCORE:    0.00 PKD
ROOT
HETATM    1  C   UNL     1      -8.323  11.640  67.685  1.00  0.00    -0.142 C  
HETATM    2  C   UNL     1      -8.691  11.724  66.321  1.00  0.00    -0.106 C  
HETATM    3  C   UNL     1      -7.488  12.483  66.761  1.00  0.00     0.232 C  
HETATM    4  C   UNL     1      -6.755  11.958  68.610  1.00  0.00    -0.074 C  
HETATM    5  C   UNL     1     -10.609  15.061  68.799  1.00  0.00    -0.240 C  
HETATM    6  O   UNL     1      -5.440  12.071  69.192  1.00  0.00    -0.058 OA 
HETATM    7  C   UNL     1      -6.401  11.508  67.368  1.00  0.00    -0.091 C  
HETATM    8  C   UNL     1      -5.450  13.139  67.194  1.00  0.00     0.395 C  
HETATM    9  C   UNL     1      -8.739  13.244  68.565  1.00  0.00    -0.059 C  
HETATM   10  C   UNL     1      -9.553  16.118  68.579  1.00  0.00    -0.215 C  
HETATM   11  H   UNL     1      -5.101  11.828  70.045  1.00  0.00     0.000 HD 
HETATM   12  C   UNL     1      -6.058  14.313  68.247  1.00  0.00    -0.119 C  
HETATM   13  C   UNL     1     -10.205  13.668  68.289  1.00  0.00    -0.243 C  
HETATM   14  C   UNL     1      -7.645  14.597  68.325  1.00  0.00    -0.118 C  
HETATM   15  C   UNL     1      -5.166  14.767  69.152  1.00  0.00    -0.086 C  
HETATM   16  C   UNL     1      -8.186  15.793  69.178  1.00  0.00    -0.247 C  
HETATM   17  C   UNL     1      -7.311  17.062  69.256  1.00  0.00    -0.119 C  
HETATM   18  C   UNL     1      -7.366  18.033  68.092  1.00  0.00    -0.250 C  
HETATM   19  C   UNL     1      -8.750  18.269  67.516  1.00  0.00    -0.256 C  
HETATM   20  C   UNL     1      -9.772  17.218  67.834  1.00  0.00    -0.273 C  
ENDROOT
BRANCH   4  21
HETATM   21  C   UNL     1      -7.198  10.768  69.498  1.00  0.00    -0.132 C  
HETATM   22  C   UNL     1      -7.453   9.779  70.133  1.00  0.00    -0.170 C  
ENDBRANCH   4  21
BRANCH   7  23
HETATM   23  C   UNL     1      -5.647  10.254  66.988  1.00  0.00    -0.045 C  
HETATM   24  C   UNL     1      -6.484   9.377  66.062  1.00  0.00    -0.069 C  
ENDBRANCH   7  23
TORSDOF 2
ENDMDL
MODEL      113
REMARK 921   NORMALIZED FREE ENERGY PREDICTED BY IDOCK:   -1.86 KCAL/MOL
REMARK 922        TOTAL FREE ENERGY PREDICTED BY IDOCK:   -2.31 KCAL/MOL
REMARK 923 INTER-LIGAND FREE ENERGY PREDICTED BY IDOCK:   -2.98 KCAL/MOL
REMARK 924 INTRA-LIGAND FREE ENERGY PREDICTED BY IDOCK:    0.67 KCAL/MOL
REMARK 927      BINDING AFFINITY PREDICTED BY RF-SCORE:    0.00 PKD
ROOT
HETATM    1  C   UNL     1      -8.674  14.445  66.461  1.00  0.00    -0.042 C  
HETATM    2  C   UNL     1      -7.527  13.800  66.982  1.00  0.00     0.292 C  
HETATM    3  C   UNL     1      -8.451  14.454  67.948  1.00  0.00    -0.165 C  
HETATM    4  C   UNL     1     -10.294  14.957  67.185  1.00  0.00    -0.260 C  
HETATM    5  C   UNL     1      -6.732  18.223  66.112  1.00  0.00    -0.288 C  
HETATM    6  O   UNL     1     -11.577  15.152  67.816  1.00  0.00    -0.332 OA 
HETATM    7  C   UNL     1      -9.900  13.827  67.848  1.00  0.00    -0.232 C  
HETATM    8  C   UNL     1     -10.005  14.876  69.424  1.00  0.00    -0.145 C  
HETATM    9  C   UNL     1      -8.461  16.307  66.547  1.00  0.00    -0.338 C  
HETATM   10  C   UNL     1      -7.049  18.767  67.485  1.00  0.00    -0.216 C  
HETATM   11  H   UNL     1     -12.428  15.384  67.464  1.00  0.00     0.000 HD 
HETATM   12  C   UNL     1      -9.887  16.525  69.067  1.00  0.00    -0.266 C  
HETATM   13  C   UNL     1      -7.106  16.743  65.931  1.00  0.00     0.546 C  
HETATM   14  C   UNL     1      -8.708  17.070  68.109  1.00  0.00    -0.233 C  
HETATM   15  C   UNL     1     -10.969  17.251  69.420  1.00  0.00     0.301 C  
HETATM   16  C   UNL     1      -8.507  18.610  67.914  1.00  0.00    -0.297 C  
HETATM   17  C   UNL     1      -8.820  19.525  69.118  1.00  0.00    -0.125 C  
HETATM   18  C   UNL     1      -7.767  19.653  70.202  1.00  0.00     0.719 C  
HETATM   19  C   UNL     1      -6.338  19.754  69.703  1.00  0.00    -0.378 C  
HETATM   20  C   UNL     1      -6.104  19.265  68.304  1.00  0.00    -0.242 C  
ENDROOT
BRANCH   4  21
HETATM   21  C   UNL     1     -10.877  14.580  65.799  1.00  0.00    -0.317 C  
HETATM   22  C   UNL     1     -11.235  14.348  64.675  1.00  0.00    -0.366 C  
ENDBRANCH   4  21
BRANCH   7  23
HETATM   23  C   UNL     1     -10.570  12.473  67.904  1.00  0.00    -0.233 C  
HETATM   24  C   UNL     1     -11.588  12.418  69.038  1.00  0.00    -0.362 C  
ENDBRANCH   7  23
TORSDOF 2
ENDMDL
MODEL      114
REMARK 921   NORMALIZED FREE ENERGY PREDICTED BY IDOCK:   -1.75 KCAL/MOL
REMARK 922        TOTAL FREE ENERGY PREDICTED BY IDOCK:   -2.18 KCAL/MOL
REMARK 923 INTER-LIGAND FREE ENERGY PREDICTED BY IDOCK:   -1.92 KCAL/MOL
REMARK 924 INTRA-LIGAND FREE ENERGY PREDICTED BY IDOCK:   -0.26 KCAL/MOL
REMARK 927      BINDING AFFINITY PREDICTED BY RF-SCORE:    0.00 PKD
ROOT
HETATM    1  C   UNL     1      -9.537   3.796  71.175  1.00  0.00    -0.246 C  
HETATM    2  C   UNL     1      -9.754   2.398  71.105  1.00  0.00    -0.180 C  
HETATM    3  C   UNL     1      -8.347   2.881  71.072  1.00  0.00    -0.087 C  
HETATM    4  C   UNL     1      -8.086   4.843  71.634  1.00  0.00    -0.112 C  
HETATM    5  C   UNL     1      -9.565   4.293  66.941  1.00  0.00    -0.225 C  
HETATM    6  O   UNL     1      -6.948   5.547  72.175  1.00  0.00    -0.075 OA 
HETATM    7  C   UNL     1      -8.005   3.700  72.381  1.00  0.00    -0.069 C  
HETATM    8  C   UNL     1      -6.303   3.457  71.583  1.00  0.00    -0.015 C  
HETATM    9  C   UNL     1      -9.016   4.452  69.496  1.00  0.00    -0.148 C  
HETATM   10  C   UNL     1      -8.093   4.076  66.680  1.00  0.00    -0.097 C  
HETATM   11  H   UNL     1      -6.828   6.452  72.435  1.00  0.00     0.000 HD 
HETATM   12  C   UNL     1      -6.186   4.310  70.128  1.00  0.00    -0.026 C  
HETATM   13  C   UNL     1      -9.989   3.978  68.385  1.00  0.00     0.068 C  
HETATM   14  C   UNL     1      -7.348   4.188  69.015  1.00  0.00    -0.055 C  
HETATM   15  C   UNL     1      -5.219   5.253  70.109  1.00  0.00    -0.004 C  
HETATM   16  C   UNL     1      -7.157   4.848  67.608  1.00  0.00    -0.062 C  
HETATM   17  C   UNL     1      -5.727   4.885  67.029  1.00  0.00    -0.014 C  
HETATM   18  C   UNL     1      -5.197   3.625  66.370  1.00  0.00    -0.009 C  
HETATM   19  C   UNL     1      -6.198   2.883  65.503  1.00  0.00    -0.024 C  
HETATM   20  C   UNL     1      -7.640   3.200  65.763  1.00  0.00    -0.074 C  
ENDROOT
BRANCH   4  21
HETATM   21  C   UNL     1      -9.143   5.799  72.243  1.00  0.00    -0.145 C  
HETATM   22  C   UNL     1      -9.875   6.625  72.721  1.00  0.00    -0.182 C  
ENDBRANCH   4  21
BRANCH   7  23
HETATM   23  C   UNL     1      -8.066   3.538  73.883  1.00  0.00    -0.078 C  
HETATM   24  C   UNL     1      -8.168   2.065  74.266  1.00  0.00    -0.057 C  
ENDBRANCH   7  23
TORSDOF 2
ENDMDL
MODEL      115
REMARK 921   NORMALIZED FREE ENERGY PREDICTED BY IDOCK:   -1.57 KCAL/MOL
REMARK 922        TOTAL FREE ENERGY PREDICTED BY IDOCK:   -1.98 KCAL/MOL
REMARK 923 INTER-LIGAND FREE ENERGY PREDICTED BY IDOCK:   -3.27 KCAL/MOL
REMARK 924 INTRA-LIGAND FREE ENERGY PREDICTED BY IDOCK:    1.29 KCAL/MOL
REMARK 927      BINDING AFFINITY PREDICTED BY RF-SCORE:    0.00 PKD
ROOT
HETATM    1  C   UNL     1      -7.407  11.406  69.367  1.00  0.00     0.012 C  
HETATM    2  C   UNL     1      -6.395  10.923  70.232  1.00  0.00    -0.135 C  
HETATM    3  C   UNL     1      -6.452  10.363  68.854  1.00  0.00    -0.052 C  
HETATM    4  C   UNL     1      -7.623  11.419  67.532  1.00  0.00    -0.117 C  
HETATM    5  C   UNL     1     -10.187   8.369  70.471  1.00  0.00    -0.216 C  
HETATM    6  O   UNL     1      -7.597  11.522  66.093  1.00  0.00    -0.365 OA 
HETATM    7  C   UNL     1      -6.280  11.507  67.777  1.00  0.00    -0.052 C  
HETATM    8  C   UNL     1      -6.122   9.929  66.739  1.00  0.00    -0.060 C  
HETATM    9  C   UNL     1      -8.743  10.106  69.149  1.00  0.00    -0.173 C  
HETATM   10  C   UNL     1      -9.804   7.329  69.443  1.00  0.00    -0.163 C  
HETATM   11  H   UNL     1      -8.137  12.010  65.483  1.00  0.00     0.000 HD 
HETATM   12  C   UNL     1      -7.585   9.084  66.690  1.00  0.00    -0.089 C  
HETATM   13  C   UNL     1      -9.230   9.571  70.521  1.00  0.00    -0.284 C  
HETATM   14  C   UNL     1      -8.398   8.780  68.050  1.00  0.00    -0.119 C  
HETATM   15  C   UNL     1      -8.105   8.938  65.452  1.00  0.00    -0.119 C  
HETATM   16  C   UNL     1      -9.664   7.859  68.018  1.00  0.00    -0.182 C  
HETATM   17  C   UNL     1      -9.670   6.696  67.003  1.00  0.00    -0.197 C  
HETATM   18  C   UNL     1      -8.916   5.432  67.371  1.00  0.00    -0.108 C  
HETATM   19  C   UNL     1      -9.061   4.994  68.816  1.00  0.00    -0.140 C  
HETATM   20  C   UNL     1      -9.517   6.056  69.773  1.00  0.00    -0.173 C  
ENDROOT
BRANCH   4  21
HETATM   21  C   UNL     1      -8.294  12.798  67.759  1.00  0.00    -0.177 C  
HETATM   22  C   UNL     1      -8.712  13.917  67.891  1.00  0.00    -0.184 C  
ENDBRANCH   4  21
BRANCH   7  23
HETATM   23  C   UNL     1      -5.322  12.627  67.436  1.00  0.00    -0.058 C  
HETATM   24  C   UNL     1      -5.738  13.924  68.123  1.00  0.00    -0.123 C  
ENDBRANCH   7  23
TORSDOF 2
ENDMDL
MODEL      116
REMARK 921   NORMALIZED FREE ENERGY PREDICTED BY IDOCK:   -1.48 KCAL/MOL
REMARK 922        TOTAL FREE ENERGY PREDICTED BY IDOCK:   -1.88 KCAL/MOL
REMARK 923 INTER-LIGAND FREE ENERGY PREDICTED BY IDOCK:   -2.00 KCAL/MOL
REMARK 924 INTRA-LIGAND FREE ENERGY PREDICTED BY IDOCK:    0.12 KCAL/MOL
REMARK 927      BINDING AFFINITY PREDICTED BY RF-SCORE:    0.00 PKD
ROOT
HETATM    1  C   UNL     1      -6.531  11.191  67.256  1.00  0.00    -0.079 C  
HETATM    2  C   UNL     1      -6.603  11.685  65.930  1.00  0.00     0.743 C  
HETATM    3  C   UNL     1      -7.818  11.034  66.493  1.00  0.00    -0.155 C  
HETATM    4  C   UNL     1      -7.796  10.765  68.533  1.00  0.00    -0.122 C  
HETATM    5  C   UNL     1      -5.292   7.299  66.035  1.00  0.00    -0.024 C  
HETATM    6  O   UNL     1      -8.860  10.631  69.498  1.00  0.00    -0.375 OA 
HETATM    7  C   UNL     1      -8.309  11.793  67.791  1.00  0.00    -0.146 C  
HETATM    8  C   UNL     1      -9.755  10.626  67.417  1.00  0.00    -0.192 C  
HETATM    9  C   UNL     1      -6.443   9.317  67.242  1.00  0.00    -0.060 C  
HETATM   10  C   UNL     1      -6.656   6.670  65.875  1.00  0.00    -0.044 C  
HETATM   11  H   UNL     1      -8.849  10.507  70.440  1.00  0.00     0.000 HD 
HETATM   12  C   UNL     1      -9.304   9.011  67.633  1.00  0.00    -0.154 C  
HETATM   13  C   UNL     1      -5.337   8.817  66.277  1.00  0.00    -0.031 C  
HETATM   14  C   UNL     1      -7.945   8.447  66.971  1.00  0.00    -0.100 C  
HETATM   15  C   UNL     1     -10.010   8.356  68.579  1.00  0.00    -0.203 C  
HETATM   16  C   UNL     1      -7.617   6.918  67.036  1.00  0.00    -0.102 C  
HETATM   17  C   UNL     1      -8.805   5.934  66.978  1.00  0.00    -0.112 C  
HETATM   18  C   UNL     1      -9.397   5.619  65.617  1.00  0.00    -0.027 C  
HETATM   19  C   UNL     1      -8.386   5.436  64.501  1.00  0.00    -0.138 C  
HETATM   20  C   UNL     1      -7.028   6.020  64.755  1.00  0.00    -0.055 C  
ENDROOT
BRANCH   4  21
HETATM   21  C   UNL     1      -6.757  11.310  69.546  1.00  0.00    -0.128 C  
HETATM   22  C   UNL     1      -6.019  11.834  70.338  1.00  0.00    -0.123 C  
ENDBRANCH   4  21
BRANCH   7  23
HETATM   23  C   UNL     1      -8.679  13.192  68.230  1.00  0.00    -0.165 C  
HETATM   24  C   UNL     1      -7.905  14.235  67.429  1.00  0.00    -0.207 C  
ENDBRANCH   7  23
TORSDOF 2
ENDMDL
MODEL      117
REMARK 921   NORMALIZED FREE ENERGY PREDICTED BY IDOCK:   -1.03 KCAL/MOL
REMARK 922        TOTAL FREE ENERGY PREDICTED BY IDOCK:   -1.37 KCAL/MOL
REMARK 923 INTER-LIGAND FREE ENERGY PREDICTED BY IDOCK:   -2.86 KCAL/MOL
REMARK 924 INTRA-LIGAND FREE ENERGY PREDICTED BY IDOCK:    1.49 KCAL/MOL
REMARK 927      BINDING AFFINITY PREDICTED BY RF-SCORE:    0.00 PKD
ROOT
HETATM    1  C   UNL     1      -9.507   6.100  70.120  1.00  0.00    -0.177 C  
HETATM    2  C   UNL     1     -10.865   6.099  69.719  1.00  0.00    -0.421 C  
HETATM    3  C   UNL     1     -10.044   4.902  69.386  1.00  0.00    -0.270 C  
HETATM    4  C   UNL     1      -8.249   4.772  70.382  1.00  0.00    -0.083 C  
HETATM    5  C   UNL     1      -8.135   7.779  66.450  1.00  0.00    -0.109 C  
HETATM    6  O   UNL     1      -7.413   3.645  70.717  1.00  0.00    -0.040 OA 
HETATM    7  C   UNL     1      -9.467   4.236  70.699  1.00  0.00    -0.241 C  
HETATM    8  C   UNL     1      -9.092   2.937  69.370  1.00  0.00    -0.197 C  
HETATM    9  C   UNL     1      -8.395   6.354  68.630  1.00  0.00    -0.121 C  
HETATM   10  C   UNL     1      -7.909   6.495  65.686  1.00  0.00    -0.100 C  
HETATM   11  H   UNL     1      -6.584   3.585  71.177  1.00  0.00     0.000 HD 
HETATM   12  C   UNL     1      -7.945   3.508  68.267  1.00  0.00    -0.072 C  
HETATM   13  C   UNL     1      -8.850   7.579  67.797  1.00  0.00    -0.132 C  
HETATM   14  C   UNL     1      -8.116   4.964  67.593  1.00  0.00    -0.094 C  
HETATM   15  C   UNL     1      -6.807   2.784  68.220  1.00  0.00    -0.048 C  
HETATM   16  C   UNL     1      -7.143   5.419  66.454  1.00  0.00    -0.069 C  
HETATM   17  C   UNL     1      -6.620   4.333  65.491  1.00  0.00    -0.044 C  
HETATM   18  C   UNL     1      -7.531   3.890  64.362  1.00  0.00    -0.071 C  
HETATM   19  C   UNL     1      -8.299   5.007  63.678  1.00  0.00    -0.127 C  
HETATM   20  C   UNL     1      -8.423   6.280  64.460  1.00  0.00     0.080 C  
ENDROOT
BRANCH   4  21
HETATM   21  C   UNL     1      -7.747   5.668  71.544  1.00  0.00    -0.107 C  
HETATM   22  C   UNL     1      -7.471   6.357  72.489  1.00  0.00    -0.095 C  
ENDBRANCH   4  21
BRANCH   7  23
HETATM   23  C   UNL     1      -9.959   3.707  72.028  1.00  0.00    -0.232 C  
HETATM   24  C   UNL     1      -8.786   3.376  72.946  1.00  0.00    -0.094 C  
ENDBRANCH   7  23
TORSDOF 2
ENDMDL
MODEL      118
REMARK 921   NORMALIZED FREE ENERGY PREDICTED BY IDOCK:   -0.65 KCAL/MOL
REMARK 922        TOTAL FREE ENERGY PREDICTED BY IDOCK:   -0.95 KCAL/MOL
REMARK 923 INTER-LIGAND FREE ENERGY PREDICTED BY IDOCK:   -2.76 KCAL/MOL
REMARK 924 INTRA-LIGAND FREE ENERGY PREDICTED BY IDOCK:    1.81 KCAL/MOL
REMARK 927      BINDING AFFINITY PREDICTED BY RF-SCORE:    0.00 PKD
ROOT
HETATM    1  C   UNL     1      -7.687   5.663  71.251  1.00  0.00    -0.109 C  
HETATM    2  C   UNL     1      -8.036   6.670  72.182  1.00  0.00    -0.105 C  
HETATM    3  C   UNL     1      -8.918   6.489  70.997  1.00  0.00    -0.146 C  
HETATM    4  C   UNL     1      -8.623   4.742  69.951  1.00  0.00    -0.074 C  
HETATM    5  C   UNL     1      -5.372   8.307  68.838  1.00  0.00    -0.031 C  
HETATM    6  O   UNL     1      -9.493   3.974  69.094  1.00  0.00    -0.158 OA 
HETATM    7  C   UNL     1      -9.507   5.022  70.957  1.00  0.00    -0.220 C  
HETATM    8  C   UNL     1     -10.525   5.918  69.632  1.00  0.00    -0.346 C  
HETATM    9  C   UNL     1      -6.999   6.440  69.688  1.00  0.00    -0.071 C  
HETATM   10  C   UNL     1      -6.468   8.783  67.913  1.00  0.00    -0.057 C  
HETATM   11  H   UNL     1      -9.356   3.167  68.611  1.00  0.00     0.000 HD 
HETATM   12  C   UNL     1      -9.558   6.361  68.318  1.00  0.00    -0.123 C  
HETATM   13  C   UNL     1      -5.884   7.466  70.019  1.00  0.00    -0.024 C  
HETATM   14  C   UNL     1      -8.156   7.124  68.557  1.00  0.00    -0.125 C  
HETATM   15  C   UNL     1      -9.924   5.806  67.143  1.00  0.00    -0.186 C  
HETATM   16  C   UNL     1      -7.346   7.675  67.336  1.00  0.00    -0.092 C  
HETATM   17  C   UNL     1      -8.151   8.194  66.126  1.00  0.00    -0.109 C  
HETATM   18  C   UNL     1      -8.732   9.593  66.210  1.00  0.00    -0.156 C  
HETATM   19  C   UNL     1      -7.822  10.631  66.840  1.00  0.00    -0.121 C  
HETATM   20  C   UNL     1      -6.710  10.089  67.687  1.00  0.00    -0.075 C  
ENDROOT
BRANCH   4  21
HETATM   21  C   UNL     1      -7.728   3.541  70.352  1.00  0.00    -0.044 C  
HETATM   22  C   UNL     1      -6.974   2.628  70.559  1.00  0.00    -0.033 C  
ENDBRANCH   4  21
BRANCH   7  23
HETATM   23  C   UNL     1     -10.268   4.067  71.849  1.00  0.00    -0.160 C  
HETATM   24  C   UNL     1      -9.495   2.765  72.034  1.00  0.00    -0.197 C  
ENDBRANCH   7  23
TORSDOF 2
ENDMDL
MODEL      119
REMARK 921   NORMALIZED FREE ENERGY PREDICTED BY IDOCK:   -0.12 KCAL/MOL
REMARK 922        TOTAL FREE ENERGY PREDICTED BY IDOCK:   -0.36 KCAL/MOL
REMARK 923 INTER-LIGAND FREE ENERGY PREDICTED BY IDOCK:   -1.43 KCAL/MOL
REMARK 924 INTRA-LIGAND FREE ENERGY PREDICTED BY IDOCK:    1.07 KCAL/MOL
REMARK 927      BINDING AFFINITY PREDICTED BY RF-SCORE:    0.00 PKD
ROOT
HETATM    1  C   UNL     1     -11.443  14.604  69.059  1.00  0.00    -0.317 C  
HETATM    2  C   UNL     1     -12.106  14.728  67.814  1.00  0.00    -0.141 C  
HETATM    3  C   UNL     1     -12.282  13.457  68.567  1.00  0.00    -0.132 C  
HETATM    4  C   UNL     1     -11.686  13.521  70.535  1.00  0.00    -0.066 C  
HETATM    5  C   UNL     1      -7.961  12.841  67.345  1.00  0.00    -0.179 C  
HETATM    6  O   UNL     1     -12.079  12.745  71.687  1.00  0.00     0.055 OA 
HETATM    7  C   UNL     1     -12.921  13.731  69.987  1.00  0.00     0.277 C  
HETATM    8  C   UNL     1     -13.029  11.844  69.837  1.00  0.00     0.697 C  
HETATM    9  C   UNL     1      -9.982  13.438  68.898  1.00  0.00     0.032 C  
HETATM   10  C   UNL     1      -8.381  11.392  67.423  1.00  0.00    -0.144 C  
HETATM   11  H   UNL     1     -11.804  12.775  72.595  1.00  0.00     0.000 HD 
HETATM   12  C   UNL     1     -11.490  11.145  69.844  1.00  0.00    -0.386 C  
HETATM   13  C   UNL     1      -9.085  13.830  67.695  1.00  0.00    -0.196 C  
HETATM   14  C   UNL     1     -10.329  11.717  68.880  1.00  0.00    -0.175 C  
HETATM   15  C   UNL     1     -11.268  10.292  70.867  1.00  0.00    -0.311 C  
HETATM   16  C   UNL     1      -8.960  10.965  68.771  1.00  0.00    -0.166 C  
HETATM   17  C   UNL     1      -8.984   9.426  68.890  1.00  0.00    -0.136 C  
HETATM   18  C   UNL     1      -9.375   8.628  67.661  1.00  0.00    -0.157 C  
HETATM   19  C   UNL     1      -8.804   9.140  66.351  1.00  0.00    -0.165 C  
HETATM   20  C   UNL     1      -8.337  10.565  66.362  1.00  0.00    -0.145 C  
ENDROOT
BRANCH   4  21
HETATM   21  C   UNL     1     -11.249  14.766  71.349  1.00  0.00    -0.011 C  
HETATM   22  C   UNL     1     -10.798  15.711  71.940  1.00  0.00     0.346 C  
ENDBRANCH   4  21
BRANCH   7  23
HETATM   23  C   UNL     1     -14.125  14.421  70.589  1.00  0.00     0.631 C  
HETATM   24  C   UNL     1     -14.209  14.156  72.089  1.00  0.00    -0.638 C  
ENDBRANCH   7  23
TORSDOF 2
ENDMDL
MODEL      120
REMARK 921   NORMALIZED FREE ENERGY PREDICTED BY IDOCK:    0.03 KCAL/MOL
REMARK 922        TOTAL FREE ENERGY PREDICTED BY IDOCK:   -0.19 KCAL/MOL
REMARK 923 INTER-LIGAND FREE ENERGY PREDICTED BY IDOCK:   -0.13 KCAL/MOL
REMARK 924 INTRA-LIGAND FREE ENERGY PREDICTED BY IDOCK:   -0.06 KCAL/MOL
REMARK 927      BINDING AFFINITY PREDICTED BY RF-SCORE:    0.00 PKD
ROOT
HETATM    1  C   UNL     1      -8.692  11.924  66.387  1.00  0.00    -0.118 C  
HETATM    2  C   UNL     1      -7.380  12.451  66.456  1.00  0.00     0.562 C  
HETATM    3  C   UNL     1      -8.218  12.519  67.685  1.00  0.00    -0.172 C  
HETATM    4  C   UNL     1      -9.906  11.344  67.653  1.00  0.00    -0.176 C  
HETATM    5  C   UNL     1     -10.429  15.653  65.271  1.00  0.00    -0.439 C  
HETATM    6  O   UNL     1     -10.696  10.764  68.712  1.00  0.00    -0.181 OA 
HETATM    7  C   UNL     1      -8.659  11.071  68.142  1.00  0.00    -0.140 C  
HETATM    8  C   UNL     1      -9.150  12.146  69.624  1.00  0.00     1.816 C  
HETATM    9  C   UNL     1      -9.946  13.319  66.353  1.00  0.00    -0.288 C  
HETATM   10  C   UNL     1     -10.717  16.190  66.653  1.00  0.00    -0.226 C  
HETATM   11  H   UNL     1     -11.475  10.221  68.697  1.00  0.00     0.000 HD 
HETATM   12  C   UNL     1     -10.404  13.205  69.219  1.00  0.00     0.270 C  
HETATM   13  C   UNL     1      -9.584  14.368  65.270  1.00  0.00     0.099 C  
HETATM   14  C   UNL     1     -10.312  14.104  67.881  1.00  0.00    -0.234 C  
HETATM   15  C   UNL     1     -11.535  13.033  69.935  1.00  0.00    -0.151 C  
HETATM   16  C   UNL     1     -11.395  15.198  67.597  1.00  0.00    -0.327 C  
HETATM   17  C   UNL     1     -12.000  15.932  68.813  1.00  0.00    -0.167 C  
HETATM   18  C   UNL     1     -11.199  17.065  69.426  1.00  0.00     0.338 C  
HETATM   19  C   UNL     1     -10.511  17.980  68.429  1.00  0.00    -0.326 C  
HETATM   20  C   UNL     1     -10.323  17.413  67.053  1.00  0.00    -0.318 C  
ENDROOT
BRANCH   4  21
HETATM   21  C   UNL     1     -10.301  10.287  66.590  1.00  0.00    -0.283 C  
HETATM   22  C   UNL     1     -10.640   9.394  65.859  1.00  0.00     0.477 C  
ENDBRANCH   4  21
BRANCH   7  23
HETATM   23  C   UNL     1      -8.036   9.732  68.469  1.00  0.00    -0.089 C  
HETATM   24  C   UNL     1      -6.849   9.902  69.412  1.00  0.00    -0.060 C  
ENDBRANCH   7  23
TORSDOF 2
ENDMDL
MODEL      121
REMARK 921   NORMALIZED FREE ENERGY PREDICTED BY IDOCK:    1.43 KCAL/MOL
REMARK 922        TOTAL FREE ENERGY PREDICTED BY IDOCK:    1.37 KCAL/MOL
REMARK 923 INTER-LIGAND FREE ENERGY PREDICTED BY IDOCK:    0.55 KCAL/MOL
REMARK 924 INTRA-LIGAND FREE ENERGY PREDICTED BY IDOCK:    0.82 KCAL/MOL
REMARK 927      BINDING AFFINITY PREDICTED BY RF-SCORE:    0.00 PKD
ROOT
HETATM    1  C   UNL     1     -10.153  15.654  66.379  1.00  0.00    -0.301 C  
HETATM    2  C   UNL     1      -8.798  15.740  66.781  1.00  0.00    -0.299 C  
HETATM    3  C   UNL     1      -9.570  14.539  67.203  1.00  0.00    -0.233 C  
HETATM    4  C   UNL     1     -11.353  14.259  66.217  1.00  0.00    -0.346 C  
HETATM    5  C   UNL     1     -11.610  17.547  69.909  1.00  0.00     2.598 C  
HETATM    6  O   UNL     1     -12.141  13.075  65.967  1.00  0.00    -0.415 OA 
HETATM    7  C   UNL     1     -10.113  13.752  65.943  1.00  0.00    -0.325 C  
HETATM    8  C   UNL     1     -10.440  12.542  67.366  1.00  0.00    -0.231 C  
HETATM    9  C   UNL     1     -11.282  15.973  67.843  1.00  0.00    -0.276 C  
HETATM   10  C   UNL     1     -11.786  16.316  70.768  1.00  0.00    -0.148 C  
HETATM   11  H   UNL     1     -12.964  12.946  65.511  1.00  0.00     0.000 HD 
HETATM   12  C   UNL     1     -11.614  13.147  68.421  1.00  0.00    -0.372 C  
HETATM   13  C   UNL     1     -10.881  17.276  68.582  1.00  0.00    -0.199 C  
HETATM   14  C   UNL     1     -11.507  14.656  68.983  1.00  0.00    -0.317 C  
HETATM   15  C   UNL     1     -12.722  12.381  68.522  1.00  0.00     1.490 C  
HETATM   16  C   UNL     1     -12.503  15.155  70.083  1.00  0.00    -0.361 C  
HETATM   17  C   UNL     1     -12.985  14.123  71.125  1.00  0.00    -0.419 C  
HETATM   18  C   UNL     1     -12.061  13.806  72.286  1.00  0.00     0.530 C  
HETATM   19  C   UNL     1     -11.344  15.002  72.883  1.00  0.00     0.089 C  
HETATM   20  C   UNL     1     -11.269  16.217  72.007  1.00  0.00     0.112 C  
ENDROOT
BRANCH   4  21
HETATM   21  C   UNL     1     -11.887  15.041  64.990  1.00  0.00    -0.244 C  
HETATM   22  C   UNL     1     -12.338  15.734  64.117  1.00  0.00     0.245 C  
ENDBRANCH   4  21
BRANCH   7  23
HETATM   23  C   UNL     1      -9.594  13.144  64.659  1.00  0.00     0.343 C  
HETATM   24  C   UNL     1     -10.415  11.920  64.268  1.00  0.00    -0.370 C  
ENDBRANCH   7  23
TORSDOF 2
ENDMDL
MODEL      122
REMARK 921   NORMALIZED FREE ENERGY PREDICTED BY IDOCK:    2.11 KCAL/MOL
REMARK 922        TOTAL FREE ENERGY PREDICTED BY IDOCK:    2.13 KCAL/MOL
REMARK 923 INTER-LIGAND FREE ENERGY PREDICTED BY IDOCK:    0.24 KCAL/MOL
REMARK 924 INTRA-LIGAND FREE ENERGY PREDICTED BY IDOCK:    1.90 KCAL/MOL
REMARK 927      BINDING AFFINITY PREDICTED BY RF-SCORE:    0.00 PKD
ROOT
HETATM    1  C   UNL     1      -9.794  11.065  66.114  1.00  0.00    -0.268 C  
HETATM    2  C   UNL     1     -10.900  10.527  66.815  1.00  0.00    -0.209 C  
HETATM    3  C   UNL     1     -11.069  11.861  66.175  1.00  0.00    -0.374 C  
HETATM    4  C   UNL     1      -9.614  12.363  64.811  1.00  0.00     0.140 C  
HETATM    5  C   UNL     1      -8.291  13.144  69.518  1.00  0.00     1.309 C  
HETATM    6  O   UNL     1      -9.619  13.264  63.684  1.00  0.00    -0.203 OA 
HETATM    7  C   UNL     1     -10.829  11.767  64.615  1.00  0.00    -0.363 C  
HETATM    8  C   UNL     1     -11.564  13.503  64.823  1.00  0.00    -0.372 C  
HETATM    9  C   UNL     1      -9.025  12.464  67.099  1.00  0.00    -0.195 C  
HETATM   10  C   UNL     1      -9.040  14.444  69.336  1.00  0.00     0.308 C  
HETATM   11  H   UNL     1      -8.947  13.495  63.054  1.00  0.00     0.000 HD 
HETATM   12  C   UNL     1     -10.508  14.513  65.672  1.00  0.00    -0.351 C  
HETATM   13  C   UNL     1      -8.746  12.030  68.561  1.00  0.00    -0.095 C  
HETATM   14  C   UNL     1      -9.842  14.018  67.057  1.00  0.00    -0.260 C  
HETATM   15  C   UNL     1     -10.093  15.596  64.981  1.00  0.00    -0.102 C  
HETATM   16  C   UNL     1      -8.997  15.014  67.920  1.00  0.00    -0.175 C  
HETATM   17  C   UNL     1      -9.428  16.497  67.918  1.00  0.00    -0.220 C  
HETATM   18  C   UNL     1     -10.584  16.899  68.815  1.00  0.00    -0.355 C  
HETATM   19  C   UNL     1     -10.588  16.254  70.188  1.00  0.00    -0.183 C  
HETATM   20  C   UNL     1      -9.765  15.007  70.321  1.00  0.00     0.393 C  
ENDROOT
BRANCH   4  21
HETATM   21  C   UNL     1      -8.485  11.456  64.258  1.00  0.00     0.634 C  
HETATM   22  C   UNL     1      -7.551  10.771  63.935  1.00  0.00     0.315 C  
ENDBRANCH   4  21
BRANCH   7  23
HETATM   23  C   UNL     1     -11.320  10.974  63.425  1.00  0.00     0.449 C  
HETATM   24  C   UNL     1     -10.152  10.334  62.681  1.00  0.00     0.413 C  
ENDBRANCH   7  23
TORSDOF 2
ENDMDL
MODEL      123
REMARK 921   NORMALIZED FREE ENERGY PREDICTED BY IDOCK:    2.12 KCAL/MOL
REMARK 922        TOTAL FREE ENERGY PREDICTED BY IDOCK:    2.14 KCAL/MOL
REMARK 923 INTER-LIGAND FREE ENERGY PREDICTED BY IDOCK:    0.95 KCAL/MOL
REMARK 924 INTRA-LIGAND FREE ENERGY PREDICTED BY IDOCK:    1.19 KCAL/MOL
REMARK 927      BINDING AFFINITY PREDICTED BY RF-SCORE:    0.00 PKD
ROOT
HETATM    1  C   UNL     1      -8.631  18.269  65.235  1.00  0.00     1.921 C  
HETATM    2  C   UNL     1      -9.849  18.991  65.220  1.00  0.00     1.300 C  
HETATM    3  C   UNL     1      -9.162  18.820  66.530  1.00  0.00    -0.336 C  
HETATM    4  C   UNL     1      -7.210  18.181  66.413  1.00  0.00    -0.247 C  
HETATM    5  C   UNL     1     -10.532  14.532  66.002  1.00  0.00    -0.315 C  
HETATM    6  O   UNL     1      -6.093  18.326  67.314  1.00  0.00    -0.157 OA 
HETATM    7  C   UNL     1      -7.712  19.451  66.488  1.00  0.00    -0.290 C  
HETATM    8  C   UNL     1      -7.963  19.098  68.334  1.00  0.00    -0.376 C  
HETATM    9  C   UNL     1      -8.894  16.575  65.995  1.00  0.00    -0.267 C  
HETATM   10  C   UNL     1     -10.522  14.581  67.512  1.00  0.00    -0.253 C  
HETATM   11  H   UNL     1      -5.192  18.031  67.260  1.00  0.00     0.000 HD 
HETATM   12  C   UNL     1      -8.036  17.436  68.632  1.00  0.00    -0.264 C  
HETATM   13  C   UNL     1     -10.098  15.850  65.338  1.00  0.00    -0.296 C  
HETATM   14  C   UNL     1      -8.998  16.490  67.746  1.00  0.00    -0.202 C  
HETATM   15  C   UNL     1      -7.068  16.972  69.451  1.00  0.00    -0.113 C  
HETATM   16  C   UNL     1      -9.185  14.984  68.131  1.00  0.00    -0.183 C  
HETATM   17  C   UNL     1      -9.151  14.624  69.632  1.00  0.00     0.321 C  
HETATM   18  C   UNL     1     -10.411  14.857  70.444  1.00  0.00     0.168 C  
HETATM   19  C   UNL     1     -11.705  14.481  69.746  1.00  0.00    -0.356 C  
HETATM   20  C   UNL     1     -11.628  14.377  68.251  1.00  0.00    -0.359 C  
ENDROOT
BRANCH   4  21
HETATM   21  C   UNL     1      -6.340  18.031  65.138  1.00  0.00     0.143 C  
HETATM   22  C   UNL     1      -5.770  17.916  64.086  1.00  0.00     1.433 C  
ENDBRANCH   4  21
BRANCH   7  23
HETATM   23  C   UNL     1      -7.042  20.762  66.146  1.00  0.00    -0.107 C  
HETATM   24  C   UNL     1      -5.541  20.688  66.407  1.00  0.00    -0.216 C  
ENDBRANCH   7  23
TORSDOF 2
ENDMDL
MODEL      124
REMARK 921   NORMALIZED FREE ENERGY PREDICTED BY IDOCK:    3.11 KCAL/MOL
REMARK 922        TOTAL FREE ENERGY PREDICTED BY IDOCK:    3.25 KCAL/MOL
REMARK 923 INTER-LIGAND FREE ENERGY PREDICTED BY IDOCK:    2.21 KCAL/MOL
REMARK 924 INTRA-LIGAND FREE ENERGY PREDICTED BY IDOCK:    1.04 KCAL/MOL
REMARK 927      BINDING AFFINITY PREDICTED BY RF-SCORE:    0.00 PKD
ROOT
HETATM    1  C   UNL     1     -12.185  15.668  69.694  1.00  0.00    -0.264 C  
HETATM    2  C   UNL     1     -13.257  16.089  68.870  1.00  0.00     2.817 C  
HETATM    3  C   UNL     1     -12.986  14.628  68.959  1.00  0.00     1.114 C  
HETATM    4  C   UNL     1     -11.744  14.065  70.499  1.00  0.00    -0.192 C  
HETATM    5  C   UNL     1      -9.341  15.772  66.521  1.00  0.00    -0.312 C  
HETATM    6  O   UNL     1     -11.597  12.820  71.213  1.00  0.00     0.393 OA 
HETATM    7  C   UNL     1     -13.109  14.126  70.453  1.00  0.00    -0.033 C  
HETATM    8  C   UNL     1     -13.015  12.506  69.474  1.00  0.00     1.268 C  
HETATM    9  C   UNL     1     -10.737  15.117  68.636  1.00  0.00    -0.239 C  
HETATM   10  C   UNL     1      -9.511  14.357  66.020  1.00  0.00    -0.239 C  
HETATM   11  H   UNL     1     -11.024  12.560  71.924  1.00  0.00     0.000 HD 
HETATM   12  C   UNL     1     -11.496  12.317  68.755  1.00  0.00    -0.360 C  
HETATM   13  C   UNL     1     -10.386  16.187  67.570  1.00  0.00    -0.286 C  
HETATM   14  C   UNL     1     -10.839  13.522  67.907  1.00  0.00    -0.262 C  
HETATM   15  C   UNL     1     -10.816  11.225  69.165  1.00  0.00    -0.269 C  
HETATM   16  C   UNL     1      -9.512  13.287  67.110  1.00  0.00    -0.240 C  
HETATM   17  C   UNL     1      -9.290  11.888  66.498  1.00  0.00    -0.222 C  
HETATM   18  C   UNL     1      -9.984  11.571  65.187  1.00  0.00    -0.304 C  
HETATM   19  C   UNL     1      -9.988  12.698  64.171  1.00  0.00    -0.196 C  
HETATM   20  C   UNL     1      -9.739  14.069  64.725  1.00  0.00     0.365 C  
ENDROOT
BRANCH   4  21
HETATM   21  C   UNL     1     -11.214  14.951  71.657  1.00  0.00    -0.082 C  
HETATM   22  C   UNL     1     -10.919  15.668  72.576  1.00  0.00     0.579 C  
ENDBRANCH   4  21
BRANCH   7  23
HETATM   23  C   UNL     1     -14.100  14.156  71.595  1.00  0.00    -0.431 C  
HETATM   24  C   UNL     1     -13.689  13.184  72.697  1.00  0.00    -0.394 C  
ENDBRANCH   7  23
TORSDOF 2
ENDMDL
MODEL      125
REMARK 921   NORMALIZED FREE ENERGY PREDICTED BY IDOCK:    4.47 KCAL/MOL
REMARK 922        TOTAL FREE ENERGY PREDICTED BY IDOCK:    4.77 KCAL/MOL
REMARK 923 INTER-LIGAND FREE ENERGY PREDICTED BY IDOCK:    4.93 KCAL/MOL
REMARK 924 INTRA-LIGAND FREE ENERGY PREDICTED BY IDOCK:   -0.16 KCAL/MOL
REMARK 927      BINDING AFFINITY PREDICTED BY RF-SCORE:    0.00 PKD
ROOT
HETATM    1  C   UNL     1     -10.487   8.148  68.516  1.00  0.00    -0.199 C  
HETATM    2  C   UNL     1     -11.696   7.813  67.859  1.00  0.00     1.879 C  
HETATM    3  C   UNL     1     -11.101   9.147  67.574  1.00  0.00     0.191 C  
HETATM    4  C   UNL     1      -9.150   9.379  68.185  1.00  0.00    -0.127 C  
HETATM    5  C   UNL     1     -12.463   9.989  71.814  1.00  0.00    -0.475 C  
HETATM    6  O   UNL     1      -8.095  10.253  67.730  1.00  0.00    -0.102 OA 
HETATM    7  C   UNL     1      -9.647   8.994  66.970  1.00  0.00    -0.231 C  
HETATM    8  C   UNL     1     -10.024  10.831  66.692  1.00  0.00    -0.251 C  
HETATM    9  C   UNL     1     -10.814   9.410  69.865  1.00  0.00    -0.259 C  
HETATM   10  C   UNL     1     -12.554  11.393  71.265  1.00  0.00    -0.480 C  
HETATM   11  H   UNL     1      -7.195  10.359  68.012  1.00  0.00     0.000 HD 
HETATM   12  C   UNL     1     -10.129  11.660  68.161  1.00  0.00    -0.202 C  
HETATM   13  C   UNL     1     -11.975   8.954  70.786  1.00  0.00    -0.184 C  
HETATM   14  C   UNL     1     -11.036  11.078  69.363  1.00  0.00    -0.301 C  
HETATM   15  C   UNL     1      -9.222  12.648  68.311  1.00  0.00    -0.184 C  
HETATM   16  C   UNL     1     -11.259  11.929  70.658  1.00  0.00     1.119 C  
HETATM   17  C   UNL     1     -11.329  13.463  70.497  1.00  0.00     0.486 C  
HETATM   18  C   UNL     1     -12.640  14.066  70.027  1.00  0.00    -0.250 C  
HETATM   19  C   UNL     1     -13.886  13.449  70.634  1.00  0.00     1.267 C  
HETATM   20  C   UNL     1     -13.710  12.084  71.229  1.00  0.00     0.968 C  
ENDROOT
BRANCH   4  21
HETATM   21  C   UNL     1      -8.197   8.287  68.737  1.00  0.00    -0.117 C  
HETATM   22  C   UNL     1      -7.422   7.423  69.050  1.00  0.00    -0.100 C  
ENDBRANCH   4  21
BRANCH   7  23
HETATM   23  C   UNL     1      -8.945   8.279  65.837  1.00  0.00    -0.208 C  
HETATM   24  C   UNL     1      -9.875   8.121  64.638  1.00  0.00     2.690 C  
ENDBRANCH   7  23
TORSDOF 2
ENDMDL
MODEL      126
REMARK 921   NORMALIZED FREE ENERGY PREDICTED BY IDOCK:    6.26 KCAL/MOL
REMARK 922        TOTAL FREE ENERGY PREDICTED BY IDOCK:    6.77 KCAL/MOL
REMARK 923 INTER-LIGAND FREE ENERGY PREDICTED BY IDOCK:    6.63 KCAL/MOL
REMARK 924 INTRA-LIGAND FREE ENERGY PREDICTED BY IDOCK:    0.14 KCAL/MOL
REMARK 927      BINDING AFFINITY PREDICTED BY RF-SCORE:    0.00 PKD
ROOT
HETATM    1  C   UNL     1     -10.357   7.987  73.612  1.00  0.00     0.440 C  
HETATM    2  C   UNL     1     -11.039   9.213  73.418  1.00  0.00     3.702 C  
HETATM    3  C   UNL     1     -10.369   8.600  72.238  1.00  0.00    -0.376 C  
HETATM    4  C   UNL     1      -9.808   6.636  72.478  1.00  0.00    -0.165 C  
HETATM    5  C   UNL     1      -6.630   9.874  74.461  1.00  0.00     0.865 C  
HETATM    6  O   UNL     1      -9.583   5.575  71.526  1.00  0.00    -0.146 OA 
HETATM    7  C   UNL     1     -10.954   7.160  71.947  1.00  0.00    -0.262 C  
HETATM    8  C   UNL     1      -9.918   7.512  70.399  1.00  0.00    -0.184 C  
HETATM    9  C   UNL     1      -8.502   8.269  73.582  1.00  0.00    -0.266 C  
HETATM   10  C   UNL     1      -6.091   9.951  73.052  1.00  0.00     0.869 C  
HETATM   11  H   UNL     1      -9.325   4.668  71.637  1.00  0.00     0.000 HD 
HETATM   12  C   UNL     1      -8.270   7.577  70.772  1.00  0.00    -0.110 C  
HETATM   13  C   UNL     1      -8.098   9.421  74.538  1.00  0.00     1.810 C  
HETATM   14  C   UNL     1      -7.748   8.472  72.009  1.00  0.00    -0.141 C  
HETATM   15  C   UNL     1      -7.517   6.651  70.140  1.00  0.00    -0.094 C  
HETATM   16  C   UNL     1      -6.212   8.658  72.248  1.00  0.00    -0.076 C  
HETATM   17  C   UNL     1      -5.300   8.706  71.003  1.00  0.00    -0.028 C  
HETATM   18  C   UNL     1      -5.211  10.014  70.241  1.00  0.00    -0.039 C  
HETATM   19  C   UNL     1      -5.146  11.260  71.104  1.00  0.00    -0.112 C  
HETATM   20  C   UNL     1      -5.627  11.096  72.516  1.00  0.00     1.040 C  
ENDROOT
BRANCH   4  21
HETATM   21  C   UNL     1     -10.155   5.692  73.658  1.00  0.00    -0.209 C  
HETATM   22  C   UNL     1     -10.364   4.872  74.512  1.00  0.00    -0.324 C  
ENDBRANCH   4  21
BRANCH   7  23
HETATM   23  C   UNL     1     -12.290   6.491  71.716  1.00  0.00    -0.340 C  
HETATM   24  C   UNL     1     -13.334   7.012  72.699  1.00  0.00     0.780 C  
ENDBRANCH   7  23
TORSDOF 2
ENDMDL
MODEL      127
REMARK 921   NORMALIZED FREE ENERGY PREDICTED BY IDOCK:    7.05 KCAL/MOL
REMARK 922        TOTAL FREE ENERGY PREDICTED BY IDOCK:    7.65 KCAL/MOL
REMARK 923 INTER-LIGAND FREE ENERGY PREDICTED BY IDOCK:    7.82 KCAL/MOL
REMARK 924 INTRA-LIGAND FREE ENERGY PREDICTED BY IDOCK:   -0.17 KCAL/MOL
REMARK 927      BINDING AFFINITY PREDICTED BY RF-SCORE:    0.00 PKD
ROOT
HETATM    1  C   UNL     1      -9.142  14.919  65.366  1.00  0.00     0.853 C  
HETATM    2  C   UNL     1      -8.473  13.783  64.849  1.00  0.00     4.943 C  
HETATM    3  C   UNL     1      -9.210  13.628  66.134  1.00  0.00    -0.009 C  
HETATM    4  C   UNL     1     -10.516  15.154  66.579  1.00  0.00    -0.291 C  
HETATM    5  C   UNL     1      -5.801  16.172  67.698  1.00  0.00    -0.174 C  
HETATM    6  O   UNL     1     -11.699  15.200  67.403  1.00  0.00    -0.306 OA 
HETATM    7  C   UNL     1     -10.743  13.964  65.943  1.00  0.00    -0.286 C  
HETATM    8  C   UNL     1     -10.697  13.185  67.671  1.00  0.00    -0.250 C  
HETATM    9  C   UNL     1      -8.209  15.600  66.844  1.00  0.00    -0.288 C  
HETATM   10  C   UNL     1      -6.114  15.411  68.966  1.00  0.00    -0.104 C  
HETATM   11  H   UNL     1     -12.302  15.904  67.608  1.00  0.00     0.000 HD 
HETATM   12  C   UNL     1      -9.855  14.168  68.759  1.00  0.00    -0.168 C  
HETATM   13  C   UNL     1      -6.707  15.797  66.513  1.00  0.00     0.977 C  
HETATM   14  C   UNL     1      -8.404  14.757  68.372  1.00  0.00    -0.154 C  
HETATM   15  C   UNL     1     -10.592  14.603  69.804  1.00  0.00    -0.071 C  
HETATM   16  C   UNL     1      -7.561  15.529  69.442  1.00  0.00    -0.225 C  
HETATM   17  C   UNL     1      -7.687  15.071  70.911  1.00  0.00     1.791 C  
HETATM   18  C   UNL     1      -6.891  13.855  71.344  1.00  0.00     1.920 C  
HETATM   19  C   UNL     1      -5.479  13.779  70.791  1.00  0.00    -0.167 C  
HETATM   20  C   UNL     1      -5.215  14.616  69.575  1.00  0.00    -0.087 C  
ENDROOT
BRANCH   4  21
HETATM   21  C   UNL     1     -10.938  16.332  65.664  1.00  0.00    -0.109 C  
HETATM   22  C   UNL     1     -11.377  17.237  65.005  1.00  0.00     0.721 C  
ENDBRANCH   4  21
BRANCH   7  23
HETATM   23  C   UNL     1     -11.905  13.562  65.062  1.00  0.00    -0.377 C  
HETATM   24  C   UNL     1     -11.852  12.071  64.742  1.00  0.00    -0.325 C  
ENDBRANCH   7  23
TORSDOF 2
ENDMDL
MODEL      128
REMARK 921   NORMALIZED FREE ENERGY PREDICTED BY IDOCK:    7.10 KCAL/MOL
REMARK 922        TOTAL FREE ENERGY PREDICTED BY IDOCK:    7.71 KCAL/MOL
REMARK 923 INTER-LIGAND FREE ENERGY PREDICTED BY IDOCK:    7.47 KCAL/MOL
REMARK 924 INTRA-LIGAND FREE ENERGY PREDICTED BY IDOCK:    0.24 KCAL/MOL
REMARK 927      BINDING AFFINITY PREDICTED BY RF-SCORE:    0.00 PKD
ROOT
HETATM    1  C   UNL     1     -11.258  15.210  68.201  1.00  0.00    -0.326 C  
HETATM    2  C   UNL     1     -12.509  14.788  67.690  1.00  0.00     0.436 C  
HETATM    3  C   UNL     1     -11.653  13.767  68.355  1.00  0.00    -0.369 C  
HETATM    4  C   UNL     1     -10.093  14.525  69.461  1.00  0.00     0.091 C  
HETATM    5  C   UNL     1      -9.164  14.290  64.604  1.00  0.00     2.515 C  
HETATM    6  O   UNL     1      -9.353  13.987  70.578  1.00  0.00     1.870 OA 
HETATM    7  C   UNL     1     -11.356  14.175  69.853  1.00  0.00    -0.232 C  
HETATM    8  C   UNL     1     -10.740  12.384  69.778  1.00  0.00     0.570 C  
HETATM    9  C   UNL     1      -9.869  14.580  67.108  1.00  0.00    -0.245 C  
HETATM   10  C   UNL     1      -8.807  12.855  64.912  1.00  0.00     1.851 C  
HETATM   11  H   UNL     1      -8.634  14.338  71.088  1.00  0.00     0.000 HD 
HETATM   12  C   UNL     1      -9.390  12.247  68.769  1.00  0.00     0.093 C  
HETATM   13  C   UNL     1     -10.135  14.917  65.618  1.00  0.00    -0.387 C  
HETATM   14  C   UNL     1      -9.407  12.895  67.292  1.00  0.00    -0.212 C  
HETATM   15  C   UNL     1      -8.274  11.805  69.387  1.00  0.00     0.634 C  
HETATM   16  C   UNL     1      -8.222  12.626  66.305  1.00  0.00     0.584 C  
HETATM   17  C   UNL     1      -7.531  11.248  66.384  1.00  0.00    -0.064 C  
HETATM   18  C   UNL     1      -8.205  10.078  65.693  1.00  0.00    -0.143 C  
HETATM   19  C   UNL     1      -8.808  10.392  64.336  1.00  0.00    -0.223 C  
HETATM   20  C   UNL     1      -9.070  11.843  64.064  1.00  0.00     0.444 C  
ENDROOT
BRANCH   4  21
HETATM   21  C   UNL     1      -9.821  16.009  69.816  1.00  0.00    -0.126 C  
HETATM   22  C   UNL     1      -9.712  17.156  70.158  1.00  0.00     1.387 C  
ENDBRANCH   4  21
BRANCH   7  23
HETATM   23  C   UNL     1     -12.108  14.569  71.105  1.00  0.00    -0.408 C  
HETATM   24  C   UNL     1     -13.185  15.601  70.789  1.00  0.00    -0.270 C  
ENDBRANCH   7  23
TORSDOF 2
ENDMDL
MODEL      129
REMARK 921   NORMALIZED FREE ENERGY PREDICTED BY IDOCK:    7.16 KCAL/MOL
REMARK 922        TOTAL FREE ENERGY PREDICTED BY IDOCK:    7.77 KCAL/MOL
REMARK 923 INTER-LIGAND FREE ENERGY PREDICTED BY IDOCK:    7.63 KCAL/MOL
REMARK 924 INTRA-LIGAND FREE ENERGY PREDICTED BY IDOCK:    0.14 KCAL/MOL
REMARK 927      BINDING AFFINITY PREDICTED BY RF-SCORE:    0.00 PKD
ROOT
HETATM    1  C   UNL     1      -7.245  11.724  70.900  1.00  0.00     3.656 C  
HETATM    2  C   UNL     1      -6.084  11.820  71.704  1.00  0.00     1.665 C  
HETATM    3  C   UNL     1      -5.955  11.151  70.380  1.00  0.00    -0.144 C  
HETATM    4  C   UNL     1      -7.534  11.453  69.096  1.00  0.00    -0.057 C  
HETATM    5  C   UNL     1      -8.348   7.914  72.461  1.00  0.00    -0.191 C  
HETATM    6  O   UNL     1      -7.627  11.408  67.656  1.00  0.00    -0.100 OA 
HETATM    7  C   UNL     1      -6.357  12.140  69.213  1.00  0.00    -0.103 C  
HETATM    8  C   UNL     1      -5.571  10.688  68.280  1.00  0.00    -0.039 C  
HETATM    9  C   UNL     1      -7.882   9.959  70.895  1.00  0.00     0.514 C  
HETATM   10  C   UNL     1      -7.598   7.043  71.480  1.00  0.00    -0.089 C  
HETATM   11  H   UNL     1      -8.355  11.548  67.064  1.00  0.00     0.000 HD 
HETATM   12  C   UNL     1      -6.514   9.292  68.422  1.00  0.00    -0.054 C  
HETATM   13  C   UNL     1      -8.016   9.410  72.339  1.00  0.00     1.336 C  
HETATM   14  C   UNL     1      -7.043   8.808  69.868  1.00  0.00    -0.051 C  
HETATM   15  C   UNL     1      -6.976   8.809  67.249  1.00  0.00    -0.075 C  
HETATM   16  C   UNL     1      -7.775   7.431  70.014  1.00  0.00    -0.095 C  
HETATM   17  C   UNL     1      -7.318   6.283  69.089  1.00  0.00    -0.089 C  
HETATM   18  C   UNL     1      -6.068   5.516  69.478  1.00  0.00    -0.021 C  
HETATM   19  C   UNL     1      -5.935   5.210  70.958  1.00  0.00    -0.021 C  
HETATM   20  C   UNL     1      -6.764   6.061  71.873  1.00  0.00    -0.064 C  
ENDROOT
BRANCH   4  21
HETATM   21  C   UNL     1      -8.731  12.419  69.282  1.00  0.00     0.907 C  
HETATM   22  C   UNL     1      -9.581  13.261  69.405  1.00  0.00     0.933 C  
ENDBRANCH   4  21
BRANCH   7  23
HETATM   23  C   UNL     1      -6.007  13.522  68.709  1.00  0.00    -0.084 C  
HETATM   24  C   UNL     1      -5.594  14.431  69.863  1.00  0.00    -0.103 C  
ENDBRANCH   7  23
TORSDOF 2
ENDMDL
MODEL      130
REMARK 921   NORMALIZED FREE ENERGY PREDICTED BY IDOCK:   14.76 KCAL/MOL
REMARK 922        TOTAL FREE ENERGY PREDICTED BY IDOCK:   16.27 KCAL/MOL
REMARK 923 INTER-LIGAND FREE ENERGY PREDICTED BY IDOCK:   14.97 KCAL/MOL
REMARK 924 INTRA-LIGAND FREE ENERGY PREDICTED BY IDOCK:    1.30 KCAL/MOL
REMARK 927      BINDING AFFINITY PREDICTED BY RF-SCORE:    0.00 PKD
ROOT
HETATM    1  C   UNL     1     -10.100  12.678  64.357  1.00  0.00    -0.281 C  
HETATM    2  C   UNL     1      -9.318  13.720  63.801  1.00  0.00     4.630 C  
HETATM    3  C   UNL     1      -9.072  13.353  65.223  1.00  0.00     1.059 C  
HETATM    4  C   UNL     1      -9.895  11.563  65.815  1.00  0.00    -0.234 C  
HETATM    5  C   UNL     1     -13.108  15.330  65.801  1.00  0.00     1.536 C  
HETATM    6  O   UNL     1      -9.543  10.643  66.870  1.00  0.00    -0.166 OA 
HETATM    7  C   UNL     1      -8.641  11.836  65.342  1.00  0.00     0.459 C  
HETATM    8  C   UNL     1      -8.279  12.512  67.076  1.00  0.00    -0.125 C  
HETATM    9  C   UNL     1     -11.373  13.388  65.538  1.00  0.00    -0.310 C  
HETATM   10  C   UNL     1     -12.520  15.616  67.164  1.00  0.00     1.609 C  
HETATM   11  H   UNL     1      -9.923   9.817  67.143  1.00  0.00     0.000 HD 
HETATM   12  C   UNL     1      -9.708  12.939  67.873  1.00  0.00    -0.218 C  
HETATM   13  C   UNL     1     -12.167  14.543  64.874  1.00  0.00    -0.409 C  
HETATM   14  C   UNL     1     -10.812  13.855  67.135  1.00  0.00    -0.288 C  
HETATM   15  C   UNL     1      -9.937  12.254  69.014  1.00  0.00     0.167 C  
HETATM   16  C   UNL     1     -12.053  14.381  67.931  1.00  0.00    -0.280 C  
HETATM   17  C   UNL     1     -11.849  14.715  69.424  1.00  0.00    -0.368 C  
HETATM   18  C   UNL     1     -11.220  16.050  69.772  1.00  0.00    -0.344 C  
HETATM   19  C   UNL     1     -11.695  17.223  68.934  1.00  0.00     1.394 C  
HETATM   20  C   UNL     1     -12.337  16.867  67.626  1.00  0.00     2.517 C  
ENDROOT
BRANCH   4  21
HETATM   21  C   UNL     1     -10.577  10.496  64.922  1.00  0.00    -0.099 C  
HETATM   22  C   UNL     1     -10.995   9.618  64.214  1.00  0.00     4.510 C  
ENDBRANCH   4  21
BRANCH   7  23
HETATM   23  C   UNL     1      -7.612  10.888  64.769  1.00  0.00     0.374 C  
HETATM   24  C   UNL     1      -8.151  10.191  63.524  1.00  0.00    -0.162 C  
ENDBRANCH   7  23
TORSDOF 2
ENDMDL
MODEL      131
REMARK 921   NORMALIZED FREE ENERGY PREDICTED BY IDOCK:   18.19 KCAL/MOL
REMARK 922        TOTAL FREE ENERGY PREDICTED BY IDOCK:   20.10 KCAL/MOL
REMARK 923 INTER-LIGAND FREE ENERGY PREDICTED BY IDOCK:   18.41 KCAL/MOL
REMARK 924 INTRA-LIGAND FREE ENERGY PREDICTED BY IDOCK:    1.69 KCAL/MOL
REMARK 927      BINDING AFFINITY PREDICTED BY RF-SCORE:    0.00 PKD
ROOT
HETATM    1  C   UNL     1      -8.953  14.013  70.310  1.00  0.00     2.591 C  
HETATM    2  C   UNL     1     -10.326  14.245  70.567  1.00  0.00     1.247 C  
HETATM    3  C   UNL     1      -9.929  13.921  69.169  1.00  0.00     0.111 C  
HETATM    4  C   UNL     1      -8.032  13.155  68.958  1.00  0.00     0.281 C  
HETATM    5  C   UNL     1      -8.159  18.089  69.348  1.00  0.00     0.382 C  
HETATM    6  O   UNL     1      -7.438  12.316  67.945  1.00  0.00    -0.100 OA 
HETATM    7  C   UNL     1      -9.227  12.506  69.100  1.00  0.00     0.653 C  
HETATM    8  C   UNL     1      -9.517  12.918  67.273  1.00  0.00    -0.216 C  
HETATM    9  C   UNL     1      -8.214  15.473  69.391  1.00  0.00    -0.247 C  
HETATM   10  C   UNL     1      -8.447  18.031  67.865  1.00  0.00    -0.253 C  
HETATM   11  H   UNL     1      -6.562  11.962  67.848  1.00  0.00     0.000 HD 
HETATM   12  C   UNL     1      -8.573  14.235  66.789  1.00  0.00    -0.113 C  
HETATM   13  C   UNL     1      -8.548  16.808  70.104  1.00  0.00     2.077 C  
HETATM   14  C   UNL     1      -8.545  15.586  67.670  1.00  0.00    -0.175 C  
HETATM   15  C   UNL     1      -7.692  13.958  65.803  1.00  0.00     4.378 C  
HETATM   16  C   UNL     1      -7.801  16.856  67.134  1.00  0.00    -0.207 C  
HETATM   17  C   UNL     1      -7.811  17.093  65.609  1.00  0.00     0.609 C  
HETATM   18  C   UNL     1      -9.051  17.719  64.998  1.00  0.00     3.110 C  
HETATM   19  C   UNL     1      -9.667  18.846  65.805  1.00  0.00     0.184 C  
HETATM   20  C   UNL     1      -9.282  18.891  67.254  1.00  0.00    -0.308 C  
ENDROOT
BRANCH   4  21
HETATM   21  C   UNL     1      -7.057  12.723  70.084  1.00  0.00     1.176 C  
HETATM   22  C   UNL     1      -6.255  12.500  70.951  1.00  0.00     0.731 C  
ENDBRANCH   4  21
BRANCH   7  23
HETATM   23  C   UNL     1      -9.490  11.074  69.510  1.00  0.00     0.274 C  
HETATM   24  C   UNL     1      -8.507  10.629  70.588  1.00  0.00     2.221 C  
ENDBRANCH   7  23
TORSDOF 2
ENDMDL
MODEL      132
REMARK 921   NORMALIZED FREE ENERGY PREDICTED BY IDOCK:   19.21 KCAL/MOL
REMARK 922        TOTAL FREE ENERGY PREDICTED BY IDOCK:   21.23 KCAL/MOL
REMARK 923 INTER-LIGAND FREE ENERGY PREDICTED BY IDOCK:   21.00 KCAL/MOL
REMARK 924 INTRA-LIGAND FREE ENERGY PREDICTED BY IDOCK:    0.24 KCAL/MOL
REMARK 927      BINDING AFFINITY PREDICTED BY RF-SCORE:    0.00 PKD
ROOT
HETATM    1  C   UNL     1      -9.241  19.641  67.148  1.00  0.00    -0.419 C  
HETATM    2  C   UNL     1      -7.850  19.495  67.371  1.00  0.00    -0.291 C  
HETATM    3  C   UNL     1      -8.542  18.427  66.599  1.00  0.00    -0.289 C  
HETATM    4  C   UNL     1     -10.423  18.919  65.925  1.00  0.00    -0.391 C  
HETATM    5  C   UNL     1     -10.313  17.478  70.661  1.00  0.00     1.793 C  
HETATM    6  O   UNL     1     -11.210  18.427  64.821  1.00  0.00    -0.344 OA 
HETATM    7  C   UNL     1      -9.213  19.023  65.296  1.00  0.00     1.703 C  
HETATM    8  C   UNL     1      -9.347  17.152  65.018  1.00  0.00     2.371 C  
HETATM    9  C   UNL     1     -10.196  18.443  68.230  1.00  0.00    -0.412 C  
HETATM   10  C   UNL     1     -10.362  16.091  70.065  1.00  0.00    -0.204 C  
HETATM   11  H   UNL     1     -12.078  18.654  64.510  1.00  0.00     0.000 HD 
HETATM   12  C   UNL     1     -10.402  16.445  66.133  1.00  0.00    -0.354 C  
HETATM   13  C   UNL     1      -9.738  18.541  69.709  1.00  0.00     0.638 C  
HETATM   14  C   UNL     1     -10.260  16.767  67.708  1.00  0.00    -0.303 C  
HETATM   15  C   UNL     1     -11.474  15.838  65.581  1.00  0.00     0.191 C  
HETATM   16  C   UNL     1     -11.130  15.986  68.749  1.00  0.00    -0.338 C  
HETATM   17  C   UNL     1     -11.466  14.513  68.432  1.00  0.00    -0.328 C  
HETATM   18  C   UNL     1     -10.406  13.468  68.723  1.00  0.00    -0.169 C  
HETATM   19  C   UNL     1      -9.648  13.664  70.023  1.00  0.00     2.256 C  
HETATM   20  C   UNL     1      -9.702  15.047  70.601  1.00  0.00     0.954 C  
ENDROOT
BRANCH   4  21
HETATM   21  C   UNL     1     -11.112  20.306  65.979  1.00  0.00     0.457 C  
HETATM   22  C   UNL     1     -11.627  21.381  66.142  1.00  0.00     6.986 C  
ENDBRANCH   4  21
BRANCH   7  23
HETATM   23  C   UNL     1      -8.835  19.851  64.088  1.00  0.00     5.803 C  
HETATM   24  C   UNL     1      -7.938  21.017  64.489  1.00  0.00     1.689 C  
ENDBRANCH   7  23
TORSDOF 2
ENDMDL
MODEL      133
REMARK 921   NORMALIZED FREE ENERGY PREDICTED BY IDOCK:   20.64 KCAL/MOL
REMARK 922        TOTAL FREE ENERGY PREDICTED BY IDOCK:   22.83 KCAL/MOL
REMARK 923 INTER-LIGAND FREE ENERGY PREDICTED BY IDOCK:   22.72 KCAL/MOL
REMARK 924 INTRA-LIGAND FREE ENERGY PREDICTED BY IDOCK:    0.11 KCAL/MOL
REMARK 927      BINDING AFFINITY PREDICTED BY RF-SCORE:    0.00 PKD
ROOT
HETATM    1  C   UNL     1      -8.938  15.090  67.310  1.00  0.00    -0.212 C  
HETATM    2  C   UNL     1      -7.703  14.657  66.770  1.00  0.00     0.388 C  
HETATM    3  C   UNL     1      -7.908  14.504  68.236  1.00  0.00    -0.131 C  
HETATM    4  C   UNL     1      -9.854  14.716  68.870  1.00  0.00    -0.211 C  
HETATM    5  C   UNL     1      -7.508  19.017  68.151  1.00  0.00    -0.306 C  
HETATM    6  O   UNL     1     -10.548  14.217  70.033  1.00  0.00    -0.440 OA 
HETATM    7  C   UNL     1      -9.161  13.586  68.533  1.00  0.00    -0.101 C  
HETATM    8  C   UNL     1      -8.343  13.740  70.236  1.00  0.00     2.790 C  
HETATM    9  C   UNL     1      -8.699  16.688  68.264  1.00  0.00    -0.216 C  
HETATM   10  C   UNL     1      -6.984  18.771  69.546  1.00  0.00    -0.096 C  
HETATM   11  H   UNL     1     -11.446  14.315  70.325  1.00  0.00     0.000 HD 
HETATM   12  C   UNL     1      -8.436  15.326  70.815  1.00  0.00     2.068 C  
HETATM   13  C   UNL     1      -7.931  17.735  67.415  1.00  0.00    -0.221 C  
HETATM   14  C   UNL     1      -8.007  16.565  69.873  1.00  0.00     0.967 C  
HETATM   15  C   UNL     1      -9.118  15.460  71.972  1.00  0.00     5.870 C  
HETATM   16  C   UNL     1      -7.939  18.012  70.465  1.00  0.00     3.806 C  
HETATM   17  C   UNL     1      -7.505  18.157  71.939  1.00  0.00     8.207 C  
HETATM   18  C   UNL     1      -6.021  18.098  72.249  1.00  0.00     1.917 C  
HETATM   19  C   UNL     1      -5.129  18.832  71.265  1.00  0.00    -0.278 C  
HETATM   20  C   UNL     1      -5.737  19.111  69.923  1.00  0.00    -0.266 C  
ENDROOT
BRANCH   4  21
HETATM   21  C   UNL     1     -11.125  14.840  67.992  1.00  0.00    -0.294 C  
HETATM   22  C   UNL     1     -12.086  14.823  67.269  1.00  0.00    -0.120 C  
ENDBRANCH   4  21
BRANCH   7  23
HETATM   23  C   UNL     1      -9.691  12.217  68.171  1.00  0.00    -0.208 C  
HETATM   24  C   UNL     1      -9.096  11.736  66.851  1.00  0.00    -0.192 C  
ENDBRANCH   7  23
TORSDOF 2
ENDMDL
MODEL      134
REMARK 921   NORMALIZED FREE ENERGY PREDICTED BY IDOCK:   21.57 KCAL/MOL
REMARK 922        TOTAL FREE ENERGY PREDICTED BY IDOCK:   23.87 KCAL/MOL
REMARK 923 INTER-LIGAND FREE ENERGY PREDICTED BY IDOCK:   23.77 KCAL/MOL
REMARK 924 INTRA-LIGAND FREE ENERGY PREDICTED BY IDOCK:    0.10 KCAL/MOL
REMARK 927      BINDING AFFINITY PREDICTED BY RF-SCORE:    0.00 PKD
ROOT
HETATM    1  C   UNL     1     -10.173  12.000  70.126  1.00  0.00     2.189 C  
HETATM    2  C   UNL     1     -11.264  12.887  70.293  1.00  0.00     0.556 C  
HETATM    3  C   UNL     1     -10.489  12.976  69.025  1.00  0.00    -0.023 C  
HETATM    4  C   UNL     1      -9.238  11.385  68.656  1.00  0.00    -0.146 C  
HETATM    5  C   UNL     1      -7.345  14.726  71.781  1.00  0.00     2.953 C  
HETATM    6  O   UNL     1      -8.700  10.847  67.430  1.00  0.00    -0.129 OA 
HETATM    7  C   UNL     1     -10.526  11.599  68.248  1.00  0.00    -0.223 C  
HETATM    8  C   UNL     1      -9.782  12.783  66.967  1.00  0.00    -0.224 C  
HETATM    9  C   UNL     1      -8.554  12.929  70.311  1.00  0.00     4.683 C  
HETATM   10  C   UNL     1      -6.956  15.445  70.510  1.00  0.00     0.497 C  
HETATM   11  H   UNL     1      -8.123  10.112  67.260  1.00  0.00     0.000 HD 
HETATM   12  C   UNL     1      -8.252  13.317  67.449  1.00  0.00    -0.185 C  
HETATM   13  C   UNL     1      -8.540  13.774  71.611  1.00  0.00     9.700 C  
HETATM   14  C   UNL     1      -8.019  13.888  68.940  1.00  0.00     0.006 C  
HETATM   15  C   UNL     1      -7.253  12.985  66.604  1.00  0.00     1.015 C  
HETATM   16  C   UNL     1      -6.645  14.531  69.327  1.00  0.00    -0.125 C  
HETATM   17  C   UNL     1      -5.889  15.306  68.226  1.00  0.00    -0.121 C  
HETATM   18  C   UNL     1      -6.327  16.728  67.933  1.00  0.00    -0.151 C  
HETATM   19  C   UNL     1      -6.668  17.561  69.154  1.00  0.00    -0.243 C  
HETATM   20  C   UNL     1      -6.972  16.787  70.402  1.00  0.00     1.482 C  
ENDROOT
BRANCH   4  21
HETATM   21  C   UNL     1      -9.147  10.053  69.444  1.00  0.00    -0.228 C  
HETATM   22  C   UNL     1      -8.989   9.072  70.121  1.00  0.00    -0.200 C  
ENDBRANCH   4  21
BRANCH   7  23
HETATM   23  C   UNL     1     -11.538  10.604  67.726  1.00  0.00    -0.063 C  
HETATM   24  C   UNL     1     -12.840  10.691  68.516  1.00  0.00     2.750 C  
ENDBRANCH   7  23
TORSDOF 2
ENDMDL
MODEL      135
REMARK 921   NORMALIZED FREE ENERGY PREDICTED BY IDOCK:   21.87 KCAL/MOL
REMARK 922        TOTAL FREE ENERGY PREDICTED BY IDOCK:   24.20 KCAL/MOL
REMARK 923 INTER-LIGAND FREE ENERGY PREDICTED BY IDOCK:   24.00 KCAL/MOL
REMARK 924 INTRA-LIGAND FREE ENERGY PREDICTED BY IDOCK:    0.20 KCAL/MOL
REMARK 927      BINDING AFFINITY PREDICTED BY RF-SCORE:    0.00 PKD
ROOT
HETATM    1  C   UNL     1      -8.104  18.247  69.070  1.00  0.00    -0.091 C  
HETATM    2  C   UNL     1      -8.500  18.317  67.712  1.00  0.00    -0.256 C  
HETATM    3  C   UNL     1      -9.565  18.126  68.735  1.00  0.00    -0.304 C  
HETATM    4  C   UNL     1      -8.986  18.492  70.675  1.00  0.00     4.017 C  
HETATM    5  C   UNL     1      -7.707  14.003  69.023  1.00  0.00    -0.006 C  
HETATM    6  O   UNL     1      -9.733  18.874  71.848  1.00  0.00     4.122 OA 
HETATM    7  C   UNL     1      -9.574  19.326  69.765  1.00  0.00     0.317 C  
HETATM    8  C   UNL     1     -11.186  18.415  70.171  1.00  0.00     3.434 C  
HETATM    9  C   UNL     1      -8.231  16.480  69.688  1.00  0.00     0.477 C  
HETATM   10  C   UNL     1      -9.120  13.641  69.416  1.00  0.00     0.878 C  
HETATM   11  H   UNL     1      -9.465  19.043  72.743  1.00  0.00     0.000 HD 
HETATM   12  C   UNL     1     -10.873  16.886  70.822  1.00  0.00     0.634 C  
HETATM   13  C   UNL     1      -7.512  15.499  68.725  1.00  0.00    -0.141 C  
HETATM   14  C   UNL     1      -9.833  15.888  70.097  1.00  0.00     0.192 C  
HETATM   15  C   UNL     1     -11.344  16.705  72.074  1.00  0.00     0.257 C  
HETATM   16  C   UNL     1      -9.671  14.418  70.610  1.00  0.00     2.142 C  
HETATM   17  C   UNL     1     -10.926  13.721  71.178  1.00  0.00     2.196 C  
HETATM   18  C   UNL     1     -11.917  13.133  70.192  1.00  0.00    -0.381 C  
HETATM   19  C   UNL     1     -11.296  12.420  69.005  1.00  0.00    -0.336 C  
HETATM   20  C   UNL     1      -9.867  12.769  68.713  1.00  0.00     0.020 C  
ENDROOT
BRANCH   4  21
HETATM   21  C   UNL     1      -7.645  19.100  71.161  1.00  0.00     3.229 C  
HETATM   22  C   UNL     1      -6.561  19.548  71.426  1.00  0.00     0.712 C  
ENDBRANCH   4  21
BRANCH   7  23
HETATM   23  C   UNL     1      -9.645  20.837  69.765  1.00  0.00     1.372 C  
HETATM   24  C   UNL     1     -10.936  21.319  69.109  1.00  0.00     1.518 C  
ENDBRANCH   7  23
TORSDOF 2
ENDMDL
MODEL      136
REMARK 921   NORMALIZED FREE ENERGY PREDICTED BY IDOCK:   24.45 KCAL/MOL
REMARK 922        TOTAL FREE ENERGY PREDICTED BY IDOCK:   27.08 KCAL/MOL
REMARK 923 INTER-LIGAND FREE ENERGY PREDICTED BY IDOCK:   25.31 KCAL/MOL
REMARK 924 INTRA-LIGAND FREE ENERGY PREDICTED BY IDOCK:    1.78 KCAL/MOL
REMARK 927      BINDING AFFINITY PREDICTED BY RF-SCORE:    0.00 PKD
ROOT
HETATM    1  C   UNL     1      -6.908  15.826  67.782  1.00  0.00    -0.177 C  
HETATM    2  C   UNL     1      -5.859  16.755  67.981  1.00  0.00    -0.128 C  
HETATM    3  C   UNL     1      -6.387  16.041  69.176  1.00  0.00    -0.151 C  
HETATM    4  C   UNL     1      -7.562  14.404  68.763  1.00  0.00    -0.131 C  
HETATM    5  C   UNL     1      -9.968  18.720  68.441  1.00  0.00    -0.441 C  
HETATM    6  O   UNL     1      -7.871  13.221  69.530  1.00  0.00    -0.067 OA 
HETATM    7  C   UNL     1      -6.220  14.477  69.013  1.00  0.00    -0.092 C  
HETATM    8  C   UNL     1      -6.704  14.658  70.837  1.00  0.00     0.433 C  
HETATM    9  C   UNL     1      -8.526  16.535  68.415  1.00  0.00    -0.208 C  
HETATM   10  C   UNL     1     -10.111  18.559  69.937  1.00  0.00     0.818 C  
HETATM   11  H   UNL     1      -8.413  12.465  69.338  1.00  0.00     0.000 HD 
HETATM   12  C   UNL     1      -8.292  15.218  70.992  1.00  0.00     2.778 C  
HETATM   13  C   UNL     1      -8.770  17.958  67.849  1.00  0.00    -0.252 C  
HETATM   14  C   UNL     1      -8.790  16.502  70.150  1.00  0.00     1.685 C  
HETATM   15  C   UNL     1      -9.122  14.373  71.640  1.00  0.00     6.000 C  
HETATM   16  C   UNL     1     -10.206  17.113  70.419  1.00  0.00     1.174 C  
HETATM   17  C   UNL     1     -10.740  17.058  71.867  1.00  0.00     2.471 C  
HETATM   18  C   UNL     1     -10.243  18.105  72.845  1.00  0.00     5.783 C  
HETATM   19  C   UNL     1     -10.125  19.509  72.281  1.00  0.00     3.444 C  
HETATM   20  C   UNL     1     -10.063  19.603  70.786  1.00  0.00     1.536 C  
ENDROOT
BRANCH   4  21
HETATM   21  C   UNL     1      -7.808  13.743  67.383  1.00  0.00    -0.167 C  
HETATM   22  C   UNL     1      -8.104  13.292  66.308  1.00  0.00     1.146 C  
ENDBRANCH   4  21
BRANCH   7  23
HETATM   23  C   UNL     1      -5.138  13.465  68.709  1.00  0.00    -0.072 C  
HETATM   24  C   UNL     1      -5.461  12.692  67.434  1.00  0.00    -0.074 C  
ENDBRANCH   7  23
TORSDOF 2
ENDMDL
MODEL      137
REMARK 921   NORMALIZED FREE ENERGY PREDICTED BY IDOCK:   30.11 KCAL/MOL
REMARK 922        TOTAL FREE ENERGY PREDICTED BY IDOCK:   33.41 KCAL/MOL
REMARK 923 INTER-LIGAND FREE ENERGY PREDICTED BY IDOCK:   33.13 KCAL/MOL
REMARK 924 INTRA-LIGAND FREE ENERGY PREDICTED BY IDOCK:    0.28 KCAL/MOL
REMARK 927      BINDING AFFINITY PREDICTED BY RF-SCORE:    0.00 PKD
ROOT
HETATM    1  C   UNL     1      -7.955  13.992  70.982  1.00  0.00     4.127 C  
HETATM    2  C   UNL     1      -6.808  14.249  71.771  1.00  0.00     1.985 C  
HETATM    3  C   UNL     1      -6.599  13.693  70.405  1.00  0.00     0.257 C  
HETATM    4  C   UNL     1      -8.241  13.780  69.169  1.00  0.00     0.333 C  
HETATM    5  C   UNL     1      -8.314   9.961  72.320  1.00  0.00     3.761 C  
HETATM    6  O   UNL     1      -8.364  13.803  67.732  1.00  0.00    -0.153 OA 
HETATM    7  C   UNL     1      -7.203  14.660  69.309  1.00  0.00    -0.156 C  
HETATM    8  C   UNL     1      -6.196  13.431  68.275  1.00  0.00    -0.102 C  
HETATM    9  C   UNL     1      -8.265  12.145  70.877  1.00  0.00     8.015 C  
HETATM   10  C   UNL     1      -7.447   9.299  71.274  1.00  0.00     0.012 C  
HETATM   11  H   UNL     1      -9.123  13.844  67.161  1.00  0.00     0.000 HD 
HETATM   12  C   UNL     1      -6.870  11.882  68.345  1.00  0.00    -0.071 C  
HETATM   13  C   UNL     1      -8.259  11.497  72.286  1.00  0.00    15.886 C  
HETATM   14  C   UNL     1      -7.263  11.226  69.766  1.00  0.00     0.124 C  
HETATM   15  C   UNL     1      -7.271  11.392  67.152  1.00  0.00    -0.134 C  
HETATM   16  C   UNL     1      -7.732   9.734  69.838  1.00  0.00    -0.162 C  
HETATM   17  C   UNL     1      -7.103   8.743  68.835  1.00  0.00    -0.066 C  
HETATM   18  C   UNL     1      -5.725   8.193  69.154  1.00  0.00    -0.034 C  
HETATM   19  C   UNL     1      -5.498   7.830  70.610  1.00  0.00    -0.026 C  
HETATM   20  C   UNL     1      -6.441   8.463  71.590  1.00  0.00    -0.061 C  
ENDROOT
BRANCH   4  21
HETATM   21  C   UNL     1      -9.586  14.502  69.436  1.00  0.00     0.129 C  
HETATM   22  C   UNL     1     -10.572  15.124  69.731  1.00  0.00    -0.267 C  
ENDBRANCH   4  21
BRANCH   7  23
HETATM   23  C   UNL     1      -7.120  16.109  68.888  1.00  0.00    -0.166 C  
HETATM   24  C   UNL     1      -5.742  16.431  68.319  1.00  0.00    -0.105 C  
ENDBRANCH   7  23
TORSDOF 2
ENDMDL
MODEL      138
REMARK 921   NORMALIZED FREE ENERGY PREDICTED BY IDOCK:   31.43 KCAL/MOL
REMARK 922        TOTAL FREE ENERGY PREDICTED BY IDOCK:   34.89 KCAL/MOL
REMARK 923 INTER-LIGAND FREE ENERGY PREDICTED BY IDOCK:   34.79 KCAL/MOL
REMARK 924 INTRA-LIGAND FREE ENERGY PREDICTED BY IDOCK:    0.10 KCAL/MOL
REMARK 927      BINDING AFFINITY PREDICTED BY RF-SCORE:    0.00 PKD
ROOT
HETATM    1  C   UNL     1      -9.738  16.580  68.278  1.00  0.00    -0.231 C  
HETATM    2  C   UNL     1      -8.759  16.659  67.258  1.00  0.00    -0.207 C  
HETATM    3  C   UNL     1      -9.167  15.305  67.722  1.00  0.00    -0.187 C  
HETATM    4  C   UNL     1     -10.888  15.252  68.848  1.00  0.00    -0.247 C  
HETATM    5  C   UNL     1      -6.861  16.542  71.423  1.00  0.00     3.862 C  
HETATM    6  O   UNL     1     -11.851  14.203  69.087  1.00  0.00    -0.300 OA 
HETATM    7  C   UNL     1     -10.717  15.080  67.502  1.00  0.00    -0.284 C  
HETATM    8  C   UNL     1     -10.100  13.341  67.936  1.00  0.00    -0.235 C  
HETATM    9  C   UNL     1      -8.941  16.081  69.901  1.00  0.00     0.438 C  
HETATM   10  C   UNL     1      -6.647  15.049  71.513  1.00  0.00     1.078 C  
HETATM   11  H   UNL     1     -12.646  14.179  69.606  1.00  0.00     0.000 HD 
HETATM   12  C   UNL     1      -9.565  13.268  69.538  1.00  0.00     1.219 C  
HETATM   13  C   UNL     1      -7.712  16.973  70.216  1.00  0.00     2.362 C  
HETATM   14  C   UNL     1      -8.547  14.382  70.110  1.00  0.00     1.376 C  
HETATM   15  C   UNL     1     -10.244  12.398  70.315  1.00  0.00     2.982 C  
HETATM   16  C   UNL     1      -7.929  14.219  71.539  1.00  0.00     4.914 C  
HETATM   17  C   UNL     1      -7.636  12.784  72.026  1.00  0.00    11.035 C  
HETATM   18  C   UNL     1      -6.364  12.116  71.539  1.00  0.00     2.413 C  
HETATM   19  C   UNL     1      -5.143  13.016  71.491  1.00  0.00    -0.166 C  
HETATM   20  C   UNL     1      -5.423  14.489  71.479  1.00  0.00    -0.137 C  
ENDROOT
BRANCH   4  21
HETATM   21  C   UNL     1     -11.881  16.413  69.111  1.00  0.00     0.077 C  
HETATM   22  C   UNL     1     -12.601  17.323  69.426  1.00  0.00     5.381 C  
ENDBRANCH   4  21
BRANCH   7  23
HETATM   23  C   UNL     1     -11.741  15.165  66.392  1.00  0.00    -0.018 C  
HETATM   24  C   UNL     1     -11.362  14.249  65.233  1.00  0.00    -0.336 C  
ENDBRANCH   7  23
TORSDOF 2
ENDMDL
MODEL      139
REMARK 921   NORMALIZED FREE ENERGY PREDICTED BY IDOCK:   41.20 KCAL/MOL
REMARK 922        TOTAL FREE ENERGY PREDICTED BY IDOCK:   45.79 KCAL/MOL
REMARK 923 INTER-LIGAND FREE ENERGY PREDICTED BY IDOCK:   44.65 KCAL/MOL
REMARK 924 INTRA-LIGAND FREE ENERGY PREDICTED BY IDOCK:    1.14 KCAL/MOL
REMARK 927      BINDING AFFINITY PREDICTED BY RF-SCORE:    0.00 PKD
ROOT
HETATM    1  C   UNL     1     -10.786  12.555  69.151  1.00  0.00    -0.069 C  
HETATM    2  C   UNL     1     -11.945  12.015  69.757  1.00  0.00    -0.370 C  
HETATM    3  C   UNL     1     -10.907  12.600  70.649  1.00  0.00     2.585 C  
HETATM    4  C   UNL     1      -9.497  13.759  69.701  1.00  0.00     1.197 C  
HETATM    5  C   UNL     1      -8.612   8.897  69.402  1.00  0.00    -0.133 C  
HETATM    6  O   UNL     1      -8.655  14.831  70.173  1.00  0.00    -0.164 OA 
HETATM    7  C   UNL     1     -10.668  14.125  70.305  1.00  0.00     0.532 C  
HETATM    8  C   UNL     1      -9.735  13.915  71.941  1.00  0.00     8.567 C  
HETATM    9  C   UNL     1      -9.321  11.417  69.432  1.00  0.00     0.470 C  
HETATM   10  C   UNL     1      -7.992   9.097  70.765  1.00  0.00    -0.192 C  
HETATM   11  H   UNL     1      -8.004  15.367  69.735  1.00  0.00     0.000 HD 
HETATM   12  C   UNL     1      -8.398  12.897  71.753  1.00  0.00    15.119 C  
HETATM   13  C   UNL     1      -9.666   9.956  69.040  1.00  0.00    -0.195 C  
HETATM   14  C   UNL     1      -8.555  11.473  71.011  1.00  0.00     7.842 C  
HETATM   15  C   UNL     1      -7.210  13.479  72.025  1.00  0.00     5.719 C  
HETATM   16  C   UNL     1      -7.355  10.467  70.984  1.00  0.00     1.666 C  
HETATM   17  C   UNL     1      -6.421  10.442  72.213  1.00  0.00     1.941 C  
HETATM   18  C   UNL     1      -6.879   9.666  73.434  1.00  0.00     1.423 C  
HETATM   19  C   UNL     1      -7.550   8.337  73.137  1.00  0.00    -0.170 C  
HETATM   20  C   UNL     1      -8.077   8.175  71.742  1.00  0.00    -0.159 C  
ENDROOT
BRANCH   4  21
HETATM   21  C   UNL     1      -9.497  14.224  68.222  1.00  0.00    -0.209 C  
HETATM   22  C   UNL     1      -9.509  14.467  67.044  1.00  0.00    -0.247 C  
ENDBRANCH   4  21
BRANCH   7  23
HETATM   23  C   UNL     1     -11.461  15.403  70.150  1.00  0.00    -0.338 C  
HETATM   24  C   UNL     1     -10.535  16.586  69.881  1.00  0.00    -0.166 C  
ENDBRANCH   7  23
TORSDOF 2
ENDMDL
MODEL      140
REMARK 921   NORMALIZED FREE ENERGY PREDICTED BY IDOCK:   51.30 KCAL/MOL
REMARK 922        TOTAL FREE ENERGY PREDICTED BY IDOCK:   57.07 KCAL/MOL
REMARK 923 INTER-LIGAND FREE ENERGY PREDICTED BY IDOCK:   56.64 KCAL/MOL
REMARK 924 INTRA-LIGAND FREE ENERGY PREDICTED BY IDOCK:    0.43 KCAL/MOL
REMARK 927      BINDING AFFINITY PREDICTED BY RF-SCORE:    0.00 PKD
ROOT
HETATM    1  C   UNL     1      -9.950  11.039  66.203  1.00  0.00    -0.277 C  
HETATM    2  C   UNL     1     -11.351  11.129  66.389  1.00  0.00     0.001 C  
HETATM    3  C   UNL     1     -10.542  12.359  66.613  1.00  0.00    -0.256 C  
HETATM    4  C   UNL     1      -8.618  12.280  65.890  1.00  0.00     0.464 C  
HETATM    5  C   UNL     1      -9.192  10.073  70.285  1.00  0.00     0.012 C  
HETATM    6  O   UNL     1      -7.699  13.314  65.481  1.00  0.00     2.734 OA 
HETATM    7  C   UNL     1      -9.755  12.758  65.300  1.00  0.00    -0.024 C  
HETATM    8  C   UNL     1      -9.527  14.282  66.405  1.00  0.00    -0.297 C  
HETATM    9  C   UNL     1      -9.077  11.061  67.864  1.00  0.00    -0.147 C  
HETATM   10  C   UNL     1      -9.030  11.476  70.822  1.00  0.00     6.295 C  
HETATM   11  H   UNL     1      -6.811  13.277  65.147  1.00  0.00     0.000 HD 
HETATM   12  C   UNL     1      -8.576  13.919  67.754  1.00  0.00    -0.182 C  
HETATM   13  C   UNL     1      -9.696  10.020  68.833  1.00  0.00    -0.181 C  
HETATM   14  C   UNL     1      -8.899  12.619  68.654  1.00  0.00     0.050 C  
HETATM   15  C   UNL     1      -7.429  14.627  67.836  1.00  0.00    -0.158 C  
HETATM   16  C   UNL     1      -8.120  12.378  69.991  1.00  0.00     2.773 C  
HETATM   17  C   UNL     1      -7.701  13.623  70.802  1.00  0.00     3.582 C  
HETATM   18  C   UNL     1      -8.749  14.281  71.680  1.00  0.00     6.689 C  
HETATM   19  C   UNL     1      -9.650  13.322  72.436  1.00  0.00    15.715 C  
HETATM   20  C   UNL     1      -9.708  11.925  71.895  1.00  0.00    15.433 C  
ENDROOT
BRANCH   4  21
HETATM   21  C   UNL     1      -7.987  11.175  65.004  1.00  0.00     0.444 C  
HETATM   22  C   UNL     1      -7.437  10.282  64.417  1.00  0.00    -0.084 C  
ENDBRANCH   4  21
BRANCH   7  23
HETATM   23  C   UNL     1     -10.028  13.030  63.838  1.00  0.00     0.312 C  
HETATM   24  C   UNL     1     -10.205  14.525  63.589  1.00  0.00     3.739 C  
ENDBRANCH   7  23
TORSDOF 2
ENDMDL
MODEL      141
REMARK 921   NORMALIZED FREE ENERGY PREDICTED BY IDOCK:   54.40 KCAL/MOL
REMARK 922        TOTAL FREE ENERGY PREDICTED BY IDOCK:   60.54 KCAL/MOL
REMARK 923 INTER-LIGAND FREE ENERGY PREDICTED BY IDOCK:   60.09 KCAL/MOL
REMARK 924 INTRA-LIGAND FREE ENERGY PREDICTED BY IDOCK:    0.45 KCAL/MOL
REMARK 927      BINDING AFFINITY PREDICTED BY RF-SCORE:    0.00 PKD
ROOT
HETATM    1  C   UNL     1      -9.936  18.515  69.081  1.00  0.00    -0.221 C  
HETATM    2  C   UNL     1      -8.962  19.329  69.709  1.00  0.00     0.631 C  
HETATM    3  C   UNL     1      -8.525  18.006  69.185  1.00  0.00     0.108 C  
HETATM    4  C   UNL     1      -9.850  17.095  67.902  1.00  0.00    -0.283 C  
HETATM    5  C   UNL     1     -10.969  16.490  72.687  1.00  0.00     1.877 C  
HETATM    6  O   UNL     1      -9.663  16.116  66.859  1.00  0.00    -0.227 OA 
HETATM    7  C   UNL     1      -8.784  17.906  67.628  1.00  0.00    -0.242 C  
HETATM    8  C   UNL     1      -7.708  16.384  67.971  1.00  0.00    -0.159 C  
HETATM    9  C   UNL     1     -10.399  17.083  70.202  1.00  0.00     0.456 C  
HETATM   10  C   UNL     1      -9.970  15.359  72.604  1.00  0.00     4.773 C  
HETATM   11  H   UNL     1     -10.275  15.696  66.266  1.00  0.00     0.000 HD 
HETATM   12  C   UNL     1      -8.531  15.260  68.930  1.00  0.00    -0.202 C  
HETATM   13  C   UNL     1     -10.756  17.583  71.626  1.00  0.00     2.606 C  
HETATM   14  C   UNL     1      -9.279  15.732  70.279  1.00  0.00     0.820 C  
HETATM   15  C   UNL     1      -8.716  14.057  68.346  1.00  0.00    -0.179 C  
HETATM   16  C   UNL     1      -9.899  14.667  71.245  1.00  0.00     2.757 C  
HETATM   17  C   UNL     1      -9.173  13.309  71.364  1.00  0.00    12.382 C  
HETATM   18  C   UNL     1      -7.956  13.235  72.267  1.00  0.00    12.295 C  
HETATM   19  C   UNL     1      -8.080  13.989  73.578  1.00  0.00     8.948 C  
HETATM   20  C   UNL     1      -9.141  15.048  73.619  1.00  0.00    10.255 C  
ENDROOT
BRANCH   4  21
HETATM   21  C   UNL     1     -11.143  17.698  67.296  1.00  0.00     0.139 C  
HETATM   22  C   UNL     1     -12.187  18.178  66.941  1.00  0.00     4.270 C  
ENDBRANCH   4  21
BRANCH   7  23
HETATM   23  C   UNL     1      -8.470  18.672  66.362  1.00  0.00    -0.286 C  
HETATM   24  C   UNL     1      -9.149  20.038  66.373  1.00  0.00    -0.427 C  
ENDBRANCH   7  23
TORSDOF 2
ENDMDL
MODEL      142
REMARK 921   NORMALIZED FREE ENERGY PREDICTED BY IDOCK:   62.35 KCAL/MOL
REMARK 922        TOTAL FREE ENERGY PREDICTED BY IDOCK:   69.42 KCAL/MOL
REMARK 923 INTER-LIGAND FREE ENERGY PREDICTED BY IDOCK:   69.34 KCAL/MOL
REMARK 924 INTRA-LIGAND FREE ENERGY PREDICTED BY IDOCK:    0.08 KCAL/MOL
REMARK 927      BINDING AFFINITY PREDICTED BY RF-SCORE:    0.00 PKD
ROOT
HETATM    1  C   UNL     1     -11.887   8.798  69.094  1.00  0.00     1.361 C  
HETATM    2  C   UNL     1     -12.989   9.340  68.390  1.00  0.00     8.012 C  
HETATM    3  C   UNL     1     -11.968  10.289  68.911  1.00  0.00     0.193 C  
HETATM    4  C   UNL     1     -10.198   9.424  69.503  1.00  0.00    -0.209 C  
HETATM    5  C   UNL     1     -13.795   9.125  72.892  1.00  0.00    -0.096 C  
HETATM    6  O   UNL     1      -8.858   9.949  69.612  1.00  0.00    -0.182 OA 
HETATM    7  C   UNL     1     -10.545   9.971  68.299  1.00  0.00    -0.264 C  
HETATM    8  C   UNL     1     -10.275  11.651  69.135  1.00  0.00     0.007 C  
HETATM    9  C   UNL     1     -12.062   9.143  70.930  1.00  0.00    -0.270 C  
HETATM   10  C   UNL     1     -13.341  10.520  73.252  1.00  0.00     3.609 C  
HETATM   11  H   UNL     1      -8.041   9.549  69.885  1.00  0.00     0.000 HD 
HETATM   12  C   UNL     1     -10.401  11.522  70.816  1.00  0.00     3.470 C  
HETATM   13  C   UNL     1     -13.462   8.721  71.446  1.00  0.00    -0.286 C  
HETATM   14  C   UNL     1     -11.656  10.760  71.484  1.00  0.00     0.585 C  
HETATM   15  C   UNL     1      -9.279  11.860  71.487  1.00  0.00    14.099 C  
HETATM   16  C   UNL     1     -11.852  10.784  73.037  1.00  0.00     6.346 C  
HETATM   17  C   UNL     1     -11.412  12.059  73.788  1.00  0.00    14.924 C  
HETATM   18  C   UNL     1     -12.355  13.247  73.778  1.00  0.00     4.566 C  
HETATM   19  C   UNL     1     -13.824  12.904  73.946  1.00  0.00     7.598 C  
HETATM   20  C   UNL     1     -14.196  11.483  73.644  1.00  0.00     6.724 C  
ENDROOT
BRANCH   4  21
HETATM   21  C   UNL     1      -9.754   7.952  69.307  1.00  0.00    -0.159 C  
HETATM   22  C   UNL     1      -9.360   6.845  69.050  1.00  0.00    -0.135 C  
ENDBRANCH   4  21
BRANCH   7  23
HETATM   23  C   UNL     1      -9.893   9.788  66.947  1.00  0.00    -0.256 C  
HETATM   24  C   UNL     1     -10.126  11.010  66.063  1.00  0.00    -0.297 C  
ENDBRANCH   7  23
TORSDOF 2
ENDMDL
