MODEL        1
REMARK 921   NORMALIZED FREE ENERGY PREDICTED BY IDOCK:   -7.21 KCAL/MOL
REMARK 922        TOTAL FREE ENERGY PREDICTED BY IDOCK:   -7.98 KCAL/MOL
REMARK 923 INTER-LIGAND FREE ENERGY PREDICTED BY IDOCK:   -8.06 KCAL/MOL
REMARK 924 INTRA-LIGAND FREE ENERGY PREDICTED BY IDOCK:    0.08 KCAL/MOL
REMARK 927      BINDING AFFINITY PREDICTED BY RF-SCORE:    0.00 PKD
ROOT
HETATM    1  C   UNL     1     -11.856  13.499  67.170  1.00  0.00    -0.430 C  
HETATM    2  C   UNL     1     -11.755  14.526  68.321  1.00  0.00    -0.368 C  
HETATM    3  C   UNL     1     -10.409  15.197  68.173  1.00  0.00    -0.239 C  
HETATM    4  O   UNL     1      -9.325  14.367  68.608  1.00  0.00    -0.201 OA 
HETATM    5  C   UNL     1      -8.232  14.767  67.791  1.00  0.00    -0.159 C  
HETATM    6  C   UNL     1      -7.452  15.851  68.547  1.00  0.00    -0.139 C  
HETATM    7  C   UNL     1      -7.235  13.665  67.467  1.00  0.00    -0.169 C  
HETATM    8  O   UNL     1      -8.762  15.221  66.545  1.00  0.00    -0.283 OA 
HETATM    9  C   UNL     1     -10.194  15.351  66.678  1.00  0.00    -0.277 C  
HETATM   10  C   UNL     1     -11.055  14.185  65.990  1.00  0.00    -0.314 C  
HETATM   11  C   UNL     1      -9.883   9.056  66.841  1.00  0.00    -0.288 C  
HETATM   12  C   UNL     1     -12.177  14.703  65.038  1.00  0.00    -0.323 C  
HETATM   13  C   UNL     1     -10.168  13.257  65.116  1.00  0.00    -0.301 C  
HETATM   14  C   UNL     1      -9.551  10.266  67.728  1.00  0.00    -0.171 C  
HETATM   15  C   UNL     1      -8.024  10.330  67.811  1.00  0.00    -0.102 C  
HETATM   16  O   UNL     1      -7.286   9.542  71.197  1.00  0.00    -0.318 OA 
HETATM   17  C   UNL     1      -9.801  11.875  65.661  1.00  0.00    -0.241 C  
HETATM   18  C   UNL     1      -7.297  10.141  68.919  1.00  0.00    -0.083 C  
HETATM   19  O   UNL     1     -10.482  10.902  64.843  1.00  0.00    -0.311 OA 
HETATM   20  C   UNL     1     -10.082  11.642  67.165  1.00  0.00    -0.227 C  
HETATM   21  C   UNL     1     -11.547  12.002  67.467  1.00  0.00    -0.401 C  
HETATM   22  H   UNL     1     -10.254  10.044  65.181  1.00  0.00     0.000 HD 
HETATM   23  C   UNL     1     -12.012  11.583  68.872  1.00  0.00    -0.364 C  
HETATM   24  C   UNL     1     -11.645  10.145  69.210  1.00  0.00    -0.120 C  
HETATM   25  C   UNL     1     -10.151  10.019  69.116  1.00  0.00    -0.219 C  
HETATM   26  C   UNL     1      -9.421   9.788  70.221  1.00  0.00    -0.250 C  
HETATM   27  C   UNL     1      -7.943   9.795  70.194  1.00  0.00    -0.186 C  
ENDROOT
BRANCH   9  28
HETATM   28  C   UNL     1     -10.504  16.787  66.225  1.00  0.00    -0.261 C  
HETATM   29  O   UNL     1     -10.659  17.090  65.037  1.00  0.00    -0.703 OA 
BRANCH  28  30
HETATM   30  C   UNL     1     -10.599  17.864  67.314  1.00  0.00    -0.332 C  
HETATM   31  O   UNL     1      -9.395  18.602  67.468  1.00  0.00    -0.280 OA 
HETATM   32  H   UNL     1      -9.454  19.269  68.142  1.00  0.00     0.000 HD 
ENDBRANCH  28  30
ENDBRANCH   9  28
TORSDOF 2
ENDMDL
MODEL        2
REMARK 921   NORMALIZED FREE ENERGY PREDICTED BY IDOCK:   -7.14 KCAL/MOL
REMARK 922        TOTAL FREE ENERGY PREDICTED BY IDOCK:   -7.89 KCAL/MOL
REMARK 923 INTER-LIGAND FREE ENERGY PREDICTED BY IDOCK:   -7.40 KCAL/MOL
REMARK 924 INTRA-LIGAND FREE ENERGY PREDICTED BY IDOCK:   -0.49 KCAL/MOL
REMARK 927      BINDING AFFINITY PREDICTED BY RF-SCORE:    0.00 PKD
ROOT
HETATM    1  C   UNL     1      -8.428  10.611  67.196  1.00  0.00    -0.128 C  
HETATM    2  C   UNL     1      -7.757  10.187  68.523  1.00  0.00    -0.090 C  
HETATM    3  C   UNL     1      -8.845   9.566  69.369  1.00  0.00    -0.170 C  
HETATM    4  O   UNL     1      -9.725  10.540  69.942  1.00  0.00    -0.086 OA 
HETATM    5  C   UNL     1     -10.973   9.865  70.042  1.00  0.00    -0.291 C  
HETATM    6  C   UNL     1     -11.061   9.243  71.441  1.00  0.00    -0.437 C  
HETATM    7  C   UNL     1     -12.198  10.753  69.887  1.00  0.00    -0.384 C  
HETATM    8  O   UNL     1     -11.030   8.898  68.992  1.00  0.00    -0.102 OA 
HETATM    9  C   UNL     1      -9.718   8.788  68.400  1.00  0.00    -0.162 C  
HETATM   10  C   UNL     1      -9.545   9.511  66.978  1.00  0.00    -0.214 C  
HETATM   11  C   UNL     1     -11.150  14.541  66.254  1.00  0.00    -0.332 C  
HETATM   12  C   UNL     1      -8.942   8.592  65.870  1.00  0.00    -0.245 C  
HETATM   13  C   UNL     1     -10.906  10.000  66.414  1.00  0.00     0.043 C  
HETATM   14  C   UNL     1     -10.768  13.846  67.570  1.00  0.00    -0.271 C  
HETATM   15  C   UNL     1     -12.019  13.878  68.451  1.00  0.00    -0.391 C  
HETATM   16  O   UNL     1     -11.174  16.079  71.111  1.00  0.00    -0.354 OA 
HETATM   17  C   UNL     1     -11.231  11.493  66.486  1.00  0.00    -0.259 C  
HETATM   18  C   UNL     1     -12.144  14.553  69.600  1.00  0.00    -0.369 C  
HETATM   19  O   UNL     1     -11.235  11.992  65.133  1.00  0.00    -0.311 OA 
HETATM   20  C   UNL     1     -10.313  12.344  67.396  1.00  0.00    -0.217 C  
HETATM   21  C   UNL     1      -8.845  12.099  67.005  1.00  0.00    -0.203 C  
HETATM   22  H   UNL     1     -11.437  12.920  65.178  1.00  0.00     0.000 HD 
HETATM   23  C   UNL     1      -7.855  13.068  67.673  1.00  0.00    -0.166 C  
HETATM   24  C   UNL     1      -8.290  14.522  67.565  1.00  0.00    -0.201 C  
HETATM   25  C   UNL     1      -9.636  14.648  68.221  1.00  0.00    -0.208 C  
HETATM   26  C   UNL     1      -9.773  15.360  69.353  1.00  0.00    -0.273 C  
HETATM   27  C   UNL     1     -11.046  15.394  70.103  1.00  0.00    -0.307 C  
ENDROOT
BRANCH   9  28
HETATM   28  C   UNL     1      -9.388   7.288  68.448  1.00  0.00    -0.143 C  
HETATM   29  O   UNL     1      -8.229   6.865  68.509  1.00  0.00    -0.119 OA 
BRANCH  28  30
HETATM   30  C   UNL     1     -10.566   6.304  68.397  1.00  0.00    -0.260 C  
HETATM   31  O   UNL     1     -11.463   6.571  67.329  1.00  0.00    -0.754 OA 
HETATM   32  H   UNL     1     -12.191   5.962  67.297  1.00  0.00     0.000 HD 
ENDBRANCH  28  30
ENDBRANCH   9  28
TORSDOF 2
ENDMDL
MODEL        3
REMARK 921   NORMALIZED FREE ENERGY PREDICTED BY IDOCK:   -7.07 KCAL/MOL
REMARK 922        TOTAL FREE ENERGY PREDICTED BY IDOCK:   -7.82 KCAL/MOL
REMARK 923 INTER-LIGAND FREE ENERGY PREDICTED BY IDOCK:   -8.10 KCAL/MOL
REMARK 924 INTRA-LIGAND FREE ENERGY PREDICTED BY IDOCK:    0.28 KCAL/MOL
REMARK 927      BINDING AFFINITY PREDICTED BY RF-SCORE:    0.00 PKD
ROOT
HETATM    1  C   UNL     1     -11.730  12.040  67.594  1.00  0.00    -0.365 C  
HETATM    2  C   UNL     1     -11.652  13.247  68.557  1.00  0.00    -0.368 C  
HETATM    3  C   UNL     1     -10.403  14.009  68.180  1.00  0.00    -0.241 C  
HETATM    4  O   UNL     1      -9.205  13.369  68.635  1.00  0.00    -0.126 OA 
HETATM    5  C   UNL     1      -8.229  13.731  67.666  1.00  0.00    -0.177 C  
HETATM    6  C   UNL     1      -7.515  14.993  68.167  1.00  0.00    -0.116 C  
HETATM    7  C   UNL     1      -7.145  12.690  67.425  1.00  0.00    -0.138 C  
HETATM    8  O   UNL     1      -8.900  13.922  66.421  1.00  0.00    -0.078 OA 
HETATM    9  C   UNL     1     -10.323  13.935  66.666  1.00  0.00    -0.278 C  
HETATM   10  C   UNL     1     -11.102  12.595  66.252  1.00  0.00    -0.330 C  
HETATM   11  C   UNL     1      -9.316   7.811  67.776  1.00  0.00    -0.155 C  
HETATM   12  C   UNL     1     -12.345  12.841  65.341  1.00  0.00    -0.528 C  
HETATM   13  C   UNL     1     -10.191  11.625  65.453  1.00  0.00    -0.306 C  
HETATM   14  C   UNL     1      -9.050   9.176  68.428  1.00  0.00    -0.132 C  
HETATM   15  C   UNL     1      -7.537   9.398  68.356  1.00  0.00    -0.082 C  
HETATM   16  O   UNL     1      -6.457   9.251  71.739  1.00  0.00    -0.241 OA 
HETATM   17  C   UNL     1      -9.634  10.393  66.169  1.00  0.00    -0.196 C  
HETATM   18  C   UNL     1      -6.710   9.463  69.406  1.00  0.00    -0.048 C  
HETATM   19  O   UNL     1     -10.267   9.239  65.580  1.00  0.00    -0.343 OA 
HETATM   20  C   UNL     1      -9.770  10.384  67.711  1.00  0.00    -0.181 C  
HETATM   21  C   UNL     1     -11.238  10.648  68.090  1.00  0.00    -0.366 C  
HETATM   22  H   UNL     1      -9.921   8.473  66.025  1.00  0.00     0.000 HD 
HETATM   23  C   UNL     1     -11.543  10.423  69.581  1.00  0.00    -0.307 C  
HETATM   24  C   UNL     1     -10.997   9.102  70.102  1.00  0.00    -0.267 C  
HETATM   25  C   UNL     1      -9.510   9.104  69.888  1.00  0.00    -0.199 C  
HETATM   26  C   UNL     1      -8.675   9.128  70.941  1.00  0.00    -0.277 C  
HETATM   27  C   UNL     1      -7.214   9.272  70.775  1.00  0.00    -0.121 C  
ENDROOT
BRANCH   9  28
HETATM   28  C   UNL     1     -10.822  15.241  66.026  1.00  0.00    -0.330 C  
HETATM   29  O   UNL     1     -11.153  16.224  66.696  1.00  0.00    -0.097 OA 
BRANCH  28  30
HETATM   30  C   UNL     1     -10.918  15.283  64.494  1.00  0.00    -0.192 C  
HETATM   31  O   UNL     1     -11.441  16.510  64.007  1.00  0.00    -1.513 OA 
HETATM   32  H   UNL     1     -11.500  16.537  63.059  1.00  0.00     0.000 HD 
ENDBRANCH  28  30
ENDBRANCH   9  28
TORSDOF 2
ENDMDL
MODEL        4
REMARK 921   NORMALIZED FREE ENERGY PREDICTED BY IDOCK:   -7.01 KCAL/MOL
REMARK 922        TOTAL FREE ENERGY PREDICTED BY IDOCK:   -7.75 KCAL/MOL
REMARK 923 INTER-LIGAND FREE ENERGY PREDICTED BY IDOCK:   -7.28 KCAL/MOL
REMARK 924 INTRA-LIGAND FREE ENERGY PREDICTED BY IDOCK:   -0.47 KCAL/MOL
REMARK 927      BINDING AFFINITY PREDICTED BY RF-SCORE:    0.00 PKD
ROOT
HETATM    1  C   UNL     1     -10.920  16.248  67.886  1.00  0.00    -0.310 C  
HETATM    2  C   UNL     1     -10.380  16.640  69.280  1.00  0.00    -0.318 C  
HETATM    3  C   UNL     1      -8.875  16.689  69.153  1.00  0.00    -0.136 C  
HETATM    4  O   UNL     1      -8.280  15.386  69.116  1.00  0.00    -0.206 OA 
HETATM    5  C   UNL     1      -7.117  15.559  68.316  1.00  0.00    -0.114 C  
HETATM    6  C   UNL     1      -5.941  15.859  69.255  1.00  0.00    -0.128 C  
HETATM    7  C   UNL     1      -6.714  14.342  67.496  1.00  0.00    -0.132 C  
HETATM    8  O   UNL     1      -7.378  16.612  67.388  1.00  0.00    -0.141 OA 
HETATM    9  C   UNL     1      -8.602  17.271  67.778  1.00  0.00    -0.225 C  
HETATM   10  C   UNL     1      -9.887  16.913  66.887  1.00  0.00    -0.278 C  
HETATM   11  C   UNL     1     -11.137  11.845  65.808  1.00  0.00    -0.367 C  
HETATM   12  C   UNL     1     -10.652  18.161  66.347  1.00  0.00    -0.288 C  
HETATM   13  C   UNL     1      -9.502  16.088  65.630  1.00  0.00    -0.175 C  
HETATM   14  C   UNL     1     -10.307  12.390  66.981  1.00  0.00    -0.235 C  
HETATM   15  C   UNL     1      -8.913  11.774  66.841  1.00  0.00    -0.195 C  
HETATM   16  O   UNL     1      -8.633   9.576  69.620  1.00  0.00    -0.150 OA 
HETATM   17  C   UNL     1      -9.795  14.587  65.625  1.00  0.00    -0.305 C  
HETATM   18  C   UNL     1      -8.356  10.909  67.697  1.00  0.00    -0.116 C  
HETATM   19  O   UNL     1     -10.832  14.361  64.649  1.00  0.00    -0.494 OA 
HETATM   20  C   UNL     1     -10.163  13.962  66.993  1.00  0.00    -0.254 C  
HETATM   21  C   UNL     1     -11.315  14.765  67.621  1.00  0.00    -0.352 C  
HETATM   22  H   UNL     1     -11.015  13.428  64.646  1.00  0.00     0.000 HD 
HETATM   23  C   UNL     1     -11.929  14.099  68.864  1.00  0.00    -0.376 C  
HETATM   24  C   UNL     1     -12.246  12.627  68.648  1.00  0.00     0.031 C  
HETATM   25  C   UNL     1     -10.966  11.930  68.286  1.00  0.00    -0.273 C  
HETATM   26  C   UNL     1     -10.424  11.030  69.124  1.00  0.00    -0.238 C  
HETATM   27  C   UNL     1      -9.099  10.427  68.871  1.00  0.00    -0.173 C  
ENDROOT
BRANCH   9  28
HETATM   28  C   UNL     1      -8.234  18.761  67.877  1.00  0.00    -0.269 C  
HETATM   29  O   UNL     1      -8.784  19.529  68.672  1.00  0.00    -0.364 OA 
BRANCH  28  30
HETATM   30  C   UNL     1      -7.150  19.284  66.924  1.00  0.00    -0.204 C  
HETATM   31  O   UNL     1      -7.397  18.946  65.567  1.00  0.00    -0.494 OA 
HETATM   32  H   UNL     1      -6.726  19.270  64.977  1.00  0.00     0.000 HD 
ENDBRANCH  28  30
ENDBRANCH   9  28
TORSDOF 2
ENDMDL
MODEL        5
REMARK 921   NORMALIZED FREE ENERGY PREDICTED BY IDOCK:   -7.01 KCAL/MOL
REMARK 922        TOTAL FREE ENERGY PREDICTED BY IDOCK:   -7.75 KCAL/MOL
REMARK 923 INTER-LIGAND FREE ENERGY PREDICTED BY IDOCK:   -7.95 KCAL/MOL
REMARK 924 INTRA-LIGAND FREE ENERGY PREDICTED BY IDOCK:    0.21 KCAL/MOL
REMARK 927      BINDING AFFINITY PREDICTED BY RF-SCORE:    0.00 PKD
ROOT
HETATM    1  C   UNL     1     -11.647  11.392  66.983  1.00  0.00    -0.135 C  
HETATM    2  C   UNL     1     -11.977  12.559  67.942  1.00  0.00    -0.283 C  
HETATM    3  C   UNL     1     -10.981  13.654  67.636  1.00  0.00    -0.267 C  
HETATM    4  O   UNL     1      -9.678  13.380  68.165  1.00  0.00    -0.216 OA 
HETATM    5  C   UNL     1      -8.792  14.020  67.254  1.00  0.00    -0.218 C  
HETATM    6  C   UNL     1      -8.504  15.429  67.789  1.00  0.00    -0.157 C  
HETATM    7  C   UNL     1      -7.443  13.338  67.084  1.00  0.00     0.043 C  
HETATM    8  O   UNL     1      -9.416  14.024  65.970  1.00  0.00    -0.239 OA 
HETATM    9  C   UNL     1     -10.794  13.623  66.129  1.00  0.00    -0.279 C  
HETATM   10  C   UNL     1     -11.128  12.120  65.678  1.00  0.00    -0.360 C  
HETATM   11  C   UNL     1      -8.131   8.036  67.333  1.00  0.00    -0.122 C  
HETATM   12  C   UNL     1     -12.334  12.009  64.693  1.00  0.00    -0.244 C  
HETATM   13  C   UNL     1      -9.931  11.464  64.940  1.00  0.00    -0.311 C  
HETATM   14  C   UNL     1      -8.308   9.413  67.992  1.00  0.00    -0.119 C  
HETATM   15  C   UNL     1      -6.922  10.063  68.009  1.00  0.00    -0.080 C  
HETATM   16  O   UNL     1      -6.046  10.193  71.451  1.00  0.00    -0.301 OA 
HETATM   17  C   UNL     1      -9.085  10.436  65.695  1.00  0.00    -0.176 C  
HETATM   18  C   UNL     1      -6.212  10.351  69.106  1.00  0.00    -0.041 C  
HETATM   19  O   UNL     1      -9.322   9.155  65.076  1.00  0.00    -0.424 OA 
HETATM   20  C   UNL     1      -9.303  10.371  67.226  1.00  0.00    -0.164 C  
HETATM   21  C   UNL     1     -10.804  10.196  67.516  1.00  0.00    -0.349 C  
HETATM   22  H   UNL     1      -8.797   8.517  65.545  1.00  0.00     0.000 HD 
HETATM   23  C   UNL     1     -11.119   9.875  68.987  1.00  0.00    -0.184 C  
HETATM   24  C   UNL     1     -10.246   8.762  69.547  1.00  0.00    -0.208 C  
HETATM   25  C   UNL     1      -8.813   9.195  69.423  1.00  0.00    -0.146 C  
HETATM   26  C   UNL     1      -8.084   9.446  70.523  1.00  0.00    -0.212 C  
HETATM   27  C   UNL     1      -6.719  10.007  70.444  1.00  0.00    -0.138 C  
ENDROOT
BRANCH   9  28
HETATM   28  C   UNL     1     -11.610  14.737  65.454  1.00  0.00    -0.316 C  
HETATM   29  O   UNL     1     -12.842  14.705  65.378  1.00  0.00    -0.293 OA 
BRANCH  28  30
HETATM   30  C   UNL     1     -10.830  15.911  64.844  1.00  0.00    -0.400 C  
HETATM   31  O   UNL     1     -11.487  16.490  63.726  1.00  0.00    -1.615 OA 
HETATM   32  H   UNL     1     -11.005  17.216  63.349  1.00  0.00     0.000 HD 
ENDBRANCH  28  30
ENDBRANCH   9  28
TORSDOF 2
ENDMDL
MODEL        6
REMARK 921   NORMALIZED FREE ENERGY PREDICTED BY IDOCK:   -6.84 KCAL/MOL
REMARK 922        TOTAL FREE ENERGY PREDICTED BY IDOCK:   -7.56 KCAL/MOL
REMARK 923 INTER-LIGAND FREE ENERGY PREDICTED BY IDOCK:   -7.50 KCAL/MOL
REMARK 924 INTRA-LIGAND FREE ENERGY PREDICTED BY IDOCK:   -0.06 KCAL/MOL
REMARK 927      BINDING AFFINITY PREDICTED BY RF-SCORE:    0.00 PKD
ROOT
HETATM    1  C   UNL     1      -9.562  13.589  68.077  1.00  0.00    -0.221 C  
HETATM    2  C   UNL     1      -8.944  14.094  66.753  1.00  0.00    -0.229 C  
HETATM    3  C   UNL     1      -9.663  13.363  65.643  1.00  0.00    -0.082 C  
HETATM    4  O   UNL     1      -9.232  12.003  65.508  1.00  0.00    -0.105 OA 
HETATM    5  C   UNL     1     -10.384  11.321  65.027  1.00  0.00    -0.301 C  
HETATM    6  C   UNL     1     -10.310  11.295  63.495  1.00  0.00    -0.463 C  
HETATM    7  C   UNL     1     -10.508   9.872  65.476  1.00  0.00     0.099 C  
HETATM    8  O   UNL     1     -11.535  12.005  65.522  1.00  0.00    -0.345 OA 
HETATM    9  C   UNL     1     -11.109  13.260  66.094  1.00  0.00    -0.285 C  
HETATM   10  C   UNL     1     -11.072  13.306  67.698  1.00  0.00    -0.292 C  
HETATM   11  C   UNL     1      -8.681   9.447  70.489  1.00  0.00    -0.276 C  
HETATM   12  C   UNL     1     -11.838  14.518  68.314  1.00  0.00    -0.347 C  
HETATM   13  C   UNL     1     -11.725  12.044  68.322  1.00  0.00    -0.396 C  
HETATM   14  C   UNL     1      -8.425   9.864  69.032  1.00  0.00    -0.136 C  
HETATM   15  C   UNL     1      -8.754   8.641  68.172  1.00  0.00    -0.142 C  
HETATM   16  O   UNL     1      -5.618   7.613  66.854  1.00  0.00    -0.029 OA 
HETATM   17  C   UNL     1     -10.812  10.965  68.906  1.00  0.00    -0.219 C  
HETATM   18  C   UNL     1      -7.875   7.943  67.444  1.00  0.00    -0.121 C  
HETATM   19  O   UNL     1     -11.009  10.971  70.335  1.00  0.00    -0.446 OA 
HETATM   20  C   UNL     1      -9.312  11.076  68.544  1.00  0.00    -0.188 C  
HETATM   21  C   UNL     1      -8.813  12.490  68.887  1.00  0.00     0.309 C  
HETATM   22  H   UNL     1     -10.441  10.300  70.698  1.00  0.00     0.000 HD 
HETATM   23  C   UNL     1      -7.285  12.647  68.799  1.00  0.00    -0.083 C  
HETATM   24  C   UNL     1      -6.536  11.535  69.517  1.00  0.00    -0.124 C  
HETATM   25  C   UNL     1      -6.943  10.230  68.894  1.00  0.00    -0.065 C  
HETATM   26  C   UNL     1      -6.052   9.505  68.196  1.00  0.00    -0.055 C  
HETATM   27  C   UNL     1      -6.446   8.291  67.453  1.00  0.00    -0.058 C  
ENDROOT
BRANCH   9  28
HETATM   28  C   UNL     1     -11.975  14.324  65.400  1.00  0.00    -0.383 C  
HETATM   29  O   UNL     1     -13.181  14.163  65.186  1.00  0.00    -0.743 OA 
BRANCH  28  30
HETATM   30  C   UNL     1     -11.278  15.617  64.952  1.00  0.00    -0.369 C  
HETATM   31  O   UNL     1     -11.898  16.217  63.824  1.00  0.00    -1.408 OA 
HETATM   32  H   UNL     1     -11.467  17.017  63.547  1.00  0.00     0.000 HD 
ENDBRANCH  28  30
ENDBRANCH   9  28
TORSDOF 2
ENDMDL
MODEL        7
REMARK 921   NORMALIZED FREE ENERGY PREDICTED BY IDOCK:   -6.83 KCAL/MOL
REMARK 922        TOTAL FREE ENERGY PREDICTED BY IDOCK:   -7.55 KCAL/MOL
REMARK 923 INTER-LIGAND FREE ENERGY PREDICTED BY IDOCK:   -7.07 KCAL/MOL
REMARK 924 INTRA-LIGAND FREE ENERGY PREDICTED BY IDOCK:   -0.49 KCAL/MOL
REMARK 927      BINDING AFFINITY PREDICTED BY RF-SCORE:    0.00 PKD
ROOT
HETATM    1  C   UNL     1     -10.010   9.741  65.520  1.00  0.00    -0.329 C  
HETATM    2  C   UNL     1      -8.673   9.668  64.748  1.00  0.00    -0.219 C  
HETATM    3  C   UNL     1      -7.579   9.843  65.776  1.00  0.00    -0.113 C  
HETATM    4  O   UNL     1      -7.437  11.203  66.206  1.00  0.00    -0.133 OA 
HETATM    5  C   UNL     1      -6.981  11.096  67.549  1.00  0.00    -0.088 C  
HETATM    6  C   UNL     1      -5.447  11.144  67.530  1.00  0.00    -0.043 C  
HETATM    7  C   UNL     1      -7.435  12.217  68.472  1.00  0.00    -0.117 C  
HETATM    8  O   UNL     1      -7.499   9.881  68.090  1.00  0.00    -0.080 OA 
HETATM    9  C   UNL     1      -8.060   9.103  67.012  1.00  0.00    -0.109 C  
HETATM   10  C   UNL     1      -9.662   9.103  66.926  1.00  0.00    -0.254 C  
HETATM   11  C   UNL     1     -12.409  13.665  67.129  1.00  0.00    -0.234 C  
HETATM   12  C   UNL     1     -10.292   7.678  66.847  1.00  0.00    -0.388 C  
HETATM   13  C   UNL     1     -10.302   9.769  68.173  1.00  0.00    -0.241 C  
HETATM   14  C   UNL     1     -10.947  13.455  66.707  1.00  0.00    -0.298 C  
HETATM   15  C   UNL     1     -10.096  14.259  67.694  1.00  0.00    -0.229 C  
HETATM   16  O   UNL     1      -8.715  16.885  65.738  1.00  0.00    -0.512 OA 
HETATM   17  C   UNL     1     -10.869  11.184  68.034  1.00  0.00    -0.225 C  
HETATM   18  C   UNL     1      -9.351  15.327  67.387  1.00  0.00    -0.202 C  
HETATM   19  O   UNL     1     -12.301  11.081  68.166  1.00  0.00    -0.640 OA 
HETATM   20  C   UNL     1     -10.475  11.949  66.748  1.00  0.00    -0.253 C  
HETATM   21  C   UNL     1     -10.805  11.080  65.522  1.00  0.00    -0.159 C  
HETATM   22  H   UNL     1     -12.653  11.960  68.079  1.00  0.00     0.000 HD 
HETATM   23  C   UNL     1     -10.685  11.826  64.182  1.00  0.00    -0.410 C  
HETATM   24  C   UNL     1     -11.390  13.174  64.193  1.00  0.00    -0.440 C  
HETATM   25  C   UNL     1     -10.778  14.003  65.286  1.00  0.00    -0.367 C  
HETATM   26  C   UNL     1     -10.063  15.100  64.984  1.00  0.00    -0.269 C  
HETATM   27  C   UNL     1      -9.330  15.862  66.016  1.00  0.00    -0.349 C  
ENDROOT
BRANCH   9  28
HETATM   28  C   UNL     1      -7.382   7.727  67.123  1.00  0.00    -0.091 C  
HETATM   29  O   UNL     1      -7.183   7.003  66.142  1.00  0.00    -0.071 OA 
BRANCH  28  30
HETATM   30  C   UNL     1      -6.967   7.258  68.525  1.00  0.00    -0.079 C  
HETATM   31  O   UNL     1      -8.022   7.342  69.471  1.00  0.00    -0.122 OA 
HETATM   32  H   UNL     1      -7.766   7.051  70.339  1.00  0.00     0.000 HD 
ENDBRANCH  28  30
ENDBRANCH   9  28
TORSDOF 2
ENDMDL
MODEL        8
REMARK 921   NORMALIZED FREE ENERGY PREDICTED BY IDOCK:   -6.81 KCAL/MOL
REMARK 922        TOTAL FREE ENERGY PREDICTED BY IDOCK:   -7.53 KCAL/MOL
REMARK 923 INTER-LIGAND FREE ENERGY PREDICTED BY IDOCK:   -7.09 KCAL/MOL
REMARK 924 INTRA-LIGAND FREE ENERGY PREDICTED BY IDOCK:   -0.44 KCAL/MOL
REMARK 927      BINDING AFFINITY PREDICTED BY RF-SCORE:    0.00 PKD
ROOT
HETATM    1  C   UNL     1     -10.940  15.228  66.927  1.00  0.00    -0.315 C  
HETATM    2  C   UNL     1     -10.142  14.526  65.803  1.00  0.00    -0.365 C  
HETATM    3  C   UNL     1      -8.945  13.887  66.468  1.00  0.00    -0.073 C  
HETATM    4  O   UNL     1      -7.929  14.838  66.811  1.00  0.00    -0.084 OA 
HETATM    5  C   UNL     1      -7.312  14.285  67.967  1.00  0.00    -0.142 C  
HETATM    6  C   UNL     1      -6.109  13.453  67.506  1.00  0.00    -0.074 C  
HETATM    7  C   UNL     1      -6.776  15.306  68.959  1.00  0.00    -0.122 C  
HETATM    8  O   UNL     1      -8.295  13.515  68.660  1.00  0.00    -0.123 OA 
HETATM    9  C   UNL     1      -9.450  13.372  67.805  1.00  0.00    -0.210 C  
HETATM   10  C   UNL     1     -10.704  14.297  68.185  1.00  0.00    -0.249 C  
HETATM   11  C   UNL     1     -10.080  19.514  69.079  1.00  0.00    -0.444 C  
HETATM   12  C   UNL     1     -12.049  13.517  68.320  1.00  0.00    -0.295 C  
HETATM   13  C   UNL     1     -10.499  15.008  69.550  1.00  0.00    -0.245 C  
HETATM   14  C   UNL     1      -9.182  18.577  68.257  1.00  0.00    -0.342 C  
HETATM   15  C   UNL     1      -7.812  18.590  68.940  1.00  0.00    -0.245 C  
HETATM   16  O   UNL     1      -5.678  20.226  66.616  1.00  0.00    -0.172 OA 
HETATM   17  C   UNL     1     -10.136  16.494  69.551  1.00  0.00    -0.165 C  
HETATM   18  C   UNL     1      -6.684  19.076  68.409  1.00  0.00    -0.277 C  
HETATM   19  O   UNL     1     -11.267  17.206  70.092  1.00  0.00    -0.237 OA 
HETATM   20  C   UNL     1      -9.696  17.086  68.190  1.00  0.00    -0.268 C  
HETATM   21  C   UNL     1     -10.763  16.761  67.130  1.00  0.00    -0.189 C  
HETATM   22  H   UNL     1     -11.041  18.129  70.093  1.00  0.00     0.000 HD 
HETATM   23  C   UNL     1     -10.558  17.502  65.797  1.00  0.00    -0.176 C  
HETATM   24  C   UNL     1     -10.303  18.990  65.984  1.00  0.00    -0.512 C  
HETATM   25  C   UNL     1      -9.076  19.143  66.837  1.00  0.00    -0.340 C  
HETATM   26  C   UNL     1      -7.952  19.668  66.319  1.00  0.00    -0.339 C  
HETATM   27  C   UNL     1      -6.687  19.707  67.080  1.00  0.00    -0.198 C  
ENDROOT
BRANCH   9  28
HETATM   28  C   UNL     1      -9.712  11.858  67.744  1.00  0.00    -0.189 C  
HETATM   29  O   UNL     1      -9.953  11.267  66.687  1.00  0.00    -0.200 OA 
BRANCH  28  30
HETATM   30  C   UNL     1      -9.682  11.084  69.071  1.00  0.00    -0.134 C  
HETATM   31  O   UNL     1      -8.364  10.841  69.540  1.00  0.00    -0.365 OA 
HETATM   32  H   UNL     1      -8.346  10.363  70.360  1.00  0.00     0.000 HD 
ENDBRANCH  28  30
ENDBRANCH   9  28
TORSDOF 2
ENDMDL
MODEL        9
REMARK 921   NORMALIZED FREE ENERGY PREDICTED BY IDOCK:   -6.54 KCAL/MOL
REMARK 922        TOTAL FREE ENERGY PREDICTED BY IDOCK:   -7.23 KCAL/MOL
REMARK 923 INTER-LIGAND FREE ENERGY PREDICTED BY IDOCK:   -6.75 KCAL/MOL
REMARK 924 INTRA-LIGAND FREE ENERGY PREDICTED BY IDOCK:   -0.48 KCAL/MOL
REMARK 927      BINDING AFFINITY PREDICTED BY RF-SCORE:    0.00 PKD
ROOT
HETATM    1  C   UNL     1     -10.749  10.215  66.179  1.00  0.00    -0.008 C  
HETATM    2  C   UNL     1      -9.849  10.038  64.935  1.00  0.00    -0.352 C  
HETATM    3  C   UNL     1      -8.423  10.098  65.430  1.00  0.00    -0.156 C  
HETATM    4  O   UNL     1      -8.000  11.431  65.740  1.00  0.00     0.054 OA 
HETATM    5  C   UNL     1      -7.052  11.261  66.786  1.00  0.00    -0.143 C  
HETATM    6  C   UNL     1      -5.659  11.172  66.149  1.00  0.00    -0.141 C  
HETATM    7  C   UNL     1      -6.994  12.400  67.793  1.00  0.00    -0.118 C  
HETATM    8  O   UNL     1      -7.412  10.086  67.514  1.00  0.00    -0.090 OA 
HETATM    9  C   UNL     1      -8.427   9.380  66.769  1.00  0.00    -0.127 C  
HETATM   10  C   UNL     1      -9.921   9.523  67.337  1.00  0.00    -0.241 C  
HETATM   11  C   UNL     1     -11.938  14.306  68.545  1.00  0.00    -0.352 C  
HETATM   12  C   UNL     1     -10.652   8.161  67.547  1.00  0.00    -0.291 C  
HETATM   13  C   UNL     1      -9.941  10.221  68.724  1.00  0.00    -0.187 C  
HETATM   14  C   UNL     1     -10.796  13.975  67.572  1.00  0.00    -0.277 C  
HETATM   15  C   UNL     1      -9.552  14.683  68.115  1.00  0.00    -0.213 C  
HETATM   16  O   UNL     1      -8.852  17.212  65.719  1.00  0.00    -0.526 OA 
HETATM   17  C   UNL     1     -10.389  11.682  68.798  1.00  0.00    -0.195 C  
HETATM   18  C   UNL     1      -8.903  15.686  67.514  1.00  0.00    -0.190 C  
HETATM   19  O   UNL     1     -11.649  11.704  69.498  1.00  0.00    -0.281 OA 
HETATM   20  C   UNL     1     -10.482  12.433  67.447  1.00  0.00    -0.229 C  
HETATM   21  C   UNL     1     -11.355  11.618  66.476  1.00  0.00    -0.331 C  
HETATM   22  H   UNL     1     -11.927  12.612  69.545  1.00  0.00     0.000 HD 
HETATM   23  C   UNL     1     -11.721  12.375  65.188  1.00  0.00    -0.430 C  
HETATM   24  C   UNL     1     -12.239  13.780  65.457  1.00  0.00    -0.470 C  
HETATM   25  C   UNL     1     -11.167  14.532  66.193  1.00  0.00    -0.339 C  
HETATM   26  C   UNL     1     -10.541  15.567  65.608  1.00  0.00    -0.389 C  
HETATM   27  C   UNL     1      -9.390  16.242  66.241  1.00  0.00    -0.326 C  
ENDROOT
BRANCH   9  28
HETATM   28  C   UNL     1      -7.886   7.948  66.624  1.00  0.00    -0.102 C  
HETATM   29  O   UNL     1      -8.171   7.224  65.664  1.00  0.00    -0.125 OA 
BRANCH  28  30
HETATM   30  C   UNL     1      -6.974   7.423  67.742  1.00  0.00    -0.076 C  
HETATM   31  O   UNL     1      -7.575   7.498  69.026  1.00  0.00    -0.103 OA 
HETATM   32  H   UNL     1      -7.011   7.173  69.718  1.00  0.00     0.000 HD 
ENDBRANCH  28  30
ENDBRANCH   9  28
TORSDOF 2
ENDMDL
MODEL       10
REMARK 921   NORMALIZED FREE ENERGY PREDICTED BY IDOCK:   -6.53 KCAL/MOL
REMARK 922        TOTAL FREE ENERGY PREDICTED BY IDOCK:   -7.22 KCAL/MOL
REMARK 923 INTER-LIGAND FREE ENERGY PREDICTED BY IDOCK:   -7.00 KCAL/MOL
REMARK 924 INTRA-LIGAND FREE ENERGY PREDICTED BY IDOCK:   -0.22 KCAL/MOL
REMARK 927      BINDING AFFINITY PREDICTED BY RF-SCORE:    0.00 PKD
ROOT
HETATM    1  C   UNL     1     -11.467  11.853  67.518  1.00  0.00    -0.396 C  
HETATM    2  C   UNL     1     -11.320  12.748  68.770  1.00  0.00    -0.332 C  
HETATM    3  C   UNL     1     -10.106  13.615  68.531  1.00  0.00    -0.219 C  
HETATM    4  O   UNL     1      -8.874  12.903  68.702  1.00  0.00    -0.078 OA 
HETATM    5  C   UNL     1      -7.976  13.543  67.805  1.00  0.00    -0.168 C  
HETATM    6  C   UNL     1      -7.230  14.634  68.584  1.00  0.00    -0.122 C  
HETATM    7  C   UNL     1      -6.911  12.636  67.206  1.00  0.00    -0.102 C  
HETATM    8  O   UNL     1      -8.740  14.055  66.713  1.00  0.00    -0.203 OA 
HETATM    9  C   UNL     1     -10.140  13.965  67.054  1.00  0.00    -0.256 C  
HETATM   10  C   UNL     1     -10.945  12.774  66.341  1.00  0.00    -0.305 C  
HETATM   11  C   UNL     1      -9.032   7.799  66.341  1.00  0.00    -0.196 C  
HETATM   12  C   UNL     1     -12.254  13.233  65.627  1.00  0.00    -0.514 C  
HETATM   13  C   UNL     1     -10.094  12.086  65.241  1.00  0.00    -0.289 C  
HETATM   14  C   UNL     1      -8.722   8.937  67.326  1.00  0.00    -0.125 C  
HETATM   15  C   UNL     1      -7.220   9.207  67.210  1.00  0.00    -0.083 C  
HETATM   16  O   UNL     1      -5.885   8.154  70.331  1.00  0.00    -0.029 OA 
HETATM   17  C   UNL     1      -9.480  10.717  65.543  1.00  0.00    -0.210 C  
HETATM   18  C   UNL     1      -6.316   8.998  68.174  1.00  0.00    -0.055 C  
HETATM   19  O   UNL     1     -10.152   9.757  64.704  1.00  0.00    -0.354 OA 
HETATM   20  C   UNL     1      -9.498  10.279  67.027  1.00  0.00    -0.191 C  
HETATM   21  C   UNL     1     -10.934  10.391  67.570  1.00  0.00    -0.358 C  
HETATM   22  H   UNL     1      -9.771   8.906  64.892  1.00  0.00     0.000 HD 
HETATM   23  C   UNL     1     -11.125   9.755  68.957  1.00  0.00    -0.143 C  
HETATM   24  C   UNL     1     -10.536   8.355  69.049  1.00  0.00    -0.216 C  
HETATM   25  C   UNL     1      -9.069   8.452  68.738  1.00  0.00    -0.143 C  
HETATM   26  C   UNL     1      -8.157   8.203  69.693  1.00  0.00    -0.118 C  
HETATM   27  C   UNL     1      -6.713   8.423  69.468  1.00  0.00    -0.041 C  
ENDROOT
BRANCH   9  28
HETATM   28  C   UNL     1     -10.691  15.385  66.841  1.00  0.00    -0.314 C  
HETATM   29  O   UNL     1     -11.534  15.889  67.589  1.00  0.00    -0.221 OA 
BRANCH  28  30
HETATM   30  C   UNL     1     -10.165  16.170  65.631  1.00  0.00    -0.364 C  
HETATM   31  O   UNL     1     -11.034  16.106  64.510  1.00  0.00    -0.858 OA 
HETATM   32  H   UNL     1     -10.708  16.592  63.761  1.00  0.00     0.000 HD 
ENDBRANCH  28  30
ENDBRANCH   9  28
TORSDOF 2
ENDMDL
MODEL       11
REMARK 921   NORMALIZED FREE ENERGY PREDICTED BY IDOCK:   -6.50 KCAL/MOL
REMARK 922        TOTAL FREE ENERGY PREDICTED BY IDOCK:   -7.18 KCAL/MOL
REMARK 923 INTER-LIGAND FREE ENERGY PREDICTED BY IDOCK:   -7.02 KCAL/MOL
REMARK 924 INTRA-LIGAND FREE ENERGY PREDICTED BY IDOCK:   -0.16 KCAL/MOL
REMARK 927      BINDING AFFINITY PREDICTED BY RF-SCORE:    0.00 PKD
ROOT
HETATM    1  C   UNL     1     -10.952  15.955  67.872  1.00  0.00    -0.327 C  
HETATM    2  C   UNL     1     -10.497  16.443  69.267  1.00  0.00    -0.303 C  
HETATM    3  C   UNL     1      -8.996  16.603  69.191  1.00  0.00    -0.145 C  
HETATM    4  O   UNL     1      -8.303  15.350  69.230  1.00  0.00    -0.224 OA 
HETATM    5  C   UNL     1      -7.127  15.580  68.464  1.00  0.00    -0.115 C  
HETATM    6  C   UNL     1      -6.014  16.007  69.430  1.00  0.00    -0.141 C  
HETATM    7  C   UNL     1      -6.602  14.367  67.711  1.00  0.00    -0.189 C  
HETATM    8  O   UNL     1      -7.432  16.573  67.484  1.00  0.00    -0.133 OA 
HETATM    9  C   UNL     1      -8.716  17.150  67.802  1.00  0.00    -0.220 C  
HETATM   10  C   UNL     1      -9.936  16.658  66.884  1.00  0.00    -0.272 C  
HETATM   11  C   UNL     1     -10.755  11.471  65.976  1.00  0.00    -0.332 C  
HETATM   12  C   UNL     1     -10.772  17.821  66.265  1.00  0.00    -0.098 C  
HETATM   13  C   UNL     1      -9.441  15.817  65.677  1.00  0.00    -0.252 C  
HETATM   14  C   UNL     1     -10.014  12.124  67.153  1.00  0.00    -0.210 C  
HETATM   15  C   UNL     1      -8.573  11.612  67.088  1.00  0.00    -0.164 C  
HETATM   16  O   UNL     1      -8.232   9.554  69.965  1.00  0.00    -0.132 OA 
HETATM   17  C   UNL     1      -9.619  14.298  65.724  1.00  0.00    -0.155 C  
HETATM   18  C   UNL     1      -7.985  10.827  67.998  1.00  0.00    -0.108 C  
HETATM   19  O   UNL     1     -10.598  13.955  64.723  1.00  0.00    -0.391 OA 
HETATM   20  C   UNL     1      -9.990  13.702  67.104  1.00  0.00    -0.247 C  
HETATM   21  C   UNL     1     -11.223  14.437  67.657  1.00  0.00    -0.328 C  
HETATM   22  H   UNL     1     -10.709  13.011  64.753  1.00  0.00     0.000 HD 
HETATM   23  C   UNL     1     -11.832  13.775  68.905  1.00  0.00    -0.396 C  
HETATM   24  C   UNL     1     -12.028  12.275  68.740  1.00  0.00    -0.281 C  
HETATM   25  C   UNL     1     -10.685  11.666  68.452  1.00  0.00    -0.248 C  
HETATM   26  C   UNL     1     -10.109  10.844  69.346  1.00  0.00    -0.116 C  
HETATM   27  C   UNL     1      -8.733  10.336  69.166  1.00  0.00    -0.172 C  
ENDROOT
BRANCH   9  28
HETATM   28  C   UNL     1      -8.466  18.666  67.852  1.00  0.00    -0.276 C  
HETATM   29  O   UNL     1      -7.849  19.267  66.967  1.00  0.00    -0.240 OA 
BRANCH  28  30
HETATM   30  C   UNL     1      -9.002  19.429  69.072  1.00  0.00    -0.225 C  
HETATM   31  O   UNL     1     -10.321  19.921  68.881  1.00  0.00    -0.582 OA 
HETATM   32  H   UNL     1     -10.652  20.393  69.636  1.00  0.00     0.000 HD 
ENDBRANCH  28  30
ENDBRANCH   9  28
TORSDOF 2
ENDMDL
MODEL       12
REMARK 921   NORMALIZED FREE ENERGY PREDICTED BY IDOCK:   -6.46 KCAL/MOL
REMARK 922        TOTAL FREE ENERGY PREDICTED BY IDOCK:   -7.14 KCAL/MOL
REMARK 923 INTER-LIGAND FREE ENERGY PREDICTED BY IDOCK:   -6.65 KCAL/MOL
REMARK 924 INTRA-LIGAND FREE ENERGY PREDICTED BY IDOCK:   -0.49 KCAL/MOL
REMARK 927      BINDING AFFINITY PREDICTED BY RF-SCORE:    0.00 PKD
ROOT
HETATM    1  C   UNL     1     -10.653   9.181  70.941  1.00  0.00    -0.341 C  
HETATM    2  C   UNL     1     -11.810   8.215  70.599  1.00  0.00    -0.093 C  
HETATM    3  C   UNL     1     -11.198   7.089  69.798  1.00  0.00    -0.217 C  
HETATM    4  O   UNL     1     -10.906   7.466  68.447  1.00  0.00    -0.135 OA 
HETATM    5  C   UNL     1      -9.778   6.672  68.101  1.00  0.00    -0.130 C  
HETATM    6  C   UNL     1     -10.291   5.392  67.429  1.00  0.00    -0.258 C  
HETATM    7  C   UNL     1      -8.814   7.319  67.118  1.00  0.00    -0.125 C  
HETATM    8  O   UNL     1      -9.038   6.421  69.297  1.00  0.00    -0.135 OA 
HETATM    9  C   UNL     1      -9.839   6.835  70.425  1.00  0.00    -0.175 C  
HETATM   10  C   UNL     1      -9.404   8.223  71.103  1.00  0.00    -0.205 C  
HETATM   11  C   UNL     1      -8.554  12.567  68.134  1.00  0.00    -0.189 C  
HETATM   12  C   UNL     1      -9.205   8.137  72.648  1.00  0.00    -0.332 C  
HETATM   13  C   UNL     1      -8.052   8.736  70.539  1.00  0.00    -0.130 C  
HETATM   14  C   UNL     1      -9.413  11.339  67.797  1.00  0.00    -0.173 C  
HETATM   15  C   UNL     1      -8.795  10.714  66.544  1.00  0.00    -0.160 C  
HETATM   16  O   UNL     1     -11.219  11.243  63.999  1.00  0.00    -0.340 OA 
HETATM   17  C   UNL     1      -8.071   9.894  69.540  1.00  0.00    -0.152 C  
HETATM   18  C   UNL     1      -9.378  10.643  65.342  1.00  0.00    -0.250 C  
HETATM   19  O   UNL     1      -7.480  11.033  70.198  1.00  0.00    -0.406 OA 
HETATM   20  C   UNL     1      -9.452  10.246  68.936  1.00  0.00    -0.190 C  
HETATM   21  C   UNL     1     -10.462  10.462  70.077  1.00  0.00    -0.235 C  
HETATM   22  H   UNL     1      -7.493  11.752  69.577  1.00  0.00     0.000 HD 
HETATM   23  C   UNL     1     -11.804  11.054  69.614  1.00  0.00    -0.414 C  
HETATM   24  C   UNL     1     -11.634  12.259  68.701  1.00  0.00    -0.372 C  
HETATM   25  C   UNL     1     -10.839  11.820  67.505  1.00  0.00    -0.286 C  
HETATM   26  C   UNL     1     -11.409  11.787  66.288  1.00  0.00    -0.350 C  
HETATM   27  C   UNL     1     -10.707  11.231  65.113  1.00  0.00    -0.246 C  
ENDROOT
BRANCH   9  28
HETATM   28  C   UNL     1      -9.883   5.608  71.349  1.00  0.00    -0.173 C  
HETATM   29  O   UNL     1     -10.836   5.376  72.100  1.00  0.00    -0.226 OA 
BRANCH  28  30
HETATM   30  C   UNL     1      -8.671   4.664  71.327  1.00  0.00    -0.118 C  
HETATM   31  O   UNL     1      -7.439   5.343  71.518  1.00  0.00    -0.094 OA 
HETATM   32  H   UNL     1      -6.689   4.760  71.504  1.00  0.00     0.000 HD 
ENDBRANCH  28  30
ENDBRANCH   9  28
TORSDOF 2
ENDMDL
MODEL       13
REMARK 921   NORMALIZED FREE ENERGY PREDICTED BY IDOCK:   -6.44 KCAL/MOL
REMARK 922        TOTAL FREE ENERGY PREDICTED BY IDOCK:   -7.12 KCAL/MOL
REMARK 923 INTER-LIGAND FREE ENERGY PREDICTED BY IDOCK:   -6.64 KCAL/MOL
REMARK 924 INTRA-LIGAND FREE ENERGY PREDICTED BY IDOCK:   -0.48 KCAL/MOL
REMARK 927      BINDING AFFINITY PREDICTED BY RF-SCORE:    0.00 PKD
ROOT
HETATM    1  C   UNL     1     -10.430   9.653  70.378  1.00  0.00    -0.352 C  
HETATM    2  C   UNL     1     -11.526   8.593  70.124  1.00  0.00    -0.009 C  
HETATM    3  C   UNL     1     -10.901   7.540  69.237  1.00  0.00    -0.117 C  
HETATM    4  O   UNL     1     -10.778   7.966  67.875  1.00  0.00    -0.177 OA 
HETATM    5  C   UNL     1      -9.624   7.282  67.401  1.00  0.00    -0.142 C  
HETATM    6  C   UNL     1     -10.089   5.974  66.748  1.00  0.00    -0.235 C  
HETATM    7  C   UNL     1      -8.822   8.030  66.346  1.00  0.00    -0.183 C  
HETATM    8  O   UNL     1      -8.751   7.077  68.512  1.00  0.00    -0.123 OA 
HETATM    9  C   UNL     1      -9.469   7.398  69.723  1.00  0.00    -0.159 C  
HETATM   10  C   UNL     1      -9.092   8.807  70.392  1.00  0.00    -0.198 C  
HETATM   11  C   UNL     1      -8.922  13.262  67.471  1.00  0.00    -0.208 C  
HETATM   12  C   UNL     1      -8.735   8.712  71.908  1.00  0.00    -0.256 C  
HETATM   13  C   UNL     1      -7.852   9.449  69.714  1.00  0.00    -0.115 C  
HETATM   14  C   UNL     1      -9.701  11.967  67.186  1.00  0.00    -0.203 C  
HETATM   15  C   UNL     1      -9.157  11.423  65.863  1.00  0.00    -0.209 C  
HETATM   16  O   UNL     1     -11.857  11.778  63.580  1.00  0.00    -0.447 OA 
HETATM   17  C   UNL     1      -8.072  10.618  68.752  1.00  0.00    -0.139 C  
HETATM   18  C   UNL     1      -9.847  11.322  64.721  1.00  0.00    -0.312 C  
HETATM   19  O   UNL     1      -7.520  11.793  69.380  1.00  0.00    -0.338 OA 
HETATM   20  C   UNL     1      -9.531  10.856  68.295  1.00  0.00    -0.168 C  
HETATM   21  C   UNL     1     -10.438  10.961  69.533  1.00  0.00    -0.176 C  
HETATM   22  H   UNL     1      -7.656  12.520  68.782  1.00  0.00     0.000 HD 
HETATM   23  C   UNL     1     -11.866  11.438  69.218  1.00  0.00    -0.417 C  
HETATM   24  C   UNL     1     -11.892  12.670  68.326  1.00  0.00    -0.354 C  
HETATM   25  C   UNL     1     -11.184  12.325  67.046  1.00  0.00    -0.367 C  
HETATM   26  C   UNL     1     -11.867  12.262  65.890  1.00  0.00    -0.420 C  
HETATM   27  C   UNL     1     -11.239  11.792  64.638  1.00  0.00    -0.286 C  
ENDROOT
BRANCH   9  28
HETATM   28  C   UNL     1      -9.315   6.155  70.614  1.00  0.00    -0.165 C  
HETATM   29  O   UNL     1     -10.203   5.775  71.384  1.00  0.00    -0.201 OA 
BRANCH  28  30
HETATM   30  C   UNL     1      -7.985   5.391  70.534  1.00  0.00    -0.101 C  
HETATM   31  O   UNL     1      -7.942   4.468  69.456  1.00  0.00    -0.061 OA 
HETATM   32  H   UNL     1      -7.120   3.996  69.405  1.00  0.00     0.000 HD 
ENDBRANCH  28  30
ENDBRANCH   9  28
TORSDOF 2
ENDMDL
MODEL       14
REMARK 921   NORMALIZED FREE ENERGY PREDICTED BY IDOCK:   -6.36 KCAL/MOL
REMARK 922        TOTAL FREE ENERGY PREDICTED BY IDOCK:   -7.03 KCAL/MOL
REMARK 923 INTER-LIGAND FREE ENERGY PREDICTED BY IDOCK:   -6.55 KCAL/MOL
REMARK 924 INTRA-LIGAND FREE ENERGY PREDICTED BY IDOCK:   -0.48 KCAL/MOL
REMARK 927      BINDING AFFINITY PREDICTED BY RF-SCORE:    0.00 PKD
ROOT
HETATM    1  C   UNL     1      -9.835  10.250  69.753  1.00  0.00    -0.201 C  
HETATM    2  C   UNL     1     -10.880   9.111  69.726  1.00  0.00    -0.224 C  
HETATM    3  C   UNL     1     -10.379   8.099  68.722  1.00  0.00    -0.202 C  
HETATM    4  O   UNL     1     -10.573   8.522  67.367  1.00  0.00    -0.277 OA 
HETATM    5  C   UNL     1      -9.497   7.919  66.658  1.00  0.00    -0.211 C  
HETATM    6  C   UNL     1      -9.990   6.575  66.108  1.00  0.00     0.111 C  
HETATM    7  C   UNL     1      -8.989   8.713  65.464  1.00  0.00    -0.209 C  
HETATM    8  O   UNL     1      -8.399   7.787  67.562  1.00  0.00    -0.119 OA 
HETATM    9  C   UNL     1      -8.870   8.066  68.898  1.00  0.00    -0.141 C  
HETATM   10  C   UNL     1      -8.466   9.504  69.483  1.00  0.00    -0.156 C  
HETATM   11  C   UNL     1      -9.233  13.934  66.620  1.00  0.00    -0.253 C  
HETATM   12  C   UNL     1      -7.795   9.449  70.890  1.00  0.00    -0.097 C  
HETATM   13  C   UNL     1      -7.445  10.229  68.566  1.00  0.00    -0.084 C  
HETATM   14  C   UNL     1      -9.957  12.584  66.495  1.00  0.00    -0.252 C  
HETATM   15  C   UNL     1      -9.662  12.069  65.084  1.00  0.00    -0.163 C  
HETATM   16  O   UNL     1     -12.798  12.207  63.417  1.00  0.00    -0.765 OA 
HETATM   17  C   UNL     1      -7.944  11.370  67.678  1.00  0.00    -0.123 C  
HETATM   18  C   UNL     1     -10.566  11.908  64.111  1.00  0.00    -0.397 C  
HETATM   19  O   UNL     1      -7.361  12.588  68.185  1.00  0.00    -0.091 OA 
HETATM   20  C   UNL     1      -9.480  11.498  67.537  1.00  0.00    -0.173 C  
HETATM   21  C   UNL     1     -10.114  11.547  68.938  1.00  0.00    -0.144 C  
HETATM   22  H   UNL     1      -7.671  13.297  67.634  1.00  0.00     0.000 HD 
HETATM   23  C   UNL     1     -11.607  11.916  68.930  1.00  0.00    -0.370 C  
HETATM   24  C   UNL     1     -11.909  13.135  68.071  1.00  0.00    -0.398 C  
HETATM   25  C   UNL     1     -11.459  12.832  66.670  1.00  0.00    -0.404 C  
HETATM   26  C   UNL     1     -12.361  12.709  65.681  1.00  0.00    -0.390 C  
HETATM   27  C   UNL     1     -11.975  12.276  64.322  1.00  0.00    -0.407 C  
ENDROOT
BRANCH   9  28
HETATM   28  C   UNL     1      -8.444   6.845  69.729  1.00  0.00    -0.133 C  
HETATM   29  O   UNL     1      -9.144   6.380  70.634  1.00  0.00    -0.147 OA 
BRANCH  28  30
HETATM   30  C   UNL     1      -7.080   6.217  69.409  1.00  0.00    -0.069 C  
HETATM   31  O   UNL     1      -7.107   5.395  68.252  1.00  0.00    -0.063 OA 
HETATM   32  H   UNL     1      -6.264   5.006  68.053  1.00  0.00     0.000 HD 
ENDBRANCH  28  30
ENDBRANCH   9  28
TORSDOF 2
ENDMDL
MODEL       15
REMARK 921   NORMALIZED FREE ENERGY PREDICTED BY IDOCK:   -6.34 KCAL/MOL
REMARK 922        TOTAL FREE ENERGY PREDICTED BY IDOCK:   -7.01 KCAL/MOL
REMARK 923 INTER-LIGAND FREE ENERGY PREDICTED BY IDOCK:   -6.61 KCAL/MOL
REMARK 924 INTRA-LIGAND FREE ENERGY PREDICTED BY IDOCK:   -0.40 KCAL/MOL
REMARK 927      BINDING AFFINITY PREDICTED BY RF-SCORE:    0.00 PKD
ROOT
HETATM    1  C   UNL     1      -9.854  12.208  65.304  1.00  0.00    -0.216 C  
HETATM    2  C   UNL     1     -11.360  11.858  65.349  1.00  0.00    -0.334 C  
HETATM    3  C   UNL     1     -11.759  11.888  66.806  1.00  0.00    -0.202 C  
HETATM    4  O   UNL     1     -11.308  10.735  67.527  1.00  0.00    -0.408 OA 
HETATM    5  C   UNL     1     -11.101  11.213  68.851  1.00  0.00    -0.237 C  
HETATM    6  C   UNL     1     -12.391  10.969  69.646  1.00  0.00    -0.303 C  
HETATM    7  C   UNL     1      -9.985  10.520  69.617  1.00  0.00    -0.149 C  
HETATM    8  O   UNL     1     -10.746  12.593  68.766  1.00  0.00    -0.235 OA 
HETATM    9  C   UNL     1     -10.985  13.044  67.415  1.00  0.00    -0.260 C  
HETATM   10  C   UNL     1      -9.672  13.219  66.508  1.00  0.00    -0.273 C  
HETATM   11  C   UNL     1      -6.013   9.354  66.224  1.00  0.00    -0.059 C  
HETATM   12  C   UNL     1      -9.567  14.609  65.807  1.00  0.00    -0.266 C  
HETATM   13  C   UNL     1      -8.374  13.079  67.347  1.00  0.00    -0.194 C  
HETATM   14  C   UNL     1      -7.500   9.230  66.593  1.00  0.00    -0.093 C  
HETATM   15  C   UNL     1      -7.542   8.689  68.024  1.00  0.00    -0.098 C  
HETATM   16  O   UNL     1      -8.892   5.418  67.697  1.00  0.00    -0.107 OA 
HETATM   17  C   UNL     1      -7.573  11.780  67.240  1.00  0.00    -0.150 C  
HETATM   18  C   UNL     1      -8.019   7.494  68.390  1.00  0.00    -0.123 C  
HETATM   19  O   UNL     1      -6.332  12.099  66.579  1.00  0.00    -0.464 OA 
HETATM   20  C   UNL     1      -8.291  10.596  66.549  1.00  0.00    -0.143 C  
HETATM   21  C   UNL     1      -8.817  11.054  65.178  1.00  0.00    -0.116 C  
HETATM   22  H   UNL     1      -5.835  11.292  66.513  1.00  0.00     0.000 HD 
HETATM   23  C   UNL     1      -9.333   9.905  64.295  1.00  0.00    -0.313 C  
HETATM   24  C   UNL     1      -8.365   8.734  64.227  1.00  0.00    -0.158 C  
HETATM   25  C   UNL     1      -8.149   8.234  65.627  1.00  0.00    -0.124 C  
HETATM   26  C   UNL     1      -8.592   7.017  65.987  1.00  0.00    -0.154 C  
HETATM   27  C   UNL     1      -8.525   6.545  67.385  1.00  0.00    -0.119 C  
ENDROOT
BRANCH   9  28
HETATM   28  C   UNL     1     -11.881  14.284  67.565  1.00  0.00    -0.395 C  
HETATM   29  O   UNL     1     -12.602  14.697  66.651  1.00  0.00    -0.068 OA 
BRANCH  28  30
HETATM   30  C   UNL     1     -11.840  15.025  68.910  1.00  0.00    -0.307 C  
HETATM   31  O   UNL     1     -12.761  14.505  69.856  1.00  0.00    -0.537 OA 
HETATM   32  H   UNL     1     -12.736  14.963  70.688  1.00  0.00     0.000 HD 
ENDBRANCH  28  30
ENDBRANCH   9  28
TORSDOF 2
ENDMDL
MODEL       16
REMARK 921   NORMALIZED FREE ENERGY PREDICTED BY IDOCK:   -6.30 KCAL/MOL
REMARK 922        TOTAL FREE ENERGY PREDICTED BY IDOCK:   -6.96 KCAL/MOL
REMARK 923 INTER-LIGAND FREE ENERGY PREDICTED BY IDOCK:   -6.97 KCAL/MOL
REMARK 924 INTRA-LIGAND FREE ENERGY PREDICTED BY IDOCK:    0.01 KCAL/MOL
REMARK 927      BINDING AFFINITY PREDICTED BY RF-SCORE:    0.00 PKD
ROOT
HETATM    1  C   UNL     1      -9.417  12.971  68.826  1.00  0.00     0.107 C  
HETATM    2  C   UNL     1      -8.622  14.234  68.427  1.00  0.00    -0.175 C  
HETATM    3  C   UNL     1      -9.474  14.972  67.420  1.00  0.00    -0.201 C  
HETATM    4  O   UNL     1      -9.455  14.359  66.125  1.00  0.00    -0.290 OA 
HETATM    5  C   UNL     1     -10.733  14.660  65.579  1.00  0.00    -0.349 C  
HETATM    6  C   UNL     1     -10.603  15.951  64.760  1.00  0.00    -0.146 C  
HETATM    7  C   UNL     1     -11.295  13.606  64.637  1.00  0.00    -0.380 C  
HETATM    8  O   UNL     1     -11.654  14.775  66.665  1.00  0.00    -0.360 OA 
HETATM    9  C   UNL     1     -10.905  14.804  67.898  1.00  0.00    -0.269 C  
HETATM   10  C   UNL     1     -10.926  13.442  68.746  1.00  0.00    -0.290 C  
HETATM   11  C   UNL     1      -9.892   8.759  66.421  1.00  0.00    -0.352 C  
HETATM   12  C   UNL     1     -11.330  13.633  70.241  1.00  0.00     0.085 C  
HETATM   13  C   UNL     1     -11.946  12.424  68.170  1.00  0.00    -0.272 C  
HETATM   14  C   UNL     1      -9.462  10.162  65.965  1.00  0.00    -0.248 C  
HETATM   15  C   UNL     1     -10.097  10.378  64.589  1.00  0.00    -0.378 C  
HETATM   16  O   UNL     1      -7.345  10.438  62.341  1.00  0.00    -0.134 OA 
HETATM   17  C   UNL     1     -11.415  11.237  67.363  1.00  0.00    -0.221 C  
HETATM   18  C   UNL     1      -9.430  10.507  63.436  1.00  0.00    -0.354 C  
HETATM   19  O   UNL     1     -11.663  10.050  68.142  1.00  0.00    -0.660 OA 
HETATM   20  C   UNL     1      -9.934  11.324  66.924  1.00  0.00    -0.238 C  
HETATM   21  C   UNL     1      -9.058  11.612  68.156  1.00  0.00    -0.183 C  
HETATM   22  H   UNL     1     -11.333   9.313  67.640  1.00  0.00     0.000 HD 
HETATM   23  C   UNL     1      -7.549  11.479  67.889  1.00  0.00    -0.113 C  
HETATM   24  C   UNL     1      -7.190  10.192  67.161  1.00  0.00    -0.090 C  
HETATM   25  C   UNL     1      -7.934  10.180  65.856  1.00  0.00    -0.134 C  
HETATM   26  C   UNL     1      -7.264  10.269  64.694  1.00  0.00    -0.082 C  
HETATM   27  C   UNL     1      -7.963  10.400  63.399  1.00  0.00    -0.107 C  
ENDROOT
BRANCH   9  28
HETATM   28  C   UNL     1     -11.391  16.068  68.626  1.00  0.00    -0.383 C  
HETATM   29  O   UNL     1     -12.466  16.114  69.232  1.00  0.00     0.016 OA 
BRANCH  28  30
HETATM   30  C   UNL     1     -10.489  17.309  68.559  1.00  0.00    -0.375 C  
HETATM   31  O   UNL     1     -10.837  18.190  67.501  1.00  0.00    -0.389 OA 
HETATM   32  H   UNL     1     -10.280  18.958  67.461  1.00  0.00     0.000 HD 
ENDBRANCH  28  30
ENDBRANCH   9  28
TORSDOF 2
ENDMDL
MODEL       17
REMARK 921   NORMALIZED FREE ENERGY PREDICTED BY IDOCK:   -6.27 KCAL/MOL
REMARK 922        TOTAL FREE ENERGY PREDICTED BY IDOCK:   -6.92 KCAL/MOL
REMARK 923 INTER-LIGAND FREE ENERGY PREDICTED BY IDOCK:   -6.70 KCAL/MOL
REMARK 924 INTRA-LIGAND FREE ENERGY PREDICTED BY IDOCK:   -0.22 KCAL/MOL
REMARK 927      BINDING AFFINITY PREDICTED BY RF-SCORE:    0.00 PKD
ROOT
HETATM    1  C   UNL     1      -8.669   6.982  67.771  1.00  0.00    -0.121 C  
HETATM    2  C   UNL     1      -9.669   7.087  66.597  1.00  0.00    -0.226 C  
HETATM    3  C   UNL     1      -9.897   8.563  66.365  1.00  0.00    -0.257 C  
HETATM    4  O   UNL     1     -10.753   9.152  67.352  1.00  0.00    -0.277 OA 
HETATM    5  C   UNL     1     -10.301  10.498  67.444  1.00  0.00    -0.224 C  
HETATM    6  C   UNL     1     -11.146  11.344  66.484  1.00  0.00    -0.312 C  
HETATM    7  C   UNL     1     -10.446  11.131  68.820  1.00  0.00    -0.227 C  
HETATM    8  O   UNL     1      -8.908  10.512  67.130  1.00  0.00    -0.136 OA 
HETATM    9  C   UNL     1      -8.548   9.223  66.589  1.00  0.00    -0.127 C  
HETATM   10  C   UNL     1      -7.749   8.258  67.590  1.00  0.00    -0.099 C  
HETATM   11  C   UNL     1      -9.499   7.415  72.553  1.00  0.00    -0.192 C  
HETATM   12  C   UNL     1      -6.430   7.676  66.992  1.00  0.00    -0.054 C  
HETATM   13  C   UNL     1      -7.323   9.001  68.885  1.00  0.00    -0.074 C  
HETATM   14  C   UNL     1     -10.306   7.862  71.324  1.00  0.00    -0.222 C  
HETATM   15  C   UNL     1     -10.878   9.240  71.665  1.00  0.00    -0.418 C  
HETATM   16  O   UNL     1     -14.384   8.709  71.909  1.00  0.00    -0.423 OA 
HETATM   17  C   UNL     1      -8.107   8.733  70.171  1.00  0.00    -0.114 C  
HETATM   18  C   UNL     1     -12.176   9.528  71.813  1.00  0.00    -0.465 C  
HETATM   19  O   UNL     1      -7.223   8.029  71.067  1.00  0.00    -0.051 OA 
HETATM   20  C   UNL     1      -9.451   7.985  70.002  1.00  0.00    -0.160 C  
HETATM   21  C   UNL     1      -9.214   6.693  69.201  1.00  0.00    -0.136 C  
HETATM   22  H   UNL     1      -7.710   7.862  71.866  1.00  0.00     0.000 HD 
HETATM   23  C   UNL     1     -10.426   5.746  69.177  1.00  0.00    -0.346 C  
HETATM   24  C   UNL     1     -11.022   5.517  70.558  1.00  0.00    -0.196 C  
HETATM   25  C   UNL     1     -11.438   6.853  71.106  1.00  0.00    -0.347 C  
HETATM   26  C   UNL     1     -12.740   7.131  71.295  1.00  0.00    -0.412 C  
HETATM   27  C   UNL     1     -13.199   8.476  71.698  1.00  0.00    -0.343 C  
ENDROOT
BRANCH   9  28
HETATM   28  C   UNL     1      -7.863   9.535  65.248  1.00  0.00    -0.111 C  
HETATM   29  O   UNL     1      -8.312   9.145  64.166  1.00  0.00    -0.161 OA 
BRANCH  28  30
HETATM   30  C   UNL     1      -6.561  10.349  65.295  1.00  0.00    -0.100 C  
HETATM   31  O   UNL     1      -6.702  11.579  65.990  1.00  0.00    -0.364 OA 
HETATM   32  H   UNL     1      -5.897  12.082  66.019  1.00  0.00     0.000 HD 
ENDBRANCH  28  30
ENDBRANCH   9  28
TORSDOF 2
ENDMDL
MODEL       18
REMARK 921   NORMALIZED FREE ENERGY PREDICTED BY IDOCK:   -6.20 KCAL/MOL
REMARK 922        TOTAL FREE ENERGY PREDICTED BY IDOCK:   -6.85 KCAL/MOL
REMARK 923 INTER-LIGAND FREE ENERGY PREDICTED BY IDOCK:   -6.62 KCAL/MOL
REMARK 924 INTRA-LIGAND FREE ENERGY PREDICTED BY IDOCK:   -0.23 KCAL/MOL
REMARK 927      BINDING AFFINITY PREDICTED BY RF-SCORE:    0.00 PKD
ROOT
HETATM    1  C   UNL     1      -9.742   8.520  72.082  1.00  0.00    -0.387 C  
HETATM    2  C   UNL     1      -8.383   8.940  71.476  1.00  0.00    -0.163 C  
HETATM    3  C   UNL     1      -8.400   8.479  70.037  1.00  0.00    -0.123 C  
HETATM    4  O   UNL     1      -8.199   7.067  69.906  1.00  0.00    -0.126 OA 
HETATM    5  C   UNL     1      -8.924   6.721  68.732  1.00  0.00    -0.130 C  
HETATM    6  C   UNL     1      -7.952   6.775  67.546  1.00  0.00    -0.115 C  
HETATM    7  C   UNL     1      -9.523   5.322  68.735  1.00  0.00    -0.171 C  
HETATM    8  O   UNL     1     -10.014   7.635  68.607  1.00  0.00    -0.164 OA 
HETATM    9  C   UNL     1      -9.821   8.708  69.553  1.00  0.00    -0.187 C  
HETATM   10  C   UNL     1     -10.745   8.642  70.864  1.00  0.00    -0.269 C  
HETATM   11  C   UNL     1     -11.160   4.145  73.693  1.00  0.00    -0.337 C  
HETATM   12  C   UNL     1     -11.520   9.964  71.159  1.00  0.00    -0.459 C  
HETATM   13  C   UNL     1     -11.834   7.543  70.742  1.00  0.00    -0.254 C  
HETATM   14  C   UNL     1     -10.020   4.577  72.758  1.00  0.00    -0.209 C  
HETATM   15  C   UNL     1      -9.960   3.530  71.643  1.00  0.00    -0.190 C  
HETATM   16  O   UNL     1      -6.875   1.847  72.173  1.00  0.00    -0.017 OA 
HETATM   17  C   UNL     1     -11.641   6.237  71.516  1.00  0.00    -0.287 C  
HETATM   18  C   UNL     1      -8.946   2.684  71.424  1.00  0.00    -0.149 C  
HETATM   19  O   UNL     1     -12.649   6.201  72.545  1.00  0.00    -0.548 OA 
HETATM   20  C   UNL     1     -10.228   5.998  72.102  1.00  0.00    -0.222 C  
HETATM   21  C   UNL     1      -9.815   7.222  72.938  1.00  0.00    -0.240 C  
HETATM   22  H   UNL     1     -12.529   5.390  73.026  1.00  0.00     0.000 HD 
HETATM   23  C   UNL     1      -8.539   7.003  73.768  1.00  0.00    -0.172 C  
HETATM   24  C   UNL     1      -8.560   5.697  74.549  1.00  0.00    -0.110 C  
HETATM   25  C   UNL     1      -8.716   4.575  73.563  1.00  0.00    -0.099 C  
HETATM   26  C   UNL     1      -7.715   3.699  73.370  1.00  0.00    -0.070 C  
HETATM   27  C   UNL     1      -7.774   2.668  72.313  1.00  0.00    -0.053 C  
ENDROOT
BRANCH   9  28
HETATM   28  C   UNL     1      -9.914   9.994  68.716  1.00  0.00    -0.172 C  
HETATM   29  O   UNL     1      -9.183  10.970  68.914  1.00  0.00    -0.179 OA 
BRANCH  28  30
HETATM   30  C   UNL     1     -10.981  10.041  67.612  1.00  0.00    -0.234 C  
HETATM   31  O   UNL     1     -12.100  10.843  67.958  1.00  0.00    -0.780 OA 
HETATM   32  H   UNL     1     -12.759  10.873  67.276  1.00  0.00     0.000 HD 
ENDBRANCH  28  30
ENDBRANCH   9  28
TORSDOF 2
ENDMDL
MODEL       19
REMARK 921   NORMALIZED FREE ENERGY PREDICTED BY IDOCK:   -6.17 KCAL/MOL
REMARK 922        TOTAL FREE ENERGY PREDICTED BY IDOCK:   -6.82 KCAL/MOL
REMARK 923 INTER-LIGAND FREE ENERGY PREDICTED BY IDOCK:   -6.35 KCAL/MOL
REMARK 924 INTRA-LIGAND FREE ENERGY PREDICTED BY IDOCK:   -0.47 KCAL/MOL
REMARK 927      BINDING AFFINITY PREDICTED BY RF-SCORE:    0.00 PKD
ROOT
HETATM    1  C   UNL     1      -7.824   9.645  67.657  1.00  0.00    -0.095 C  
HETATM    2  C   UNL     1      -7.343   9.525  69.122  1.00  0.00    -0.072 C  
HETATM    3  C   UNL     1      -8.533   9.044  69.920  1.00  0.00    -0.138 C  
HETATM    4  O   UNL     1      -9.495  10.079  70.156  1.00  0.00    -0.213 OA 
HETATM    5  C   UNL     1     -10.737   9.389  70.221  1.00  0.00    -0.253 C  
HETATM    6  C   UNL     1     -11.016   9.059  71.693  1.00  0.00    -0.435 C  
HETATM    7  C   UNL     1     -11.938  10.179  69.721  1.00  0.00    -0.106 C  
HETATM    8  O   UNL     1     -10.636   8.229  69.394  1.00  0.00    -0.224 OA 
HETATM    9  C   UNL     1      -9.252   8.054  69.021  1.00  0.00    -0.148 C  
HETATM   10  C   UNL     1      -8.887   8.481  67.519  1.00  0.00    -0.139 C  
HETATM   11  C   UNL     1     -10.426  13.195  65.567  1.00  0.00    -0.297 C  
HETATM   12  C   UNL     1      -8.124   7.382  66.716  1.00  0.00    -0.123 C  
HETATM   13  C   UNL     1     -10.159   8.793  66.686  1.00  0.00    -0.358 C  
HETATM   14  C   UNL     1     -10.227  12.795  67.037  1.00  0.00    -0.245 C  
HETATM   15  C   UNL     1     -11.590  12.955  67.714  1.00  0.00    -0.391 C  
HETATM   16  O   UNL     1     -11.154  15.678  69.955  1.00  0.00    -0.265 OA 
HETATM   17  C   UNL     1     -10.507  10.256  66.405  1.00  0.00    -0.163 C  
HETATM   18  C   UNL     1     -11.883  13.842  68.671  1.00  0.00    -0.407 C  
HETATM   19  O   UNL     1     -10.325  10.471  64.991  1.00  0.00    -0.316 OA 
HETATM   20  C   UNL     1      -9.736  11.308  67.239  1.00  0.00    -0.192 C  
HETATM   21  C   UNL     1      -8.225  11.047  67.110  1.00  0.00    -0.133 C  
HETATM   22  H   UNL     1     -10.541  11.380  64.817  1.00  0.00     0.000 HD 
HETATM   23  C   UNL     1      -7.349  12.169  67.693  1.00  0.00    -0.122 C  
HETATM   24  C   UNL     1      -7.780  13.553  67.232  1.00  0.00    -0.093 C  
HETATM   25  C   UNL     1      -9.207  13.756  67.657  1.00  0.00    -0.207 C  
HETATM   26  C   UNL     1      -9.511  14.675  68.590  1.00  0.00    -0.211 C  
HETATM   27  C   UNL     1     -10.877  14.810  69.136  1.00  0.00    -0.260 C  
ENDROOT
BRANCH   9  28
HETATM   28  C   UNL     1      -8.916   6.608  69.421  1.00  0.00    -0.133 C  
HETATM   29  O   UNL     1      -7.781   6.260  69.765  1.00  0.00    -0.100 OA 
BRANCH  28  30
HETATM   30  C   UNL     1     -10.053   5.578  69.362  1.00  0.00    -0.236 C  
HETATM   31  O   UNL     1     -10.913   5.638  70.490  1.00  0.00    -0.273 OA 
HETATM   32  H   UNL     1     -11.617   5.001  70.453  1.00  0.00     0.000 HD 
ENDBRANCH  28  30
ENDBRANCH   9  28
TORSDOF 2
ENDMDL
MODEL       20
REMARK 921   NORMALIZED FREE ENERGY PREDICTED BY IDOCK:   -6.16 KCAL/MOL
REMARK 922        TOTAL FREE ENERGY PREDICTED BY IDOCK:   -6.80 KCAL/MOL
REMARK 923 INTER-LIGAND FREE ENERGY PREDICTED BY IDOCK:   -6.64 KCAL/MOL
REMARK 924 INTRA-LIGAND FREE ENERGY PREDICTED BY IDOCK:   -0.16 KCAL/MOL
REMARK 927      BINDING AFFINITY PREDICTED BY RF-SCORE:    0.00 PKD
ROOT
HETATM    1  C   UNL     1     -10.087   8.870  71.677  1.00  0.00    -0.411 C  
HETATM    2  C   UNL     1      -8.827   9.340  70.915  1.00  0.00    -0.252 C  
HETATM    3  C   UNL     1      -8.961   8.812  69.506  1.00  0.00    -0.145 C  
HETATM    4  O   UNL     1      -8.686   7.409  69.412  1.00  0.00    -0.136 OA 
HETATM    5  C   UNL     1      -9.504   6.965  68.336  1.00  0.00    -0.128 C  
HETATM    6  C   UNL     1      -8.664   7.020  67.054  1.00  0.00    -0.123 C  
HETATM    7  C   UNL     1     -10.009   5.536  68.460  1.00  0.00    -0.211 C  
HETATM    8  O   UNL     1     -10.657   7.807  68.289  1.00  0.00    -0.190 OA 
HETATM    9  C   UNL     1     -10.437   8.933  69.165  1.00  0.00    -0.223 C  
HETATM   10  C   UNL     1     -11.215   8.875  70.567  1.00  0.00    -0.287 C  
HETATM   11  C   UNL     1     -11.051   4.500  73.606  1.00  0.00    -0.369 C  
HETATM   12  C   UNL     1     -12.038  10.161  70.887  1.00  0.00    -0.453 C  
HETATM   13  C   UNL     1     -12.239   7.709  70.606  1.00  0.00    -0.014 C  
HETATM   14  C   UNL     1     -10.043   4.954  72.539  1.00  0.00    -0.233 C  
HETATM   15  C   UNL     1     -10.031   3.861  71.468  1.00  0.00    -0.209 C  
HETATM   16  O   UNL     1      -6.807   2.389  71.740  1.00  0.00    -0.022 OA 
HETATM   17  C   UNL     1     -11.885   6.455  71.407  1.00  0.00    -0.281 C  
HETATM   18  C   UNL     1      -8.993   3.067  71.180  1.00  0.00    -0.165 C  
HETATM   19  O   UNL     1     -12.778   6.408  72.538  1.00  0.00    -0.522 OA 
HETATM   20  C   UNL     1     -10.408   6.328  71.851  1.00  0.00    -0.234 C  
HETATM   21  C   UNL     1      -9.990   7.612  72.589  1.00  0.00    -0.279 C  
HETATM   22  H   UNL     1     -12.559   5.629  73.036  1.00  0.00     0.000 HD 
HETATM   23  C   UNL     1      -8.623   7.508  73.288  1.00  0.00    -0.203 C  
HETATM   24  C   UNL     1      -8.481   6.242  74.120  1.00  0.00    -0.120 C  
HETATM   25  C   UNL     1      -8.666   5.067  73.203  1.00  0.00    -0.112 C  
HETATM   26  C   UNL     1      -7.637   4.243  72.942  1.00  0.00    -0.080 C  
HETATM   27  C   UNL     1      -7.737   3.162  71.940  1.00  0.00    -0.053 C  
ENDROOT
BRANCH   9  28
HETATM   28  C   UNL     1     -10.696  10.170  68.290  1.00  0.00    -0.238 C  
HETATM   29  O   UNL     1     -11.770  10.360  67.711  1.00  0.00    -0.353 OA 
BRANCH  28  30
HETATM   30  C   UNL     1      -9.548  11.178  68.137  1.00  0.00    -0.179 C  
HETATM   31  O   UNL     1      -9.704  12.323  68.962  1.00  0.00    -0.412 OA 
HETATM   32  H   UNL     1      -8.994  12.947  68.868  1.00  0.00     0.000 HD 
ENDBRANCH  28  30
ENDBRANCH   9  28
TORSDOF 2
ENDMDL
MODEL       21
REMARK 921   NORMALIZED FREE ENERGY PREDICTED BY IDOCK:   -6.14 KCAL/MOL
REMARK 922        TOTAL FREE ENERGY PREDICTED BY IDOCK:   -6.77 KCAL/MOL
REMARK 923 INTER-LIGAND FREE ENERGY PREDICTED BY IDOCK:   -6.29 KCAL/MOL
REMARK 924 INTRA-LIGAND FREE ENERGY PREDICTED BY IDOCK:   -0.48 KCAL/MOL
REMARK 927      BINDING AFFINITY PREDICTED BY RF-SCORE:    0.00 PKD
ROOT
HETATM    1  C   UNL     1      -9.670  12.044  65.888  1.00  0.00    -0.256 C  
HETATM    2  C   UNL     1     -11.208  11.893  65.834  1.00  0.00    -0.373 C  
HETATM    3  C   UNL     1     -11.681  11.852  67.269  1.00  0.00    -0.247 C  
HETATM    4  O   UNL     1     -11.422  10.593  67.901  1.00  0.00    -0.432 OA 
HETATM    5  C   UNL     1     -11.230  10.925  69.271  1.00  0.00    -0.265 C  
HETATM    6  C   UNL     1     -12.582  10.787  69.982  1.00  0.00    -0.247 C  
HETATM    7  C   UNL     1     -10.255  10.028  70.019  1.00  0.00    -0.306 C  
HETATM    8  O   UNL     1     -10.698  12.249  69.328  1.00  0.00    -0.112 OA 
HETATM    9  C   UNL     1     -10.801  12.840  68.015  1.00  0.00    -0.233 C  
HETATM   10  C   UNL     1      -9.428  12.916  67.187  1.00  0.00    -0.229 C  
HETATM   11  C   UNL     1      -6.282   8.641  66.713  1.00  0.00    -0.059 C  
HETATM   12  C   UNL     1      -9.108  14.334  66.621  1.00  0.00    -0.249 C  
HETATM   13  C   UNL     1      -8.207  12.536  68.066  1.00  0.00    -0.166 C  
HETATM   14  C   UNL     1      -7.790   8.683  67.004  1.00  0.00    -0.096 C  
HETATM   15  C   UNL     1      -7.981   8.032  68.376  1.00  0.00    -0.120 C  
HETATM   16  O   UNL     1      -9.717   5.008  67.691  1.00  0.00    -0.139 OA 
HETATM   17  C   UNL     1      -7.574  11.156  67.877  1.00  0.00    -0.099 C  
HETATM   18  C   UNL     1      -8.627   6.884  68.610  1.00  0.00    -0.123 C  
HETATM   19  O   UNL     1      -6.267  11.364  67.304  1.00  0.00    -0.071 OA 
HETATM   20  C   UNL     1      -8.397  10.140  67.049  1.00  0.00    -0.125 C  
HETATM   21  C   UNL     1      -8.782  10.778  65.704  1.00  0.00    -0.198 C  
HETATM   22  H   UNL     1      -5.874  10.506  67.186  1.00  0.00     0.000 HD 
HETATM   23  C   UNL     1      -9.391   9.786  64.697  1.00  0.00    -0.318 C  
HETATM   24  C   UNL     1      -8.578   8.507  64.565  1.00  0.00    -0.055 C  
HETATM   25  C   UNL     1      -8.506   7.867  65.922  1.00  0.00    -0.147 C  
HETATM   26  C   UNL     1      -9.120   6.693  66.150  1.00  0.00    -0.143 C  
HETATM   27  C   UNL     1      -9.192   6.099  67.501  1.00  0.00    -0.111 C  
ENDROOT
BRANCH   9  28
HETATM   28  C   UNL     1     -11.538  14.170  68.238  1.00  0.00    -0.321 C  
HETATM   29  O   UNL     1     -12.219  14.708  67.358  1.00  0.00    -0.289 OA 
BRANCH  28  30
HETATM   30  C   UNL     1     -11.386  14.839  69.612  1.00  0.00    -0.283 C  
HETATM   31  O   UNL     1     -10.031  15.073  69.966  1.00  0.00    -0.477 OA 
HETATM   32  H   UNL     1      -9.937  15.487  70.816  1.00  0.00     0.000 HD 
ENDBRANCH  28  30
ENDBRANCH   9  28
TORSDOF 2
ENDMDL
MODEL       22
REMARK 921   NORMALIZED FREE ENERGY PREDICTED BY IDOCK:   -5.96 KCAL/MOL
REMARK 922        TOTAL FREE ENERGY PREDICTED BY IDOCK:   -6.58 KCAL/MOL
REMARK 923 INTER-LIGAND FREE ENERGY PREDICTED BY IDOCK:   -6.32 KCAL/MOL
REMARK 924 INTRA-LIGAND FREE ENERGY PREDICTED BY IDOCK:   -0.25 KCAL/MOL
REMARK 927      BINDING AFFINITY PREDICTED BY RF-SCORE:    0.00 PKD
ROOT
HETATM    1  C   UNL     1      -9.459  12.440  68.558  1.00  0.00    -0.101 C  
HETATM    2  C   UNL     1      -8.621  13.290  67.575  1.00  0.00    -0.200 C  
HETATM    3  C   UNL     1      -9.221  13.069  66.206  1.00  0.00    -0.065 C  
HETATM    4  O   UNL     1      -8.874  11.796  65.648  1.00  0.00    -0.050 OA 
HETATM    5  C   UNL     1      -9.990  11.459  64.833  1.00  0.00    -0.265 C  
HETATM    6  C   UNL     1      -9.696  11.948  63.408  1.00  0.00    -0.296 C  
HETATM    7  C   UNL     1     -10.281   9.969  64.726  1.00  0.00     0.030 C  
HETATM    8  O   UNL     1     -11.149  12.064  65.407  1.00  0.00    -0.304 OA 
HETATM    9  C   UNL     1     -10.722  12.991  66.428  1.00  0.00    -0.282 C  
HETATM   10  C   UNL     1     -10.914  12.484  67.939  1.00  0.00    -0.262 C  
HETATM   11  C   UNL     1      -9.235   7.652  69.435  1.00  0.00    -0.149 C  
HETATM   12  C   UNL     1     -11.672  13.495  68.854  1.00  0.00    -0.379 C  
HETATM   13  C   UNL     1     -11.739  11.171  68.001  1.00  0.00    -0.288 C  
HETATM   14  C   UNL     1      -8.742   8.507  68.257  1.00  0.00    -0.143 C  
HETATM   15  C   UNL     1      -9.029   7.697  66.991  1.00  0.00    -0.148 C  
HETATM   16  O   UNL     1      -5.817   6.818  65.751  1.00  0.00    -0.032 OA 
HETATM   17  C   UNL     1     -11.000   9.857  68.264  1.00  0.00    -0.196 C  
HETATM   18  C   UNL     1      -8.106   7.190  66.165  1.00  0.00    -0.121 C  
HETATM   19  O   UNL     1     -11.401   9.400  69.572  1.00  0.00    -0.430 OA 
HETATM   20  C   UNL     1      -9.459   9.908  68.133  1.00  0.00    -0.149 C  
HETATM   21  C   UNL     1      -8.915  11.052  69.006  1.00  0.00    -0.071 C  
HETATM   22  H   UNL     1     -10.942   8.584  69.735  1.00  0.00     0.000 HD 
HETATM   23  C   UNL     1      -7.383  11.049  69.149  1.00  0.00    -0.121 C  
HETATM   24  C   UNL     1      -6.828   9.678  69.507  1.00  0.00    -0.056 C  
HETATM   25  C   UNL     1      -7.233   8.721  68.423  1.00  0.00    -0.081 C  
HETATM   26  C   UNL     1      -6.304   8.177  67.617  1.00  0.00    -0.053 C  
HETATM   27  C   UNL     1      -6.672   7.343  66.454  1.00  0.00    -0.060 C  
ENDROOT
BRANCH   9  28
HETATM   28  C   UNL     1     -11.399  14.321  66.063  1.00  0.00    -0.335 C  
HETATM   29  O   UNL     1     -10.989  15.411  66.476  1.00  0.00    -0.315 OA 
BRANCH  28  30
HETATM   30  C   UNL     1     -12.642  14.255  65.164  1.00  0.00    -0.372 C  
HETATM   31  O   UNL     1     -12.382  14.664  63.829  1.00  0.00    -1.030 OA 
HETATM   32  H   UNL     1     -13.151  14.623  63.273  1.00  0.00     0.000 HD 
ENDBRANCH  28  30
ENDBRANCH   9  28
TORSDOF 2
ENDMDL
MODEL       23
REMARK 921   NORMALIZED FREE ENERGY PREDICTED BY IDOCK:   -5.92 KCAL/MOL
REMARK 922        TOTAL FREE ENERGY PREDICTED BY IDOCK:   -6.53 KCAL/MOL
REMARK 923 INTER-LIGAND FREE ENERGY PREDICTED BY IDOCK:   -6.05 KCAL/MOL
REMARK 924 INTRA-LIGAND FREE ENERGY PREDICTED BY IDOCK:   -0.48 KCAL/MOL
REMARK 927      BINDING AFFINITY PREDICTED BY RF-SCORE:    0.00 PKD
ROOT
HETATM    1  C   UNL     1      -8.056  10.213  68.734  1.00  0.00    -0.111 C  
HETATM    2  C   UNL     1      -6.950   9.321  68.122  1.00  0.00    -0.076 C  
HETATM    3  C   UNL     1      -7.618   8.494  67.048  1.00  0.00    -0.092 C  
HETATM    4  O   UNL     1      -8.404   7.423  67.584  1.00  0.00    -0.117 OA 
HETATM    5  C   UNL     1      -9.448   7.250  66.633  1.00  0.00    -0.177 C  
HETATM    6  C   UNL     1      -9.004   6.171  65.637  1.00  0.00    -0.056 C  
HETATM    7  C   UNL     1     -10.774   6.782  67.214  1.00  0.00    -0.423 C  
HETATM    8  O   UNL     1      -9.692   8.516  66.019  1.00  0.00    -0.222 OA 
HETATM    9  C   UNL     1      -8.630   9.419  66.394  1.00  0.00    -0.134 C  
HETATM   10  C   UNL     1      -9.015  10.505  67.510  1.00  0.00    -0.137 C  
HETATM   11  C   UNL     1     -11.468   9.049  72.012  1.00  0.00    -0.408 C  
HETATM   12  C   UNL     1      -8.664  11.973  67.112  1.00  0.00    -0.183 C  
HETATM   13  C   UNL     1     -10.539  10.510  67.803  1.00  0.00    -0.285 C  
HETATM   14  C   UNL     1     -10.598   8.188  71.083  1.00  0.00    -0.242 C  
HETATM   15  C   UNL     1     -11.501   7.066  70.568  1.00  0.00    -0.363 C  
HETATM   16  O   UNL     1     -10.191   4.118  72.058  1.00  0.00    -0.179 OA 
HETATM   17  C   UNL     1     -11.035   9.855  69.094  1.00  0.00    -0.200 C  
HETATM   18  C   UNL     1     -11.356   5.764  70.840  1.00  0.00    -0.106 C  
HETATM   19  O   UNL     1     -11.534  10.911  69.940  1.00  0.00    -0.271 OA 
HETATM   20  C   UNL     1     -10.010   8.970  69.843  1.00  0.00    -0.203 C  
HETATM   21  C   UNL     1      -8.720   9.776  70.072  1.00  0.00    -0.237 C  
HETATM   22  H   UNL     1     -11.842  10.505  70.742  1.00  0.00     0.000 HD 
HETATM   23  C   UNL     1      -7.719   9.088  71.018  1.00  0.00    -0.153 C  
HETATM   24  C   UNL     1      -8.369   8.583  72.297  1.00  0.00    -0.184 C  
HETATM   25  C   UNL     1      -9.446   7.609  71.911  1.00  0.00    -0.183 C  
HETATM   26  C   UNL     1      -9.323   6.306  72.219  1.00  0.00    -0.146 C  
HETATM   27  C   UNL     1     -10.288   5.297  71.738  1.00  0.00    -0.214 C  
ENDROOT
BRANCH   9  28
HETATM   28  C   UNL     1      -8.090   9.968  65.064  1.00  0.00    -0.145 C  
HETATM   29  O   UNL     1      -6.898  10.242  64.893  1.00  0.00    -0.132 OA 
BRANCH  28  30
HETATM   30  C   UNL     1      -9.102  10.189  63.930  1.00  0.00    -0.260 C  
HETATM   31  O   UNL     1      -9.374   9.006  63.192  1.00  0.00    -0.412 OA 
HETATM   32  H   UNL     1     -10.000   9.143  62.491  1.00  0.00     0.000 HD 
ENDBRANCH  28  30
ENDBRANCH   9  28
TORSDOF 2
ENDMDL
MODEL       24
REMARK 921   NORMALIZED FREE ENERGY PREDICTED BY IDOCK:   -5.88 KCAL/MOL
REMARK 922        TOTAL FREE ENERGY PREDICTED BY IDOCK:   -6.49 KCAL/MOL
REMARK 923 INTER-LIGAND FREE ENERGY PREDICTED BY IDOCK:   -6.03 KCAL/MOL
REMARK 924 INTRA-LIGAND FREE ENERGY PREDICTED BY IDOCK:   -0.46 KCAL/MOL
REMARK 927      BINDING AFFINITY PREDICTED BY RF-SCORE:    0.00 PKD
ROOT
HETATM    1  C   UNL     1      -9.828  10.315  69.353  1.00  0.00    -0.247 C  
HETATM    2  C   UNL     1     -10.567   9.129  68.691  1.00  0.00    -0.207 C  
HETATM    3  C   UNL     1      -9.738   8.728  67.493  1.00  0.00    -0.167 C  
HETATM    4  O   UNL     1      -9.881   9.635  66.393  1.00  0.00    -0.208 OA 
HETATM    5  C   UNL     1      -8.624   9.575  65.729  1.00  0.00    -0.138 C  
HETATM    6  C   UNL     1      -8.727   8.518  64.622  1.00  0.00    -0.023 C  
HETATM    7  C   UNL     1      -8.193  10.868  65.053  1.00  0.00     0.081 C  
HETATM    8  O   UNL     1      -7.629   9.271  66.707  1.00  0.00    -0.090 OA 
HETATM    9  C   UNL     1      -8.292   8.884  67.929  1.00  0.00    -0.118 C  
HETATM   10  C   UNL     1      -8.301   9.995  69.086  1.00  0.00    -0.146 C  
HETATM   11  C   UNL     1      -9.778  15.010  68.049  1.00  0.00    -0.213 C  
HETATM   12  C   UNL     1      -7.789   9.477  70.466  1.00  0.00    -0.182 C  
HETATM   13  C   UNL     1      -7.387  11.199  68.732  1.00  0.00    -0.114 C  
HETATM   14  C   UNL     1     -10.147  13.732  67.280  1.00  0.00    -0.239 C  
HETATM   15  C   UNL     1      -9.592  13.908  65.865  1.00  0.00    -0.171 C  
HETATM   16  O   UNL     1     -12.476  14.187  63.807  1.00  0.00    -0.791 OA 
HETATM   17  C   UNL     1      -8.043  12.502  68.271  1.00  0.00    -0.165 C  
HETATM   18  C   UNL     1     -10.324  14.013  64.749  1.00  0.00    -0.407 C  
HETATM   19  O   UNL     1      -7.820  13.479  69.308  1.00  0.00    -0.324 OA 
HETATM   20  C   UNL     1      -9.542  12.411  67.897  1.00  0.00    -0.205 C  
HETATM   21  C   UNL     1     -10.315  11.764  69.059  1.00  0.00    -0.087 C  
HETATM   22  H   UNL     1      -8.227  14.288  69.022  1.00  0.00     0.000 HD 
HETATM   23  C   UNL     1     -11.844  11.841  68.907  1.00  0.00    -0.381 C  
HETATM   24  C   UNL     1     -12.330  13.235  68.539  1.00  0.00     0.099 C  
HETATM   25  C   UNL     1     -11.676  13.623  67.244  1.00  0.00    -0.416 C  
HETATM   26  C   UNL     1     -12.413  13.770  66.130  1.00  0.00    -0.466 C  
HETATM   27  C   UNL     1     -11.794  14.012  64.810  1.00  0.00    -0.403 C  
ENDROOT
BRANCH   9  28
HETATM   28  C   UNL     1      -7.681   7.522  68.295  1.00  0.00    -0.120 C  
HETATM   29  O   UNL     1      -8.340   6.617  68.818  1.00  0.00    -0.118 OA 
BRANCH  28  30
HETATM   30  C   UNL     1      -6.187   7.318  68.005  1.00  0.00    -0.039 C  
HETATM   31  O   UNL     1      -5.942   6.795  66.707  1.00  0.00    -0.023 OA 
HETATM   32  H   UNL     1      -5.018   6.669  66.527  1.00  0.00     0.000 HD 
ENDBRANCH  28  30
ENDBRANCH   9  28
TORSDOF 2
ENDMDL
MODEL       25
REMARK 921   NORMALIZED FREE ENERGY PREDICTED BY IDOCK:   -5.84 KCAL/MOL
REMARK 922        TOTAL FREE ENERGY PREDICTED BY IDOCK:   -6.44 KCAL/MOL
REMARK 923 INTER-LIGAND FREE ENERGY PREDICTED BY IDOCK:   -6.58 KCAL/MOL
REMARK 924 INTRA-LIGAND FREE ENERGY PREDICTED BY IDOCK:    0.14 KCAL/MOL
REMARK 927      BINDING AFFINITY PREDICTED BY RF-SCORE:    0.00 PKD
ROOT
HETATM    1  C   UNL     1     -10.225   7.796  69.360  1.00  0.00    -0.208 C  
HETATM    2  C   UNL     1     -11.179   6.589  69.211  1.00  0.00    -0.390 C  
HETATM    3  C   UNL     1     -11.521   6.143  70.614  1.00  0.00    -0.261 C  
HETATM    4  O   UNL     1     -10.453   5.422  71.241  1.00  0.00    -0.226 OA 
HETATM    5  C   UNL     1     -10.601   5.715  72.625  1.00  0.00    -0.225 C  
HETATM    6  C   UNL     1     -11.460   4.609  73.251  1.00  0.00    -0.346 C  
HETATM    7  C   UNL     1      -9.303   5.754  73.416  1.00  0.00    -0.134 C  
HETATM    8  O   UNL     1     -11.189   7.012  72.734  1.00  0.00    -0.274 OA 
HETATM    9  C   UNL     1     -11.646   7.419  71.427  1.00  0.00    -0.275 C  
HETATM   10  C   UNL     1     -10.726   8.503  70.684  1.00  0.00    -0.251 C  
HETATM   11  C   UNL     1      -5.451   7.830  70.334  1.00  0.00    -0.023 C  
HETATM   12  C   UNL     1     -11.509   9.747  70.161  1.00  0.00    -0.272 C  
HETATM   13  C   UNL     1      -9.633   9.071  71.629  1.00  0.00    -0.319 C  
HETATM   14  C   UNL     1      -6.534   6.758  70.534  1.00  0.00    -0.047 C  
HETATM   15  C   UNL     1      -6.239   6.097  71.882  1.00  0.00    -0.042 C  
HETATM   16  O   UNL     1      -5.240   2.790  71.047  1.00  0.00    -0.003 OA 
HETATM   17  C   UNL     1      -8.194   8.580  71.457  1.00  0.00    -0.155 C  
HETATM   18  C   UNL     1      -5.866   4.824  72.058  1.00  0.00    -0.016 C  
HETATM   19  O   UNL     1      -7.422   9.695  70.967  1.00  0.00    -0.327 OA 
HETATM   20  C   UNL     1      -8.006   7.329  70.565  1.00  0.00    -0.104 C  
HETATM   21  C   UNL     1      -8.693   7.567  69.209  1.00  0.00    -0.136 C  
HETATM   22  H   UNL     1      -6.528   9.390  70.860  1.00  0.00     0.000 HD 
HETATM   23  C   UNL     1      -8.368   6.497  68.153  1.00  0.00    -0.116 C  
HETATM   24  C   UNL     1      -6.879   6.203  68.050  1.00  0.00    -0.067 C  
HETATM   25  C   UNL     1      -6.409   5.737  69.399  1.00  0.00    -0.040 C  
HETATM   26  C   UNL     1      -5.994   4.470  69.570  1.00  0.00    -0.018 C  
HETATM   27  C   UNL     1      -5.657   3.934  70.905  1.00  0.00    -0.012 C  
ENDROOT
BRANCH   9  28
HETATM   28  C   UNL     1     -13.123   7.798  71.626  1.00  0.00    -0.345 C  
HETATM   29  O   UNL     1     -14.049   7.140  71.140  1.00  0.00    -0.291 OA 
BRANCH  28  30
HETATM   30  C   UNL     1     -13.422   9.060  72.449  1.00  0.00    -0.470 C  
HETATM   31  O   UNL     1     -14.402   8.845  73.454  1.00  0.00    -1.192 OA 
HETATM   32  H   UNL     1     -14.587   9.625  73.963  1.00  0.00     0.000 HD 
ENDBRANCH  28  30
ENDBRANCH   9  28
TORSDOF 2
ENDMDL
MODEL       26
REMARK 921   NORMALIZED FREE ENERGY PREDICTED BY IDOCK:   -5.82 KCAL/MOL
REMARK 922        TOTAL FREE ENERGY PREDICTED BY IDOCK:   -6.42 KCAL/MOL
REMARK 923 INTER-LIGAND FREE ENERGY PREDICTED BY IDOCK:   -5.99 KCAL/MOL
REMARK 924 INTRA-LIGAND FREE ENERGY PREDICTED BY IDOCK:   -0.43 KCAL/MOL
REMARK 927      BINDING AFFINITY PREDICTED BY RF-SCORE:    0.00 PKD
ROOT
HETATM    1  C   UNL     1     -10.652   7.116  68.892  1.00  0.00    -0.218 C  
HETATM    2  C   UNL     1      -9.553   6.031  68.825  1.00  0.00    -0.148 C  
HETATM    3  C   UNL     1      -8.623   6.297  69.987  1.00  0.00    -0.134 C  
HETATM    4  O   UNL     1      -7.755   7.413  69.756  1.00  0.00    -0.098 OA 
HETATM    5  C   UNL     1      -7.527   7.949  71.053  1.00  0.00    -0.073 C  
HETATM    6  C   UNL     1      -6.247   7.313  71.608  1.00  0.00    -0.037 C  
HETATM    7  C   UNL     1      -7.315   9.455  71.097  1.00  0.00     0.008 C  
HETATM    8  O   UNL     1      -8.682   7.674  71.848  1.00  0.00    -0.109 OA 
HETATM    9  C   UNL     1      -9.518   6.742  71.130  1.00  0.00    -0.163 C  
HETATM   10  C   UNL     1     -10.822   7.377  70.444  1.00  0.00    -0.258 C  
HETATM   11  C   UNL     1     -10.465  11.763  67.436  1.00  0.00    -0.238 C  
HETATM   12  C   UNL     1     -12.149   6.636  70.797  1.00  0.00    -0.364 C  
HETATM   13  C   UNL     1     -11.041   8.849  70.884  1.00  0.00    -0.328 C  
HETATM   14  C   UNL     1      -9.364  10.741  67.761  1.00  0.00    -0.158 C  
HETATM   15  C   UNL     1      -8.270  11.511  68.505  1.00  0.00    -0.148 C  
HETATM   16  O   UNL     1      -5.513  11.525  66.262  1.00  0.00    -0.226 OA 
HETATM   17  C   UNL     1     -10.685   9.965  69.900  1.00  0.00    -0.280 C  
HETATM   18  C   UNL     1      -7.030  11.731  68.053  1.00  0.00    -0.076 C  
HETATM   19  O   UNL     1     -11.922  10.589  69.500  1.00  0.00    -0.436 OA 
HETATM   20  C   UNL     1      -9.844   9.544  68.672  1.00  0.00    -0.173 C  
HETATM   21  C   UNL     1     -10.535   8.363  67.967  1.00  0.00    -0.242 C  
HETATM   22  H   UNL     1     -11.701  11.282  68.889  1.00  0.00     0.000 HD 
HETATM   23  C   UNL     1      -9.925   8.014  66.599  1.00  0.00    -0.326 C  
HETATM   24  C   UNL     1      -9.729   9.235  65.712  1.00  0.00    -0.339 C  
HETATM   25  C   UNL     1      -8.822  10.188  66.438  1.00  0.00    -0.158 C  
HETATM   26  C   UNL     1      -7.590  10.443  65.965  1.00  0.00    -0.137 C  
HETATM   27  C   UNL     1      -6.619  11.262  66.720  1.00  0.00    -0.140 C  
ENDROOT
BRANCH   9  28
HETATM   28  C   UNL     1      -9.760   5.587  72.117  1.00  0.00    -0.158 C  
HETATM   29  O   UNL     1      -9.871   4.413  71.751  1.00  0.00    -0.168 OA 
BRANCH  28  30
HETATM   30  C   UNL     1      -9.881   5.946  73.605  1.00  0.00    -0.174 C  
HETATM   31  O   UNL     1     -10.710   7.076  73.835  1.00  0.00    -0.490 OA 
HETATM   32  H   UNL     1     -10.786   7.297  74.756  1.00  0.00     0.000 HD 
ENDBRANCH  28  30
ENDBRANCH   9  28
TORSDOF 2
ENDMDL
MODEL       27
REMARK 921   NORMALIZED FREE ENERGY PREDICTED BY IDOCK:   -5.79 KCAL/MOL
REMARK 922        TOTAL FREE ENERGY PREDICTED BY IDOCK:   -6.39 KCAL/MOL
REMARK 923 INTER-LIGAND FREE ENERGY PREDICTED BY IDOCK:   -5.92 KCAL/MOL
REMARK 924 INTRA-LIGAND FREE ENERGY PREDICTED BY IDOCK:   -0.46 KCAL/MOL
REMARK 927      BINDING AFFINITY PREDICTED BY RF-SCORE:    0.00 PKD
ROOT
HETATM    1  C   UNL     1     -11.182  10.719  66.819  1.00  0.00    -0.053 C  
HETATM    2  C   UNL     1     -11.353  11.470  68.160  1.00  0.00    -0.367 C  
HETATM    3  C   UNL     1     -10.304  12.557  68.174  1.00  0.00    -0.232 C  
HETATM    4  O   UNL     1      -8.989  12.055  68.443  1.00  0.00    -0.183 OA 
HETATM    5  C   UNL     1      -8.128  12.944  67.743  1.00  0.00    -0.166 C  
HETATM    6  C   UNL     1      -7.697  14.047  68.718  1.00  0.00    -0.112 C  
HETATM    7  C   UNL     1      -6.849  12.315  67.212  1.00  0.00    -0.140 C  
HETATM    8  O   UNL     1      -8.842  13.442  66.611  1.00  0.00    -0.176 OA 
HETATM    9  C   UNL     1     -10.230  13.070  66.747  1.00  0.00    -0.246 C  
HETATM   10  C   UNL     1     -10.708  11.851  65.819  1.00  0.00    -0.327 C  
HETATM   11  C   UNL     1      -7.908   7.321  65.603  1.00  0.00    -0.112 C  
HETATM   12  C   UNL     1     -11.987  12.157  64.980  1.00  0.00    -0.343 C  
HETATM   13  C   UNL     1      -9.619  11.458  64.785  1.00  0.00    -0.239 C  
HETATM   14  C   UNL     1      -7.934   8.369  66.727  1.00  0.00    -0.098 C  
HETATM   15  C   UNL     1      -6.507   8.908  66.844  1.00  0.00    -0.060 C  
HETATM   16  O   UNL     1      -5.373   7.738  70.002  1.00  0.00    -0.023 OA 
HETATM   17  C   UNL     1      -8.799  10.190  65.036  1.00  0.00    -0.181 C  
HETATM   18  C   UNL     1      -5.699   8.747  67.898  1.00  0.00    -0.035 C  
HETATM   19  O   UNL     1      -9.175   9.235  64.024  1.00  0.00    -0.433 OA 
HETATM   20  C   UNL     1      -8.909   9.581  66.454  1.00  0.00    -0.164 C  
HETATM   21  C   UNL     1     -10.393   9.377  66.803  1.00  0.00    -0.303 C  
HETATM   22  H   UNL     1      -8.666   8.448  64.179  1.00  0.00     0.000 HD 
HETATM   23  C   UNL     1     -10.622   8.556  68.084  1.00  0.00    -0.181 C  
HETATM   24  C   UNL     1      -9.796   7.279  68.120  1.00  0.00    -0.165 C  
HETATM   25  C   UNL     1      -8.348   7.666  68.024  1.00  0.00    -0.124 C  
HETATM   26  C   UNL     1      -7.523   7.468  69.067  1.00  0.00    -0.096 C  
HETATM   27  C   UNL     1      -6.130   7.960  69.064  1.00  0.00    -0.039 C  
ENDROOT
BRANCH   9  28
HETATM   28  C   UNL     1     -11.009  14.387  66.598  1.00  0.00    -0.318 C  
HETATM   29  O   UNL     1     -12.063  14.608  67.203  1.00  0.00    -0.362 OA 
BRANCH  28  30
HETATM   30  C   UNL     1     -10.436  15.439  65.637  1.00  0.00    -0.372 C  
HETATM   31  O   UNL     1      -9.524  16.326  66.268  1.00  0.00    -0.272 OA 
HETATM   32  H   UNL     1      -9.170  16.977  65.674  1.00  0.00     0.000 HD 
ENDBRANCH  28  30
ENDBRANCH   9  28
TORSDOF 2
ENDMDL
MODEL       28
REMARK 921   NORMALIZED FREE ENERGY PREDICTED BY IDOCK:   -5.72 KCAL/MOL
REMARK 922        TOTAL FREE ENERGY PREDICTED BY IDOCK:   -6.31 KCAL/MOL
REMARK 923 INTER-LIGAND FREE ENERGY PREDICTED BY IDOCK:   -5.88 KCAL/MOL
REMARK 924 INTRA-LIGAND FREE ENERGY PREDICTED BY IDOCK:   -0.43 KCAL/MOL
REMARK 927      BINDING AFFINITY PREDICTED BY RF-SCORE:    0.00 PKD
ROOT
HETATM    1  C   UNL     1     -11.000  13.426  66.652  1.00  0.00    -0.297 C  
HETATM    2  C   UNL     1     -10.132  12.658  65.629  1.00  0.00    -0.285 C  
HETATM    3  C   UNL     1      -8.965  12.092  66.403  1.00  0.00    -0.161 C  
HETATM    4  O   UNL     1      -7.983  13.084  66.729  1.00  0.00     0.030 OA 
HETATM    5  C   UNL     1      -7.423  12.628  67.954  1.00  0.00    -0.124 C  
HETATM    6  C   UNL     1      -6.184  11.787  67.622  1.00  0.00    -0.078 C  
HETATM    7  C   UNL     1      -6.957  13.729  68.896  1.00  0.00    -0.111 C  
HETATM    8  O   UNL     1      -8.432  11.894  68.648  1.00  0.00    -0.132 OA 
HETATM    9  C   UNL     1      -9.535  11.667  67.745  1.00  0.00    -0.178 C  
HETATM   10  C   UNL     1     -10.822  12.595  67.987  1.00  0.00    -0.249 C  
HETATM   11  C   UNL     1     -10.322  17.874  68.523  1.00  0.00    -0.365 C  
HETATM   12  C   UNL     1     -12.160  11.803  68.107  1.00  0.00    -0.040 C  
HETATM   13  C   UNL     1     -10.703  13.407  69.305  1.00  0.00    -0.018 C  
HETATM   14  C   UNL     1      -9.366  16.896  67.823  1.00  0.00    -0.235 C  
HETATM   15  C   UNL     1      -8.037  16.983  68.576  1.00  0.00    -0.251 C  
HETATM   16  O   UNL     1      -5.802  18.483  66.255  1.00  0.00    -0.148 OA 
HETATM   17  C   UNL     1     -10.361  14.896  69.215  1.00  0.00    -0.234 C  
HETATM   18  C   UNL     1      -6.888  17.450  68.073  1.00  0.00    -0.182 C  
HETATM   19  O   UNL     1     -11.530  15.625  69.640  1.00  0.00    -0.290 OA 
HETATM   20  C   UNL     1      -9.855  15.394  67.840  1.00  0.00    -0.219 C  
HETATM   21  C   UNL     1     -10.857  14.973  66.750  1.00  0.00    -0.318 C  
HETATM   22  H   UNL     1     -11.318  16.550  69.584  1.00  0.00     0.000 HD 
HETATM   23  C   UNL     1     -10.590  15.618  65.379  1.00  0.00    -0.436 C  
HETATM   24  C   UNL     1     -10.366  17.120  65.468  1.00  0.00    -0.132 C  
HETATM   25  C   UNL     1      -9.190  17.357  66.373  1.00  0.00    -0.272 C  
HETATM   26  C   UNL     1      -8.048  17.864  65.879  1.00  0.00    -0.017 C  
HETATM   27  C   UNL     1      -6.826  17.981  66.702  1.00  0.00    -0.204 C  
ENDROOT
BRANCH   9  28
HETATM   28  C   UNL     1      -9.771  10.149  67.784  1.00  0.00    -0.153 C  
HETATM   29  O   UNL     1     -10.151   9.510  66.796  1.00  0.00    -0.214 OA 
BRANCH  28  30
HETATM   30  C   UNL     1      -9.536   9.432  69.121  1.00  0.00    -0.163 C  
HETATM   31  O   UNL     1      -9.998  10.179  70.237  1.00  0.00    -0.400 OA 
HETATM   32  H   UNL     1      -9.852   9.736  71.065  1.00  0.00     0.000 HD 
ENDBRANCH  28  30
ENDBRANCH   9  28
TORSDOF 2
ENDMDL
MODEL       29
REMARK 921   NORMALIZED FREE ENERGY PREDICTED BY IDOCK:   -5.71 KCAL/MOL
REMARK 922        TOTAL FREE ENERGY PREDICTED BY IDOCK:   -6.29 KCAL/MOL
REMARK 923 INTER-LIGAND FREE ENERGY PREDICTED BY IDOCK:   -6.41 KCAL/MOL
REMARK 924 INTRA-LIGAND FREE ENERGY PREDICTED BY IDOCK:    0.11 KCAL/MOL
REMARK 927      BINDING AFFINITY PREDICTED BY RF-SCORE:    0.00 PKD
ROOT
HETATM    1  C   UNL     1      -8.561   6.786  67.818  1.00  0.00    -0.121 C  
HETATM    2  C   UNL     1      -9.538   6.916  66.627  1.00  0.00    -0.218 C  
HETATM    3  C   UNL     1      -9.714   8.397  66.383  1.00  0.00    -0.242 C  
HETATM    4  O   UNL     1     -10.566   9.020  67.352  1.00  0.00    -0.275 OA 
HETATM    5  C   UNL     1     -10.071  10.351  67.444  1.00  0.00    -0.196 C  
HETATM    6  C   UNL     1     -10.872  11.219  66.466  1.00  0.00    -0.319 C  
HETATM    7  C   UNL     1     -10.218  10.997  68.814  1.00  0.00    -0.211 C  
HETATM    8  O   UNL     1      -8.674  10.318  67.152  1.00  0.00    -0.129 OA 
HETATM    9  C   UNL     1      -8.348   9.014  66.625  1.00  0.00    -0.118 C  
HETATM   10  C   UNL     1      -7.597   8.029  67.645  1.00  0.00    -0.102 C  
HETATM   11  C   UNL     1      -9.453   7.275  72.583  1.00  0.00    -0.186 C  
HETATM   12  C   UNL     1      -6.289   7.401  67.071  1.00  0.00    -0.052 C  
HETATM   13  C   UNL     1      -7.168   8.766  68.941  1.00  0.00    -0.074 C  
HETATM   14  C   UNL     1     -10.225   7.741  71.339  1.00  0.00    -0.211 C  
HETATM   15  C   UNL     1     -10.757   9.139  71.662  1.00  0.00    -0.441 C  
HETATM   16  O   UNL     1     -14.282   8.725  71.852  1.00  0.00    -0.410 OA 
HETATM   17  C   UNL     1      -7.981   8.532  70.216  1.00  0.00    -0.103 C  
HETATM   18  C   UNL     1     -12.048   9.470  71.787  1.00  0.00    -0.459 C  
HETATM   19  O   UNL     1      -7.135   7.804  71.130  1.00  0.00    -0.049 OA 
HETATM   20  C   UNL     1      -9.346   7.827  70.030  1.00  0.00    -0.157 C  
HETATM   21  C   UNL     1      -9.139   6.524  69.240  1.00  0.00    -0.137 C  
HETATM   22  H   UNL     1      -7.640   7.659  71.922  1.00  0.00     0.000 HD 
HETATM   23  C   UNL     1     -10.381   5.617  69.202  1.00  0.00    -0.328 C  
HETATM   24  C   UNL     1     -11.006   5.416  70.574  1.00  0.00    -0.101 C  
HETATM   25  C   UNL     1     -11.387   6.768  71.108  1.00  0.00    -0.342 C  
HETATM   26  C   UNL     1     -12.681   7.090  71.274  1.00  0.00    -0.400 C  
HETATM   27  C   UNL     1     -13.102   8.452  71.662  1.00  0.00    -0.334 C  
ENDROOT
BRANCH   9  28
HETATM   28  C   UNL     1      -7.631   9.295  65.294  1.00  0.00    -0.099 C  
HETATM   29  O   UNL     1      -6.463   9.693  65.239  1.00  0.00    -0.074 OA 
BRANCH  28  30
HETATM   30  C   UNL     1      -8.433   9.080  64.002  1.00  0.00    -0.163 C  
HETATM   31  O   UNL     1      -8.309   7.762  63.487  1.00  0.00    -0.355 OA 
HETATM   32  H   UNL     1      -8.805   7.629  62.688  1.00  0.00     0.000 HD 
ENDBRANCH  28  30
ENDBRANCH   9  28
TORSDOF 2
ENDMDL
MODEL       30
REMARK 921   NORMALIZED FREE ENERGY PREDICTED BY IDOCK:   -5.58 KCAL/MOL
REMARK 922        TOTAL FREE ENERGY PREDICTED BY IDOCK:   -6.15 KCAL/MOL
REMARK 923 INTER-LIGAND FREE ENERGY PREDICTED BY IDOCK:   -5.69 KCAL/MOL
REMARK 924 INTRA-LIGAND FREE ENERGY PREDICTED BY IDOCK:   -0.46 KCAL/MOL
REMARK 927      BINDING AFFINITY PREDICTED BY RF-SCORE:    0.00 PKD
ROOT
HETATM    1  C   UNL     1     -10.543   8.134  71.353  1.00  0.00    -0.269 C  
HETATM    2  C   UNL     1     -11.671   7.207  70.846  1.00  0.00    -0.367 C  
HETATM    3  C   UNL     1     -10.990   6.014  70.217  1.00  0.00    -0.342 C  
HETATM    4  O   UNL     1     -10.437   6.308  68.928  1.00  0.00    -0.185 OA 
HETATM    5  C   UNL     1      -9.312   5.445  68.827  1.00  0.00    -0.128 C  
HETATM    6  C   UNL     1      -9.767   4.159  68.126  1.00  0.00    -0.152 C  
HETATM    7  C   UNL     1      -8.151   5.994  68.010  1.00  0.00    -0.110 C  
HETATM    8  O   UNL     1      -8.815   5.220  70.147  1.00  0.00    -0.120 OA 
HETATM    9  C   UNL     1      -9.781   5.728  71.092  1.00  0.00    -0.169 C  
HETATM   10  C   UNL     1      -9.399   7.126  71.780  1.00  0.00    -0.155 C  
HETATM   11  C   UNL     1      -7.786  11.269  68.840  1.00  0.00    -0.125 C  
HETATM   12  C   UNL     1      -9.487   7.110  73.337  1.00  0.00    -0.234 C  
HETATM   13  C   UNL     1      -7.941   7.546  71.452  1.00  0.00    -0.095 C  
HETATM   14  C   UNL     1      -8.638  10.067  68.402  1.00  0.00    -0.113 C  
HETATM   15  C   UNL     1      -7.839   9.351  67.310  1.00  0.00    -0.099 C  
HETATM   16  O   UNL     1      -9.731   9.865  64.346  1.00  0.00    -0.274 OA 
HETATM   17  C   UNL     1      -7.715   8.651  70.419  1.00  0.00    -0.081 C  
HETATM   18  C   UNL     1      -8.199   9.247  66.026  1.00  0.00    -0.111 C  
HETATM   19  O   UNL     1      -7.190   9.792  71.127  1.00  0.00    -0.327 OA 
HETATM   20  C   UNL     1      -8.943   9.037  69.559  1.00  0.00    -0.147 C  
HETATM   21  C   UNL     1     -10.128   9.359  70.487  1.00  0.00    -0.335 C  
HETATM   22  H   UNL     1      -7.049  10.479  70.484  1.00  0.00     0.000 HD 
HETATM   23  C   UNL     1     -11.329   9.989  69.762  1.00  0.00    -0.281 C  
HETATM   24  C   UNL     1     -10.930  11.137  68.847  1.00  0.00    -0.276 C  
HETATM   25  C   UNL     1      -9.958  10.601  67.835  1.00  0.00    -0.189 C  
HETATM   26  C   UNL     1     -10.300  10.533  66.537  1.00  0.00    -0.294 C  
HETATM   27  C   UNL     1      -9.430   9.885  65.534  1.00  0.00    -0.252 C  
ENDROOT
BRANCH   9  28
HETATM   28  C   UNL     1     -10.060   4.553  72.042  1.00  0.00    -0.196 C  
HETATM   29  O   UNL     1     -11.111   4.452  72.684  1.00  0.00    -0.092 OA 
BRANCH  28  30
HETATM   30  C   UNL     1      -8.962   3.490  72.191  1.00  0.00    -0.100 C  
HETATM   31  O   UNL     1      -7.718   4.036  72.605  1.00  0.00    -0.071 OA 
HETATM   32  H   UNL     1      -7.038   3.379  72.698  1.00  0.00     0.000 HD 
ENDBRANCH  28  30
ENDBRANCH   9  28
TORSDOF 2
ENDMDL
MODEL       31
REMARK 921   NORMALIZED FREE ENERGY PREDICTED BY IDOCK:   -5.55 KCAL/MOL
REMARK 922        TOTAL FREE ENERGY PREDICTED BY IDOCK:   -6.12 KCAL/MOL
REMARK 923 INTER-LIGAND FREE ENERGY PREDICTED BY IDOCK:   -5.63 KCAL/MOL
REMARK 924 INTRA-LIGAND FREE ENERGY PREDICTED BY IDOCK:   -0.49 KCAL/MOL
REMARK 927      BINDING AFFINITY PREDICTED BY RF-SCORE:    0.00 PKD
ROOT
HETATM    1  C   UNL     1      -9.472   9.133  70.710  1.00  0.00    -0.334 C  
HETATM    2  C   UNL     1      -7.964   9.445  70.577  1.00  0.00    -0.199 C  
HETATM    3  C   UNL     1      -7.458   8.611  69.423  1.00  0.00    -0.080 C  
HETATM    4  O   UNL     1      -7.302   7.228  69.767  1.00  0.00    -0.080 OA 
HETATM    5  C   UNL     1      -7.544   6.538  68.547  1.00  0.00    -0.097 C  
HETATM    6  C   UNL     1      -6.193   6.320  67.853  1.00  0.00    -0.028 C  
HETATM    7  C   UNL     1      -8.176   5.163  68.702  1.00  0.00    -0.085 C  
HETATM    8  O   UNL     1      -8.452   7.324  67.774  1.00  0.00    -0.120 OA 
HETATM    9  C   UNL     1      -8.574   8.622  68.393  1.00  0.00    -0.135 C  
HETATM   10  C   UNL     1      -9.929   8.865  69.218  1.00  0.00    -0.192 C  
HETATM   11  C   UNL     1     -11.636   5.290  72.783  1.00  0.00    -0.270 C  
HETATM   12  C   UNL     1     -10.683  10.173  68.826  1.00  0.00    -0.247 C  
HETATM   13  C   UNL     1     -10.949   7.717  68.995  1.00  0.00     0.035 C  
HETATM   14  C   UNL     1     -10.204   5.513  72.272  1.00  0.00    -0.244 C  
HETATM   15  C   UNL     1      -9.783   4.207  71.593  1.00  0.00    -0.246 C  
HETATM   16  O   UNL     1      -7.230   2.900  73.691  1.00  0.00    -0.039 OA 
HETATM   17  C   UNL     1     -11.137   6.682  70.107  1.00  0.00    -0.329 C  
HETATM   18  C   UNL     1      -8.811   3.390  72.015  1.00  0.00    -0.129 C  
HETATM   19  O   UNL     1     -12.461   6.873  70.644  1.00  0.00    -0.570 OA 
HETATM   20  C   UNL     1     -10.069   6.689  71.227  1.00  0.00    -0.207 C  
HETATM   21  C   UNL     1      -9.937   8.114  71.791  1.00  0.00    -0.264 C  
HETATM   22  H   UNL     1     -12.578   6.230  71.334  1.00  0.00     0.000 HD 
HETATM   23  C   UNL     1      -9.086   8.199  73.070  1.00  0.00    -0.344 C  
HETATM   24  C   UNL     1      -9.475   7.155  74.107  1.00  0.00    -0.281 C  
HETATM   25  C   UNL     1      -9.306   5.800  73.480  1.00  0.00    -0.134 C  
HETATM   26  C   UNL     1      -8.358   4.960  73.928  1.00  0.00    -0.104 C  
HETATM   27  C   UNL     1      -8.068   3.679  73.251  1.00  0.00    -0.079 C  
ENDROOT
BRANCH   9  28
HETATM   28  C   UNL     1      -8.270   9.625  67.268  1.00  0.00    -0.114 C  
HETATM   29  O   UNL     1      -7.776  10.736  67.485  1.00  0.00    -0.102 OA 
BRANCH  28  30
HETATM   30  C   UNL     1      -8.625   9.205  65.834  1.00  0.00    -0.151 C  
HETATM   31  O   UNL     1      -9.960   8.737  65.710  1.00  0.00    -0.459 OA 
HETATM   32  H   UNL     1     -10.180   8.477  64.823  1.00  0.00     0.000 HD 
ENDBRANCH  28  30
ENDBRANCH   9  28
TORSDOF 2
ENDMDL
MODEL       32
REMARK 921   NORMALIZED FREE ENERGY PREDICTED BY IDOCK:   -5.53 KCAL/MOL
REMARK 922        TOTAL FREE ENERGY PREDICTED BY IDOCK:   -6.09 KCAL/MOL
REMARK 923 INTER-LIGAND FREE ENERGY PREDICTED BY IDOCK:   -5.92 KCAL/MOL
REMARK 924 INTRA-LIGAND FREE ENERGY PREDICTED BY IDOCK:   -0.17 KCAL/MOL
REMARK 927      BINDING AFFINITY PREDICTED BY RF-SCORE:    0.00 PKD
ROOT
HETATM    1  C   UNL     1      -9.207  16.091  65.845  1.00  0.00    -0.321 C  
HETATM    2  C   UNL     1     -10.553  16.824  66.046  1.00  0.00    -0.232 C  
HETATM    3  C   UNL     1     -10.651  17.133  67.522  1.00  0.00    -0.323 C  
HETATM    4  O   UNL     1     -10.981  15.982  68.308  1.00  0.00    -0.305 OA 
HETATM    5  C   UNL     1     -10.351  16.223  69.560  1.00  0.00    -0.284 C  
HETATM    6  C   UNL     1     -11.374  16.905  70.477  1.00  0.00     0.530 C  
HETATM    7  C   UNL     1      -9.878  14.977  70.292  1.00  0.00     0.307 C  
HETATM    8  O   UNL     1      -9.193  17.022  69.318  1.00  0.00    -0.128 OA 
HETATM    9  C   UNL     1      -9.241  17.497  67.955  1.00  0.00    -0.275 C  
HETATM   10  C   UNL     1      -8.261  16.746  66.931  1.00  0.00    -0.244 C  
HETATM   11  C   UNL     1      -8.100  11.424  66.706  1.00  0.00    -0.161 C  
HETATM   12  C   UNL     1      -7.359  17.708  66.098  1.00  0.00    -0.344 C  
HETATM   13  C   UNL     1      -7.281  15.796  67.669  1.00  0.00    -0.189 C  
HETATM   14  C   UNL     1      -9.243  12.320  67.207  1.00  0.00    -0.185 C  
HETATM   15  C   UNL     1      -9.453  11.963  68.681  1.00  0.00    -0.087 C  
HETATM   16  O   UNL     1     -12.642  10.399  68.771  1.00  0.00     0.142 OA 
HETATM   17  C   UNL     1      -7.548  14.290  67.618  1.00  0.00    -0.176 C  
HETATM   18  C   UNL     1     -10.547  11.389  69.194  1.00  0.00    -0.196 C  
HETATM   19  O   UNL     1      -6.495  13.699  66.830  1.00  0.00    -0.289 OA 
HETATM   20  C   UNL     1      -8.944  13.866  67.101  1.00  0.00    -0.242 C  
HETATM   21  C   UNL     1      -9.205  14.537  65.741  1.00  0.00     0.132 C  
HETATM   22  H   UNL     1      -6.662  12.763  66.799  1.00  0.00     0.000 HD 
HETATM   23  C   UNL     1     -10.451  14.003  65.015  1.00  0.00    -0.440 C  
HETATM   24  C   UNL     1     -10.505  12.483  64.976  1.00  0.00    -0.323 C  
HETATM   25  C   UNL     1     -10.499  11.987  66.394  1.00  0.00    -0.267 C  
HETATM   26  C   UNL     1     -11.582  11.373  66.901  1.00  0.00    -0.088 C  
HETATM   27  C   UNL     1     -11.669  10.996  68.327  1.00  0.00    -0.229 C  
ENDROOT
BRANCH   9  28
HETATM   28  C   UNL     1      -9.079  19.022  68.063  1.00  0.00    -0.307 C  
HETATM   29  O   UNL     1      -8.119  19.550  68.635  1.00  0.00    -0.352 OA 
BRANCH  28  30
HETATM   30  C   UNL     1     -10.179  19.894  67.440  1.00  0.00    -0.425 C  
HETATM   31  O   UNL     1      -9.831  20.390  66.156  1.00  0.00    -0.621 OA 
HETATM   32  H   UNL     1     -10.512  20.929  65.771  1.00  0.00     0.000 HD 
ENDBRANCH  28  30
ENDBRANCH   9  28
TORSDOF 2
ENDMDL
MODEL       33
REMARK 921   NORMALIZED FREE ENERGY PREDICTED BY IDOCK:   -5.51 KCAL/MOL
REMARK 922        TOTAL FREE ENERGY PREDICTED BY IDOCK:   -6.08 KCAL/MOL
REMARK 923 INTER-LIGAND FREE ENERGY PREDICTED BY IDOCK:   -5.87 KCAL/MOL
REMARK 924 INTRA-LIGAND FREE ENERGY PREDICTED BY IDOCK:   -0.20 KCAL/MOL
REMARK 927      BINDING AFFINITY PREDICTED BY RF-SCORE:    0.00 PKD
ROOT
HETATM    1  C   UNL     1      -8.459  10.112  69.365  1.00  0.00    -0.179 C  
HETATM    2  C   UNL     1      -7.353   9.549  68.442  1.00  0.00    -0.076 C  
HETATM    3  C   UNL     1      -8.061   8.767  67.361  1.00  0.00    -0.105 C  
HETATM    4  O   UNL     1      -8.542   7.497  67.820  1.00  0.00    -0.120 OA 
HETATM    5  C   UNL     1      -9.701   7.259  67.031  1.00  0.00    -0.181 C  
HETATM    6  C   UNL     1      -9.276   6.439  65.806  1.00  0.00     0.032 C  
HETATM    7  C   UNL     1     -10.798   6.464  67.723  1.00  0.00    -0.418 C  
HETATM    8  O   UNL     1     -10.265   8.526  66.690  1.00  0.00    -0.288 OA 
HETATM    9  C   UNL     1      -9.318   9.557  67.044  1.00  0.00    -0.148 C  
HETATM   10  C   UNL     1      -9.666  10.380  68.377  1.00  0.00    -0.167 C  
HETATM   11  C   UNL     1     -10.955   7.854  72.889  1.00  0.00    -0.452 C  
HETATM   12  C   UNL     1      -9.647  11.929  68.188  1.00  0.00    -0.195 C  
HETATM   13  C   UNL     1     -11.087  10.045  68.903  1.00  0.00    -0.219 C  
HETATM   14  C   UNL     1     -10.141   7.320  71.700  1.00  0.00    -0.196 C  
HETATM   15  C   UNL     1     -10.923   6.126  71.148  1.00  0.00    -0.343 C  
HETATM   16  O   UNL     1      -8.881   3.311  71.882  1.00  0.00    -0.086 OA 
HETATM   17  C   UNL     1     -11.216   9.131  70.123  1.00  0.00    -0.187 C  
HETATM   18  C   UNL     1     -10.513   4.852  71.165  1.00  0.00    -0.161 C  
HETATM   19  O   UNL     1     -11.718   9.940  71.206  1.00  0.00    -0.354 OA 
HETATM   20  C   UNL     1      -9.935   8.367  70.537  1.00  0.00    -0.205 C  
HETATM   21  C   UNL     1      -8.779   9.370  70.696  1.00  0.00    -0.263 C  
HETATM   22  H   UNL     1     -11.799   9.372  71.965  1.00  0.00     0.000 HD 
HETATM   23  C   UNL     1      -7.518   8.765  71.339  1.00  0.00    -0.126 C  
HETATM   24  C   UNL     1      -7.824   7.967  72.598  1.00  0.00    -0.169 C  
HETATM   25  C   UNL     1      -8.774   6.866  72.224  1.00  0.00    -0.132 C  
HETATM   26  C   UNL     1      -8.379   5.583  72.279  1.00  0.00    -0.119 C  
HETATM   27  C   UNL     1      -9.233   4.481  71.789  1.00  0.00    -0.134 C  
ENDROOT
BRANCH   9  28
HETATM   28  C   UNL     1      -9.136  10.383  65.760  1.00  0.00    -0.168 C  
HETATM   29  O   UNL     1      -8.032  10.789  65.382  1.00  0.00    -0.126 OA 
BRANCH  28  30
HETATM   30  C   UNL     1     -10.398  10.715  64.950  1.00  0.00    -0.277 C  
HETATM   31  O   UNL     1     -10.119  11.015  63.590  1.00  0.00    -0.312 OA 
HETATM   32  H   UNL     1     -10.900  11.220  63.089  1.00  0.00     0.000 HD 
ENDBRANCH  28  30
ENDBRANCH   9  28
TORSDOF 2
ENDMDL
MODEL       34
REMARK 921   NORMALIZED FREE ENERGY PREDICTED BY IDOCK:   -5.51 KCAL/MOL
REMARK 922        TOTAL FREE ENERGY PREDICTED BY IDOCK:   -6.07 KCAL/MOL
REMARK 923 INTER-LIGAND FREE ENERGY PREDICTED BY IDOCK:   -5.59 KCAL/MOL
REMARK 924 INTRA-LIGAND FREE ENERGY PREDICTED BY IDOCK:   -0.49 KCAL/MOL
REMARK 927      BINDING AFFINITY PREDICTED BY RF-SCORE:    0.00 PKD
ROOT
HETATM    1  C   UNL     1      -8.996   5.746  68.798  1.00  0.00    -0.116 C  
HETATM    2  C   UNL     1     -10.408   5.754  68.167  1.00  0.00    -0.264 C  
HETATM    3  C   UNL     1     -11.242   6.692  69.008  1.00  0.00    -0.220 C  
HETATM    4  O   UNL     1     -11.633   6.114  70.259  1.00  0.00    -0.362 OA 
HETATM    5  C   UNL     1     -11.724   7.225  71.142  1.00  0.00    -0.303 C  
HETATM    6  C   UNL     1     -13.178   7.716  71.133  1.00  0.00    -0.190 C  
HETATM    7  C   UNL     1     -11.380   6.923  72.593  1.00  0.00    -0.272 C  
HETATM    8  O   UNL     1     -10.795   8.214  70.696  1.00  0.00    -0.225 OA 
HETATM    9  C   UNL     1     -10.313   7.831  69.390  1.00  0.00    -0.219 C  
HETATM   10  C   UNL     1      -8.831   7.217  69.358  1.00  0.00    -0.136 C  
HETATM   11  C   UNL     1      -7.407   3.339  72.726  1.00  0.00    -0.049 C  
HETATM   12  C   UNL     1      -7.885   7.899  68.322  1.00  0.00    -0.120 C  
HETATM   13  C   UNL     1      -8.119   7.366  70.729  1.00  0.00    -0.110 C  
HETATM   14  C   UNL     1      -8.819   3.713  72.249  1.00  0.00    -0.117 C  
HETATM   15  C   UNL     1      -9.601   4.118  73.501  1.00  0.00    -0.136 C  
HETATM   16  O   UNL     1     -12.034   1.559  73.897  1.00  0.00    -0.155 OA 
HETATM   17  C   UNL     1      -7.991   6.131  71.622  1.00  0.00    -0.103 C  
HETATM   18  C   UNL     1     -10.650   3.462  74.010  1.00  0.00    -0.273 C  
HETATM   19  O   UNL     1      -6.592   5.787  71.672  1.00  0.00    -0.050 OA 
HETATM   20  C   UNL     1      -8.857   4.912  71.222  1.00  0.00    -0.154 C  
HETATM   21  C   UNL     1      -8.601   4.574  69.744  1.00  0.00    -0.095 C  
HETATM   22  H   UNL     1      -6.512   5.019  72.227  1.00  0.00     0.000 HD 
HETATM   23  C   UNL     1      -9.218   3.237  69.297  1.00  0.00    -0.218 C  
HETATM   24  C   UNL     1      -8.909   2.096  70.256  1.00  0.00    -0.131 C  
HETATM   25  C   UNL     1      -9.449   2.472  71.606  1.00  0.00    -0.206 C  
HETATM   26  C   UNL     1     -10.476   1.789  72.139  1.00  0.00    -0.143 C  
HETATM   27  C   UNL     1     -11.126   2.212  73.397  1.00  0.00    -0.194 C  
ENDROOT
BRANCH   9  28
HETATM   28  C   UNL     1     -10.562   9.061  68.501  1.00  0.00    -0.155 C  
HETATM   29  O   UNL     1     -10.763   8.973  67.286  1.00  0.00    -0.269 OA 
BRANCH  28  30
HETATM   30  C   UNL     1     -10.532  10.438  69.180  1.00  0.00    -0.227 C  
HETATM   31  O   UNL     1      -9.331  10.674  69.900  1.00  0.00    -0.374 OA 
HETATM   32  H   UNL     1      -9.313  11.526  70.319  1.00  0.00     0.000 HD 
ENDBRANCH  28  30
ENDBRANCH   9  28
TORSDOF 2
ENDMDL
MODEL       35
REMARK 921   NORMALIZED FREE ENERGY PREDICTED BY IDOCK:   -5.51 KCAL/MOL
REMARK 922        TOTAL FREE ENERGY PREDICTED BY IDOCK:   -6.07 KCAL/MOL
REMARK 923 INTER-LIGAND FREE ENERGY PREDICTED BY IDOCK:   -5.62 KCAL/MOL
REMARK 924 INTRA-LIGAND FREE ENERGY PREDICTED BY IDOCK:   -0.45 KCAL/MOL
REMARK 927      BINDING AFFINITY PREDICTED BY RF-SCORE:    0.00 PKD
ROOT
HETATM    1  C   UNL     1     -10.424  11.522  66.220  1.00  0.00    -0.294 C  
HETATM    2  C   UNL     1      -9.238  11.212  65.278  1.00  0.00    -0.218 C  
HETATM    3  C   UNL     1      -8.025  11.046  66.165  1.00  0.00    -0.129 C  
HETATM    4  O   UNL     1      -7.518  12.295  66.649  1.00  0.00     0.047 OA 
HETATM    5  C   UNL     1      -6.952  11.973  67.914  1.00  0.00    -0.095 C  
HETATM    6  C   UNL     1      -5.463  11.671  67.699  1.00  0.00    -0.060 C  
HETATM    7  C   UNL     1      -7.022  13.083  68.951  1.00  0.00    -0.088 C  
HETATM    8  O   UNL     1      -7.679  10.865  68.447  1.00  0.00    -0.103 OA 
HETATM    9  C   UNL     1      -8.526  10.331  67.408  1.00  0.00    -0.125 C  
HETATM   10  C   UNL     1     -10.081  10.703  67.530  1.00  0.00    -0.217 C  
HETATM   11  C   UNL     1     -11.631  15.737  68.348  1.00  0.00    -0.343 C  
HETATM   12  C   UNL     1     -11.036   9.471  67.452  1.00  0.00    -0.103 C  
HETATM   13  C   UNL     1     -10.401  11.388  68.886  1.00  0.00    -0.203 C  
HETATM   14  C   UNL     1     -10.316  15.236  67.729  1.00  0.00    -0.244 C  
HETATM   15  C   UNL     1      -9.194  15.737  68.641  1.00  0.00    -0.207 C  
HETATM   16  O   UNL     1      -7.460  18.138  66.677  1.00  0.00    -0.203 OA 
HETATM   17  C   UNL     1     -10.629  12.901  68.902  1.00  0.00    -0.123 C  
HETATM   18  C   UNL     1      -8.257  16.630  68.302  1.00  0.00    -0.200 C  
HETATM   19  O   UNL     1     -12.021  13.117  69.212  1.00  0.00    -0.311 OA 
HETATM   20  C   UNL     1     -10.213  13.664  67.621  1.00  0.00    -0.239 C  
HETATM   21  C   UNL     1     -10.875  13.001  66.401  1.00  0.00    -0.294 C  
HETATM   22  H   UNL     1     -12.163  14.056  69.222  1.00  0.00     0.000 HD 
HETATM   23  C   UNL     1     -10.733  13.813  65.101  1.00  0.00    -0.365 C  
HETATM   24  C   UNL     1     -11.093  15.280  65.281  1.00  0.00    -0.382 C  
HETATM   25  C   UNL     1     -10.183  15.851  66.331  1.00  0.00    -0.311 C  
HETATM   26  C   UNL     1      -9.268  16.778  66.003  1.00  0.00    -0.236 C  
HETATM   27  C   UNL     1      -8.264  17.261  66.973  1.00  0.00    -0.208 C  
ENDROOT
BRANCH   9  28
HETATM   28  C   UNL     1      -8.184   8.833  67.352  1.00  0.00    -0.109 C  
HETATM   29  O   UNL     1      -8.243   8.176  66.307  1.00  0.00    -0.106 OA 
BRANCH  28  30
HETATM   30  C   UNL     1      -7.777   8.153  68.667  1.00  0.00    -0.112 C  
HETATM   31  O   UNL     1      -6.483   8.536  69.110  1.00  0.00    -0.042 OA 
HETATM   32  H   UNL     1      -6.231   8.116  69.924  1.00  0.00     0.000 HD 
ENDBRANCH  28  30
ENDBRANCH   9  28
TORSDOF 2
ENDMDL
MODEL       36
REMARK 921   NORMALIZED FREE ENERGY PREDICTED BY IDOCK:   -5.45 KCAL/MOL
REMARK 922        TOTAL FREE ENERGY PREDICTED BY IDOCK:   -6.01 KCAL/MOL
REMARK 923 INTER-LIGAND FREE ENERGY PREDICTED BY IDOCK:   -5.80 KCAL/MOL
REMARK 924 INTRA-LIGAND FREE ENERGY PREDICTED BY IDOCK:   -0.20 KCAL/MOL
REMARK 927      BINDING AFFINITY PREDICTED BY RF-SCORE:    0.00 PKD
ROOT
HETATM    1  C   UNL     1     -10.257  13.496  69.178  1.00  0.00     0.137 C  
HETATM    2  C   UNL     1     -11.743  13.262  68.821  1.00  0.00    -0.366 C  
HETATM    3  C   UNL     1     -11.784  12.989  67.335  1.00  0.00    -0.374 C  
HETATM    4  O   UNL     1     -11.620  14.177  66.550  1.00  0.00    -0.344 OA 
HETATM    5  C   UNL     1     -10.981  13.722  65.363  1.00  0.00    -0.309 C  
HETATM    6  C   UNL     1     -12.072  13.419  64.328  1.00  0.00    -0.479 C  
HETATM    7  C   UNL     1     -10.039  14.726  64.716  1.00  0.00    -0.065 C  
HETATM    8  O   UNL     1     -10.195  12.579  65.701  1.00  0.00    -0.260 OA 
HETATM    9  C   UNL     1     -10.545  12.163  67.039  1.00  0.00    -0.228 C  
HETATM   10  C   UNL     1      -9.481  12.546  68.177  1.00  0.00    -0.214 C  
HETATM   11  C   UNL     1      -7.548  17.498  68.557  1.00  0.00    -0.266 C  
HETATM   12  C   UNL     1      -9.052  11.343  69.073  1.00  0.00     0.069 C  
HETATM   13  C   UNL     1      -8.165  13.099  67.569  1.00  0.00    -0.183 C  
HETATM   14  C   UNL     1      -8.868  17.040  67.918  1.00  0.00    -0.224 C  
HETATM   15  C   UNL     1      -8.788  17.431  66.440  1.00  0.00    -0.273 C  
HETATM   16  O   UNL     1     -11.230  19.986  66.065  1.00  0.00    -0.010 OA 
HETATM   17  C   UNL     1      -7.909  14.606  67.631  1.00  0.00    -0.181 C  
HETATM   18  C   UNL     1      -9.562  18.338  65.833  1.00  0.00     0.092 C  
HETATM   19  O   UNL     1      -6.807  14.812  68.538  1.00  0.00    -0.098 OA 
HETATM   20  C   UNL     1      -9.125  15.485  68.013  1.00  0.00    -0.182 C  
HETATM   21  C   UNL     1      -9.739  14.957  69.322  1.00  0.00    -0.147 C  
HETATM   22  H   UNL     1      -6.649  15.749  68.577  1.00  0.00     0.000 HD 
HETATM   23  C   UNL     1     -10.799  15.890  69.930  1.00  0.00    -0.333 C  
HETATM   24  C   UNL     1     -10.338  17.338  70.003  1.00  0.00     0.452 C  
HETATM   25  C   UNL     1     -10.015  17.788  68.607  1.00  0.00    -0.379 C  
HETATM   26  C   UNL     1     -10.766  18.729  68.008  1.00  0.00    -0.273 C  
HETATM   27  C   UNL     1     -10.569  19.098  66.591  1.00  0.00    -0.432 C  
ENDROOT
BRANCH   9  28
HETATM   28  C   UNL     1     -10.899  10.673  66.908  1.00  0.00    -0.205 C  
HETATM   29  O   UNL     1     -11.765  10.132  67.604  1.00  0.00    -0.064 OA 
BRANCH  28  30
HETATM   30  C   UNL     1     -10.114   9.849  65.877  1.00  0.00    -0.245 C  
HETATM   31  O   UNL     1     -10.260   8.449  66.061  1.00  0.00    -0.417 OA 
HETATM   32  H   UNL     1      -9.775   7.939  65.423  1.00  0.00     0.000 HD 
ENDBRANCH  28  30
ENDBRANCH   9  28
TORSDOF 2
ENDMDL
MODEL       37
REMARK 921   NORMALIZED FREE ENERGY PREDICTED BY IDOCK:   -5.37 KCAL/MOL
REMARK 922        TOTAL FREE ENERGY PREDICTED BY IDOCK:   -5.92 KCAL/MOL
REMARK 923 INTER-LIGAND FREE ENERGY PREDICTED BY IDOCK:   -5.46 KCAL/MOL
REMARK 924 INTRA-LIGAND FREE ENERGY PREDICTED BY IDOCK:   -0.45 KCAL/MOL
REMARK 927      BINDING AFFINITY PREDICTED BY RF-SCORE:    0.00 PKD
ROOT
HETATM    1  C   UNL     1      -8.831  12.770  68.439  1.00  0.00    -0.117 C  
HETATM    2  C   UNL     1      -8.251  13.308  67.110  1.00  0.00    -0.123 C  
HETATM    3  C   UNL     1      -9.071  12.682  66.006  1.00  0.00     0.111 C  
HETATM    4  O   UNL     1      -8.735  11.308  65.778  1.00  0.00    -0.181 OA 
HETATM    5  C   UNL     1      -9.951  10.724  65.327  1.00  0.00    -0.282 C  
HETATM    6  C   UNL     1      -9.958  10.777  63.793  1.00  0.00    -0.411 C  
HETATM    7  C   UNL     1     -10.143   9.264  65.708  1.00  0.00    -0.092 C  
HETATM    8  O   UNL     1     -11.030  11.449  65.919  1.00  0.00    -0.274 OA 
HETATM    9  C   UNL     1     -10.496  12.643  66.529  1.00  0.00    -0.247 C  
HETATM   10  C   UNL     1     -10.374  12.601  68.129  1.00  0.00    -0.238 C  
HETATM   11  C   UNL     1      -8.091   8.459  70.585  1.00  0.00    -0.114 C  
HETATM   12  C   UNL     1     -11.028  13.822  68.847  1.00  0.00    -0.281 C  
HETATM   13  C   UNL     1     -11.072  11.349  68.723  1.00  0.00    -0.290 C  
HETATM   14  C   UNL     1      -7.885   8.937  69.140  1.00  0.00    -0.093 C  
HETATM   15  C   UNL     1      -8.335   7.785  68.238  1.00  0.00    -0.125 C  
HETATM   16  O   UNL     1      -5.342   6.641  66.700  1.00  0.00    -0.012 OA 
HETATM   17  C   UNL     1     -10.201  10.185  69.201  1.00  0.00    -0.214 C  
HETATM   18  C   UNL     1      -7.541   7.075  67.429  1.00  0.00    -0.109 C  
HETATM   19  O   UNL     1     -10.322  10.126  70.636  1.00  0.00    -0.392 OA 
HETATM   20  C   UNL     1      -8.717  10.225  68.762  1.00  0.00    -0.144 C  
HETATM   21  C   UNL     1      -8.112  11.586  69.149  1.00  0.00     0.128 C  
HETATM   22  H   UNL     1      -9.781   9.404  70.933  1.00  0.00     0.000 HD 
HETATM   23  C   UNL     1      -6.584  11.655  68.986  1.00  0.00    -0.092 C  
HETATM   24  C   UNL     1      -5.871  10.462  69.605  1.00  0.00    -0.045 C  
HETATM   25  C   UNL     1      -6.392   9.220  68.939  1.00  0.00    -0.044 C  
HETATM   26  C   UNL     1      -5.585   8.481  68.158  1.00  0.00    -0.035 C  
HETATM   27  C   UNL     1      -6.093   7.334  67.377  1.00  0.00    -0.045 C  
ENDROOT
BRANCH   9  28
HETATM   28  C   UNL     1     -11.328  13.794  65.939  1.00  0.00    -0.307 C  
HETATM   29  O   UNL     1     -10.832  14.883  65.634  1.00  0.00    -0.310 OA 
BRANCH  28  30
HETATM   30  C   UNL     1     -12.832  13.552  65.751  1.00  0.00    -0.264 C  
HETATM   31  O   UNL     1     -13.119  12.643  64.699  1.00  0.00    -0.821 OA 
HETATM   32  H   UNL     1     -14.050  12.493  64.583  1.00  0.00     0.000 HD 
ENDBRANCH  28  30
ENDBRANCH   9  28
TORSDOF 2
ENDMDL
MODEL       38
REMARK 921   NORMALIZED FREE ENERGY PREDICTED BY IDOCK:   -5.35 KCAL/MOL
REMARK 922        TOTAL FREE ENERGY PREDICTED BY IDOCK:   -5.90 KCAL/MOL
REMARK 923 INTER-LIGAND FREE ENERGY PREDICTED BY IDOCK:   -5.71 KCAL/MOL
REMARK 924 INTRA-LIGAND FREE ENERGY PREDICTED BY IDOCK:   -0.19 KCAL/MOL
REMARK 927      BINDING AFFINITY PREDICTED BY RF-SCORE:    0.00 PKD
ROOT
HETATM    1  C   UNL     1     -11.039   5.991  69.773  1.00  0.00    -0.476 C  
HETATM    2  C   UNL     1     -10.218   4.811  70.341  1.00  0.00    -0.261 C  
HETATM    3  C   UNL     1      -9.186   5.417  71.264  1.00  0.00    -0.146 C  
HETATM    4  O   UNL     1      -8.104   6.034  70.555  1.00  0.00    -0.108 OA 
HETATM    5  C   UNL     1      -7.687   7.091  71.411  1.00  0.00    -0.094 C  
HETATM    6  C   UNL     1      -6.552   6.560  72.296  1.00  0.00    -0.059 C  
HETATM    7  C   UNL     1      -7.140   8.318  70.697  1.00  0.00    -0.042 C  
HETATM    8  O   UNL     1      -8.826   7.523  72.157  1.00  0.00    -0.121 OA 
HETATM    9  C   UNL     1      -9.891   6.569  71.960  1.00  0.00    -0.158 C  
HETATM   10  C   UNL     1     -11.056   7.037  70.961  1.00  0.00    -0.295 C  
HETATM   11  C   UNL     1      -9.898   9.070  66.173  1.00  0.00    -0.349 C  
HETATM   12  C   UNL     1     -12.492   6.895  71.553  1.00  0.00    -0.420 C  
HETATM   13  C   UNL     1     -10.913   8.534  70.576  1.00  0.00    -0.263 C  
HETATM   14  C   UNL     1      -9.038   8.142  67.044  1.00  0.00    -0.170 C  
HETATM   15  C   UNL     1      -7.758   8.917  67.363  1.00  0.00    -0.096 C  
HETATM   16  O   UNL     1      -5.203   7.173  65.613  1.00  0.00    -0.023 OA 
HETATM   17  C   UNL     1     -10.373   8.881  69.187  1.00  0.00    -0.220 C  
HETATM   18  C   UNL     1      -6.528   8.595  66.946  1.00  0.00    -0.061 C  
HETATM   19  O   UNL     1     -11.460   9.470  68.445  1.00  0.00    -0.446 OA 
HETATM   20  C   UNL     1      -9.721   7.717  68.403  1.00  0.00    -0.167 C  
HETATM   21  C   UNL     1     -10.699   6.531  68.353  1.00  0.00    -0.339 C  
HETATM   22  H   UNL     1     -11.125   9.686  67.583  1.00  0.00     0.000 HD 
HETATM   23  C   UNL     1     -10.264   5.408  67.396  1.00  0.00    -0.247 C  
HETATM   24  C   UNL     1      -9.850   5.927  66.027  1.00  0.00     0.018 C  
HETATM   25  C   UNL     1      -8.712   6.888  66.225  1.00  0.00    -0.149 C  
HETATM   26  C   UNL     1      -7.484   6.585  65.771  1.00  0.00    -0.082 C  
HETATM   27  C   UNL     1      -6.312   7.435  66.066  1.00  0.00    -0.042 C  
ENDROOT
BRANCH   9  28
HETATM   28  C   UNL     1     -10.328   6.166  73.378  1.00  0.00    -0.239 C  
HETATM   29  O   UNL     1     -10.632   6.996  74.240  1.00  0.00    -0.235 OA 
BRANCH  28  30
HETATM   30  C   UNL     1     -10.358   4.666  73.706  1.00  0.00    -0.211 C  
HETATM   31  O   UNL     1     -11.641   4.086  73.527  1.00  0.00    -0.210 OA 
HETATM   32  H   UNL     1     -11.660   3.158  73.730  1.00  0.00     0.000 HD 
ENDBRANCH  28  30
ENDBRANCH   9  28
TORSDOF 2
ENDMDL
MODEL       39
REMARK 921   NORMALIZED FREE ENERGY PREDICTED BY IDOCK:   -5.30 KCAL/MOL
REMARK 922        TOTAL FREE ENERGY PREDICTED BY IDOCK:   -5.84 KCAL/MOL
REMARK 923 INTER-LIGAND FREE ENERGY PREDICTED BY IDOCK:   -5.36 KCAL/MOL
REMARK 924 INTRA-LIGAND FREE ENERGY PREDICTED BY IDOCK:   -0.47 KCAL/MOL
REMARK 927      BINDING AFFINITY PREDICTED BY RF-SCORE:    0.00 PKD
ROOT
HETATM    1  C   UNL     1      -9.088   7.595  67.155  1.00  0.00    -0.146 C  
HETATM    2  C   UNL     1     -10.608   7.869  67.088  1.00  0.00    -0.383 C  
HETATM    3  C   UNL     1     -10.903   8.890  68.163  1.00  0.00    -0.002 C  
HETATM    4  O   UNL     1     -10.903   8.323  69.479  1.00  0.00    -0.210 OA 
HETATM    5  C   UNL     1     -10.472   9.390  70.316  1.00  0.00    -0.251 C  
HETATM    6  C   UNL     1     -11.721  10.114  70.835  1.00  0.00    -0.468 C  
HETATM    7  C   UNL     1      -9.679   8.964  71.542  1.00  0.00    -0.372 C  
HETATM    8  O   UNL     1      -9.615  10.231  69.543  1.00  0.00    -0.224 OA 
HETATM    9  C   UNL     1      -9.717   9.839  68.158  1.00  0.00    -0.145 C  
HETATM   10  C   UNL     1      -8.479   8.989  67.592  1.00  0.00    -0.117 C  
HETATM   11  C   UNL     1      -6.614   4.769  70.259  1.00  0.00    -0.036 C  
HETATM   12  C   UNL     1      -7.874   9.555  66.270  1.00  0.00    -0.100 C  
HETATM   13  C   UNL     1      -7.301   8.951  68.602  1.00  0.00    -0.077 C  
HETATM   14  C   UNL     1      -8.016   5.394  70.330  1.00  0.00    -0.100 C  
HETATM   15  C   UNL     1      -8.203   5.862  71.776  1.00  0.00    -0.119 C  
HETATM   16  O   UNL     1     -10.726   3.725  73.079  1.00  0.00    -0.172 OA 
HETATM   17  C   UNL     1      -7.071   7.669  69.405  1.00  0.00    -0.075 C  
HETATM   18  C   UNL     1      -9.090   5.364  72.645  1.00  0.00    -0.139 C  
HETATM   19  O   UNL     1      -5.832   7.096  68.941  1.00  0.00    -0.018 OA 
HETATM   20  C   UNL     1      -8.219   6.632  69.371  1.00  0.00    -0.124 C  
HETATM   21  C   UNL     1      -8.583   6.329  67.907  1.00  0.00    -0.115 C  
HETATM   22  H   UNL     1      -5.688   6.299  69.440  1.00  0.00     0.000 HD 
HETATM   23  C   UNL     1      -9.541   5.136  67.740  1.00  0.00    -0.166 C  
HETATM   24  C   UNL     1      -9.104   3.915  68.535  1.00  0.00    -0.191 C  
HETATM   25  C   UNL     1      -9.040   4.308  69.984  1.00  0.00    -0.175 C  
HETATM   26  C   UNL     1      -9.903   3.779  70.868  1.00  0.00    -0.192 C  
HETATM   27  C   UNL     1      -9.965   4.242  72.270  1.00  0.00    -0.172 C  
ENDROOT
BRANCH   9  28
HETATM   28  C   UNL     1     -10.057  11.135  67.404  1.00  0.00    -0.185 C  
HETATM   29  O   UNL     1     -10.831  11.161  66.442  1.00  0.00    -0.270 OA 
BRANCH  28  30
HETATM   30  C   UNL     1      -9.376  12.426  67.881  1.00  0.00    -0.195 C  
HETATM   31  O   UNL     1     -10.067  13.054  68.951  1.00  0.00    -0.424 OA 
HETATM   32  H   UNL     1      -9.645  13.852  69.246  1.00  0.00     0.000 HD 
ENDBRANCH  28  30
ENDBRANCH   9  28
TORSDOF 2
ENDMDL
MODEL       40
REMARK 921   NORMALIZED FREE ENERGY PREDICTED BY IDOCK:   -5.23 KCAL/MOL
REMARK 922        TOTAL FREE ENERGY PREDICTED BY IDOCK:   -5.76 KCAL/MOL
REMARK 923 INTER-LIGAND FREE ENERGY PREDICTED BY IDOCK:   -5.75 KCAL/MOL
REMARK 924 INTRA-LIGAND FREE ENERGY PREDICTED BY IDOCK:   -0.01 KCAL/MOL
REMARK 927      BINDING AFFINITY PREDICTED BY RF-SCORE:    0.00 PKD
ROOT
HETATM    1  C   UNL     1     -11.165   6.711  69.859  1.00  0.00    -0.421 C  
HETATM    2  C   UNL     1     -10.385   5.393  69.650  1.00  0.00    -0.361 C  
HETATM    3  C   UNL     1      -9.326   5.352  70.728  1.00  0.00    -0.159 C  
HETATM    4  O   UNL     1      -8.226   6.230  70.458  1.00  0.00    -0.114 OA 
HETATM    5  C   UNL     1      -7.766   6.616  71.747  1.00  0.00    -0.097 C  
HETATM    6  C   UNL     1      -6.646   5.650  72.156  1.00  0.00    -0.058 C  
HETATM    7  C   UNL     1      -7.178   8.017  71.826  1.00  0.00    -0.079 C  
HETATM    8  O   UNL     1      -8.884   6.588  72.636  1.00  0.00    -0.126 OA 
HETATM    9  C   UNL     1      -9.984   5.936  71.966  1.00  0.00    -0.175 C  
HETATM   10  C   UNL     1     -11.137   6.914  71.429  1.00  0.00    -0.284 C  
HETATM   11  C   UNL     1      -9.932  11.244  68.564  1.00  0.00    -0.206 C  
HETATM   12  C   UNL     1     -12.574   6.505  71.877  1.00  0.00    -0.238 C  
HETATM   13  C   UNL     1     -10.942   8.366  71.941  1.00  0.00    -0.375 C  
HETATM   14  C   UNL     1      -9.102   9.964  68.746  1.00  0.00    -0.147 C  
HETATM   15  C   UNL     1      -7.793  10.394  69.412  1.00  0.00    -0.163 C  
HETATM   16  O   UNL     1      -5.314   9.857  66.923  1.00  0.00    -0.041 OA 
HETATM   17  C   UNL     1     -10.397   9.415  70.970  1.00  0.00    -0.312 C  
HETATM   18  C   UNL     1      -6.578  10.326  68.855  1.00  0.00    -0.052 C  
HETATM   19  O   UNL     1     -11.466  10.348  70.711  1.00  0.00    -0.328 OA 
HETATM   20  C   UNL     1      -9.792   8.872  69.653  1.00  0.00    -0.182 C  
HETATM   21  C   UNL     1     -10.814   7.943  68.974  1.00  0.00    -0.029 C  
HETATM   22  H   UNL     1     -11.127  11.000  70.108  1.00  0.00     0.000 HD 
HETATM   23  C   UNL     1     -10.425   7.535  67.542  1.00  0.00    -0.341 C  
HETATM   24  C   UNL     1     -10.000   8.719  66.687  1.00  0.00    -0.355 C  
HETATM   25  C   UNL     1      -8.827   9.374  67.359  1.00  0.00    -0.135 C  
HETATM   26  C   UNL     1      -7.613   9.343  66.783  1.00  0.00    -0.097 C  
HETATM   27  C   UNL     1      -6.409   9.850  67.473  1.00  0.00    -0.063 C  
ENDROOT
BRANCH   9  28
HETATM   28  C   UNL     1     -10.427   4.822  72.928  1.00  0.00    -0.201 C  
HETATM   29  O   UNL     1     -10.900   5.057  74.045  1.00  0.00    -0.295 OA 
BRANCH  28  30
HETATM   30  C   UNL     1     -10.244   3.371  72.458  1.00  0.00    -0.146 C  
HETATM   31  O   UNL     1     -10.943   2.436  73.266  1.00  0.00    -0.164 OA 
HETATM   32  H   UNL     1     -10.830   1.539  72.976  1.00  0.00     0.000 HD 
ENDBRANCH  28  30
ENDBRANCH   9  28
TORSDOF 2
ENDMDL
MODEL       41
REMARK 921   NORMALIZED FREE ENERGY PREDICTED BY IDOCK:   -5.22 KCAL/MOL
REMARK 922        TOTAL FREE ENERGY PREDICTED BY IDOCK:   -5.75 KCAL/MOL
REMARK 923 INTER-LIGAND FREE ENERGY PREDICTED BY IDOCK:   -5.30 KCAL/MOL
REMARK 924 INTRA-LIGAND FREE ENERGY PREDICTED BY IDOCK:   -0.46 KCAL/MOL
REMARK 927      BINDING AFFINITY PREDICTED BY RF-SCORE:    0.00 PKD
ROOT
HETATM    1  C   UNL     1     -10.855   7.982  69.470  1.00  0.00    -0.135 C  
HETATM    2  C   UNL     1     -11.201   6.476  69.412  1.00  0.00    -0.418 C  
HETATM    3  C   UNL     1     -10.216   5.779  70.322  1.00  0.00    -0.230 C  
HETATM    4  O   UNL     1      -8.911   5.663  69.740  1.00  0.00    -0.125 OA 
HETATM    5  C   UNL     1      -8.030   5.696  70.856  1.00  0.00    -0.110 C  
HETATM    6  C   UNL     1      -7.758   4.248  71.284  1.00  0.00    -0.071 C  
HETATM    7  C   UNL     1      -6.672   6.327  70.583  1.00  0.00    -0.061 C  
HETATM    8  O   UNL     1      -8.649   6.477  71.878  1.00  0.00    -0.129 OA 
HETATM    9  C   UNL     1     -10.023   6.714  71.504  1.00  0.00    -0.175 C  
HETATM   10  C   UNL     1     -10.340   8.187  70.952  1.00  0.00    -0.218 C  
HETATM   11  C   UNL     1      -7.305  10.403  67.173  1.00  0.00    -0.092 C  
HETATM   12  C   UNL     1     -11.540   8.885  71.664  1.00  0.00    -0.408 C  
HETATM   13  C   UNL     1      -9.133   9.143  71.146  1.00  0.00    -0.275 C  
HETATM   14  C   UNL     1      -7.499   8.910  67.481  1.00  0.00    -0.085 C  
HETATM   15  C   UNL     1      -6.121   8.369  67.866  1.00  0.00    -0.048 C  
HETATM   16  O   UNL     1      -5.258   6.172  65.209  1.00  0.00    -0.013 OA 
HETATM   17  C   UNL     1      -8.279   9.495  69.926  1.00  0.00    -0.161 C  
HETATM   18  C   UNL     1      -5.418   7.468  67.170  1.00  0.00    -0.030 C  
HETATM   19  O   UNL     1      -8.500  10.892  69.642  1.00  0.00    -0.373 OA 
HETATM   20  C   UNL     1      -8.502   8.623  68.667  1.00  0.00    -0.130 C  
HETATM   21  C   UNL     1     -10.002   8.602  68.326  1.00  0.00    -0.207 C  
HETATM   22  H   UNL     1      -7.970  11.110  68.884  1.00  0.00     0.000 HD 
HETATM   23  C   UNL     1     -10.318   7.970  66.959  1.00  0.00    -0.414 C  
HETATM   24  C   UNL     1      -9.436   8.508  65.842  1.00  0.00    -0.207 C  
HETATM   25  C   UNL     1      -8.007   8.224  66.209  1.00  0.00    -0.100 C  
HETATM   26  C   UNL     1      -7.284   7.349  65.487  1.00  0.00    -0.066 C  
HETATM   27  C   UNL     1      -5.925   6.937  65.895  1.00  0.00    -0.035 C  
ENDROOT
BRANCH   9  28
HETATM   28  C   UNL     1     -10.848   6.245  72.713  1.00  0.00    -0.252 C  
HETATM   29  O   UNL     1     -11.899   5.607  72.593  1.00  0.00    -0.283 OA 
BRANCH  28  30
HETATM   30  C   UNL     1     -10.327   6.617  74.108  1.00  0.00    -0.321 C  
HETATM   31  O   UNL     1      -9.199   5.850  74.501  1.00  0.00    -0.128 OA 
HETATM   32  H   UNL     1      -8.877   6.080  75.364  1.00  0.00     0.000 HD 
ENDBRANCH  28  30
ENDBRANCH   9  28
TORSDOF 2
ENDMDL
MODEL       42
REMARK 921   NORMALIZED FREE ENERGY PREDICTED BY IDOCK:   -5.21 KCAL/MOL
REMARK 922        TOTAL FREE ENERGY PREDICTED BY IDOCK:   -5.74 KCAL/MOL
REMARK 923 INTER-LIGAND FREE ENERGY PREDICTED BY IDOCK:   -5.27 KCAL/MOL
REMARK 924 INTRA-LIGAND FREE ENERGY PREDICTED BY IDOCK:   -0.47 KCAL/MOL
REMARK 927      BINDING AFFINITY PREDICTED BY RF-SCORE:    0.00 PKD
ROOT
HETATM    1  C   UNL     1      -8.984  11.481  68.907  1.00  0.00     0.029 C  
HETATM    2  C   UNL     1      -7.879  12.086  68.012  1.00  0.00    -0.145 C  
HETATM    3  C   UNL     1      -8.231  11.710  66.591  1.00  0.00    -0.140 C  
HETATM    4  O   UNL     1      -7.939  10.339  66.294  1.00  0.00    -0.115 OA 
HETATM    5  C   UNL     1      -8.912   9.981  65.319  1.00  0.00    -0.186 C  
HETATM    6  C   UNL     1      -8.296  10.213  63.933  1.00  0.00    -0.172 C  
HETATM    7  C   UNL     1      -9.354   8.526  65.357  1.00  0.00     0.056 C  
HETATM    8  O   UNL     1     -10.077  10.771  65.556  1.00  0.00    -0.248 OA 
HETATM    9  C   UNL     1      -9.744  11.803  66.509  1.00  0.00    -0.206 C  
HETATM   10  C   UNL     1     -10.280  11.558  68.001  1.00  0.00    -0.205 C  
HETATM   11  C   UNL     1      -9.507   6.888  70.450  1.00  0.00    -0.169 C  
HETATM   12  C   UNL     1     -11.071  12.764  68.596  1.00  0.00    -0.304 C  
HETATM   13  C   UNL     1     -11.253  10.351  68.070  1.00  0.00    -0.340 C  
HETATM   14  C   UNL     1      -8.700   7.500  69.294  1.00  0.00    -0.136 C  
HETATM   15  C   UNL     1      -8.837   6.532  68.117  1.00  0.00    -0.115 C  
HETATM   16  O   UNL     1      -5.577   5.181  67.694  1.00  0.00    -0.012 OA 
HETATM   17  C   UNL     1     -10.740   9.033  68.654  1.00  0.00    -0.097 C  
HETATM   18  C   UNL     1      -7.842   5.820  67.575  1.00  0.00    -0.101 C  
HETATM   19  O   UNL     1     -11.434   8.824  69.901  1.00  0.00    -0.452 OA 
HETATM   20  C   UNL     1      -9.207   8.923  68.837  1.00  0.00    -0.140 C  
HETATM   21  C   UNL     1      -8.706  10.136  69.640  1.00  0.00    -0.176 C  
HETATM   22  H   UNL     1     -11.115   8.006  70.264  1.00  0.00     0.000 HD 
HETATM   23  C   UNL     1      -7.241  10.016  70.094  1.00  0.00    -0.167 C  
HETATM   24  C   UNL     1      -6.932   8.674  70.741  1.00  0.00    -0.059 C  
HETATM   25  C   UNL     1      -7.236   7.599  69.736  1.00  0.00    -0.079 C  
HETATM   26  C   UNL     1      -6.243   6.855  69.220  1.00  0.00    -0.030 C  
HETATM   27  C   UNL     1      -6.480   5.886  68.130  1.00  0.00    -0.046 C  
ENDROOT
BRANCH   9  28
HETATM   28  C   UNL     1     -10.175  13.116  65.835  1.00  0.00    -0.291 C  
HETATM   29  O   UNL     1      -9.665  14.205  66.116  1.00  0.00    -0.294 OA 
BRANCH  28  30
HETATM   30  C   UNL     1     -11.300  13.037  64.793  1.00  0.00    -0.317 C  
HETATM   31  O   UNL     1     -12.454  12.365  65.274  1.00  0.00    -0.611 OA 
HETATM   32  H   UNL     1     -13.150  12.316  64.630  1.00  0.00     0.000 HD 
ENDBRANCH  28  30
ENDBRANCH   9  28
TORSDOF 2
ENDMDL
MODEL       43
REMARK 921   NORMALIZED FREE ENERGY PREDICTED BY IDOCK:   -5.20 KCAL/MOL
REMARK 922        TOTAL FREE ENERGY PREDICTED BY IDOCK:   -5.73 KCAL/MOL
REMARK 923 INTER-LIGAND FREE ENERGY PREDICTED BY IDOCK:   -5.53 KCAL/MOL
REMARK 924 INTRA-LIGAND FREE ENERGY PREDICTED BY IDOCK:   -0.20 KCAL/MOL
REMARK 927      BINDING AFFINITY PREDICTED BY RF-SCORE:    0.00 PKD
ROOT
HETATM    1  C   UNL     1      -7.822   9.246  69.486  1.00  0.00    -0.086 C  
HETATM    2  C   UNL     1      -6.843   8.070  69.264  1.00  0.00    -0.048 C  
HETATM    3  C   UNL     1      -7.488   7.171  68.234  1.00  0.00    -0.102 C  
HETATM    4  O   UNL     1      -8.557   6.385  68.777  1.00  0.00    -0.123 OA 
HETATM    5  C   UNL     1      -9.447   6.208  67.682  1.00  0.00    -0.111 C  
HETATM    6  C   UNL     1      -9.085   4.888  66.990  1.00  0.00    -0.120 C  
HETATM    7  C   UNL     1     -10.918   6.107  68.060  1.00  0.00    -0.399 C  
HETATM    8  O   UNL     1      -9.319   7.344  66.827  1.00  0.00    -0.146 OA 
HETATM    9  C   UNL     1      -8.166   8.105  67.247  1.00  0.00    -0.121 C  
HETATM   10  C   UNL     1      -8.490   9.446  68.065  1.00  0.00    -0.120 C  
HETATM   11  C   UNL     1     -11.883   9.391  72.174  1.00  0.00    -0.180 C  
HETATM   12  C   UNL     1      -7.780  10.717  67.503  1.00  0.00    -0.105 C  
HETATM   13  C   UNL     1     -10.006   9.777  68.047  1.00  0.00    -0.185 C  
HETATM   14  C   UNL     1     -11.075   8.221  71.594  1.00  0.00    -0.326 C  
HETATM   15  C   UNL     1     -12.098   7.192  71.108  1.00  0.00    -0.397 C  
HETATM   16  O   UNL     1     -11.691   4.428  73.303  1.00  0.00    -0.226 OA 
HETATM   17  C   UNL     1     -10.829   9.497  69.306  1.00  0.00    -0.191 C  
HETATM   18  C   UNL     1     -12.274   5.968  71.619  1.00  0.00     0.140 C  
HETATM   19  O   UNL     1     -11.225  10.774  69.846  1.00  0.00    -0.269 OA 
HETATM   20  C   UNL     1     -10.145   8.618  70.381  1.00  0.00    -0.213 C  
HETATM   21  C   UNL     1      -8.769   9.215  70.721  1.00  0.00    -0.285 C  
HETATM   22  H   UNL     1     -11.736  10.600  70.629  1.00  0.00     0.000 HD 
HETATM   23  C   UNL     1      -8.099   8.571  71.948  1.00  0.00    -0.185 C  
HETATM   24  C   UNL     1      -9.037   8.458  73.140  1.00  0.00    -0.225 C  
HETATM   25  C   UNL     1     -10.218   7.630  72.719  1.00  0.00    -0.336 C  
HETATM   26  C   UNL     1     -10.421   6.417  73.261  1.00  0.00    -0.275 C  
HETATM   27  C   UNL     1     -11.486   5.515  72.776  1.00  0.00    -0.280 C  
ENDROOT
BRANCH   9  28
HETATM   28  C   UNL     1      -7.317   8.268  65.976  1.00  0.00    -0.080 C  
HETATM   29  O   UNL     1      -6.184   7.786  65.868  1.00  0.00    -0.041 OA 
BRANCH  28  30
HETATM   30  C   UNL     1      -7.922   9.082  64.824  1.00  0.00    -0.129 C  
HETATM   31  O   UNL     1      -9.151   8.548  64.354  1.00  0.00    -0.365 OA 
HETATM   32  H   UNL     1      -9.525   9.052  63.642  1.00  0.00     0.000 HD 
ENDBRANCH  28  30
ENDBRANCH   9  28
TORSDOF 2
ENDMDL
MODEL       44
REMARK 921   NORMALIZED FREE ENERGY PREDICTED BY IDOCK:   -5.20 KCAL/MOL
REMARK 922        TOTAL FREE ENERGY PREDICTED BY IDOCK:   -5.73 KCAL/MOL
REMARK 923 INTER-LIGAND FREE ENERGY PREDICTED BY IDOCK:   -5.30 KCAL/MOL
REMARK 924 INTRA-LIGAND FREE ENERGY PREDICTED BY IDOCK:   -0.43 KCAL/MOL
REMARK 927      BINDING AFFINITY PREDICTED BY RF-SCORE:    0.00 PKD
ROOT
HETATM    1  C   UNL     1      -9.618   9.604  69.433  1.00  0.00    -0.200 C  
HETATM    2  C   UNL     1      -8.246  10.316  69.420  1.00  0.00    -0.171 C  
HETATM    3  C   UNL     1      -7.405   9.597  68.389  1.00  0.00    -0.075 C  
HETATM    4  O   UNL     1      -6.920   8.332  68.856  1.00  0.00    -0.063 OA 
HETATM    5  C   UNL     1      -6.827   7.541  67.677  1.00  0.00    -0.071 C  
HETATM    6  C   UNL     1      -5.398   7.672  67.135  1.00  0.00    -0.030 C  
HETATM    7  C   UNL     1      -7.076   6.054  67.880  1.00  0.00    -0.074 C  
HETATM    8  O   UNL     1      -7.820   8.004  66.761  1.00  0.00    -0.099 OA 
HETATM    9  C   UNL     1      -8.358   9.247  67.260  1.00  0.00    -0.125 C  
HETATM   10  C   UNL     1      -9.812   9.145  67.930  1.00  0.00    -0.204 C  
HETATM   11  C   UNL     1     -10.882   5.421  71.589  1.00  0.00    -0.232 C  
HETATM   12  C   UNL     1     -10.843  10.171  67.365  1.00  0.00    -0.323 C  
HETATM   13  C   UNL     1     -10.452   7.749  67.703  1.00  0.00    -0.308 C  
HETATM   14  C   UNL     1      -9.515   6.006  71.201  1.00  0.00    -0.182 C  
HETATM   15  C   UNL     1      -8.683   4.836  70.671  1.00  0.00    -0.134 C  
HETATM   16  O   UNL     1      -6.126   4.397  73.101  1.00  0.00    -0.015 OA 
HETATM   17  C   UNL     1     -10.478   6.761  68.871  1.00  0.00    -0.207 C  
HETATM   18  C   UNL     1      -7.580   4.343  71.248  1.00  0.00    -0.064 C  
HETATM   19  O   UNL     1     -11.857   6.603  69.262  1.00  0.00    -0.629 OA 
HETATM   20  C   UNL     1      -9.585   7.120  70.083  1.00  0.00    -0.168 C  
HETATM   21  C   UNL     1      -9.910   8.552  70.543  1.00  0.00    -0.206 C  
HETATM   22  H   UNL     1     -11.873   5.989  69.987  1.00  0.00     0.000 HD 
HETATM   23  C   UNL     1      -9.264   8.933  71.886  1.00  0.00    -0.240 C  
HETATM   24  C   UNL     1      -9.471   7.876  72.961  1.00  0.00    -0.336 C  
HETATM   25  C   UNL     1      -8.872   6.592  72.462  1.00  0.00    -0.132 C  
HETATM   26  C   UNL     1      -7.789   6.071  73.064  1.00  0.00    -0.105 C  
HETATM   27  C   UNL     1      -7.088   4.889  72.522  1.00  0.00    -0.077 C  
ENDROOT
BRANCH   9  28
HETATM   28  C   UNL     1      -8.212  10.237  66.093  1.00  0.00    -0.138 C  
HETATM   29  O   UNL     1      -8.193  11.461  66.259  1.00  0.00    -0.160 OA 
BRANCH  28  30
HETATM   30  C   UNL     1      -8.105   9.649  64.679  1.00  0.00    -0.141 C  
HETATM   31  O   UNL     1      -9.128   8.707  64.394  1.00  0.00    -0.394 OA 
HETATM   32  H   UNL     1      -9.062   8.343  63.518  1.00  0.00     0.000 HD 
ENDBRANCH  28  30
ENDBRANCH   9  28
TORSDOF 2
ENDMDL
MODEL       45
REMARK 921   NORMALIZED FREE ENERGY PREDICTED BY IDOCK:   -5.16 KCAL/MOL
REMARK 922        TOTAL FREE ENERGY PREDICTED BY IDOCK:   -5.68 KCAL/MOL
REMARK 923 INTER-LIGAND FREE ENERGY PREDICTED BY IDOCK:   -5.78 KCAL/MOL
REMARK 924 INTRA-LIGAND FREE ENERGY PREDICTED BY IDOCK:    0.10 KCAL/MOL
REMARK 927      BINDING AFFINITY PREDICTED BY RF-SCORE:    0.00 PKD
ROOT
HETATM    1  C   UNL     1     -10.796   6.195  68.011  1.00  0.00    -0.398 C  
HETATM    2  C   UNL     1     -10.647   7.691  67.649  1.00  0.00    -0.294 C  
HETATM    3  C   UNL     1      -9.170   7.933  67.444  1.00  0.00    -0.140 C  
HETATM    4  O   UNL     1      -8.444   7.997  68.678  1.00  0.00    -0.126 OA 
HETATM    5  C   UNL     1      -7.150   7.507  68.345  1.00  0.00    -0.081 C  
HETATM    6  C   UNL     1      -6.270   8.711  67.986  1.00  0.00    -0.052 C  
HETATM    7  C   UNL     1      -6.435   6.769  69.466  1.00  0.00    -0.044 C  
HETATM    8  O   UNL     1      -7.299   6.579  67.270  1.00  0.00    -0.083 OA 
HETATM    9  C   UNL     1      -8.645   6.683  66.759  1.00  0.00    -0.118 C  
HETATM   10  C   UNL     1      -9.636   5.498  67.191  1.00  0.00    -0.140 C  
HETATM   11  C   UNL     1     -10.032   3.984  72.286  1.00  0.00    -0.236 C  
HETATM   12  C   UNL     1     -10.384   4.830  65.995  1.00  0.00    -0.328 C  
HETATM   13  C   UNL     1      -8.877   4.344  67.899  1.00  0.00    -0.124 C  
HETATM   14  C   UNL     1      -9.567   5.339  71.730  1.00  0.00    -0.192 C  
HETATM   15  C   UNL     1      -8.121   5.520  72.197  1.00  0.00    -0.111 C  
HETATM   16  O   UNL     1      -8.265   8.210  74.514  1.00  0.00    -0.241 OA 
HETATM   17  C   UNL     1      -8.994   4.219  69.419  1.00  0.00    -0.101 C  
HETATM   18  C   UNL     1      -7.690   6.455  73.051  1.00  0.00    -0.098 C  
HETATM   19  O   UNL     1      -9.740   3.016  69.689  1.00  0.00    -0.088 OA 
HETATM   20  C   UNL     1      -9.603   5.437  70.155  1.00  0.00    -0.235 C  
HETATM   21  C   UNL     1     -10.952   5.795  69.508  1.00  0.00    -0.374 C  
HETATM   22  H   UNL     1      -9.813   2.938  70.634  1.00  0.00     0.000 HD 
HETATM   23  C   UNL     1     -11.766   6.831  70.302  1.00  0.00    -0.397 C  
HETATM   24  C   UNL     1     -11.859   6.496  71.784  1.00  0.00    -0.384 C  
HETATM   25  C   UNL     1     -10.461   6.431  72.328  1.00  0.00    -0.222 C  
HETATM   26  C   UNL     1     -10.038   7.345  73.218  1.00  0.00    -0.367 C  
HETATM   27  C   UNL     1      -8.632   7.400  73.671  1.00  0.00    -0.175 C  
ENDROOT
BRANCH   9  28
HETATM   28  C   UNL     1      -8.477   6.917  65.249  1.00  0.00    -0.055 C  
HETATM   29  O   UNL     1      -8.215   6.003  64.460  1.00  0.00    -0.133 OA 
BRANCH  28  30
HETATM   30  C   UNL     1      -8.627   8.357  64.738  1.00  0.00    -0.049 C  
HETATM   31  O   UNL     1      -8.894   8.424  63.345  1.00  0.00    -0.398 OA 
HETATM   32  H   UNL     1      -8.988   9.315  63.029  1.00  0.00     0.000 HD 
ENDBRANCH  28  30
ENDBRANCH   9  28
TORSDOF 2
ENDMDL
MODEL       46
REMARK 921   NORMALIZED FREE ENERGY PREDICTED BY IDOCK:   -5.15 KCAL/MOL
REMARK 922        TOTAL FREE ENERGY PREDICTED BY IDOCK:   -5.67 KCAL/MOL
REMARK 923 INTER-LIGAND FREE ENERGY PREDICTED BY IDOCK:   -5.48 KCAL/MOL
REMARK 924 INTRA-LIGAND FREE ENERGY PREDICTED BY IDOCK:   -0.19 KCAL/MOL
REMARK 927      BINDING AFFINITY PREDICTED BY RF-SCORE:    0.00 PKD
ROOT
HETATM    1  C   UNL     1      -9.434   8.838  69.605  1.00  0.00    -0.170 C  
HETATM    2  C   UNL     1      -7.921   9.116  69.450  1.00  0.00    -0.097 C  
HETATM    3  C   UNL     1      -7.376   8.017  68.566  1.00  0.00    -0.097 C  
HETATM    4  O   UNL     1      -7.236   6.770  69.258  1.00  0.00    -0.084 OA 
HETATM    5  C   UNL     1      -7.437   5.789  68.248  1.00  0.00    -0.081 C  
HETATM    6  C   UNL     1      -6.063   5.409  67.681  1.00  0.00    -0.026 C  
HETATM    7  C   UNL     1      -8.077   4.495  68.728  1.00  0.00    -0.081 C  
HETATM    8  O   UNL     1      -8.315   6.344  67.269  1.00  0.00    -0.112 OA 
HETATM    9  C   UNL     1      -8.455   7.757  67.529  1.00  0.00    -0.120 C  
HETATM   10  C   UNL     1      -9.837   8.194  68.217  1.00  0.00    -0.191 C  
HETATM   11  C   UNL     1     -11.680   5.640  72.516  1.00  0.00    -0.255 C  
HETATM   12  C   UNL     1     -10.574   9.354  67.477  1.00  0.00    -0.333 C  
HETATM   13  C   UNL     1     -10.852   7.021  68.260  1.00  0.00    -0.198 C  
HETATM   14  C   UNL     1     -10.230   5.734  72.016  1.00  0.00    -0.245 C  
HETATM   15  C   UNL     1      -9.789   4.301  71.709  1.00  0.00    -0.250 C  
HETATM   16  O   UNL     1      -7.315   3.591  74.160  1.00  0.00    -0.051 OA 
HETATM   17  C   UNL     1     -11.082   6.304  69.592  1.00  0.00    -0.412 C  
HETATM   18  C   UNL     1      -8.835   3.625  72.360  1.00  0.00    -0.117 C  
HETATM   19  O   UNL     1     -12.424   6.617  70.016  1.00  0.00    -0.466 OA 
HETATM   20  C   UNL     1     -10.054   6.604  70.710  1.00  0.00    -0.205 C  
HETATM   21  C   UNL     1      -9.939   8.127  70.895  1.00  0.00    -0.214 C  
HETATM   22  H   UNL     1     -12.567   6.172  70.843  1.00  0.00     0.000 HD 
HETATM   23  C   UNL     1      -9.134   8.542  72.138  1.00  0.00    -0.319 C  
HETATM   24  C   UNL     1      -9.562   7.796  73.394  1.00  0.00    -0.352 C  
HETATM   25  C   UNL     1      -9.375   6.327  73.141  1.00  0.00    -0.138 C  
HETATM   26  C   UNL     1      -8.445   5.635  73.822  1.00  0.00    -0.113 C  
HETATM   27  C   UNL     1      -8.134   4.226  73.506  1.00  0.00    -0.090 C  
ENDROOT
BRANCH   9  28
HETATM   28  C   UNL     1      -8.109   8.441  66.197  1.00  0.00    -0.106 C  
HETATM   29  O   UNL     1      -7.622   9.575  66.139  1.00  0.00    -0.098 OA 
BRANCH  28  30
HETATM   30  C   UNL     1      -8.410   7.664  64.907  1.00  0.00    -0.046 C  
HETATM   31  O   UNL     1      -8.799   8.506  63.832  1.00  0.00    -0.413 OA 
HETATM   32  H   UNL     1      -8.985   8.026  63.034  1.00  0.00     0.000 HD 
ENDBRANCH  28  30
ENDBRANCH   9  28
TORSDOF 2
ENDMDL
MODEL       47
REMARK 921   NORMALIZED FREE ENERGY PREDICTED BY IDOCK:   -5.14 KCAL/MOL
REMARK 922        TOTAL FREE ENERGY PREDICTED BY IDOCK:   -5.66 KCAL/MOL
REMARK 923 INTER-LIGAND FREE ENERGY PREDICTED BY IDOCK:   -6.29 KCAL/MOL
REMARK 924 INTRA-LIGAND FREE ENERGY PREDICTED BY IDOCK:    0.63 KCAL/MOL
REMARK 927      BINDING AFFINITY PREDICTED BY RF-SCORE:    0.00 PKD
ROOT
HETATM    1  C   UNL     1      -9.175  14.929  66.172  1.00  0.00    -0.268 C  
HETATM    2  C   UNL     1      -8.679  13.955  67.265  1.00  0.00    -0.225 C  
HETATM    3  C   UNL     1      -9.699  14.011  68.378  1.00  0.00    -0.223 C  
HETATM    4  O   UNL     1      -9.590  15.201  69.169  1.00  0.00    -0.217 OA 
HETATM    5  C   UNL     1     -10.920  15.447  69.610  1.00  0.00    -0.284 C  
HETATM    6  C   UNL     1     -11.092  14.782  70.981  1.00  0.00    -0.024 C  
HETATM    7  C   UNL     1     -11.273  16.916  69.795  1.00  0.00     0.273 C  
HETATM    8  O   UNL     1     -11.810  14.932  68.619  1.00  0.00    -0.325 OA 
HETATM    9  C   UNL     1     -11.046  14.134  67.689  1.00  0.00    -0.282 C  
HETATM   10  C   UNL     1     -10.751  14.827  66.272  1.00  0.00    -0.313 C  
HETATM   11  C   UNL     1      -8.818  19.786  66.004  1.00  0.00    -0.295 C  
HETATM   12  C   UNL     1     -11.139  13.947  65.044  1.00  0.00    -0.353 C  
HETATM   13  C   UNL     1     -11.549  16.148  66.103  1.00  0.00     0.740 C  
HETATM   14  C   UNL     1      -8.711  18.786  67.166  1.00  0.00    -0.288 C  
HETATM   15  C   UNL     1      -9.419  19.436  68.357  1.00  0.00    -0.439 C  
HETATM   16  O   UNL     1      -6.814  20.116  70.676  1.00  0.00    -0.189 OA 
HETATM   17  C   UNL     1     -10.803  17.475  66.257  1.00  0.00     0.062 C  
HETATM   18  C   UNL     1      -8.831  19.825  69.493  1.00  0.00     0.367 C  
HETATM   19  O   UNL     1     -10.769  18.095  64.956  1.00  0.00    -0.610 OA 
HETATM   20  C   UNL     1      -9.388  17.389  66.878  1.00  0.00    -0.271 C  
HETATM   21  C   UNL     1      -8.556  16.356  66.099  1.00  0.00    -0.343 C  
HETATM   22  H   UNL     1     -10.306  18.920  65.052  1.00  0.00     0.000 HD 
HETATM   23  C   UNL     1      -7.062  16.359  66.466  1.00  0.00    -0.067 C  
HETATM   24  C   UNL     1      -6.460  17.756  66.478  1.00  0.00    -0.243 C  
HETATM   25  C   UNL     1      -7.225  18.576  67.478  1.00  0.00    -0.214 C  
HETATM   26  C   UNL     1      -6.626  19.005  68.602  1.00  0.00    -0.291 C  
HETATM   27  C   UNL     1      -7.376  19.692  69.673  1.00  0.00    -0.031 C  
ENDROOT
BRANCH   9  28
HETATM   28  C   UNL     1     -11.767  12.777  67.649  1.00  0.00    -0.367 C  
HETATM   29  O   UNL     1     -12.366  12.372  66.647  1.00  0.00    -0.477 OA 
BRANCH  28  30
HETATM   30  C   UNL     1     -11.737  11.925  68.926  1.00  0.00    -0.323 C  
HETATM   31  O   UNL     1     -12.080  10.567  68.693  1.00  0.00    -0.775 OA 
HETATM   32  H   UNL     1     -12.062  10.040  69.484  1.00  0.00     0.000 HD 
ENDBRANCH  28  30
ENDBRANCH   9  28
TORSDOF 2
ENDMDL
MODEL       48
REMARK 921   NORMALIZED FREE ENERGY PREDICTED BY IDOCK:   -5.07 KCAL/MOL
REMARK 922        TOTAL FREE ENERGY PREDICTED BY IDOCK:   -5.59 KCAL/MOL
REMARK 923 INTER-LIGAND FREE ENERGY PREDICTED BY IDOCK:   -5.38 KCAL/MOL
REMARK 924 INTRA-LIGAND FREE ENERGY PREDICTED BY IDOCK:   -0.21 KCAL/MOL
REMARK 927      BINDING AFFINITY PREDICTED BY RF-SCORE:    0.00 PKD
ROOT
HETATM    1  C   UNL     1      -9.256   9.822  66.711  1.00  0.00    -0.179 C  
HETATM    2  C   UNL     1     -10.526  10.279  65.959  1.00  0.00    -0.181 C  
HETATM    3  C   UNL     1     -11.020  11.516  66.672  1.00  0.00    -0.296 C  
HETATM    4  O   UNL     1     -11.672  11.217  67.912  1.00  0.00    -0.542 OA 
HETATM    5  C   UNL     1     -11.414  12.355  68.724  1.00  0.00    -0.304 C  
HETATM    6  C   UNL     1     -12.590  13.326  68.561  1.00  0.00     0.671 C  
HETATM    7  C   UNL     1     -11.295  12.069  70.214  1.00  0.00     0.219 C  
HETATM    8  O   UNL     1     -10.165  12.911  68.311  1.00  0.00    -0.234 OA 
HETATM    9  C   UNL     1      -9.770  12.279  67.075  1.00  0.00    -0.205 C  
HETATM   10  C   UNL     1      -8.609  11.179  67.207  1.00  0.00    -0.140 C  
HETATM   11  C   UNL     1      -8.893   7.333  70.885  1.00  0.00    -0.149 C  
HETATM   12  C   UNL     1      -7.417  11.397  66.224  1.00  0.00     0.047 C  
HETATM   13  C   UNL     1      -7.981  11.177  68.626  1.00  0.00    -0.145 C  
HETATM   14  C   UNL     1     -10.043   8.143  70.267  1.00  0.00    -0.192 C  
HETATM   15  C   UNL     1     -10.705   8.898  71.421  1.00  0.00    -0.382 C  
HETATM   16  O   UNL     1     -13.916   7.407  71.733  1.00  0.00    -0.376 OA 
HETATM   17  C   UNL     1      -8.363  10.052  69.590  1.00  0.00    -0.176 C  
HETATM   18  C   UNL     1     -11.950   8.699  71.869  1.00  0.00    -0.424 C  
HETATM   19  O   UNL     1      -7.187   9.240  69.782  1.00  0.00    -0.057 OA 
HETATM   20  C   UNL     1      -9.582   9.191  69.179  1.00  0.00    -0.161 C  
HETATM   21  C   UNL     1      -9.370   8.666  67.749  1.00  0.00    -0.157 C  
HETATM   22  H   UNL     1      -7.424   8.541  70.381  1.00  0.00     0.000 HD 
HETATM   23  C   UNL     1     -10.396   7.603  67.320  1.00  0.00    -0.367 C  
HETATM   24  C   UNL     1     -10.580   6.508  68.360  1.00  0.00    -0.296 C  
HETATM   25  C   UNL     1     -11.034   7.158  69.636  1.00  0.00    -0.236 C  
HETATM   26  C   UNL     1     -12.270   6.928  70.110  1.00  0.00    -0.001 C  
HETATM   27  C   UNL     1     -12.803   7.654  71.282  1.00  0.00    -0.260 C  
ENDROOT
BRANCH   9  28
HETATM   28  C   UNL     1      -9.502  13.442  66.105  1.00  0.00    -0.140 C  
HETATM   29  O   UNL     1      -9.805  13.392  64.909  1.00  0.00    -0.168 OA 
BRANCH  28  30
HETATM   30  C   UNL     1      -8.813  14.690  66.675  1.00  0.00    -0.209 C  
HETATM   31  O   UNL     1      -9.053  15.856  65.900  1.00  0.00    -0.336 OA 
HETATM   32  H   UNL     1      -8.627  16.628  66.253  1.00  0.00     0.000 HD 
ENDBRANCH  28  30
ENDBRANCH   9  28
TORSDOF 2
ENDMDL
MODEL       49
REMARK 921   NORMALIZED FREE ENERGY PREDICTED BY IDOCK:   -5.07 KCAL/MOL
REMARK 922        TOTAL FREE ENERGY PREDICTED BY IDOCK:   -5.59 KCAL/MOL
REMARK 923 INTER-LIGAND FREE ENERGY PREDICTED BY IDOCK:   -5.37 KCAL/MOL
REMARK 924 INTRA-LIGAND FREE ENERGY PREDICTED BY IDOCK:   -0.22 KCAL/MOL
REMARK 927      BINDING AFFINITY PREDICTED BY RF-SCORE:    0.00 PKD
ROOT
HETATM    1  C   UNL     1      -9.796   8.324  70.035  1.00  0.00    -0.182 C  
HETATM    2  C   UNL     1     -11.082   7.518  69.738  1.00  0.00    -0.143 C  
HETATM    3  C   UNL     1     -10.711   6.504  68.681  1.00  0.00    -0.271 C  
HETATM    4  O   UNL     1     -10.586   7.084  67.377  1.00  0.00    -0.234 OA 
HETATM    5  C   UNL     1      -9.606   6.280  66.732  1.00  0.00    -0.153 C  
HETATM    6  C   UNL     1     -10.339   5.175  65.959  1.00  0.00    -0.231 C  
HETATM    7  C   UNL     1      -8.740   7.013  65.718  1.00  0.00    -0.116 C  
HETATM    8  O   UNL     1      -8.726   5.775  67.736  1.00  0.00    -0.109 OA 
HETATM    9  C   UNL     1      -9.305   6.048  69.030  1.00  0.00    -0.124 C  
HETATM   10  C   UNL     1      -8.639   7.263  69.838  1.00  0.00    -0.141 C  
HETATM   11  C   UNL     1      -7.812  11.977  67.492  1.00  0.00    -0.155 C  
HETATM   12  C   UNL     1      -8.222   6.901  71.297  1.00  0.00    -0.114 C  
HETATM   13  C   UNL     1      -7.341   7.765  69.150  1.00  0.00    -0.088 C  
HETATM   14  C   UNL     1      -8.830  10.891  67.110  1.00  0.00    -0.135 C  
HETATM   15  C   UNL     1      -8.469  10.446  65.691  1.00  0.00    -0.169 C  
HETATM   16  O   UNL     1     -11.179  11.578  63.690  1.00  0.00    -0.411 OA 
HETATM   17  C   UNL     1      -7.394   9.075  68.362  1.00  0.00    -0.078 C  
HETATM   18  C   UNL     1      -9.228  10.624  64.603  1.00  0.00    -0.262 C  
HETATM   19  O   UNL     1      -6.602  10.038  69.086  1.00  0.00    -0.050 OA 
HETATM   20  C   UNL     1      -8.807   9.625  68.054  1.00  0.00    -0.119 C  
HETATM   21  C   UNL     1      -9.610   9.717  69.364  1.00  0.00    -0.200 C  
HETATM   22  H   UNL     1      -6.634  10.852  68.596  1.00  0.00     0.000 HD 
HETATM   23  C   UNL     1     -10.941  10.475  69.224  1.00  0.00    -0.291 C  
HETATM   24  C   UNL     1     -10.789  11.803  68.497  1.00  0.00    -0.261 C  
HETATM   25  C   UNL     1     -10.228  11.518  67.133  1.00  0.00    -0.233 C  
HETATM   26  C   UNL     1     -10.973  11.735  66.036  1.00  0.00    -0.355 C  
HETATM   27  C   UNL     1     -10.512  11.339  64.689  1.00  0.00    -0.325 C  
ENDROOT
BRANCH   9  28
HETATM   28  C   UNL     1      -9.333   4.687  69.745  1.00  0.00    -0.145 C  
HETATM   29  O   UNL     1     -10.203   4.387  70.569  1.00  0.00    -0.178 OA 
BRANCH  28  30
HETATM   30  C   UNL     1      -8.211   3.693  69.412  1.00  0.00    -0.053 C  
HETATM   31  O   UNL     1      -7.650   3.086  70.567  1.00  0.00    -0.043 OA 
HETATM   32  H   UNL     1      -6.956   2.471  70.361  1.00  0.00     0.000 HD 
ENDBRANCH  28  30
ENDBRANCH   9  28
TORSDOF 2
ENDMDL
MODEL       50
REMARK 921   NORMALIZED FREE ENERGY PREDICTED BY IDOCK:   -5.05 KCAL/MOL
REMARK 922        TOTAL FREE ENERGY PREDICTED BY IDOCK:   -5.56 KCAL/MOL
REMARK 923 INTER-LIGAND FREE ENERGY PREDICTED BY IDOCK:   -5.22 KCAL/MOL
REMARK 924 INTRA-LIGAND FREE ENERGY PREDICTED BY IDOCK:   -0.34 KCAL/MOL
REMARK 927      BINDING AFFINITY PREDICTED BY RF-SCORE:    0.00 PKD
ROOT
HETATM    1  C   UNL     1      -9.673  15.407  65.828  1.00  0.00    -0.385 C  
HETATM    2  C   UNL     1     -11.154  15.827  65.970  1.00  0.00    -0.085 C  
HETATM    3  C   UNL     1     -11.349  16.212  67.418  1.00  0.00     0.061 C  
HETATM    4  O   UNL     1     -11.425  15.076  68.288  1.00  0.00    -0.305 OA 
HETATM    5  C   UNL     1     -10.891  15.546  69.519  1.00  0.00    -0.267 C  
HETATM    6  C   UNL     1     -12.060  16.041  70.380  1.00  0.00    -0.198 C  
HETATM    7  C   UNL     1     -10.161  14.496  70.345  1.00  0.00     0.780 C  
HETATM    8  O   UNL     1      -9.940  16.568  69.220  1.00  0.00    -0.263 OA 
HETATM    9  C   UNL     1     -10.068  16.919  67.826  1.00  0.00    -0.292 C  
HETATM   10  C   UNL     1      -8.923  16.338  66.864  1.00  0.00    -0.242 C  
HETATM   11  C   UNL     1      -7.551  11.191  67.042  1.00  0.00    -0.135 C  
HETATM   12  C   UNL     1      -8.246  17.418  65.963  1.00  0.00    -0.161 C  
HETATM   13  C   UNL     1      -7.767  15.693  67.674  1.00  0.00    -0.176 C  
HETATM   14  C   UNL     1      -8.878  11.837  67.471  1.00  0.00    -0.162 C  
HETATM   15  C   UNL     1      -9.030  11.550  68.967  1.00  0.00     0.135 C  
HETATM   16  O   UNL     1     -11.782   9.310  69.167  1.00  0.00     0.415 OA 
HETATM   17  C   UNL     1      -7.684  14.166  67.736  1.00  0.00    -0.168 C  
HETATM   18  C   UNL     1      -9.975  10.781  69.519  1.00  0.00    -0.087 C  
HETATM   19  O   UNL     1      -6.509  13.775  66.998  1.00  0.00    -0.377 OA 
HETATM   20  C   UNL     1      -8.937  13.399  67.249  1.00  0.00    -0.221 C  
HETATM   21  C   UNL     1      -9.316  13.891  65.842  1.00  0.00     0.017 C  
HETATM   22  H   UNL     1      -6.458  12.827  67.037  1.00  0.00     0.000 HD 
HETATM   23  C   UNL     1     -10.394  13.036  65.155  1.00  0.00    -0.321 C  
HETATM   24  C   UNL     1     -10.100  11.545  65.231  1.00  0.00    -0.314 C  
HETATM   25  C   UNL     1     -10.010  11.168  66.682  1.00  0.00    -0.244 C  
HETATM   26  C   UNL     1     -10.934  10.362  67.232  1.00  0.00    -0.306 C  
HETATM   27  C   UNL     1     -10.961  10.080  68.682  1.00  0.00    -0.204 C  
ENDROOT
BRANCH   9  28
HETATM   28  C   UNL     1     -10.259  18.444  67.818  1.00  0.00    -0.385 C  
HETATM   29  O   UNL     1     -10.992  19.018  67.007  1.00  0.00    -0.399 OA 
BRANCH  28  30
HETATM   30  C   UNL     1      -9.478  19.257  68.861  1.00  0.00    -0.380 C  
HETATM   31  O   UNL     1     -10.299  19.741  69.913  1.00  0.00    -0.545 OA 
HETATM   32  H   UNL     1      -9.816  20.244  70.558  1.00  0.00     0.000 HD 
ENDBRANCH  28  30
ENDBRANCH   9  28
TORSDOF 2
ENDMDL
MODEL       51
REMARK 921   NORMALIZED FREE ENERGY PREDICTED BY IDOCK:   -4.90 KCAL/MOL
REMARK 922        TOTAL FREE ENERGY PREDICTED BY IDOCK:   -5.40 KCAL/MOL
REMARK 923 INTER-LIGAND FREE ENERGY PREDICTED BY IDOCK:   -5.44 KCAL/MOL
REMARK 924 INTRA-LIGAND FREE ENERGY PREDICTED BY IDOCK:    0.05 KCAL/MOL
REMARK 927      BINDING AFFINITY PREDICTED BY RF-SCORE:    0.00 PKD
ROOT
HETATM    1  C   UNL     1      -9.694   9.072  66.033  1.00  0.00    -0.339 C  
HETATM    2  C   UNL     1     -10.953   9.658  66.712  1.00  0.00     0.078 C  
HETATM    3  C   UNL     1     -10.630  11.098  67.034  1.00  0.00    -0.252 C  
HETATM    4  O   UNL     1      -9.765  11.231  68.169  1.00  0.00    -0.172 OA 
HETATM    5  C   UNL     1      -9.024  12.415  67.904  1.00  0.00    -0.184 C  
HETATM    6  C   UNL     1      -9.757  13.588  68.567  1.00  0.00    -0.168 C  
HETATM    7  C   UNL     1      -7.606  12.424  68.457  1.00  0.00    -0.122 C  
HETATM    8  O   UNL     1      -8.912  12.552  66.486  1.00  0.00    -0.207 OA 
HETATM    9  C   UNL     1      -9.802  11.600  65.864  1.00  0.00    -0.233 C  
HETATM   10  C   UNL     1      -9.092  10.303  65.242  1.00  0.00    -0.228 C  
HETATM   11  C   UNL     1      -5.562   7.492  68.078  1.00  0.00    -0.027 C  
HETATM   12  C   UNL     1      -9.488  10.014  63.760  1.00  0.00    -0.267 C  
HETATM   13  C   UNL     1      -7.547  10.442  65.237  1.00  0.00    -0.118 C  
HETATM   14  C   UNL     1      -6.681   8.411  68.595  1.00  0.00    -0.059 C  
HETATM   15  C   UNL     1      -5.989   9.528  69.380  1.00  0.00    -0.033 C  
HETATM   16  O   UNL     1      -6.945   8.961  72.756  1.00  0.00    -0.325 OA 
HETATM   17  C   UNL     1      -6.742   9.670  66.285  1.00  0.00    -0.076 C  
HETATM   18  C   UNL     1      -6.099   9.735  70.697  1.00  0.00    -0.088 C  
HETATM   19  O   UNL     1      -5.997   8.654  65.583  1.00  0.00    -0.050 OA 
HETATM   20  C   UNL     1      -7.555   9.066  67.455  1.00  0.00    -0.088 C  
HETATM   21  C   UNL     1      -8.707   8.220  66.885  1.00  0.00    -0.141 C  
HETATM   22  H   UNL     1      -5.497   8.175  66.234  1.00  0.00     0.000 HD 
HETATM   23  C   UNL     1      -9.437   7.373  67.942  1.00  0.00    -0.150 C  
HETATM   24  C   UNL     1      -8.482   6.597  68.837  1.00  0.00    -0.123 C  
HETATM   25  C   UNL     1      -7.584   7.588  69.520  1.00  0.00    -0.095 C  
HETATM   26  C   UNL     1      -7.663   7.770  70.849  1.00  0.00    -0.087 C  
HETATM   27  C   UNL     1      -6.899   8.830  71.538  1.00  0.00    -0.084 C  
ENDROOT
BRANCH   9  28
HETATM   28  C   UNL     1     -10.663  12.435  64.903  1.00  0.00    -0.294 C  
HETATM   29  O   UNL     1     -10.218  12.908  63.852  1.00  0.00    -0.383 OA 
BRANCH  28  30
HETATM   30  C   UNL     1     -12.124  12.687  65.304  1.00  0.00    -0.467 C  
HETATM   31  O   UNL     1     -12.943  13.060  64.205  1.00  0.00    -0.666 OA 
HETATM   32  H   UNL     1     -13.847  13.216  64.453  1.00  0.00     0.000 HD 
ENDBRANCH  28  30
ENDBRANCH   9  28
TORSDOF 2
ENDMDL
MODEL       52
REMARK 921   NORMALIZED FREE ENERGY PREDICTED BY IDOCK:   -4.84 KCAL/MOL
REMARK 922        TOTAL FREE ENERGY PREDICTED BY IDOCK:   -5.32 KCAL/MOL
REMARK 923 INTER-LIGAND FREE ENERGY PREDICTED BY IDOCK:   -4.92 KCAL/MOL
REMARK 924 INTRA-LIGAND FREE ENERGY PREDICTED BY IDOCK:   -0.40 KCAL/MOL
REMARK 927      BINDING AFFINITY PREDICTED BY RF-SCORE:    0.00 PKD
ROOT
HETATM    1  C   UNL     1      -7.637   7.195  67.375  1.00  0.00    -0.109 C  
HETATM    2  C   UNL     1      -6.480   6.273  67.823  1.00  0.00    -0.049 C  
HETATM    3  C   UNL     1      -7.103   4.933  68.137  1.00  0.00    -0.062 C  
HETATM    4  O   UNL     1      -7.802   4.926  69.388  1.00  0.00    -0.069 OA 
HETATM    5  C   UNL     1      -8.845   3.979  69.198  1.00  0.00    -0.099 C  
HETATM    6  C   UNL     1      -8.340   2.617  69.692  1.00  0.00    -0.079 C  
HETATM    7  C   UNL     1     -10.125   4.269  69.967  1.00  0.00    -0.057 C  
HETATM    8  O   UNL     1      -9.189   3.981  67.812  1.00  0.00    -0.134 OA 
HETATM    9  C   UNL     1      -8.189   4.735  67.094  1.00  0.00    -0.106 C  
HETATM   10  C   UNL     1      -8.634   6.209  66.641  1.00  0.00    -0.118 C  
HETATM   11  C   UNL     1     -10.906   9.562  70.105  1.00  0.00    -0.300 C  
HETATM   12  C   UNL     1      -8.396   6.506  65.128  1.00  0.00    -0.101 C  
HETATM   13  C   UNL     1     -10.150   6.447  66.876  1.00  0.00    -0.244 C  
HETATM   14  C   UNL     1      -9.991   8.365  70.403  1.00  0.00    -0.199 C  
HETATM   15  C   UNL     1     -10.819   7.391  71.245  1.00  0.00    -0.258 C  
HETATM   16  O   UNL     1      -9.277   7.452  74.446  1.00  0.00    -0.204 OA 
HETATM   17  C   UNL     1     -10.578   7.308  68.066  1.00  0.00    -0.189 C  
HETATM   18  C   UNL     1     -10.576   7.063  72.519  1.00  0.00    -0.255 C  
HETATM   19  O   UNL     1     -11.138   8.523  67.530  1.00  0.00    -0.459 OA 
HETATM   20  C   UNL     1      -9.480   7.608  69.115  1.00  0.00    -0.154 C  
HETATM   21  C   UNL     1      -8.247   8.192  68.404  1.00  0.00    -0.129 C  
HETATM   22  H   UNL     1     -11.404   9.058  68.270  1.00  0.00     0.000 HD 
HETATM   23  C   UNL     1      -7.186   8.755  69.364  1.00  0.00    -0.061 C  
HETATM   24  C   UNL     1      -7.778   9.668  70.427  1.00  0.00    -0.178 C  
HETATM   25  C   UNL     1      -8.788   8.873  71.205  1.00  0.00    -0.298 C  
HETATM   26  C   UNL     1      -8.566   8.577  72.497  1.00  0.00    -0.204 C  
HETATM   27  C   UNL     1      -9.464   7.682  73.257  1.00  0.00    -0.259 C  
ENDROOT
BRANCH   9  28
HETATM   28  C   UNL     1      -7.710   3.794  65.977  1.00  0.00    -0.089 C  
HETATM   29  O   UNL     1      -6.538   3.764  65.590  1.00  0.00    -0.035 OA 
BRANCH  28  30
HETATM   30  C   UNL     1      -8.760   2.881  65.326  1.00  0.00    -0.122 C  
HETATM   31  O   UNL     1      -9.990   3.545  65.074  1.00  0.00    -0.303 OA 
HETATM   32  H   UNL     1     -10.639   2.981  64.671  1.00  0.00     0.000 HD 
ENDBRANCH  28  30
ENDBRANCH   9  28
TORSDOF 2
ENDMDL
MODEL       53
REMARK 921   NORMALIZED FREE ENERGY PREDICTED BY IDOCK:   -4.83 KCAL/MOL
REMARK 922        TOTAL FREE ENERGY PREDICTED BY IDOCK:   -5.32 KCAL/MOL
REMARK 923 INTER-LIGAND FREE ENERGY PREDICTED BY IDOCK:   -6.03 KCAL/MOL
REMARK 924 INTRA-LIGAND FREE ENERGY PREDICTED BY IDOCK:    0.72 KCAL/MOL
REMARK 927      BINDING AFFINITY PREDICTED BY RF-SCORE:    0.00 PKD
ROOT
HETATM    1  C   UNL     1      -9.174  14.310  68.042  1.00  0.00    -0.192 C  
HETATM    2  C   UNL     1      -8.420  14.532  66.711  1.00  0.00    -0.108 C  
HETATM    3  C   UNL     1      -9.450  14.398  65.613  1.00  0.00    -0.010 C  
HETATM    4  O   UNL     1      -9.815  13.035  65.361  1.00  0.00    -0.221 OA 
HETATM    5  C   UNL     1     -11.167  13.114  64.924  1.00  0.00    -0.310 C  
HETATM    6  C   UNL     1     -11.162  13.195  63.392  1.00  0.00     0.012 C  
HETATM    7  C   UNL     1     -12.031  11.916  65.289  1.00  0.00    -0.084 C  
HETATM    8  O   UNL     1     -11.760  14.255  65.545  1.00  0.00    -0.337 OA 
HETATM    9  C   UNL     1     -10.714  15.035  66.162  1.00  0.00    -0.327 C  
HETATM   10  C   UNL     1     -10.612  14.906  67.758  1.00  0.00    -0.262 C  
HETATM   11  C   UNL     1     -10.568  10.127  70.116  1.00  0.00    -0.337 C  
HETATM   12  C   UNL     1     -10.595  16.276  68.504  1.00  0.00    -0.294 C  
HETATM   13  C   UNL     1     -11.819  14.129  68.348  1.00  0.00    -0.388 C  
HETATM   14  C   UNL     1     -10.172  10.478  68.674  1.00  0.00    -0.197 C  
HETATM   15  C   UNL     1     -11.127   9.701  67.765  1.00  0.00    -0.089 C  
HETATM   16  O   UNL     1      -9.063   7.296  66.157  1.00  0.00    -0.166 OA 
HETATM   17  C   UNL     1     -11.606  12.681  68.794  1.00  0.00    -0.313 C  
HETATM   18  C   UNL     1     -10.778   8.714  66.932  1.00  0.00    -0.152 C  
HETATM   19  O   UNL     1     -11.728  12.658  70.231  1.00  0.00    -0.525 OA 
HETATM   20  C   UNL     1     -10.289  12.015  68.329  1.00  0.00    -0.211 C  
HETATM   21  C   UNL     1      -9.103  12.912  68.723  1.00  0.00     0.171 C  
HETATM   22  H   UNL     1     -11.596  11.758  70.508  1.00  0.00     0.000 HD 
HETATM   23  C   UNL     1      -7.730  12.244  68.533  1.00  0.00    -0.118 C  
HETATM   24  C   UNL     1      -7.669  10.843  69.122  1.00  0.00    -0.127 C  
HETATM   25  C   UNL     1      -8.728  10.015  68.450  1.00  0.00    -0.117 C  
HETATM   26  C   UNL     1      -8.381   8.997  67.644  1.00  0.00    -0.117 C  
HETATM   27  C   UNL     1      -9.384   8.250  66.857  1.00  0.00    -0.176 C  
ENDROOT
BRANCH   9  28
HETATM   28  C   UNL     1     -10.899  16.455  65.602  1.00  0.00    -0.178 C  
HETATM   29  O   UNL     1     -11.726  16.721  64.725  1.00  0.00    -0.073 OA 
BRANCH  28  30
HETATM   30  C   UNL     1      -9.989  17.557  66.164  1.00  0.00    -0.270 C  
HETATM   31  O   UNL     1     -10.242  18.830  65.587  1.00  0.00    -0.519 OA 
HETATM   32  H   UNL     1      -9.680  19.512  65.934  1.00  0.00     0.000 HD 
ENDBRANCH  28  30
ENDBRANCH   9  28
TORSDOF 2
ENDMDL
MODEL       54
REMARK 921   NORMALIZED FREE ENERGY PREDICTED BY IDOCK:   -4.80 KCAL/MOL
REMARK 922        TOTAL FREE ENERGY PREDICTED BY IDOCK:   -5.28 KCAL/MOL
REMARK 923 INTER-LIGAND FREE ENERGY PREDICTED BY IDOCK:   -4.82 KCAL/MOL
REMARK 924 INTRA-LIGAND FREE ENERGY PREDICTED BY IDOCK:   -0.46 KCAL/MOL
REMARK 927      BINDING AFFINITY PREDICTED BY RF-SCORE:    0.00 PKD
ROOT
HETATM    1  C   UNL     1      -6.188   9.370  68.415  1.00  0.00    -0.052 C  
HETATM    2  C   UNL     1      -5.816   9.720  66.956  1.00  0.00    -0.051 C  
HETATM    3  C   UNL     1      -6.972  10.523  66.404  1.00  0.00    -0.124 C  
HETATM    4  O   UNL     1      -8.108   9.710  66.086  1.00  0.00    -0.107 OA 
HETATM    5  C   UNL     1      -9.220  10.571  66.296  1.00  0.00    -0.168 C  
HETATM    6  C   UNL     1      -9.561  11.236  64.956  1.00  0.00    -0.267 C  
HETATM    7  C   UNL     1     -10.489   9.878  66.769  1.00  0.00    -0.261 C  
HETATM    8  O   UNL     1      -8.861  11.508  67.312  1.00  0.00    -0.153 OA 
HETATM    9  C   UNL     1      -7.441  11.400  67.552  1.00  0.00    -0.113 C  
HETATM   10  C   UNL     1      -7.029  10.623  68.894  1.00  0.00    -0.073 C  
HETATM   11  C   UNL     1      -9.160   5.881  70.071  1.00  0.00    -0.154 C  
HETATM   12  C   UNL     1      -6.031  11.409  69.800  1.00  0.00    -0.112 C  
HETATM   13  C   UNL     1      -8.262  10.334  69.790  1.00  0.00    -0.111 C  
HETATM   14  C   UNL     1      -9.018   6.544  68.691  1.00  0.00    -0.126 C  
HETATM   15  C   UNL     1     -10.440   6.727  68.156  1.00  0.00    -0.251 C  
HETATM   16  O   UNL     1     -10.646   4.492  65.400  1.00  0.00    -0.264 OA 
HETATM   17  C   UNL     1      -8.822   8.911  69.824  1.00  0.00    -0.144 C  
HETATM   18  C   UNL     1     -10.954   6.109  67.086  1.00  0.00    -0.420 C  
HETATM   19  O   UNL     1      -8.563   8.384  71.141  1.00  0.00    -0.129 OA 
HETATM   20  C   UNL     1      -8.307   7.953  68.723  1.00  0.00    -0.128 C  
HETATM   21  C   UNL     1      -6.769   7.960  68.727  1.00  0.00    -0.057 C  
HETATM   22  H   UNL     1      -8.911   7.500  71.162  1.00  0.00     0.000 HD 
HETATM   23  C   UNL     1      -6.141   6.867  67.843  1.00  0.00    -0.033 C  
HETATM   24  C   UNL     1      -6.755   5.495  68.078  1.00  0.00    -0.055 C  
HETATM   25  C   UNL     1      -8.226   5.594  67.786  1.00  0.00    -0.101 C  
HETATM   26  C   UNL     1      -8.753   4.942  66.736  1.00  0.00    -0.107 C  
HETATM   27  C   UNL     1     -10.163   5.123  66.333  1.00  0.00    -0.266 C  
ENDROOT
BRANCH   9  28
HETATM   28  C   UNL     1      -6.905  12.832  67.400  1.00  0.00    -0.133 C  
HETATM   29  O   UNL     1      -5.735  13.074  67.087  1.00  0.00    -0.349 OA 
BRANCH  28  30
HETATM   30  C   UNL     1      -7.883  13.984  67.675  1.00  0.00    -0.176 C  
HETATM   31  O   UNL     1      -8.386  13.976  69.003  1.00  0.00    -0.334 OA 
HETATM   32  H   UNL     1      -8.991  14.689  69.173  1.00  0.00     0.000 HD 
ENDBRANCH  28  30
ENDBRANCH   9  28
TORSDOF 2
ENDMDL
MODEL       55
REMARK 921   NORMALIZED FREE ENERGY PREDICTED BY IDOCK:   -4.73 KCAL/MOL
REMARK 922        TOTAL FREE ENERGY PREDICTED BY IDOCK:   -5.20 KCAL/MOL
REMARK 923 INTER-LIGAND FREE ENERGY PREDICTED BY IDOCK:   -5.23 KCAL/MOL
REMARK 924 INTRA-LIGAND FREE ENERGY PREDICTED BY IDOCK:    0.03 KCAL/MOL
REMARK 927      BINDING AFFINITY PREDICTED BY RF-SCORE:    0.00 PKD
ROOT
HETATM    1  C   UNL     1      -8.757  15.569  68.284  1.00  0.00    -0.170 C  
HETATM    2  C   UNL     1      -8.161  16.196  67.002  1.00  0.00    -0.245 C  
HETATM    3  C   UNL     1      -9.330  16.491  66.091  1.00  0.00    -0.304 C  
HETATM    4  O   UNL     1      -9.852  15.315  65.462  1.00  0.00    -0.341 OA 
HETATM    5  C   UNL     1     -11.234  15.601  65.285  1.00  0.00    -0.234 C  
HETATM    6  C   UNL     1     -11.416  16.198  63.884  1.00  0.00     0.585 C  
HETATM    7  C   UNL     1     -12.155  14.392  65.361  1.00  0.00    -0.364 C  
HETATM    8  O   UNL     1     -11.633  16.488  66.331  1.00  0.00     0.655 OA 
HETATM    9  C   UNL     1     -10.448  16.962  67.005  1.00  0.00    -0.281 C  
HETATM   10  C   UNL     1     -10.157  16.293  68.434  1.00  0.00    -0.237 C  
HETATM   11  C   UNL     1     -10.268  10.999  69.046  1.00  0.00    -0.217 C  
HETATM   12  C   UNL     1      -9.915  17.324  69.579  1.00  0.00     0.082 C  
HETATM   13  C   UNL     1     -11.347  15.418  68.910  1.00  0.00    -0.322 C  
HETATM   14  C   UNL     1     -10.026  11.802  67.758  1.00  0.00    -0.198 C  
HETATM   15  C   UNL     1     -11.159  11.426  66.800  1.00  0.00    -0.343 C  
HETATM   16  O   UNL     1      -9.553   9.619  64.195  1.00  0.00    -0.134 OA 
HETATM   17  C   UNL     1     -11.218  13.897  68.815  1.00  0.00    -0.272 C  
HETATM   18  C   UNL     1     -11.013  10.767  65.645  1.00  0.00     0.033 C  
HETATM   19  O   UNL     1     -11.158  13.391  70.164  1.00  0.00    -0.430 OA 
HETATM   20  C   UNL     1     -10.040  13.368  67.962  1.00  0.00    -0.241 C  
HETATM   21  C   UNL     1      -8.733  14.021  68.446  1.00  0.00    -0.179 C  
HETATM   22  H   UNL     1     -11.078  12.446  70.105  1.00  0.00     0.000 HD 
HETATM   23  C   UNL     1      -7.465  13.395  67.840  1.00  0.00    -0.149 C  
HETATM   24  C   UNL     1      -7.464  11.875  67.917  1.00  0.00    -0.114 C  
HETATM   25  C   UNL     1      -8.673  11.377  67.178  1.00  0.00    -0.155 C  
HETATM   26  C   UNL     1      -8.530  10.679  66.039  1.00  0.00    -0.165 C  
HETATM   27  C   UNL     1      -9.690  10.291  65.210  1.00  0.00    -0.291 C  
ENDROOT
BRANCH   9  28
HETATM   28  C   UNL     1     -10.566  18.495  66.980  1.00  0.00    -0.380 C  
HETATM   29  O   UNL     1     -11.364  19.111  67.694  1.00  0.00    -0.115 OA 
BRANCH  28  30
HETATM   30  C   UNL     1      -9.657  19.256  66.005  1.00  0.00    -0.194 C  
HETATM   31  O   UNL     1      -9.012  20.370  66.605  1.00  0.00    -0.514 OA 
HETATM   32  H   UNL     1      -8.449  20.841  66.002  1.00  0.00     0.000 HD 
ENDBRANCH  28  30
ENDBRANCH   9  28
TORSDOF 2
ENDMDL
MODEL       56
REMARK 921   NORMALIZED FREE ENERGY PREDICTED BY IDOCK:   -4.72 KCAL/MOL
REMARK 922        TOTAL FREE ENERGY PREDICTED BY IDOCK:   -5.19 KCAL/MOL
REMARK 923 INTER-LIGAND FREE ENERGY PREDICTED BY IDOCK:   -5.01 KCAL/MOL
REMARK 924 INTRA-LIGAND FREE ENERGY PREDICTED BY IDOCK:   -0.18 KCAL/MOL
REMARK 927      BINDING AFFINITY PREDICTED BY RF-SCORE:    0.00 PKD
ROOT
HETATM    1  C   UNL     1     -10.244   7.545  68.508  1.00  0.00    -0.216 C  
HETATM    2  C   UNL     1     -11.347   6.485  68.732  1.00  0.00    -0.237 C  
HETATM    3  C   UNL     1     -11.010   5.790  70.031  1.00  0.00    -0.311 C  
HETATM    4  O   UNL     1      -9.926   4.862  69.897  1.00  0.00    -0.211 OA 
HETATM    5  C   UNL     1      -9.299   4.874  71.173  1.00  0.00    -0.150 C  
HETATM    6  C   UNL     1      -9.912   3.743  72.009  1.00  0.00    -0.238 C  
HETATM    7  C   UNL     1      -7.797   4.631  71.153  1.00  0.00    -0.082 C  
HETATM    8  O   UNL     1      -9.499   6.167  71.745  1.00  0.00    -0.152 OA 
HETATM    9  C   UNL     1     -10.469   6.876  70.945  1.00  0.00    -0.211 C  
HETATM   10  C   UNL     1      -9.866   8.004  69.975  1.00  0.00    -0.185 C  
HETATM   11  C   UNL     1      -5.720   6.947  66.798  1.00  0.00    -0.018 C  
HETATM   12  C   UNL     1     -10.561   9.394  70.114  1.00  0.00    -0.279 C  
HETATM   13  C   UNL     1      -8.363   8.262  70.261  1.00  0.00    -0.123 C  
HETATM   14  C   UNL     1      -6.731   5.959  67.401  1.00  0.00    -0.058 C  
HETATM   15  C   UNL     1      -5.925   5.008  68.288  1.00  0.00    -0.026 C  
HETATM   16  O   UNL     1      -6.116   1.871  66.629  1.00  0.00    -0.022 OA 
HETATM   17  C   UNL     1      -7.327   7.691  69.291  1.00  0.00    -0.088 C  
HETATM   18  C   UNL     1      -5.757   3.698  68.073  1.00  0.00    -0.022 C  
HETATM   19  O   UNL     1      -6.717   8.809  68.615  1.00  0.00    -0.057 OA 
HETATM   20  C   UNL     1      -7.851   6.640  68.282  1.00  0.00    -0.110 C  
HETATM   21  C   UNL     1      -9.070   7.216  67.540  1.00  0.00    -0.123 C  
HETATM   22  H   UNL     1      -6.074   8.454  68.012  1.00  0.00     0.000 HD 
HETATM   23  C   UNL     1      -9.528   6.364  66.344  1.00  0.00    -0.169 C  
HETATM   24  C   UNL     1      -8.378   5.965  65.430  1.00  0.00    -0.149 C  
HETATM   25  C   UNL     1      -7.387   5.188  66.250  1.00  0.00    -0.082 C  
HETATM   26  C   UNL     1      -7.186   3.882  66.010  1.00  0.00    -0.068 C  
HETATM   27  C   UNL     1      -6.328   3.052  66.881  1.00  0.00    -0.035 C  
ENDROOT
BRANCH   9  28
HETATM   28  C   UNL     1     -11.543   7.337  71.943  1.00  0.00    -0.277 C  
HETATM   29  O   UNL     1     -11.267   7.932  72.989  1.00  0.00    -0.411 OA 
BRANCH  28  30
HETATM   30  C   UNL     1     -13.005   7.011  71.605  1.00  0.00    -0.352 C  
HETATM   31  O   UNL     1     -13.663   8.067  70.920  1.00  0.00    -0.546 OA 
HETATM   32  H   UNL     1     -14.567   7.866  70.710  1.00  0.00     0.000 HD 
ENDBRANCH  28  30
ENDBRANCH   9  28
TORSDOF 2
ENDMDL
MODEL       57
REMARK 921   NORMALIZED FREE ENERGY PREDICTED BY IDOCK:   -4.69 KCAL/MOL
REMARK 922        TOTAL FREE ENERGY PREDICTED BY IDOCK:   -5.16 KCAL/MOL
REMARK 923 INTER-LIGAND FREE ENERGY PREDICTED BY IDOCK:   -5.10 KCAL/MOL
REMARK 924 INTRA-LIGAND FREE ENERGY PREDICTED BY IDOCK:   -0.06 KCAL/MOL
REMARK 927      BINDING AFFINITY PREDICTED BY RF-SCORE:    0.00 PKD
ROOT
HETATM    1  C   UNL     1      -9.166   9.256  70.573  1.00  0.00    -0.311 C  
HETATM    2  C   UNL     1      -8.309  10.194  69.692  1.00  0.00    -0.174 C  
HETATM    3  C   UNL     1      -8.867  10.087  68.292  1.00  0.00    -0.116 C  
HETATM    4  O   UNL     1      -8.489   8.870  67.637  1.00  0.00    -0.120 OA 
HETATM    5  C   UNL     1      -9.577   8.595  66.762  1.00  0.00    -0.207 C  
HETATM    6  C   UNL     1      -9.247   9.208  65.395  1.00  0.00    -0.266 C  
HETATM    7  C   UNL     1      -9.849   7.118  66.519  1.00  0.00    -0.189 C  
HETATM    8  O   UNL     1     -10.759   9.139  67.351  1.00  0.00    -0.277 OA 
HETATM    9  C   UNL     1     -10.372   9.977  68.461  1.00  0.00    -0.193 C  
HETATM   10  C   UNL     1     -10.603   9.340  69.916  1.00  0.00    -0.246 C  
HETATM   11  C   UNL     1      -8.916   4.412  71.041  1.00  0.00    -0.164 C  
HETATM   12  C   UNL     1     -11.399  10.262  70.891  1.00  0.00    -0.376 C  
HETATM   13  C   UNL     1     -11.416   8.020  69.840  1.00  0.00     0.157 C  
HETATM   14  C   UNL     1      -8.398   5.369  69.957  1.00  0.00    -0.107 C  
HETATM   15  C   UNL     1      -8.640   4.670  68.617  1.00  0.00    -0.099 C  
HETATM   16  O   UNL     1      -5.383   3.926  67.403  1.00  0.00    -0.011 OA 
HETATM   17  C   UNL     1     -10.670   6.695  70.011  1.00  0.00    -0.240 C  
HETATM   18  C   UNL     1      -7.688   4.243  67.779  1.00  0.00    -0.080 C  
HETATM   19  O   UNL     1     -11.104   6.123  71.262  1.00  0.00    -0.273 OA 
HETATM   20  C   UNL     1      -9.127   6.770  69.931  1.00  0.00    -0.144 C  
HETATM   21  C   UNL     1      -8.621   7.838  70.916  1.00  0.00    -0.128 C  
HETATM   22  H   UNL     1     -10.641   5.300  71.368  1.00  0.00     0.000 HD 
HETATM   23  C   UNL     1      -7.094   7.835  71.104  1.00  0.00    -0.050 C  
HETATM   24  C   UNL     1      -6.534   6.444  71.360  1.00  0.00    -0.050 C  
HETATM   25  C   UNL     1      -6.897   5.580  70.185  1.00  0.00    -0.052 C  
HETATM   26  C   UNL     1      -5.940   5.116  69.365  1.00  0.00    -0.021 C  
HETATM   27  C   UNL     1      -6.264   4.382  68.124  1.00  0.00    -0.036 C  
ENDROOT
BRANCH   9  28
HETATM   28  C   UNL     1     -11.053  11.329  68.191  1.00  0.00    -0.259 C  
HETATM   29  O   UNL     1     -12.272  11.437  68.024  1.00  0.00    -0.607 OA 
BRANCH  28  30
HETATM   30  C   UNL     1     -10.151  12.569  68.115  1.00  0.00    -0.225 C  
HETATM   31  O   UNL     1     -10.873  13.762  67.846  1.00  0.00    -0.238 OA 
HETATM   32  H   UNL     1     -10.315  14.530  67.799  1.00  0.00     0.000 HD 
ENDBRANCH  28  30
ENDBRANCH   9  28
TORSDOF 2
ENDMDL
MODEL       58
REMARK 921   NORMALIZED FREE ENERGY PREDICTED BY IDOCK:   -4.66 KCAL/MOL
REMARK 922        TOTAL FREE ENERGY PREDICTED BY IDOCK:   -5.13 KCAL/MOL
REMARK 923 INTER-LIGAND FREE ENERGY PREDICTED BY IDOCK:   -5.11 KCAL/MOL
REMARK 924 INTRA-LIGAND FREE ENERGY PREDICTED BY IDOCK:   -0.02 KCAL/MOL
REMARK 927      BINDING AFFINITY PREDICTED BY RF-SCORE:    0.00 PKD
ROOT
HETATM    1  C   UNL     1      -9.948  13.394  65.972  1.00  0.00    -0.300 C  
HETATM    2  C   UNL     1     -11.492  13.344  66.037  1.00  0.00    -0.351 C  
HETATM    3  C   UNL     1     -11.849  13.150  67.493  1.00  0.00    -0.360 C  
HETATM    4  O   UNL     1     -11.630  11.807  67.941  1.00  0.00    -0.331 OA 
HETATM    5  C   UNL     1     -11.306  11.950  69.319  1.00  0.00    -0.277 C  
HETATM    6  C   UNL     1     -12.602  11.804  70.125  1.00  0.00    -0.068 C  
HETATM    7  C   UNL     1     -10.340  10.908  69.863  1.00  0.00     0.134 C  
HETATM    8  O   UNL     1     -10.678  13.221  69.489  1.00  0.00     0.045 OA 
HETATM    9  C   UNL     1     -10.844  13.980  68.272  1.00  0.00    -0.255 C  
HETATM   10  C   UNL     1      -9.541  14.078  67.341  1.00  0.00    -0.227 C  
HETATM   11  C   UNL     1      -6.754   9.716  66.072  1.00  0.00    -0.084 C  
HETATM   12  C   UNL     1      -9.168  15.535  66.926  1.00  0.00    -0.257 C  
HETATM   13  C   UNL     1      -8.283  13.516  68.055  1.00  0.00    -0.163 C  
HETATM   14  C   UNL     1      -8.227   9.811  66.499  1.00  0.00    -0.120 C  
HETATM   15  C   UNL     1      -8.352   9.004  67.793  1.00  0.00    -0.117 C  
HETATM   16  O   UNL     1     -10.348   6.202  66.903  1.00  0.00    -0.196 OA 
HETATM   17  C   UNL     1      -7.767  12.135  67.644  1.00  0.00    -0.148 C  
HETATM   18  C   UNL     1      -9.057   7.877  67.942  1.00  0.00    -0.133 C  
HETATM   19  O   UNL     1      -6.499  12.336  66.986  1.00  0.00    -0.268 OA 
HETATM   20  C   UNL     1      -8.724  11.284  66.775  1.00  0.00    -0.166 C  
HETATM   21  C   UNL     1      -9.171  12.111  65.557  1.00  0.00     0.099 C  
HETATM   22  H   UNL     1      -6.179  11.478  66.731  1.00  0.00     0.000 HD 
HETATM   23  C   UNL     1      -9.927  11.294  64.496  1.00  0.00    -0.334 C  
HETATM   24  C   UNL     1      -9.220   9.995  64.137  1.00  0.00    -0.319 C  
HETATM   25  C   UNL     1      -9.085   9.184  65.394  1.00  0.00    -0.271 C  
HETATM   26  C   UNL     1      -9.760   8.030  65.531  1.00  0.00     0.668 C  
HETATM   27  C   UNL     1      -9.764   7.274  66.801  1.00  0.00    -0.198 C  
ENDROOT
BRANCH   9  28
HETATM   28  C   UNL     1     -11.466  15.313  68.720  1.00  0.00    -0.331 C  
HETATM   29  O   UNL     1     -11.951  16.121  67.921  1.00  0.00     0.117 OA 
BRANCH  28  30
HETATM   30  C   UNL     1     -11.448  15.630  70.222  1.00  0.00    -0.349 C  
HETATM   31  O   UNL     1     -12.704  16.078  70.708  1.00  0.00    -0.550 OA 
HETATM   32  H   UNL     1     -12.693  16.274  71.637  1.00  0.00     0.000 HD 
ENDBRANCH  28  30
ENDBRANCH   9  28
TORSDOF 2
ENDMDL
MODEL       59
REMARK 921   NORMALIZED FREE ENERGY PREDICTED BY IDOCK:   -4.64 KCAL/MOL
REMARK 922        TOTAL FREE ENERGY PREDICTED BY IDOCK:   -5.11 KCAL/MOL
REMARK 923 INTER-LIGAND FREE ENERGY PREDICTED BY IDOCK:   -4.65 KCAL/MOL
REMARK 924 INTRA-LIGAND FREE ENERGY PREDICTED BY IDOCK:   -0.46 KCAL/MOL
REMARK 927      BINDING AFFINITY PREDICTED BY RF-SCORE:    0.00 PKD
ROOT
HETATM    1  C   UNL     1      -9.646   6.687  66.159  1.00  0.00    -0.020 C  
HETATM    2  C   UNL     1      -8.289   6.647  65.419  1.00  0.00    -0.130 C  
HETATM    3  C   UNL     1      -7.434   5.642  66.156  1.00  0.00    -0.082 C  
HETATM    4  O   UNL     1      -6.922   6.153  67.393  1.00  0.00    -0.065 OA 
HETATM    5  C   UNL     1      -6.812   5.004  68.224  1.00  0.00    -0.056 C  
HETATM    6  C   UNL     1      -5.387   4.455  68.082  1.00  0.00    -0.015 C  
HETATM    7  C   UNL     1      -7.030   5.261  69.708  1.00  0.00    -0.058 C  
HETATM    8  O   UNL     1      -7.816   4.073  67.816  1.00  0.00    -0.084 OA 
HETATM    9  C   UNL     1      -8.380   4.527  66.568  1.00  0.00    -0.106 C  
HETATM   10  C   UNL     1      -9.831   5.203  66.676  1.00  0.00    -0.208 C  
HETATM   11  C   UNL     1     -10.819   8.996  70.288  1.00  0.00    -0.269 C  
HETATM   12  C   UNL     1     -10.884   4.602  65.693  1.00  0.00    -0.105 C  
HETATM   13  C   UNL     1     -10.441   5.027  68.093  1.00  0.00    -0.018 C  
HETATM   14  C   UNL     1      -9.465   8.584  69.687  1.00  0.00    -0.165 C  
HETATM   15  C   UNL     1      -8.608   8.097  70.858  1.00  0.00    -0.144 C  
HETATM   16  O   UNL     1      -6.041  10.537  71.154  1.00  0.00    -0.324 OA 
HETATM   17  C   UNL     1     -10.445   6.230  69.039  1.00  0.00    -0.237 C  
HETATM   18  C   UNL     1      -7.495   8.689  71.306  1.00  0.00    -0.117 C  
HETATM   19  O   UNL     1     -11.820   6.629  69.212  1.00  0.00    -0.629 OA 
HETATM   20  C   UNL     1      -9.560   7.427  68.617  1.00  0.00    -0.146 C  
HETATM   21  C   UNL     1      -9.914   7.835  67.177  1.00  0.00    -0.298 C  
HETATM   22  H   UNL     1     -11.822   7.376  69.799  1.00  0.00     0.000 HD 
HETATM   23  C   UNL     1      -9.276   9.163  66.733  1.00  0.00    -0.195 C  
HETATM   24  C   UNL     1      -9.459  10.276  67.754  1.00  0.00    -0.163 C  
HETATM   25  C   UNL     1      -8.834   9.823  69.043  1.00  0.00    -0.153 C  
HETATM   26  C   UNL     1      -7.739  10.442  69.518  1.00  0.00    -0.159 C  
HETATM   27  C   UNL     1      -7.013   9.942  70.704  1.00  0.00    -0.064 C  
ENDROOT
BRANCH   9  28
HETATM   28  C   UNL     1      -8.255   3.325  65.617  1.00  0.00    -0.098 C  
HETATM   29  O   UNL     1      -8.070   3.455  64.403  1.00  0.00    -0.085 OA 
BRANCH  28  30
HETATM   30  C   UNL     1      -8.390   1.925  66.232  1.00  0.00    -0.095 C  
HETATM   31  O   UNL     1      -9.534   1.793  67.063  1.00  0.00    -0.358 OA 
HETATM   32  H   UNL     1      -9.617   0.926  67.443  1.00  0.00     0.000 HD 
ENDBRANCH  28  30
ENDBRANCH   9  28
TORSDOF 2
ENDMDL
MODEL       60
REMARK 921   NORMALIZED FREE ENERGY PREDICTED BY IDOCK:   -4.59 KCAL/MOL
REMARK 922        TOTAL FREE ENERGY PREDICTED BY IDOCK:   -5.05 KCAL/MOL
REMARK 923 INTER-LIGAND FREE ENERGY PREDICTED BY IDOCK:   -5.02 KCAL/MOL
REMARK 924 INTRA-LIGAND FREE ENERGY PREDICTED BY IDOCK:   -0.02 KCAL/MOL
REMARK 927      BINDING AFFINITY PREDICTED BY RF-SCORE:    0.00 PKD
ROOT
HETATM    1  C   UNL     1      -8.328   4.362  69.182  1.00  0.00    -0.087 C  
HETATM    2  C   UNL     1      -9.402   4.252  68.075  1.00  0.00    -0.200 C  
HETATM    3  C   UNL     1      -9.316   5.530  67.272  1.00  0.00    -0.114 C  
HETATM    4  O   UNL     1      -9.902   6.649  67.948  1.00  0.00    -0.122 OA 
HETATM    5  C   UNL     1      -9.151   7.765  67.487  1.00  0.00    -0.129 C  
HETATM    6  C   UNL     1      -9.883   8.358  66.276  1.00  0.00    -0.257 C  
HETATM    7  C   UNL     1      -8.996   8.896  68.493  1.00  0.00    -0.134 C  
HETATM    8  O   UNL     1      -7.834   7.307  67.178  1.00  0.00    -0.106 OA 
HETATM    9  C   UNL     1      -7.836   5.864  67.197  1.00  0.00    -0.102 C  
HETATM   10  C   UNL     1      -7.170   5.193  68.494  1.00  0.00    -0.062 C  
HETATM   11  C   UNL     1      -8.506   6.804  73.395  1.00  0.00    -0.132 C  
HETATM   12  C   UNL     1      -6.091   4.115  68.165  1.00  0.00    -0.032 C  
HETATM   13  C   UNL     1      -6.447   6.246  69.376  1.00  0.00    -0.043 C  
HETATM   14  C   UNL     1      -9.322   6.928  72.099  1.00  0.00    -0.147 C  
HETATM   15  C   UNL     1      -9.527   8.426  71.863  1.00  0.00    -0.323 C  
HETATM   16  O   UNL     1     -13.013   8.929  72.337  1.00  0.00    -0.405 OA 
HETATM   17  C   UNL     1      -7.124   6.702  70.669  1.00  0.00    -0.069 C  
HETATM   18  C   UNL     1     -10.703   9.064  71.897  1.00  0.00    -0.401 C  
HETATM   19  O   UNL     1      -6.329   6.202  71.763  1.00  0.00    -0.043 OA 
HETATM   20  C   UNL     1      -8.613   6.311  70.830  1.00  0.00    -0.135 C  
HETATM   21  C   UNL     1      -8.763   4.795  70.613  1.00  0.00    -0.134 C  
HETATM   22  H   UNL     1      -6.750   6.486  72.567  1.00  0.00     0.000 HD 
HETATM   23  C   UNL     1     -10.153   4.250  70.985  1.00  0.00    -0.165 C  
HETATM   24  C   UNL     1     -10.629   4.731  72.348  1.00  0.00    -0.246 C  
HETATM   25  C   UNL     1     -10.670   6.232  72.317  1.00  0.00    -0.263 C  
HETATM   26  C   UNL     1     -11.846   6.879  72.392  1.00  0.00    -0.217 C  
HETATM   27  C   UNL     1     -11.943   8.343  72.225  1.00  0.00    -0.389 C  
ENDROOT
BRANCH   9  28
HETATM   28  C   UNL     1      -7.250   5.450  65.837  1.00  0.00    -0.069 C  
HETATM   29  O   UNL     1      -6.055   5.591  65.558  1.00  0.00    -0.027 OA 
BRANCH  28  30
HETATM   30  C   UNL     1      -8.220   4.860  64.803  1.00  0.00    -0.126 C  
HETATM   31  O   UNL     1      -8.738   5.837  63.911  1.00  0.00    -0.347 OA 
HETATM   32  H   UNL     1      -9.337   5.472  63.271  1.00  0.00     0.000 HD 
ENDBRANCH  28  30
ENDBRANCH   9  28
TORSDOF 2
ENDMDL
MODEL       61
REMARK 921   NORMALIZED FREE ENERGY PREDICTED BY IDOCK:   -4.58 KCAL/MOL
REMARK 922        TOTAL FREE ENERGY PREDICTED BY IDOCK:   -5.03 KCAL/MOL
REMARK 923 INTER-LIGAND FREE ENERGY PREDICTED BY IDOCK:   -4.85 KCAL/MOL
REMARK 924 INTRA-LIGAND FREE ENERGY PREDICTED BY IDOCK:   -0.18 KCAL/MOL
REMARK 927      BINDING AFFINITY PREDICTED BY RF-SCORE:    0.00 PKD
ROOT
HETATM    1  C   UNL     1      -9.665   4.845  68.722  1.00  0.00    -0.232 C  
HETATM    2  C   UNL     1     -10.486   4.889  67.412  1.00  0.00    -0.066 C  
HETATM    3  C   UNL     1      -9.582   5.498  66.365  1.00  0.00    -0.158 C  
HETATM    4  O   UNL     1      -9.444   6.917  66.511  1.00  0.00    -0.168 OA 
HETATM    5  C   UNL     1      -8.137   7.190  66.021  1.00  0.00    -0.115 C  
HETATM    6  C   UNL     1      -8.258   7.548  64.535  1.00  0.00    -0.036 C  
HETATM    7  C   UNL     1      -7.432   8.360  66.691  1.00  0.00    -0.082 C  
HETATM    8  O   UNL     1      -7.332   6.035  66.258  1.00  0.00    -0.078 OA 
HETATM    9  C   UNL     1      -8.196   4.949  66.656  1.00  0.00    -0.107 C  
HETATM   10  C   UNL     1      -8.183   4.601  68.222  1.00  0.00    -0.090 C  
HETATM   11  C   UNL     1      -8.736   8.436  71.881  1.00  0.00    -0.258 C  
HETATM   12  C   UNL     1      -7.936   3.092  68.533  1.00  0.00    -0.064 C  
HETATM   13  C   UNL     1      -7.059   5.366  68.970  1.00  0.00    -0.057 C  
HETATM   14  C   UNL     1      -9.195   8.449  70.414  1.00  0.00    -0.161 C  
HETATM   15  C   UNL     1      -8.444   9.599  69.740  1.00  0.00    -0.200 C  
HETATM   16  O   UNL     1     -10.967  11.986  68.987  1.00  0.00    -0.225 OA 
HETATM   17  C   UNL     1      -7.446   6.572  69.830  1.00  0.00    -0.088 C  
HETATM   18  C   UNL     1      -9.003  10.710  69.247  1.00  0.00    -0.098 C  
HETATM   19  O   UNL     1      -7.210   6.206  71.204  1.00  0.00    -0.075 OA 
HETATM   20  C   UNL     1      -8.881   7.115  69.630  1.00  0.00    -0.141 C  
HETATM   21  C   UNL     1      -9.885   5.960  69.786  1.00  0.00    -0.217 C  
HETATM   22  H   UNL     1      -7.450   6.955  71.738  1.00  0.00     0.000 HD 
HETATM   23  C   UNL     1     -11.352   6.417  69.850  1.00  0.00    -0.500 C  
HETATM   24  C   UNL     1     -11.570   7.563  70.828  1.00  0.00    -0.300 C  
HETATM   25  C   UNL     1     -10.705   8.710  70.390  1.00  0.00    -0.248 C  
HETATM   26  C   UNL     1     -11.264   9.844  69.932  1.00  0.00    -0.298 C  
HETATM   27  C   UNL     1     -10.452  10.939  69.363  1.00  0.00    -0.173 C  
ENDROOT
BRANCH   9  28
HETATM   28  C   UNL     1      -7.851   3.798  65.697  1.00  0.00    -0.093 C  
HETATM   29  O   UNL     1      -6.693   3.410  65.514  1.00  0.00    -0.042 OA 
BRANCH  28  30
HETATM   30  C   UNL     1      -9.014   3.140  64.940  1.00  0.00    -0.137 C  
HETATM   31  O   UNL     1      -9.557   2.021  65.625  1.00  0.00    -0.346 OA 
HETATM   32  H   UNL     1     -10.276   1.614  65.157  1.00  0.00     0.000 HD 
ENDBRANCH  28  30
ENDBRANCH   9  28
TORSDOF 2
ENDMDL
MODEL       62
REMARK 921   NORMALIZED FREE ENERGY PREDICTED BY IDOCK:   -4.50 KCAL/MOL
REMARK 922        TOTAL FREE ENERGY PREDICTED BY IDOCK:   -4.95 KCAL/MOL
REMARK 923 INTER-LIGAND FREE ENERGY PREDICTED BY IDOCK:   -5.47 KCAL/MOL
REMARK 924 INTRA-LIGAND FREE ENERGY PREDICTED BY IDOCK:    0.53 KCAL/MOL
REMARK 927      BINDING AFFINITY PREDICTED BY RF-SCORE:    0.00 PKD
ROOT
HETATM    1  C   UNL     1      -8.916  10.841  68.423  1.00  0.00    -0.153 C  
HETATM    2  C   UNL     1      -8.530  12.292  68.055  1.00  0.00    -0.171 C  
HETATM    3  C   UNL     1      -9.441  12.698  66.920  1.00  0.00    -0.229 C  
HETATM    4  O   UNL     1      -9.061  12.113  65.669  1.00  0.00    -0.043 OA 
HETATM    5  C   UNL     1     -10.288  11.972  64.964  1.00  0.00    -0.281 C  
HETATM    6  C   UNL     1     -10.482  13.225  64.101  1.00  0.00    -0.281 C  
HETATM    7  C   UNL     1     -10.354  10.782  64.018  1.00  0.00    -0.357 C  
HETATM    8  O   UNL     1     -11.326  11.788  65.928  1.00  0.00    -0.326 OA 
HETATM    9  C   UNL     1     -10.789  12.074  67.237  1.00  0.00    -0.246 C  
HETATM   10  C   UNL     1     -10.473  10.789  68.145  1.00  0.00    -0.214 C  
HETATM   11  C   UNL     1      -7.689   6.683  66.197  1.00  0.00    -0.095 C  
HETATM   12  C   UNL     1     -11.102  10.852  69.572  1.00  0.00    -0.326 C  
HETATM   13  C   UNL     1     -11.026   9.487  67.507  1.00  0.00    -0.125 C  
HETATM   14  C   UNL     1      -7.685   8.145  65.723  1.00  0.00    -0.092 C  
HETATM   15  C   UNL     1      -8.177   8.126  64.273  1.00  0.00    -0.095 C  
HETATM   16  O   UNL     1      -5.333   9.065  62.360  1.00  0.00    -0.081 OA 
HETATM   17  C   UNL     1     -10.041   8.533  66.828  1.00  0.00    -0.299 C  
HETATM   18  C   UNL     1      -7.448   8.456  63.201  1.00  0.00    -0.110 C  
HETATM   19  O   UNL     1      -9.986   7.338  67.633  1.00  0.00    -0.145 OA 
HETATM   20  C   UNL     1      -8.625   9.097  66.560  1.00  0.00    -0.136 C  
HETATM   21  C   UNL     1      -8.053   9.669  67.869  1.00  0.00    -0.106 C  
HETATM   22  H   UNL     1      -9.374   6.745  67.211  1.00  0.00     0.000 HD 
HETATM   23  C   UNL     1      -6.562  10.037  67.786  1.00  0.00    -0.067 C  
HETATM   24  C   UNL     1      -5.716   8.933  67.171  1.00  0.00    -0.046 C  
HETATM   25  C   UNL     1      -6.244   8.663  65.791  1.00  0.00    -0.055 C  
HETATM   26  C   UNL     1      -5.499   8.955  64.711  1.00  0.00    -0.046 C  
HETATM   27  C   UNL     1      -6.033   8.837  63.339  1.00  0.00    -0.081 C  
ENDROOT
BRANCH   9  28
HETATM   28  C   UNL     1     -11.747  13.116  67.838  1.00  0.00    -0.357 C  
HETATM   29  O   UNL     1     -12.370  12.920  68.886  1.00  0.00    -0.093 OA 
BRANCH  28  30
HETATM   30  C   UNL     1     -11.927  14.433  67.070  1.00  0.00    -0.395 C  
HETATM   31  O   UNL     1     -12.934  14.358  66.072  1.00  0.00    -0.426 OA 
HETATM   32  H   UNL     1     -13.046  15.173  65.596  1.00  0.00     0.000 HD 
ENDBRANCH  28  30
ENDBRANCH   9  28
TORSDOF 2
ENDMDL
MODEL       63
REMARK 921   NORMALIZED FREE ENERGY PREDICTED BY IDOCK:   -4.49 KCAL/MOL
REMARK 922        TOTAL FREE ENERGY PREDICTED BY IDOCK:   -4.94 KCAL/MOL
REMARK 923 INTER-LIGAND FREE ENERGY PREDICTED BY IDOCK:   -5.11 KCAL/MOL
REMARK 924 INTRA-LIGAND FREE ENERGY PREDICTED BY IDOCK:    0.17 KCAL/MOL
REMARK 927      BINDING AFFINITY PREDICTED BY RF-SCORE:    0.00 PKD
ROOT
HETATM    1  C   UNL     1      -8.790   8.881  68.051  1.00  0.00    -0.133 C  
HETATM    2  C   UNL     1      -9.474   7.706  67.315  1.00  0.00    -0.185 C  
HETATM    3  C   UNL     1      -8.801   7.600  65.966  1.00  0.00    -0.155 C  
HETATM    4  O   UNL     1      -9.224   8.622  65.055  1.00  0.00    -0.029 OA 
HETATM    5  C   UNL     1      -8.089   8.838  64.225  1.00  0.00    -0.157 C  
HETATM    6  C   UNL     1      -8.235   7.943  62.988  1.00  0.00    -0.050 C  
HETATM    7  C   UNL     1      -7.930  10.261  63.712  1.00  0.00    -0.128 C  
HETATM    8  O   UNL     1      -6.923   8.546  64.996  1.00  0.00    -0.074 OA 
HETATM    9  C   UNL     1      -7.334   7.900  66.220  1.00  0.00    -0.075 C  
HETATM   10  C   UNL     1      -7.296   8.825  67.530  1.00  0.00    -0.081 C  
HETATM   11  C   UNL     1      -9.517  13.670  67.521  1.00  0.00    -0.222 C  
HETATM   12  C   UNL     1      -6.515   8.197  68.726  1.00  0.00    -0.053 C  
HETATM   13  C   UNL     1      -6.602  10.185  67.252  1.00  0.00    -0.069 C  
HETATM   14  C   UNL     1      -9.844  12.473  66.615  1.00  0.00    -0.245 C  
HETATM   15  C   UNL     1      -9.543  12.924  65.184  1.00  0.00     0.147 C  
HETATM   16  O   UNL     1     -12.727  13.070  63.612  1.00  0.00    -0.700 OA 
HETATM   17  C   UNL     1      -7.476  11.432  67.100  1.00  0.00    -0.138 C  
HETATM   18  C   UNL     1     -10.448  13.078  64.210  1.00  0.00    -0.424 C  
HETATM   19  O   UNL     1      -7.213  12.275  68.239  1.00  0.00    -0.085 OA 
HETATM   20  C   UNL     1      -8.993  11.179  66.924  1.00  0.00    -0.164 C  
HETATM   21  C   UNL     1      -9.490  10.271  68.062  1.00  0.00    -0.156 C  
HETATM   22  H   UNL     1      -7.756  13.050  68.144  1.00  0.00     0.000 HD 
HETATM   23  C   UNL     1     -11.022  10.148  68.134  1.00  0.00    -0.313 C  
HETATM   24  C   UNL     1     -11.725  11.495  68.065  1.00  0.00    -0.343 C  
HETATM   25  C   UNL     1     -11.334  12.151  66.771  1.00  0.00    -0.398 C  
HETATM   26  C   UNL     1     -12.250  12.345  65.806  1.00  0.00    -0.277 C  
HETATM   27  C   UNL     1     -11.879  12.857  64.471  1.00  0.00    -0.375 C  
ENDROOT
BRANCH   9  28
HETATM   28  C   UNL     1      -6.512   6.602  66.276  1.00  0.00    -0.043 C  
HETATM   29  O   UNL     1      -5.403   6.494  65.744  1.00  0.00    -0.016 OA 
BRANCH  28  30
HETATM   30  C   UNL     1      -7.133   5.407  67.014  1.00  0.00    -0.070 C  
HETATM   31  O   UNL     1      -7.821   4.518  66.146  1.00  0.00    -0.094 OA 
HETATM   32  H   UNL     1      -8.205   3.778  66.602  1.00  0.00     0.000 HD 
ENDBRANCH  28  30
ENDBRANCH   9  28
TORSDOF 2
ENDMDL
MODEL       64
REMARK 921   NORMALIZED FREE ENERGY PREDICTED BY IDOCK:   -4.48 KCAL/MOL
REMARK 922        TOTAL FREE ENERGY PREDICTED BY IDOCK:   -4.93 KCAL/MOL
REMARK 923 INTER-LIGAND FREE ENERGY PREDICTED BY IDOCK:   -5.53 KCAL/MOL
REMARK 924 INTRA-LIGAND FREE ENERGY PREDICTED BY IDOCK:    0.61 KCAL/MOL
REMARK 927      BINDING AFFINITY PREDICTED BY RF-SCORE:    0.00 PKD
ROOT
HETATM    1  C   UNL     1     -10.012  12.226  66.332  1.00  0.00    -0.243 C  
HETATM    2  C   UNL     1     -11.401  11.557  66.454  1.00  0.00    -0.246 C  
HETATM    3  C   UNL     1     -11.404  10.822  67.774  1.00  0.00    -0.279 C  
HETATM    4  O   UNL     1     -10.647   9.606  67.733  1.00  0.00    -0.237 OA 
HETATM    5  C   UNL     1     -10.158   9.457  69.060  1.00  0.00    -0.194 C  
HETATM    6  C   UNL     1     -11.155   8.585  69.834  1.00  0.00    -0.114 C  
HETATM    7  C   UNL     1      -8.805   8.769  69.172  1.00  0.00    -0.137 C  
HETATM    8  O   UNL     1     -10.002  10.762  69.617  1.00  0.00    -0.130 OA 
HETATM    9  C   UNL     1     -10.638  11.713  68.737  1.00  0.00    -0.212 C  
HETATM   10  C   UNL     1      -9.641  12.582  67.829  1.00  0.00    -0.203 C  
HETATM   11  C   UNL     1      -5.757  10.243  65.027  1.00  0.00    -0.128 C  
HETATM   12  C   UNL     1      -9.887  14.121  67.911  1.00  0.00    -0.224 C  
HETATM   13  C   UNL     1      -8.160  12.378  68.248  1.00  0.00    -0.166 C  
HETATM   14  C   UNL     1      -7.068   9.623  65.534  1.00  0.00    -0.098 C  
HETATM   15  C   UNL     1      -6.669   8.493  66.486  1.00  0.00    -0.067 C  
HETATM   16  O   UNL     1      -7.664   5.524  64.804  1.00  0.00    -0.081 OA 
HETATM   17  C   UNL     1      -7.269  11.497  67.371  1.00  0.00    -0.119 C  
HETATM   18  C   UNL     1      -6.890   7.189  66.280  1.00  0.00    -0.057 C  
HETATM   19  O   UNL     1      -6.292  12.362  66.756  1.00  0.00    -0.472 OA 
HETATM   20  C   UNL     1      -7.999  10.632  66.315  1.00  0.00    -0.149 C  
HETATM   21  C   UNL     1      -8.916  11.534  65.470  1.00  0.00    -0.037 C  
HETATM   22  H   UNL     1      -5.738  11.814  66.211  1.00  0.00     0.000 HD 
HETATM   23  C   UNL     1      -9.508  10.833  64.235  1.00  0.00    -0.307 C  
HETATM   24  C   UNL     1      -8.461  10.083  63.425  1.00  0.00    -0.182 C  
HETATM   25  C   UNL     1      -7.827   9.062  64.327  1.00  0.00    -0.130 C  
HETATM   26  C   UNL     1      -8.013   7.750  64.100  1.00  0.00    -0.113 C  
HETATM   27  C   UNL     1      -7.526   6.719  65.040  1.00  0.00    -0.092 C  
ENDROOT
BRANCH   9  28
HETATM   28  C   UNL     1     -11.603  12.501  69.638  1.00  0.00    -0.253 C  
HETATM   29  O   UNL     1     -12.015  13.628  69.344  1.00  0.00    -0.314 OA 
BRANCH  28  30
HETATM   30  C   UNL     1     -12.036  11.841  70.954  1.00  0.00    -0.167 C  
HETATM   31  O   UNL     1     -13.138  12.495  71.565  1.00  0.00    -0.381 OA 
HETATM   32  H   UNL     1     -13.407  12.086  72.379  1.00  0.00     0.000 HD 
ENDBRANCH  28  30
ENDBRANCH   9  28
TORSDOF 2
ENDMDL
MODEL       65
REMARK 921   NORMALIZED FREE ENERGY PREDICTED BY IDOCK:   -4.47 KCAL/MOL
REMARK 922        TOTAL FREE ENERGY PREDICTED BY IDOCK:   -4.91 KCAL/MOL
REMARK 923 INTER-LIGAND FREE ENERGY PREDICTED BY IDOCK:   -4.53 KCAL/MOL
REMARK 924 INTRA-LIGAND FREE ENERGY PREDICTED BY IDOCK:   -0.37 KCAL/MOL
REMARK 927      BINDING AFFINITY PREDICTED BY RF-SCORE:    0.00 PKD
ROOT
HETATM    1  C   UNL     1      -9.263   8.093  66.486  1.00  0.00    -0.237 C  
HETATM    2  C   UNL     1     -10.659   7.932  67.129  1.00  0.00    -0.383 C  
HETATM    3  C   UNL     1     -10.614   8.691  68.435  1.00  0.00    -0.120 C  
HETATM    4  O   UNL     1      -9.890   7.993  69.456  1.00  0.00    -0.176 OA 
HETATM    5  C   UNL     1      -9.338   9.028  70.260  1.00  0.00    -0.198 C  
HETATM    6  C   UNL     1     -10.316   9.303  71.410  1.00  0.00    -0.392 C  
HETATM    7  C   UNL     1      -7.999   8.698  70.902  1.00  0.00    -0.137 C  
HETATM    8  O   UNL     1      -9.123  10.164  69.421  1.00  0.00    -0.188 OA 
HETATM    9  C   UNL     1      -9.780   9.929  68.157  1.00  0.00    -0.144 C  
HETATM   10  C   UNL     1      -8.808   9.538  66.942  1.00  0.00    -0.140 C  
HETATM   11  C   UNL     1      -5.127   5.724  67.503  1.00  0.00    -0.004 C  
HETATM   12  C   UNL     1      -9.013  10.407  65.662  1.00  0.00    -0.198 C  
HETATM   13  C   UNL     1      -7.314   9.712  67.324  1.00  0.00    -0.087 C  
HETATM   14  C   UNL     1      -6.427   5.916  68.301  1.00  0.00    -0.046 C  
HETATM   15  C   UNL     1      -6.007   6.133  69.757  1.00  0.00    -0.025 C  
HETATM   16  O   UNL     1      -7.157   3.231  71.454  1.00  0.00    -0.031 OA 
HETATM   17  C   UNL     1      -6.489   8.459  67.629  1.00  0.00    -0.057 C  
HETATM   18  C   UNL     1      -6.270   5.304  70.774  1.00  0.00    -0.023 C  
HETATM   19  O   UNL     1      -5.523   8.319  66.568  1.00  0.00    -0.028 OA 
HETATM   20  C   UNL     1      -7.292   7.153  67.837  1.00  0.00    -0.097 C  
HETATM   21  C   UNL     1      -8.228   6.939  66.635  1.00  0.00    -0.115 C  
HETATM   22  H   UNL     1      -5.011   7.541  66.757  1.00  0.00     0.000 HD 
HETATM   23  C   UNL     1      -8.898   5.554  66.609  1.00  0.00    -0.117 C  
HETATM   24  C   UNL     1      -7.911   4.418  66.835  1.00  0.00    -0.101 C  
HETATM   25  C   UNL     1      -7.259   4.635  68.171  1.00  0.00    -0.065 C  
HETATM   26  C   UNL     1      -7.488   3.782  69.183  1.00  0.00    -0.053 C  
HETATM   27  C   UNL     1      -6.979   4.035  70.547  1.00  0.00    -0.034 C  
ENDROOT
BRANCH   9  28
HETATM   28  C   UNL     1     -10.678  11.158  67.945  1.00  0.00    -0.216 C  
HETATM   29  O   UNL     1     -11.867  11.064  67.621  1.00  0.00    -0.599 OA 
BRANCH  28  30
HETATM   30  C   UNL     1     -10.037  12.541  68.132  1.00  0.00    -0.225 C  
HETATM   31  O   UNL     1     -10.178  13.040  69.454  1.00  0.00    -0.298 OA 
HETATM   32  H   UNL     1      -9.781  13.896  69.571  1.00  0.00     0.000 HD 
ENDBRANCH  28  30
ENDBRANCH   9  28
TORSDOF 2
ENDMDL
MODEL       66
REMARK 921   NORMALIZED FREE ENERGY PREDICTED BY IDOCK:   -4.43 KCAL/MOL
REMARK 922        TOTAL FREE ENERGY PREDICTED BY IDOCK:   -4.87 KCAL/MOL
REMARK 923 INTER-LIGAND FREE ENERGY PREDICTED BY IDOCK:   -4.71 KCAL/MOL
REMARK 924 INTRA-LIGAND FREE ENERGY PREDICTED BY IDOCK:   -0.16 KCAL/MOL
REMARK 927      BINDING AFFINITY PREDICTED BY RF-SCORE:    0.00 PKD
ROOT
HETATM    1  C   UNL     1      -9.463   7.337  66.544  1.00  0.00    -0.218 C  
HETATM    2  C   UNL     1     -10.326   8.619  66.559  1.00  0.00    -0.237 C  
HETATM    3  C   UNL     1      -9.384   9.761  66.862  1.00  0.00    -0.149 C  
HETATM    4  O   UNL     1      -9.004   9.814  68.242  1.00  0.00    -0.119 OA 
HETATM    5  C   UNL     1      -7.694  10.369  68.220  1.00  0.00    -0.096 C  
HETATM    6  C   UNL     1      -7.824  11.887  68.397  1.00  0.00    -0.141 C  
HETATM    7  C   UNL     1      -6.771   9.883  69.328  1.00  0.00    -0.055 C  
HETATM    8  O   UNL     1      -7.084   9.997  66.984  1.00  0.00    -0.087 OA 
HETATM    9  C   UNL     1      -8.097   9.433  66.125  1.00  0.00    -0.111 C  
HETATM   10  C   UNL     1      -8.068   7.835  65.986  1.00  0.00    -0.117 C  
HETATM   11  C   UNL     1      -7.795   4.720  70.302  1.00  0.00    -0.058 C  
HETATM   12  C   UNL     1      -8.063   7.328  64.510  1.00  0.00    -0.071 C  
HETATM   13  C   UNL     1      -6.797   7.227  66.636  1.00  0.00    -0.065 C  
HETATM   14  C   UNL     1      -8.314   6.163  70.202  1.00  0.00    -0.128 C  
HETATM   15  C   UNL     1      -7.414   7.006  71.108  1.00  0.00    -0.081 C  
HETATM   16  O   UNL     1      -9.535   8.015  73.776  1.00  0.00    -0.218 OA 
HETATM   17  C   UNL     1      -6.935   6.530  67.992  1.00  0.00    -0.077 C  
HETATM   18  C   UNL     1      -7.802   7.632  72.225  1.00  0.00    -0.116 C  
HETATM   19  O   UNL     1      -6.698   5.125  67.772  1.00  0.00    -0.052 OA 
HETATM   20  C   UNL     1      -8.266   6.767  68.744  1.00  0.00    -0.121 C  
HETATM   21  C   UNL     1      -9.441   6.429  67.809  1.00  0.00    -0.115 C  
HETATM   22  H   UNL     1      -6.783   4.692  68.614  1.00  0.00     0.000 HD 
HETATM   23  C   UNL     1     -10.806   6.391  68.518  1.00  0.00    -0.382 C  
HETATM   24  C   UNL     1     -10.782   5.574  69.801  1.00  0.00    -0.355 C  
HETATM   25  C   UNL     1      -9.758   6.185  70.715  1.00  0.00    -0.205 C  
HETATM   26  C   UNL     1     -10.141   6.779  71.858  1.00  0.00    -0.195 C  
HETATM   27  C   UNL     1      -9.185   7.513  72.714  1.00  0.00    -0.159 C  
ENDROOT
BRANCH   9  28
HETATM   28  C   UNL     1      -7.997  10.235  64.816  1.00  0.00    -0.141 C  
HETATM   29  O   UNL     1      -6.921  10.447  64.249  1.00  0.00    -0.090 OA 
BRANCH  28  30
HETATM   30  C   UNL     1      -9.301  10.794  64.231  1.00  0.00    -0.245 C  
HETATM   31  O   UNL     1      -9.905   9.919  63.289  1.00  0.00    -0.504 OA 
HETATM   32  H   UNL     1     -10.712  10.265  62.927  1.00  0.00     0.000 HD 
ENDBRANCH  28  30
ENDBRANCH   9  28
TORSDOF 2
ENDMDL
MODEL       67
REMARK 921   NORMALIZED FREE ENERGY PREDICTED BY IDOCK:   -4.38 KCAL/MOL
REMARK 922        TOTAL FREE ENERGY PREDICTED BY IDOCK:   -4.81 KCAL/MOL
REMARK 923 INTER-LIGAND FREE ENERGY PREDICTED BY IDOCK:   -4.93 KCAL/MOL
REMARK 924 INTRA-LIGAND FREE ENERGY PREDICTED BY IDOCK:    0.12 KCAL/MOL
REMARK 927      BINDING AFFINITY PREDICTED BY RF-SCORE:    0.00 PKD
ROOT
HETATM    1  C   UNL     1      -9.644  13.221  67.059  1.00  0.00    -0.243 C  
HETATM    2  C   UNL     1      -9.044  12.852  68.435  1.00  0.00    -0.126 C  
HETATM    3  C   UNL     1     -10.141  13.075  69.451  1.00  0.00     0.692 C  
HETATM    4  O   UNL     1     -10.354  14.463  69.740  1.00  0.00     0.025 OA 
HETATM    5  C   UNL     1     -11.737  14.542  70.060  1.00  0.00    -0.301 C  
HETATM    6  C   UNL     1     -11.876  14.401  71.581  1.00  0.00    -0.145 C  
HETATM    7  C   UNL     1     -12.409  15.854  69.685  1.00  0.00    -0.024 C  
HETATM    8  O   UNL     1     -12.412  13.512  69.336  1.00  0.00    -0.199 OA 
HETATM    9  C   UNL     1     -11.422  12.628  68.769  1.00  0.00    -0.306 C  
HETATM   10  C   UNL     1     -11.165  12.805  67.195  1.00  0.00    -0.336 C  
HETATM   11  C   UNL     1     -10.317  17.627  65.089  1.00  0.00     0.606 C  
HETATM   12  C   UNL     1     -11.254  11.474  66.385  1.00  0.00    -0.307 C  
HETATM   13  C   UNL     1     -12.209  13.753  66.547  1.00  0.00    -0.475 C  
HETATM   14  C   UNL     1     -10.096  17.171  66.540  1.00  0.00    -0.313 C  
HETATM   15  C   UNL     1     -11.022  18.030  67.405  1.00  0.00    -0.095 C  
HETATM   16  O   UNL     1      -8.822  20.084  69.294  1.00  0.00     0.061 OA 
HETATM   17  C   UNL     1     -11.779  15.178  66.193  1.00  0.00     0.007 C  
HETATM   18  C   UNL     1     -10.627  18.930  68.312  1.00  0.00    -0.224 C  
HETATM   19  O   UNL     1     -11.770  15.273  64.754  1.00  0.00    -0.353 OA 
HETATM   20  C   UNL     1     -10.434  15.651  66.797  1.00  0.00    -0.297 C  
HETATM   21  C   UNL     1      -9.340  14.624  66.457  1.00  0.00    -0.313 C  
HETATM   22  H   UNL     1     -11.503  16.158  64.534  1.00  0.00     0.000 HD 
HETATM   23  C   UNL     1      -7.916  15.101  66.792  1.00  0.00    -0.047 C  
HETATM   24  C   UNL     1      -7.629  16.505  66.280  1.00  0.00    -0.157 C  
HETATM   25  C   UNL     1      -8.631  17.435  66.903  1.00  0.00    -0.270 C  
HETATM   26  C   UNL     1      -8.231  18.368  67.785  1.00  0.00    -0.265 C  
HETATM   27  C   UNL     1      -9.197  19.207  68.524  1.00  0.00    -0.376 C  
ENDROOT
BRANCH   9  28
HETATM   28  C   UNL     1     -11.831  11.223  69.240  1.00  0.00    -0.354 C  
HETATM   29  O   UNL     1     -12.992  10.938  69.549  1.00  0.00    -0.121 OA 
BRANCH  28  30
HETATM   30  C   UNL     1     -10.724  10.163  69.338  1.00  0.00    -0.238 C  
HETATM   31  O   UNL     1     -11.214   8.838  69.194  1.00  0.00    -0.433 OA 
HETATM   32  H   UNL     1     -10.530   8.182  69.254  1.00  0.00     0.000 HD 
ENDBRANCH  28  30
ENDBRANCH   9  28
TORSDOF 2
ENDMDL
MODEL       68
REMARK 921   NORMALIZED FREE ENERGY PREDICTED BY IDOCK:   -4.35 KCAL/MOL
REMARK 922        TOTAL FREE ENERGY PREDICTED BY IDOCK:   -4.78 KCAL/MOL
REMARK 923 INTER-LIGAND FREE ENERGY PREDICTED BY IDOCK:   -4.37 KCAL/MOL
REMARK 924 INTRA-LIGAND FREE ENERGY PREDICTED BY IDOCK:   -0.40 KCAL/MOL
REMARK 927      BINDING AFFINITY PREDICTED BY RF-SCORE:    0.00 PKD
ROOT
HETATM    1  C   UNL     1      -6.718   7.740  68.811  1.00  0.00    -0.054 C  
HETATM    2  C   UNL     1      -6.486   6.571  67.826  1.00  0.00    -0.052 C  
HETATM    3  C   UNL     1      -7.792   6.368  67.094  1.00  0.00    -0.108 C  
HETATM    4  O   UNL     1      -8.778   5.705  67.894  1.00  0.00    -0.108 OA 
HETATM    5  C   UNL     1     -10.015   6.220  67.417  1.00  0.00    -0.139 C  
HETATM    6  C   UNL     1     -10.534   5.268  66.332  1.00  0.00    -0.347 C  
HETATM    7  C   UNL     1     -11.115   6.321  68.464  1.00  0.00    -0.397 C  
HETATM    8  O   UNL     1      -9.781   7.545  66.938  1.00  0.00    -0.180 OA 
HETATM    9  C   UNL     1      -8.355   7.762  66.874  1.00  0.00    -0.124 C  
HETATM   10  C   UNL     1      -7.746   8.670  68.048  1.00  0.00    -0.102 C  
HETATM   11  C   UNL     1      -8.932   7.698  73.152  1.00  0.00    -0.244 C  
HETATM   12  C   UNL     1      -6.862   9.852  67.540  1.00  0.00    -0.081 C  
HETATM   13  C   UNL     1      -8.862   9.326  68.903  1.00  0.00    -0.135 C  
HETATM   14  C   UNL     1      -8.978   6.725  71.964  1.00  0.00    -0.138 C  
HETATM   15  C   UNL     1     -10.434   6.270  71.839  1.00  0.00    -0.244 C  
HETATM   16  O   UNL     1     -10.368   2.829  72.725  1.00  0.00    -0.150 OA 
HETATM   17  C   UNL     1      -9.155   8.746  70.288  1.00  0.00    -0.170 C  
HETATM   18  C   UNL     1     -10.880   5.025  72.040  1.00  0.00    -0.150 C  
HETATM   19  O   UNL     1      -8.742   9.731  71.256  1.00  0.00    -0.236 OA 
HETATM   20  C   UNL     1      -8.531   7.363  70.590  1.00  0.00    -0.136 C  
HETATM   21  C   UNL     1      -7.020   7.417  70.304  1.00  0.00    -0.059 C  
HETATM   22  H   UNL     1      -8.924   9.371  72.117  1.00  0.00     0.000 HD 
HETATM   23  C   UNL     1      -6.250   6.179  70.796  1.00  0.00    -0.039 C  
HETATM   24  C   UNL     1      -6.596   5.802  72.229  1.00  0.00    -0.062 C  
HETATM   25  C   UNL     1      -8.073   5.532  72.290  1.00  0.00    -0.108 C  
HETATM   26  C   UNL     1      -8.524   4.290  72.532  1.00  0.00    -0.105 C  
HETATM   27  C   UNL     1      -9.962   3.955  72.462  1.00  0.00    -0.162 C  
ENDROOT
BRANCH   9  28
HETATM   28  C   UNL     1      -8.092   8.237  65.436  1.00  0.00    -0.135 C  
HETATM   29  O   UNL     1      -7.066   7.941  64.815  1.00  0.00    -0.067 OA 
BRANCH  28  30
HETATM   30  C   UNL     1      -9.158   9.129  64.783  1.00  0.00    -0.099 C  
HETATM   31  O   UNL     1      -9.815   9.977  65.713  1.00  0.00    -0.240 OA 
HETATM   32  H   UNL     1     -10.475  10.529  65.309  1.00  0.00     0.000 HD 
ENDBRANCH  28  30
ENDBRANCH   9  28
TORSDOF 2
ENDMDL
MODEL       69
REMARK 921   NORMALIZED FREE ENERGY PREDICTED BY IDOCK:   -4.34 KCAL/MOL
REMARK 922        TOTAL FREE ENERGY PREDICTED BY IDOCK:   -4.76 KCAL/MOL
REMARK 923 INTER-LIGAND FREE ENERGY PREDICTED BY IDOCK:   -4.66 KCAL/MOL
REMARK 924 INTRA-LIGAND FREE ENERGY PREDICTED BY IDOCK:   -0.10 KCAL/MOL
REMARK 927      BINDING AFFINITY PREDICTED BY RF-SCORE:    0.00 PKD
ROOT
HETATM    1  C   UNL     1     -10.378   9.389  68.469  1.00  0.00    -0.236 C  
HETATM    2  C   UNL     1      -9.902  10.681  69.171  1.00  0.00    -0.217 C  
HETATM    3  C   UNL     1      -8.400  10.722  69.011  1.00  0.00    -0.136 C  
HETATM    4  O   UNL     1      -7.724   9.810  69.886  1.00  0.00    -0.120 OA 
HETATM    5  C   UNL     1      -6.552   9.443  69.168  1.00  0.00    -0.049 C  
HETATM    6  C   UNL     1      -5.424  10.390  69.596  1.00  0.00    -0.038 C  
HETATM    7  C   UNL     1      -6.053   8.030  69.430  1.00  0.00    -0.034 C  
HETATM    8  O   UNL     1      -6.853   9.521  67.774  1.00  0.00    -0.076 OA 
HETATM    9  C   UNL     1      -8.125  10.184  67.617  1.00  0.00    -0.109 C  
HETATM   10  C   UNL     1      -9.361   9.223  67.267  1.00  0.00    -0.161 C  
HETATM   11  C   UNL     1     -10.266   4.795  70.092  1.00  0.00    -0.259 C  
HETATM   12  C   UNL     1     -10.187   9.680  66.024  1.00  0.00    -0.255 C  
HETATM   13  C   UNL     1      -8.891   7.780  66.944  1.00  0.00    -0.143 C  
HETATM   14  C   UNL     1      -9.503   6.058  70.523  1.00  0.00    -0.191 C  
HETATM   15  C   UNL     1      -8.070   5.611  70.823  1.00  0.00    -0.117 C  
HETATM   16  O   UNL     1      -7.731   6.024  74.337  1.00  0.00    -0.097 OA 
HETATM   17  C   UNL     1      -9.091   6.694  68.003  1.00  0.00    -0.114 C  
HETATM   18  C   UNL     1      -7.484   5.635  72.026  1.00  0.00    -0.095 C  
HETATM   19  O   UNL     1     -10.085   5.782  67.493  1.00  0.00    -0.142 OA 
HETATM   20  C   UNL     1      -9.456   7.190  69.422  1.00  0.00    -0.153 C  
HETATM   21  C   UNL     1     -10.673   8.127  69.332  1.00  0.00    -0.164 C  
HETATM   22  H   UNL     1     -10.209   5.108  68.151  1.00  0.00     0.000 HD 
HETATM   23  C   UNL     1     -11.279   8.490  70.699  1.00  0.00    -0.278 C  
HETATM   24  C   UNL     1     -11.498   7.275  71.588  1.00  0.00    -0.297 C  
HETATM   25  C   UNL     1     -10.167   6.607  71.790  1.00  0.00    -0.206 C  
HETATM   26  C   UNL     1      -9.595   6.593  73.005  1.00  0.00    -0.162 C  
HETATM   27  C   UNL     1      -8.228   6.072  73.218  1.00  0.00    -0.115 C  
ENDROOT
BRANCH   9  28
HETATM   28  C   UNL     1      -7.853  11.333  66.632  1.00  0.00    -0.152 C  
HETATM   29  O   UNL     1      -7.160  11.190  65.619  1.00  0.00     0.074 OA 
BRANCH  28  30
HETATM   30  C   UNL     1      -8.466  12.702  66.960  1.00  0.00    -0.150 C  
HETATM   31  O   UNL     1      -9.163  13.273  65.862  1.00  0.00    -0.467 OA 
HETATM   32  H   UNL     1      -9.542  14.120  66.065  1.00  0.00     0.000 HD 
ENDBRANCH  28  30
ENDBRANCH   9  28
TORSDOF 2
ENDMDL
MODEL       70
REMARK 921   NORMALIZED FREE ENERGY PREDICTED BY IDOCK:   -4.29 KCAL/MOL
REMARK 922        TOTAL FREE ENERGY PREDICTED BY IDOCK:   -4.71 KCAL/MOL
REMARK 923 INTER-LIGAND FREE ENERGY PREDICTED BY IDOCK:   -4.89 KCAL/MOL
REMARK 924 INTRA-LIGAND FREE ENERGY PREDICTED BY IDOCK:    0.18 KCAL/MOL
REMARK 927      BINDING AFFINITY PREDICTED BY RF-SCORE:    0.00 PKD
ROOT
HETATM    1  C   UNL     1     -10.610  11.752  69.365  1.00  0.00     0.033 C  
HETATM    2  C   UNL     1     -11.822  11.192  68.586  1.00  0.00    -0.357 C  
HETATM    3  C   UNL     1     -11.283  10.688  67.268  1.00  0.00    -0.161 C  
HETATM    4  O   UNL     1     -10.983  11.747  66.351  1.00  0.00    -0.271 OA 
HETATM    5  C   UNL     1      -9.905  11.240  65.575  1.00  0.00    -0.231 C  
HETATM    6  C   UNL     1     -10.496  10.581  64.322  1.00  0.00    -0.067 C  
HETATM    7  C   UNL     1      -8.916  12.288  65.085  1.00  0.00     0.668 C  
HETATM    8  O   UNL     1      -9.168  10.330  66.393  1.00  0.00    -0.153 OA 
HETATM    9  C   UNL     1      -9.933  10.071  67.590  1.00  0.00    -0.176 C  
HETATM   10  C   UNL     1      -9.415  10.819  68.911  1.00  0.00    -0.190 C  
HETATM   11  C   UNL     1      -8.354  16.041  68.859  1.00  0.00    -0.231 C  
HETATM   12  C   UNL     1      -9.205   9.872  70.134  1.00  0.00    -0.184 C  
HETATM   13  C   UNL     1      -8.042  11.505  68.680  1.00  0.00    -0.132 C  
HETATM   14  C   UNL     1      -9.284  15.251  67.925  1.00  0.00    -0.184 C  
HETATM   15  C   UNL     1      -8.714  15.414  66.514  1.00  0.00    -0.335 C  
HETATM   16  O   UNL     1     -11.130  17.380  64.803  1.00  0.00    -0.973 OA 
HETATM   17  C   UNL     1      -8.007  13.024  68.503  1.00  0.00    -0.090 C  
HETATM   18  C   UNL     1      -9.312  16.055  65.503  1.00  0.00     0.042 C  
HETATM   19  O   UNL     1      -7.347  13.571  69.663  1.00  0.00    -0.306 OA 
HETATM   20  C   UNL     1      -9.372  13.710  68.256  1.00  0.00    -0.204 C  
HETATM   21  C   UNL     1     -10.356  13.288  69.361  1.00  0.00     0.383 C  
HETATM   22  H   UNL     1      -7.325  14.514  69.553  1.00  0.00     0.000 HD 
HETATM   23  C   UNL     1     -11.668  14.091  69.363  1.00  0.00    -0.365 C  
HETATM   24  C   UNL     1     -11.440  15.593  69.278  1.00  0.00    -0.368 C  
HETATM   25  C   UNL     1     -10.683  15.871  68.010  1.00  0.00    -0.301 C  
HETATM   26  C   UNL     1     -11.266  16.550  67.008  1.00  0.00     0.244 C  
HETATM   27  C   UNL     1     -10.608  16.723  65.696  1.00  0.00    -0.246 C  
ENDROOT
BRANCH   9  28
HETATM   28  C   UNL     1     -10.037   8.539  67.668  1.00  0.00    -0.213 C  
HETATM   29  O   UNL     1     -10.637   7.959  68.578  1.00  0.00    -0.187 OA 
BRANCH  28  30
HETATM   30  C   UNL     1      -9.339   7.728  66.566  1.00  0.00    -0.189 C  
HETATM   31  O   UNL     1      -9.600   6.335  66.655  1.00  0.00    -0.151 OA 
HETATM   32  H   UNL     1      -9.168   5.834  65.973  1.00  0.00     0.000 HD 
ENDBRANCH  28  30
ENDBRANCH   9  28
TORSDOF 2
ENDMDL
MODEL       71
REMARK 921   NORMALIZED FREE ENERGY PREDICTED BY IDOCK:   -4.25 KCAL/MOL
REMARK 922        TOTAL FREE ENERGY PREDICTED BY IDOCK:   -4.66 KCAL/MOL
REMARK 923 INTER-LIGAND FREE ENERGY PREDICTED BY IDOCK:   -4.42 KCAL/MOL
REMARK 924 INTRA-LIGAND FREE ENERGY PREDICTED BY IDOCK:   -0.25 KCAL/MOL
REMARK 927      BINDING AFFINITY PREDICTED BY RF-SCORE:    0.00 PKD
ROOT
HETATM    1  C   UNL     1     -10.335   9.163  69.262  1.00  0.00    -0.223 C  
HETATM    2  C   UNL     1      -9.438   9.932  70.259  1.00  0.00    -0.162 C  
HETATM    3  C   UNL     1      -8.183  10.301  69.502  1.00  0.00    -0.155 C  
HETATM    4  O   UNL     1      -7.298   9.189  69.321  1.00  0.00    -0.067 OA 
HETATM    5  C   UNL     1      -6.639   9.467  68.092  1.00  0.00    -0.062 C  
HETATM    6  C   UNL     1      -5.334  10.207  68.415  1.00  0.00    -0.035 C  
HETATM    7  C   UNL     1      -6.250   8.241  67.280  1.00  0.00    -0.056 C  
HETATM    8  O   UNL     1      -7.532  10.232  67.281  1.00  0.00    -0.093 OA 
HETATM    9  C   UNL     1      -8.644  10.653  68.098  1.00  0.00    -0.123 C  
HETATM   10  C   UNL     1     -10.010   9.841  67.870  1.00  0.00    -0.196 C  
HETATM   11  C   UNL     1     -10.048   4.512  67.836  1.00  0.00    -0.047 C  
HETATM   12  C   UNL     1     -11.250  10.750  67.606  1.00  0.00    -0.370 C  
HETATM   13  C   UNL     1      -9.918   8.900  66.639  1.00  0.00    -0.346 C  
HETATM   14  C   UNL     1      -9.027   5.450  68.497  1.00  0.00    -0.114 C  
HETATM   15  C   UNL     1      -7.681   5.158  67.829  1.00  0.00    -0.088 C  
HETATM   16  O   UNL     1      -5.724   3.665  70.393  1.00  0.00    -0.015 OA 
HETATM   17  C   UNL     1      -9.740   7.400  66.879  1.00  0.00    -0.205 C  
HETATM   18  C   UNL     1      -6.612   4.627  68.434  1.00  0.00    -0.046 C  
HETATM   19  O   UNL     1     -10.959   6.756  66.458  1.00  0.00    -0.513 OA 
HETATM   20  C   UNL     1      -9.353   6.985  68.319  1.00  0.00    -0.126 C  
HETATM   21  C   UNL     1     -10.352   7.606  69.310  1.00  0.00    -0.218 C  
HETATM   22  H   UNL     1     -10.849   5.824  66.607  1.00  0.00     0.000 HD 
HETATM   23  C   UNL     1     -10.217   7.070  70.746  1.00  0.00    -0.208 C  
HETATM   24  C   UNL     1     -10.150   5.551  70.804  1.00  0.00    -0.277 C  
HETATM   25  C   UNL     1      -8.966   5.112  69.990  1.00  0.00    -0.153 C  
HETATM   26  C   UNL     1      -7.907   4.542  70.589  1.00  0.00    -0.057 C  
HETATM   27  C   UNL     1      -6.669   4.224  69.848  1.00  0.00    -0.034 C  
ENDROOT
BRANCH   9  28
HETATM   28  C   UNL     1      -8.717  12.177  67.912  1.00  0.00    -0.176 C  
HETATM   29  O   UNL     1      -9.100  12.938  68.806  1.00  0.00    -0.003 OA 
BRANCH  28  30
HETATM   30  C   UNL     1      -8.308  12.740  66.543  1.00  0.00     0.236 C  
HETATM   31  O   UNL     1      -9.380  13.379  65.865  1.00  0.00    -0.486 OA 
HETATM   32  H   UNL     1      -9.127  13.727  65.018  1.00  0.00     0.000 HD 
ENDBRANCH  28  30
ENDBRANCH   9  28
TORSDOF 2
ENDMDL
MODEL       72
REMARK 921   NORMALIZED FREE ENERGY PREDICTED BY IDOCK:   -4.20 KCAL/MOL
REMARK 922        TOTAL FREE ENERGY PREDICTED BY IDOCK:   -4.61 KCAL/MOL
REMARK 923 INTER-LIGAND FREE ENERGY PREDICTED BY IDOCK:   -4.53 KCAL/MOL
REMARK 924 INTRA-LIGAND FREE ENERGY PREDICTED BY IDOCK:   -0.08 KCAL/MOL
REMARK 927      BINDING AFFINITY PREDICTED BY RF-SCORE:    0.00 PKD
ROOT
HETATM    1  C   UNL     1      -7.695   9.827  68.458  1.00  0.00    -0.081 C  
HETATM    2  C   UNL     1      -6.945   9.985  69.801  1.00  0.00    -0.107 C  
HETATM    3  C   UNL     1      -7.660   9.096  70.793  1.00  0.00    -0.133 C  
HETATM    4  O   UNL     1      -8.902   9.654  71.241  1.00  0.00    -0.126 OA 
HETATM    5  C   UNL     1      -9.714   8.519  71.515  1.00  0.00    -0.234 C  
HETATM    6  C   UNL     1      -9.553   8.174  73.001  1.00  0.00    -0.336 C  
HETATM    7  C   UNL     1     -11.203   8.721  71.277  1.00  0.00    -0.352 C  
HETATM    8  O   UNL     1      -9.298   7.465  70.645  1.00  0.00    -0.160 OA 
HETATM    9  C   UNL     1      -8.060   7.856  70.013  1.00  0.00    -0.117 C  
HETATM   10  C   UNL     1      -8.189   8.324  68.483  1.00  0.00    -0.131 C  
HETATM   11  C   UNL     1     -11.868  11.891  67.016  1.00  0.00    -0.192 C  
HETATM   12  C   UNL     1      -7.204   7.599  67.514  1.00  0.00    -0.087 C  
HETATM   13  C   UNL     1      -9.607   8.045  67.916  1.00  0.00    -0.178 C  
HETATM   14  C   UNL     1     -11.252  11.678  68.408  1.00  0.00    -0.307 C  
HETATM   15  C   UNL     1     -12.408  11.296  69.334  1.00  0.00    -0.216 C  
HETATM   16  O   UNL     1     -12.727  14.061  71.544  1.00  0.00    -0.333 OA 
HETATM   17  C   UNL     1     -10.572   9.221  67.755  1.00  0.00    -0.246 C  
HETATM   18  C   UNL     1     -12.859  12.029  70.359  1.00  0.00     0.144 C  
HETATM   19  O   UNL     1     -10.760   9.425  66.340  1.00  0.00    -0.064 OA 
HETATM   20  C   UNL     1     -10.164  10.535  68.464  1.00  0.00    -0.190 C  
HETATM   21  C   UNL     1      -8.732  10.912  68.044  1.00  0.00    -0.132 C  
HETATM   22  H   UNL     1     -11.360  10.155  66.240  1.00  0.00     0.000 HD 
HETATM   23  C   UNL     1      -8.306  12.322  68.490  1.00  0.00    -0.084 C  
HETATM   24  C   UNL     1      -9.346  13.383  68.164  1.00  0.00    -0.217 C  
HETATM   25  C   UNL     1     -10.623  13.002  68.857  1.00  0.00    -0.157 C  
HETATM   26  C   UNL     1     -11.101  13.758  69.861  1.00  0.00     0.045 C  
HETATM   27  C   UNL     1     -12.273  13.345  70.659  1.00  0.00    -0.350 C  
ENDROOT
BRANCH   9  28
HETATM   28  C   UNL     1      -7.090   6.697  70.293  1.00  0.00    -0.072 C  
HETATM   29  O   UNL     1      -7.364   5.522  70.028  1.00  0.00    -0.065 OA 
BRANCH  28  30
HETATM   30  C   UNL     1      -5.745   7.047  70.945  1.00  0.00    -0.027 C  
HETATM   31  O   UNL     1      -5.398   6.166  72.004  1.00  0.00    -0.025 OA 
HETATM   32  H   UNL     1      -4.566   6.382  72.407  1.00  0.00     0.000 HD 
ENDBRANCH  28  30
ENDBRANCH   9  28
TORSDOF 2
ENDMDL
MODEL       73
REMARK 921   NORMALIZED FREE ENERGY PREDICTED BY IDOCK:   -4.02 KCAL/MOL
REMARK 922        TOTAL FREE ENERGY PREDICTED BY IDOCK:   -4.41 KCAL/MOL
REMARK 923 INTER-LIGAND FREE ENERGY PREDICTED BY IDOCK:   -4.35 KCAL/MOL
REMARK 924 INTRA-LIGAND FREE ENERGY PREDICTED BY IDOCK:   -0.06 KCAL/MOL
REMARK 927      BINDING AFFINITY PREDICTED BY RF-SCORE:    0.00 PKD
ROOT
HETATM    1  C   UNL     1      -8.007   8.681  66.965  1.00  0.00    -0.096 C  
HETATM    2  C   UNL     1      -9.499   9.084  66.986  1.00  0.00    -0.212 C  
HETATM    3  C   UNL     1     -10.132   8.306  68.116  1.00  0.00    -0.200 C  
HETATM    4  O   UNL     1     -10.347   6.928  67.788  1.00  0.00    -0.171 OA 
HETATM    5  C   UNL     1     -10.231   6.253  69.034  1.00  0.00    -0.184 C  
HETATM    6  C   UNL     1     -11.637   6.130  69.636  1.00  0.00    -0.156 C  
HETATM    7  C   UNL     1      -9.673   4.840  68.950  1.00  0.00    -0.244 C  
HETATM    8  O   UNL     1      -9.333   7.001  69.854  1.00  0.00    -0.151 OA 
HETATM    9  C   UNL     1      -9.091   8.276  69.222  1.00  0.00    -0.151 C  
HETATM   10  C   UNL     1      -7.671   8.421  68.489  1.00  0.00    -0.104 C  
HETATM   11  C   UNL     1      -5.939   4.673  65.119  1.00  0.00    -0.022 C  
HETATM   12  C   UNL     1      -6.869   9.692  68.909  1.00  0.00    -0.054 C  
HETATM   13  C   UNL     1      -6.739   7.221  68.804  1.00  0.00    -0.067 C  
HETATM   14  C   UNL     1      -7.386   4.990  65.525  1.00  0.00    -0.073 C  
HETATM   15  C   UNL     1      -7.930   3.727  66.196  1.00  0.00    -0.090 C  
HETATM   16  O   UNL     1     -10.407   2.524  63.949  1.00  0.00    -0.145 OA 
HETATM   17  C   UNL     1      -6.537   6.152  67.728  1.00  0.00    -0.059 C  
HETATM   18  C   UNL     1      -8.918   2.958  65.723  1.00  0.00    -0.144 C  
HETATM   19  O   UNL     1      -5.170   6.253  67.281  1.00  0.00    -0.004 OA 
HETATM   20  C   UNL     1      -7.523   6.196  66.536  1.00  0.00    -0.086 C  
HETATM   21  C   UNL     1      -7.530   7.613  65.937  1.00  0.00    -0.082 C  
HETATM   22  H   UNL     1      -5.044   5.590  66.613  1.00  0.00     0.000 HD 
HETATM   23  C   UNL     1      -8.285   7.718  64.600  1.00  0.00    -0.080 C  
HETATM   24  C   UNL     1      -7.889   6.630  63.613  1.00  0.00    -0.109 C  
HETATM   25  C   UNL     1      -8.180   5.302  64.251  1.00  0.00    -0.132 C  
HETATM   26  C   UNL     1      -9.144   4.509  63.754  1.00  0.00    -0.113 C  
HETATM   27  C   UNL     1      -9.556   3.262  64.432  1.00  0.00    -0.153 C  
ENDROOT
BRANCH   9  28
HETATM   28  C   UNL     1      -9.411   9.320  70.304  1.00  0.00    -0.238 C  
HETATM   29  O   UNL     1      -8.716   9.465  71.314  1.00  0.00    -0.295 OA 
BRANCH  28  30
HETATM   30  C   UNL     1     -10.662  10.187  70.098  1.00  0.00    -0.300 C  
HETATM   31  O   UNL     1     -10.365  11.467  69.560  1.00  0.00    -0.433 OA 
HETATM   32  H   UNL     1     -11.139  12.004  69.433  1.00  0.00     0.000 HD 
ENDBRANCH  28  30
ENDBRANCH   9  28
TORSDOF 2
ENDMDL
MODEL       74
REMARK 921   NORMALIZED FREE ENERGY PREDICTED BY IDOCK:   -3.96 KCAL/MOL
REMARK 922        TOTAL FREE ENERGY PREDICTED BY IDOCK:   -4.35 KCAL/MOL
REMARK 923 INTER-LIGAND FREE ENERGY PREDICTED BY IDOCK:   -4.18 KCAL/MOL
REMARK 924 INTRA-LIGAND FREE ENERGY PREDICTED BY IDOCK:   -0.17 KCAL/MOL
REMARK 927      BINDING AFFINITY PREDICTED BY RF-SCORE:    0.00 PKD
ROOT
HETATM    1  C   UNL     1     -10.172   8.776  66.375  1.00  0.00    -0.256 C  
HETATM    2  C   UNL     1     -10.559   9.008  67.854  1.00  0.00    -0.256 C  
HETATM    3  C   UNL     1      -9.463   9.860  68.451  1.00  0.00    -0.137 C  
HETATM    4  O   UNL     1      -8.267   9.118  68.717  1.00  0.00    -0.107 OA 
HETATM    5  C   UNL     1      -7.224  10.071  68.557  1.00  0.00    -0.076 C  
HETATM    6  C   UNL     1      -6.926  10.677  69.935  1.00  0.00    -0.148 C  
HETATM    7  C   UNL     1      -5.910   9.505  68.041  1.00  0.00    -0.041 C  
HETATM    8  O   UNL     1      -7.660  11.038  67.601  1.00  0.00    -0.099 OA 
HETATM    9  C   UNL     1      -9.068  10.838  67.358  1.00  0.00    -0.143 C  
HETATM   10  C   UNL     1      -9.430  10.115  65.972  1.00  0.00    -0.248 C  
HETATM   11  C   UNL     1      -6.957   5.627  64.504  1.00  0.00    -0.052 C  
HETATM   12  C   UNL     1     -10.490  10.877  65.117  1.00  0.00    -0.316 C  
HETATM   13  C   UNL     1      -8.184   9.975  65.057  1.00  0.00    -0.148 C  
HETATM   14  C   UNL     1      -7.139   6.192  65.922  1.00  0.00    -0.070 C  
HETATM   15  C   UNL     1      -5.731   6.449  66.465  1.00  0.00    -0.014 C  
HETATM   16  O   UNL     1      -5.341   4.073  69.079  1.00  0.00    -0.010 OA 
HETATM   17  C   UNL     1      -7.519   8.602  64.936  1.00  0.00    -0.093 C  
HETATM   18  C   UNL     1      -5.166   5.808  67.494  1.00  0.00    -0.004 C  
HETATM   19  O   UNL     1      -7.747   8.138  63.590  1.00  0.00    -0.127 OA 
HETATM   20  C   UNL     1      -7.954   7.543  65.978  1.00  0.00    -0.113 C  
HETATM   21  C   UNL     1      -9.489   7.435  65.977  1.00  0.00     0.010 C  
HETATM   22  H   UNL     1      -7.334   7.285  63.514  1.00  0.00     0.000 HD 
HETATM   23  C   UNL     1     -10.027   6.247  66.793  1.00  0.00    -0.220 C  
HETATM   24  C   UNL     1      -9.313   4.941  66.474  1.00  0.00    -0.142 C  
HETATM   25  C   UNL     1      -7.852   5.133  66.769  1.00  0.00    -0.100 C  
HETATM   26  C   UNL     1      -7.271   4.459  67.776  1.00  0.00    -0.065 C  
HETATM   27  C   UNL     1      -5.876   4.721  68.187  1.00  0.00    -0.022 C  
ENDROOT
BRANCH   9  28
HETATM   28  C   UNL     1      -9.710  12.214  67.597  1.00  0.00    -0.188 C  
HETATM   29  O   UNL     1      -9.303  13.242  67.046  1.00  0.00    -0.226 OA 
BRANCH  28  30
HETATM   30  C   UNL     1     -10.887  12.282  68.581  1.00  0.00    -0.236 C  
HETATM   31  O   UNL     1     -12.145  12.086  67.952  1.00  0.00    -0.531 OA 
HETATM   32  H   UNL     1     -12.873  12.127  68.560  1.00  0.00     0.000 HD 
ENDBRANCH  28  30
ENDBRANCH   9  28
TORSDOF 2
ENDMDL
MODEL       75
REMARK 921   NORMALIZED FREE ENERGY PREDICTED BY IDOCK:   -3.92 KCAL/MOL
REMARK 922        TOTAL FREE ENERGY PREDICTED BY IDOCK:   -4.30 KCAL/MOL
REMARK 923 INTER-LIGAND FREE ENERGY PREDICTED BY IDOCK:   -4.19 KCAL/MOL
REMARK 924 INTRA-LIGAND FREE ENERGY PREDICTED BY IDOCK:   -0.11 KCAL/MOL
REMARK 927      BINDING AFFINITY PREDICTED BY RF-SCORE:    0.00 PKD
ROOT
HETATM    1  C   UNL     1      -9.764   9.064  66.497  1.00  0.00    -0.311 C  
HETATM    2  C   UNL     1     -10.286   9.648  67.830  1.00  0.00    -0.286 C  
HETATM    3  C   UNL     1      -9.064  10.018  68.638  1.00  0.00    -0.139 C  
HETATM    4  O   UNL     1      -8.415   8.876  69.212  1.00  0.00    -0.117 OA 
HETATM    5  C   UNL     1      -7.044   9.251  69.270  1.00  0.00    -0.057 C  
HETATM    6  C   UNL     1      -6.780   9.857  70.655  1.00  0.00    -0.097 C  
HETATM    7  C   UNL     1      -6.057   8.104  69.107  1.00  0.00    -0.039 C  
HETATM    8  O   UNL     1      -6.795  10.164  68.201  1.00  0.00    -0.066 OA 
HETATM    9  C   UNL     1      -8.062  10.561  67.635  1.00  0.00    -0.107 C  
HETATM   10  C   UNL     1      -8.433   9.876  66.232  1.00  0.00    -0.133 C  
HETATM   11  C   UNL     1      -8.034   4.603  65.575  1.00  0.00    -0.095 C  
HETATM   12  C   UNL     1      -8.839  10.892  65.120  1.00  0.00    -0.167 C  
HETATM   13  C   UNL     1      -7.234   9.082  65.648  1.00  0.00    -0.085 C  
HETATM   14  C   UNL     1      -8.214   5.386  66.884  1.00  0.00    -0.104 C  
HETATM   15  C   UNL     1      -6.981   5.082  67.738  1.00  0.00    -0.061 C  
HETATM   16  O   UNL     1      -8.235   3.171  70.459  1.00  0.00    -0.051 OA 
HETATM   17  C   UNL     1      -7.256   7.555  65.743  1.00  0.00    -0.066 C  
HETATM   18  C   UNL     1      -6.983   4.413  68.897  1.00  0.00    -0.051 C  
HETATM   19  O   UNL     1      -7.400   7.049  64.401  1.00  0.00    -0.072 OA 
HETATM   20  C   UNL     1      -8.319   6.950  66.691  1.00  0.00    -0.118 C  
HETATM   21  C   UNL     1      -9.702   7.517  66.327  1.00  0.00    -0.099 C  
HETATM   22  H   UNL     1      -7.414   6.100  64.460  1.00  0.00     0.000 HD 
HETATM   23  C   UNL     1     -10.870   6.809  67.036  1.00  0.00    -0.453 C  
HETATM   24  C   UNL     1     -10.780   5.293  66.948  1.00  0.00    -0.208 C  
HETATM   25  C   UNL     1      -9.482   4.872  67.576  1.00  0.00    -0.161 C  
HETATM   26  C   UNL     1      -9.480   4.165  68.718  1.00  0.00    -0.231 C  
HETATM   27  C   UNL     1      -8.230   3.853  69.441  1.00  0.00    -0.057 C  
ENDROOT
BRANCH   9  28
HETATM   28  C   UNL     1      -8.041  12.098  67.661  1.00  0.00    -0.158 C  
HETATM   29  O   UNL     1      -7.040  12.754  67.356  1.00  0.00    -0.148 OA 
BRANCH  28  30
HETATM   30  C   UNL     1      -9.326  12.813  68.105  1.00  0.00    -0.214 C  
HETATM   31  O   UNL     1      -9.976  13.493  67.041  1.00  0.00    -0.238 OA 
HETATM   32  H   UNL     1     -10.771  13.935  67.316  1.00  0.00     0.000 HD 
ENDBRANCH  28  30
ENDBRANCH   9  28
TORSDOF 2
ENDMDL
MODEL       76
REMARK 921   NORMALIZED FREE ENERGY PREDICTED BY IDOCK:   -3.85 KCAL/MOL
REMARK 922        TOTAL FREE ENERGY PREDICTED BY IDOCK:   -4.22 KCAL/MOL
REMARK 923 INTER-LIGAND FREE ENERGY PREDICTED BY IDOCK:   -3.80 KCAL/MOL
REMARK 924 INTRA-LIGAND FREE ENERGY PREDICTED BY IDOCK:   -0.41 KCAL/MOL
REMARK 927      BINDING AFFINITY PREDICTED BY RF-SCORE:    0.00 PKD
ROOT
HETATM    1  C   UNL     1      -6.436   7.288  70.283  1.00  0.00    -0.042 C  
HETATM    2  C   UNL     1      -7.469   8.409  70.028  1.00  0.00    -0.063 C  
HETATM    3  C   UNL     1      -8.814   7.843  70.421  1.00  0.00    -0.142 C  
HETATM    4  O   UNL     1      -9.334   6.927  69.450  1.00  0.00    -0.147 OA 
HETATM    5  C   UNL     1     -10.109   6.013  70.216  1.00  0.00    -0.194 C  
HETATM    6  C   UNL     1     -11.557   6.520  70.230  1.00  0.00    -0.473 C  
HETATM    7  C   UNL     1     -10.155   4.594  69.669  1.00  0.00    -0.232 C  
HETATM    8  O   UNL     1      -9.529   5.933  71.518  1.00  0.00    -0.152 OA 
HETATM    9  C   UNL     1      -8.552   6.988  71.649  1.00  0.00    -0.116 C  
HETATM   10  C   UNL     1      -7.020   6.523  71.539  1.00  0.00    -0.072 C  
HETATM   11  C   UNL     1      -5.392   3.398  67.541  1.00  0.00    -0.013 C  
HETATM   12  C   UNL     1      -6.124   7.015  72.717  1.00  0.00    -0.052 C  
HETATM   13  C   UNL     1      -6.890   4.977  71.537  1.00  0.00    -0.048 C  
HETATM   14  C   UNL     1      -6.612   4.331  67.581  1.00  0.00    -0.046 C  
HETATM   15  C   UNL     1      -7.841   3.438  67.395  1.00  0.00    -0.078 C  
HETATM   16  O   UNL     1      -9.127   4.349  64.210  1.00  0.00    -0.147 OA 
HETATM   17  C   UNL     1      -6.598   4.271  70.212  1.00  0.00    -0.032 C  
HETATM   18  C   UNL     1      -8.670   3.464  66.346  1.00  0.00    -0.126 C  
HETATM   19  O   UNL     1      -5.265   3.729  70.305  1.00  0.00    -0.003 OA 
HETATM   20  C   UNL     1      -6.769   5.128  68.935  1.00  0.00    -0.050 C  
HETATM   21  C   UNL     1      -5.952   6.423  69.082  1.00  0.00    -0.021 C  
HETATM   22  H   UNL     1      -5.084   3.290  69.481  1.00  0.00     0.000 HD 
HETATM   23  C   UNL     1      -5.847   7.242  67.784  1.00  0.00    -0.030 C  
HETATM   24  C   UNL     1      -5.453   6.395  66.583  1.00  0.00    -0.013 C  
HETATM   25  C   UNL     1      -6.492   5.322  66.418  1.00  0.00    -0.044 C  
HETATM   26  C   UNL     1      -7.300   5.322  65.344  1.00  0.00    -0.069 C  
HETATM   27  C   UNL     1      -8.422   4.370  65.213  1.00  0.00    -0.121 C  
ENDROOT
BRANCH   9  28
HETATM   28  C   UNL     1      -8.949   7.736  72.932  1.00  0.00    -0.188 C  
HETATM   29  O   UNL     1      -8.631   8.912  73.140  1.00  0.00    -0.279 OA 
BRANCH  28  30
HETATM   30  C   UNL     1      -9.754   6.957  73.982  1.00  0.00    -0.292 C  
HETATM   31  O   UNL     1     -11.142   6.908  73.689  1.00  0.00    -0.518 OA 
HETATM   32  H   UNL     1     -11.641   6.426  74.338  1.00  0.00     0.000 HD 
ENDBRANCH  28  30
ENDBRANCH   9  28
TORSDOF 2
ENDMDL
MODEL       77
REMARK 921   NORMALIZED FREE ENERGY PREDICTED BY IDOCK:   -3.83 KCAL/MOL
REMARK 922        TOTAL FREE ENERGY PREDICTED BY IDOCK:   -4.20 KCAL/MOL
REMARK 923 INTER-LIGAND FREE ENERGY PREDICTED BY IDOCK:   -3.89 KCAL/MOL
REMARK 924 INTRA-LIGAND FREE ENERGY PREDICTED BY IDOCK:   -0.31 KCAL/MOL
REMARK 927      BINDING AFFINITY PREDICTED BY RF-SCORE:    0.00 PKD
ROOT
HETATM    1  C   UNL     1     -10.254  17.331  69.162  1.00  0.00    -0.283 C  
HETATM    2  C   UNL     1     -11.394  17.292  68.118  1.00  0.00     0.272 C  
HETATM    3  C   UNL     1     -11.180  16.038  67.302  1.00  0.00    -0.041 C  
HETATM    4  O   UNL     1     -10.109  16.168  66.359  1.00  0.00    -0.277 OA 
HETATM    5  C   UNL     1      -9.588  14.849  66.242  1.00  0.00    -0.307 C  
HETATM    6  C   UNL     1     -10.291  14.169  65.060  1.00  0.00    -0.443 C  
HETATM    7  C   UNL     1      -8.095  14.771  65.959  1.00  0.00     1.703 C  
HETATM    8  O   UNL     1      -9.807  14.182  67.485  1.00  0.00    -0.229 OA 
HETATM    9  C   UNL     1     -10.693  14.990  68.288  1.00  0.00    -0.253 C  
HETATM   10  C   UNL     1      -9.989  15.803  69.479  1.00  0.00    -0.283 C  
HETATM   11  C   UNL     1      -5.619  18.721  68.587  1.00  0.00    -0.199 C  
HETATM   12  C   UNL     1     -10.663  15.597  70.871  1.00  0.00    -0.101 C  
HETATM   13  C   UNL     1      -8.509  15.376  69.668  1.00  0.00    -0.124 C  
HETATM   14  C   UNL     1      -6.697  18.292  67.580  1.00  0.00    -0.198 C  
HETATM   15  C   UNL     1      -5.986  17.432  66.532  1.00  0.00    -0.245 C  
HETATM   16  O   UNL     1      -6.107  19.375  63.559  1.00  0.00    -0.379 OA 
HETATM   17  C   UNL     1      -7.410  16.308  69.155  1.00  0.00    -0.218 C  
HETATM   18  C   UNL     1      -5.829  17.750  65.242  1.00  0.00     0.145 C  
HETATM   19  O   UNL     1      -6.722  16.829  70.311  1.00  0.00     0.353 OA 
HETATM   20  C   UNL     1      -7.870  17.446  68.213  1.00  0.00    -0.247 C  
HETATM   21  C   UNL     1      -9.012  18.228  68.885  1.00  0.00    -0.148 C  
HETATM   22  H   UNL     1      -6.039  17.408  69.992  1.00  0.00     0.000 HD 
HETATM   23  C   UNL     1      -9.388  19.528  68.154  1.00  0.00    -0.422 C  
HETATM   24  C   UNL     1      -8.176  20.379  67.805  1.00  0.00    -0.224 C  
HETATM   25  C   UNL     1      -7.273  19.555  66.932  1.00  0.00    -0.232 C  
HETATM   26  C   UNL     1      -7.080  19.895  65.646  1.00  0.00    -0.337 C  
HETATM   27  C   UNL     1      -6.313  19.037  64.719  1.00  0.00    -0.131 C  
ENDROOT
BRANCH   9  28
HETATM   28  C   UNL     1     -11.836  14.044  68.690  1.00  0.00    -0.361 C  
HETATM   29  O   UNL     1     -12.909  14.453  69.143  1.00  0.00     0.229 OA 
BRANCH  28  30
HETATM   30  C   UNL     1     -11.593  12.536  68.526  1.00  0.00    -0.321 C  
HETATM   31  O   UNL     1     -11.951  12.055  67.239  1.00  0.00    -0.591 OA 
HETATM   32  H   UNL     1     -11.800  11.123  67.138  1.00  0.00     0.000 HD 
ENDBRANCH  28  30
ENDBRANCH   9  28
TORSDOF 2
ENDMDL
MODEL       78
REMARK 921   NORMALIZED FREE ENERGY PREDICTED BY IDOCK:   -3.68 KCAL/MOL
REMARK 922        TOTAL FREE ENERGY PREDICTED BY IDOCK:   -4.03 KCAL/MOL
REMARK 923 INTER-LIGAND FREE ENERGY PREDICTED BY IDOCK:   -3.56 KCAL/MOL
REMARK 924 INTRA-LIGAND FREE ENERGY PREDICTED BY IDOCK:   -0.47 KCAL/MOL
REMARK 927      BINDING AFFINITY PREDICTED BY RF-SCORE:    0.00 PKD
ROOT
HETATM    1  C   UNL     1      -9.694   6.941  66.354  1.00  0.00    -0.127 C  
HETATM    2  C   UNL     1      -8.446   6.466  65.574  1.00  0.00    -0.141 C  
HETATM    3  C   UNL     1      -7.467   5.960  66.608  1.00  0.00    -0.087 C  
HETATM    4  O   UNL     1      -6.813   7.020  67.317  1.00  0.00    -0.064 OA 
HETATM    5  C   UNL     1      -6.555   6.469  68.603  1.00  0.00    -0.051 C  
HETATM    6  C   UNL     1      -5.143   5.870  68.583  1.00  0.00     0.000 C  
HETATM    7  C   UNL     1      -6.583   7.471  69.748  1.00  0.00    -0.039 C  
HETATM    8  O   UNL     1      -7.571   5.504  68.876  1.00  0.00    -0.083 OA 
HETATM    9  C   UNL     1      -8.311   5.262  67.660  1.00  0.00    -0.106 C  
HETATM   10  C   UNL     1      -9.758   5.952  67.589  1.00  0.00    -0.122 C  
HETATM   11  C   UNL     1     -10.388  11.108  68.782  1.00  0.00    -0.222 C  
HETATM   12  C   UNL     1     -10.910   4.970  67.212  1.00  0.00     0.277 C  
HETATM   13  C   UNL     1     -10.168   6.566  68.954  1.00  0.00    -0.206 C  
HETATM   14  C   UNL     1      -9.113  10.390  68.314  1.00  0.00    -0.145 C  
HETATM   15  C   UNL     1      -8.092  10.551  69.443  1.00  0.00    -0.136 C  
HETATM   16  O   UNL     1      -5.594  12.682  68.083  1.00  0.00    -0.062 OA 
HETATM   17  C   UNL     1     -10.088   8.085  69.124  1.00  0.00    -0.201 C  
HETATM   18  C   UNL     1      -6.950  11.245  69.366  1.00  0.00    -0.109 C  
HETATM   19  O   UNL     1     -11.441   8.570  69.242  1.00  0.00    -0.274 OA 
HETATM   20  C   UNL     1      -9.308   8.850  68.028  1.00  0.00    -0.153 C  
HETATM   21  C   UNL     1      -9.864   8.460  66.648  1.00  0.00    -0.343 C  
HETATM   22  H   UNL     1     -11.391   9.513  69.348  1.00  0.00     0.000 HD 
HETATM   23  C   UNL     1      -9.337   9.335  65.497  1.00  0.00    -0.303 C  
HETATM   24  C   UNL     1      -9.421  10.823  65.801  1.00  0.00    -0.244 C  
HETATM   25  C   UNL     1      -8.615  11.085  67.042  1.00  0.00    -0.140 C  
HETATM   26  C   UNL     1      -7.489  11.816  66.976  1.00  0.00    -0.137 C  
HETATM   27  C   UNL     1      -6.596  11.979  68.141  1.00  0.00    -0.055 C  
ENDROOT
BRANCH   9  28
HETATM   28  C   UNL     1      -8.272   3.737  67.471  1.00  0.00    -0.090 C  
HETATM   29  O   UNL     1      -8.104   3.209  66.367  1.00  0.00    -0.083 OA 
BRANCH  28  30
HETATM   30  C   UNL     1      -8.472   2.866  68.719  1.00  0.00    -0.068 C  
HETATM   31  O   UNL     1      -7.297   2.753  69.509  1.00  0.00    -0.044 OA 
HETATM   32  H   UNL     1      -7.421   2.215  70.281  1.00  0.00     0.000 HD 
ENDBRANCH  28  30
ENDBRANCH   9  28
TORSDOF 2
ENDMDL
MODEL       79
REMARK 921   NORMALIZED FREE ENERGY PREDICTED BY IDOCK:   -3.68 KCAL/MOL
REMARK 922        TOTAL FREE ENERGY PREDICTED BY IDOCK:   -4.03 KCAL/MOL
REMARK 923 INTER-LIGAND FREE ENERGY PREDICTED BY IDOCK:   -3.83 KCAL/MOL
REMARK 924 INTRA-LIGAND FREE ENERGY PREDICTED BY IDOCK:   -0.20 KCAL/MOL
REMARK 927      BINDING AFFINITY PREDICTED BY RF-SCORE:    0.00 PKD
ROOT
HETATM    1  C   UNL     1      -8.782   8.422  68.667  1.00  0.00    -0.133 C  
HETATM    2  C   UNL     1     -10.245   8.064  69.015  1.00  0.00    -0.217 C  
HETATM    3  C   UNL     1     -10.182   7.097  70.174  1.00  0.00    -0.195 C  
HETATM    4  O   UNL     1      -9.789   5.778  69.774  1.00  0.00    -0.160 OA 
HETATM    5  C   UNL     1      -9.106   5.260  70.909  1.00  0.00    -0.138 C  
HETATM    6  C   UNL     1     -10.125   4.490  71.760  1.00  0.00    -0.254 C  
HETATM    7  C   UNL     1      -7.984   4.283  70.593  1.00  0.00    -0.063 C  
HETATM    8  O   UNL     1      -8.513   6.359  71.600  1.00  0.00    -0.127 OA 
HETATM    9  C   UNL     1      -9.039   7.584  71.048  1.00  0.00    -0.148 C  
HETATM   10  C   UNL     1      -8.047   8.378  70.068  1.00  0.00    -0.115 C  
HETATM   11  C   UNL     1      -5.524   5.857  66.108  1.00  0.00    -0.013 C  
HETATM   12  C   UNL     1      -7.865   9.883  70.434  1.00  0.00    -0.066 C  
HETATM   13  C   UNL     1      -6.617   7.773  70.088  1.00  0.00    -0.038 C  
HETATM   14  C   UNL     1      -6.826   5.452  66.814  1.00  0.00    -0.063 C  
HETATM   15  C   UNL     1      -6.556   4.093  67.465  1.00  0.00    -0.046 C  
HETATM   16  O   UNL     1      -8.594   1.819  65.646  1.00  0.00    -0.099 OA 
HETATM   17  C   UNL     1      -6.173   6.913  68.903  1.00  0.00    -0.027 C  
HETATM   18  C   UNL     1      -7.143   2.939  67.127  1.00  0.00    -0.053 C  
HETATM   19  O   UNL     1      -5.144   7.647  68.209  1.00  0.00    -0.024 OA 
HETATM   20  C   UNL     1      -7.293   6.462  67.935  1.00  0.00    -0.089 C  
HETATM   21  C   UNL     1      -8.092   7.694  67.476  1.00  0.00    -0.120 C  
HETATM   22  H   UNL     1      -4.868   7.113  67.473  1.00  0.00     0.000 HD 
HETATM   23  C   UNL     1      -9.073   7.405  66.327  1.00  0.00    -0.195 C  
HETATM   24  C   UNL     1      -8.435   6.623  65.190  1.00  0.00    -0.041 C  
HETATM   25  C   UNL     1      -7.925   5.327  65.753  1.00  0.00    -0.105 C  
HETATM   26  C   UNL     1      -8.485   4.162  65.385  1.00  0.00    -0.110 C  
HETATM   27  C   UNL     1      -8.109   2.881  66.018  1.00  0.00    -0.083 C  
ENDROOT
BRANCH   9  28
HETATM   28  C   UNL     1      -9.572   8.366  72.260  1.00  0.00    -0.304 C  
HETATM   29  O   UNL     1     -10.375   9.299  72.148  1.00  0.00    -0.129 OA 
BRANCH  28  30
HETATM   30  C   UNL     1      -9.052   7.959  73.646  1.00  0.00    -0.273 C  
HETATM   31  O   UNL     1      -7.843   8.615  73.997  1.00  0.00    -0.404 OA 
HETATM   32  H   UNL     1      -7.521   8.363  74.855  1.00  0.00     0.000 HD 
ENDBRANCH  28  30
ENDBRANCH   9  28
TORSDOF 2
ENDMDL
MODEL       80
REMARK 921   NORMALIZED FREE ENERGY PREDICTED BY IDOCK:   -2.78 KCAL/MOL
REMARK 922        TOTAL FREE ENERGY PREDICTED BY IDOCK:   -3.03 KCAL/MOL
REMARK 923 INTER-LIGAND FREE ENERGY PREDICTED BY IDOCK:   -2.94 KCAL/MOL
REMARK 924 INTRA-LIGAND FREE ENERGY PREDICTED BY IDOCK:   -0.09 KCAL/MOL
REMARK 927      BINDING AFFINITY PREDICTED BY RF-SCORE:    0.00 PKD
ROOT
HETATM    1  C   UNL     1      -9.427  13.362  67.160  1.00  0.00    -0.244 C  
HETATM    2  C   UNL     1      -8.176  12.761  67.840  1.00  0.00    -0.168 C  
HETATM    3  C   UNL     1      -8.569  11.378  68.305  1.00  0.00    -0.156 C  
HETATM    4  O   UNL     1      -9.390  11.401  69.480  1.00  0.00     0.340 OA 
HETATM    5  C   UNL     1     -10.210  10.247  69.352  1.00  0.00    -0.235 C  
HETATM    6  C   UNL     1      -9.518   9.094  70.092  1.00  0.00    -0.235 C  
HETATM    7  C   UNL     1     -11.600  10.376  69.958  1.00  0.00    -0.378 C  
HETATM    8  O   UNL     1     -10.392   9.992  67.959  1.00  0.00    -0.175 OA 
HETATM    9  C   UNL     1      -9.476  10.827  67.219  1.00  0.00    -0.159 C  
HETATM   10  C   UNL     1     -10.135  12.106  66.508  1.00  0.00    -0.229 C  
HETATM   11  C   UNL     1     -13.365  15.372  69.210  1.00  0.00     1.709 C  
HETATM   12  C   UNL     1      -9.789  12.236  64.992  1.00  0.00    -0.158 C  
HETATM   13  C   UNL     1     -11.685  12.063  66.576  1.00  0.00    -0.330 C  
HETATM   14  C   UNL     1     -12.281  14.435  69.764  1.00  0.00    -0.370 C  
HETATM   15  C   UNL     1     -13.002  13.438  70.675  1.00  0.00    -0.057 C  
HETATM   16  O   UNL     1     -11.866  14.241  73.945  1.00  0.00     0.040 OA 
HETATM   17  C   UNL     1     -12.396  12.974  67.579  1.00  0.00     0.140 C  
HETATM   18  C   UNL     1     -12.846  13.342  72.000  1.00  0.00    -0.328 C  
HETATM   19  O   UNL     1     -13.110  13.969  66.816  1.00  0.00    -0.177 OA 
HETATM   20  C   UNL     1     -11.498  13.628  68.656  1.00  0.00    -0.342 C  
HETATM   21  C   UNL     1     -10.324  14.346  67.967  1.00  0.00    -0.227 C  
HETATM   22  H   UNL     1     -13.551  14.534  67.439  1.00  0.00     0.000 HD 
HETATM   23  C   UNL     1      -9.500  15.236  68.914  1.00  0.00    -0.218 C  
HETATM   24  C   UNL     1     -10.367  16.147  69.770  1.00  0.00    -0.244 C  
HETATM   25  C   UNL     1     -11.291  15.279  70.575  1.00  0.00    -0.340 C  
HETATM   26  C   UNL     1     -11.164  15.211  71.911  1.00  0.00    -0.275 C  
HETATM   27  C   UNL     1     -11.958  14.266  72.723  1.00  0.00     0.382 C  
ENDROOT
BRANCH   9  28
HETATM   28  C   UNL     1      -8.708   9.858  66.305  1.00  0.00    -0.139 C  
HETATM   29  O   UNL     1      -9.274   9.134  65.479  1.00  0.00    -0.216 OA 
BRANCH  28  30
HETATM   30  C   UNL     1      -7.182   9.798  66.465  1.00  0.00    -0.094 C  
HETATM   31  O   UNL     1      -6.736   8.592  67.068  1.00  0.00    -0.061 OA 
HETATM   32  H   UNL     1      -5.792   8.555  67.167  1.00  0.00     0.000 HD 
ENDBRANCH  28  30
ENDBRANCH   9  28
TORSDOF 2
ENDMDL
MODEL       81
REMARK 921   NORMALIZED FREE ENERGY PREDICTED BY IDOCK:   -2.71 KCAL/MOL
REMARK 922        TOTAL FREE ENERGY PREDICTED BY IDOCK:   -2.95 KCAL/MOL
REMARK 923 INTER-LIGAND FREE ENERGY PREDICTED BY IDOCK:   -3.08 KCAL/MOL
REMARK 924 INTRA-LIGAND FREE ENERGY PREDICTED BY IDOCK:    0.13 KCAL/MOL
REMARK 927      BINDING AFFINITY PREDICTED BY RF-SCORE:    0.00 PKD
ROOT
HETATM    1  C   UNL     1     -11.327  15.425  65.746  1.00  0.00    -0.115 C  
HETATM    2  C   UNL     1     -10.377  14.937  64.628  1.00  0.00    -0.056 C  
HETATM    3  C   UNL     1      -9.677  13.712  65.172  1.00  0.00     0.050 C  
HETATM    4  O   UNL     1      -8.652  14.036  66.119  1.00  0.00     0.340 OA 
HETATM    5  C   UNL     1      -8.630  12.920  67.001  1.00  0.00    -0.169 C  
HETATM    6  C   UNL     1      -7.575  11.933  66.485  1.00  0.00     0.133 C  
HETATM    7  C   UNL     1      -8.251  13.244  68.438  1.00  0.00    -0.134 C  
HETATM    8  O   UNL     1      -9.947  12.367  67.037  1.00  0.00    -0.209 OA 
HETATM    9  C   UNL     1     -10.726  12.973  65.984  1.00  0.00    -0.274 C  
HETATM   10  C   UNL     1     -11.776  14.087  66.462  1.00  0.00    -0.412 C  
HETATM   11  C   UNL     1     -10.289  18.019  69.738  1.00  0.00     0.643 C  
HETATM   12  C   UNL     1     -13.227  13.858  65.934  1.00  0.00     0.276 C  
HETATM   13  C   UNL     1     -11.902  14.131  68.008  1.00  0.00    -0.400 C  
HETATM   14  C   UNL     1      -9.409  17.182  68.797  1.00  0.00    -0.252 C  
HETATM   15  C   UNL     1      -8.404  16.449  69.689  1.00  0.00     0.414 C  
HETATM   16  O   UNL     1      -5.268  17.914  68.885  1.00  0.00    -0.164 OA 
HETATM   17  C   UNL     1     -11.221  15.275  68.763  1.00  0.00    -0.287 C  
HETATM   18  C   UNL     1      -7.081  16.646  69.695  1.00  0.00     0.072 C  
HETATM   19  O   UNL     1     -12.267  16.103  69.309  1.00  0.00    -0.317 OA 
HETATM   20  C   UNL     1     -10.205  16.113  67.951  1.00  0.00    -0.261 C  
HETATM   21  C   UNL     1     -10.875  16.605  66.656  1.00  0.00    -0.024 C  
HETATM   22  H   UNL     1     -11.844  16.814  69.778  1.00  0.00     0.000 HD 
HETATM   23  C   UNL     1     -10.047  17.647  65.885  1.00  0.00    -0.192 C  
HETATM   24  C   UNL     1      -9.528  18.765  66.777  1.00  0.00    -0.335 C  
HETATM   25  C   UNL     1      -8.680  18.141  67.849  1.00  0.00    -0.266 C  
HETATM   26  C   UNL     1      -7.356  18.370  67.883  1.00  0.00    -0.242 C  
HETATM   27  C   UNL     1      -6.468  17.668  68.832  1.00  0.00    -0.215 C  
ENDROOT
BRANCH   9  28
HETATM   28  C   UNL     1     -11.300  11.790  65.188  1.00  0.00    -0.218 C  
HETATM   29  O   UNL     1     -11.471  10.673  65.687  1.00  0.00     0.427 OA 
BRANCH  28  30
HETATM   30  C   UNL     1     -11.646  12.035  63.712  1.00  0.00    -0.476 C  
HETATM   31  O   UNL     1     -11.496  10.874  62.908  1.00  0.00    -0.419 OA 
HETATM   32  H   UNL     1     -11.710  11.026  61.995  1.00  0.00     0.000 HD 
ENDBRANCH  28  30
ENDBRANCH   9  28
TORSDOF 2
ENDMDL
MODEL       82
REMARK 921   NORMALIZED FREE ENERGY PREDICTED BY IDOCK:   -2.52 KCAL/MOL
REMARK 922        TOTAL FREE ENERGY PREDICTED BY IDOCK:   -2.73 KCAL/MOL
REMARK 923 INTER-LIGAND FREE ENERGY PREDICTED BY IDOCK:   -3.65 KCAL/MOL
REMARK 924 INTRA-LIGAND FREE ENERGY PREDICTED BY IDOCK:    0.92 KCAL/MOL
REMARK 927      BINDING AFFINITY PREDICTED BY RF-SCORE:    0.00 PKD
ROOT
HETATM    1  C   UNL     1      -9.008   6.090  70.253  1.00  0.00    -0.152 C  
HETATM    2  C   UNL     1     -10.012   5.210  69.473  1.00  0.00    -0.301 C  
HETATM    3  C   UNL     1      -9.259   4.661  68.283  1.00  0.00    -0.128 C  
HETATM    4  O   UNL     1      -9.070   5.637  67.250  1.00  0.00    -0.112 OA 
HETATM    5  C   UNL     1      -7.844   5.259  66.636  1.00  0.00    -0.100 C  
HETATM    6  C   UNL     1      -8.174   4.346  65.448  1.00  0.00    -0.110 C  
HETATM    7  C   UNL     1      -7.023   6.412  66.078  1.00  0.00    -0.062 C  
HETATM    8  O   UNL     1      -7.038   4.622  67.628  1.00  0.00    -0.063 OA 
HETATM    9  C   UNL     1      -7.857   4.368  68.789  1.00  0.00    -0.070 C  
HETATM   10  C   UNL     1      -7.622   5.362  70.026  1.00  0.00    -0.069 C  
HETATM   11  C   UNL     1      -7.549  10.643  69.314  1.00  0.00    -0.138 C  
HETATM   12  C   UNL     1      -7.364   4.635  71.382  1.00  0.00    -0.068 C  
HETATM   13  C   UNL     1      -6.384   6.271  69.803  1.00  0.00    -0.038 C  
HETATM   14  C   UNL     1      -8.217   9.575  68.434  1.00  0.00    -0.113 C  
HETATM   15  C   UNL     1      -7.549   9.671  67.061  1.00  0.00    -0.095 C  
HETATM   16  O   UNL     1     -10.104  10.891  64.914  1.00  0.00    -0.268 OA 
HETATM   17  C   UNL     1      -6.614   7.734  69.415  1.00  0.00    -0.039 C  
HETATM   18  C   UNL     1      -8.151  10.050  65.928  1.00  0.00    -0.126 C  
HETATM   19  O   UNL     1      -6.187   8.540  70.532  1.00  0.00    -0.034 OA 
HETATM   20  C   UNL     1      -8.051   8.100  68.973  1.00  0.00    -0.115 C  
HETATM   21  C   UNL     1      -9.046   7.633  70.050  1.00  0.00    -0.151 C  
HETATM   22  H   UNL     1      -6.329   9.448  70.291  1.00  0.00     0.000 HD 
HETATM   23  C   UNL     1     -10.477   8.155  69.841  1.00  0.00    -0.226 C  
HETATM   24  C   UNL     1     -10.525   9.650  69.561  1.00  0.00    -0.240 C  
HETATM   25  C   UNL     1      -9.709   9.912  68.327  1.00  0.00    -0.159 C  
HETATM   26  C   UNL     1     -10.304  10.333  67.198  1.00  0.00    -0.292 C  
HETATM   27  C   UNL     1      -9.562  10.467  65.928  1.00  0.00    -0.204 C  
ENDROOT
BRANCH   9  28
HETATM   28  C   UNL     1      -7.682   2.868  69.075  1.00  0.00    -0.047 C  
HETATM   29  O   UNL     1      -6.836   2.176  68.499  1.00  0.00    -0.038 OA 
BRANCH  28  30
HETATM   30  C   UNL     1      -8.623   2.233  70.109  1.00  0.00    -0.051 C  
HETATM   31  O   UNL     1      -7.968   1.903  71.324  1.00  0.00    -0.039 OA 
HETATM   32  H   UNL     1      -8.550   1.511  71.964  1.00  0.00     0.000 HD 
ENDBRANCH  28  30
ENDBRANCH   9  28
TORSDOF 2
ENDMDL
MODEL       83
REMARK 921   NORMALIZED FREE ENERGY PREDICTED BY IDOCK:   -2.51 KCAL/MOL
REMARK 922        TOTAL FREE ENERGY PREDICTED BY IDOCK:   -2.73 KCAL/MOL
REMARK 923 INTER-LIGAND FREE ENERGY PREDICTED BY IDOCK:   -3.28 KCAL/MOL
REMARK 924 INTRA-LIGAND FREE ENERGY PREDICTED BY IDOCK:    0.55 KCAL/MOL
REMARK 927      BINDING AFFINITY PREDICTED BY RF-SCORE:    0.00 PKD
ROOT
HETATM    1  C   UNL     1      -9.776   6.341  70.701  1.00  0.00    -0.199 C  
HETATM    2  C   UNL     1      -9.986   4.809  70.709  1.00  0.00    -0.291 C  
HETATM    3  C   UNL     1      -8.616   4.195  70.883  1.00  0.00    -0.076 C  
HETATM    4  O   UNL     1      -7.833   4.239  69.683  1.00  0.00    -0.056 OA 
HETATM    5  C   UNL     1      -6.492   4.332  70.148  1.00  0.00    -0.032 C  
HETATM    6  C   UNL     1      -5.925   2.909  70.237  1.00  0.00    -0.019 C  
HETATM    7  C   UNL     1      -5.552   5.115  69.243  1.00  0.00    -0.008 C  
HETATM    8  O   UNL     1      -6.512   5.009  71.405  1.00  0.00    -0.028 OA 
HETATM    9  C   UNL     1      -7.881   5.107  71.850  1.00  0.00    -0.110 C  
HETATM   10  C   UNL     1      -8.555   6.554  71.684  1.00  0.00    -0.128 C  
HETATM   11  C   UNL     1      -8.236   9.205  67.072  1.00  0.00    -0.116 C  
HETATM   12  C   UNL     1      -9.224   7.094  72.986  1.00  0.00    -0.174 C  
HETATM   13  C   UNL     1      -7.511   7.628  71.279  1.00  0.00    -0.079 C  
HETATM   14  C   UNL     1      -8.121   7.691  67.307  1.00  0.00    -0.119 C  
HETATM   15  C   UNL     1      -6.719   7.290  66.842  1.00  0.00    -0.064 C  
HETATM   16  O   UNL     1      -7.279   5.286  63.962  1.00  0.00    -0.048 OA 
HETATM   17  C   UNL     1      -7.487   8.110  69.827  1.00  0.00    -0.084 C  
HETATM   18  C   UNL     1      -6.442   6.493  65.804  1.00  0.00    -0.043 C  
HETATM   19  O   UNL     1      -7.929   9.482  69.828  1.00  0.00    -0.101 OA 
HETATM   20  C   UNL     1      -8.292   7.259  68.816  1.00  0.00    -0.129 C  
HETATM   21  C   UNL     1      -9.731   7.086  69.335  1.00  0.00    -0.159 C  
HETATM   22  H   UNL     1      -7.914   9.781  68.926  1.00  0.00     0.000 HD 
HETATM   23  C   UNL     1     -10.692   6.468  68.305  1.00  0.00    -0.341 C  
HETATM   24  C   UNL     1     -10.601   7.133  66.940  1.00  0.00    -0.371 C  
HETATM   25  C   UNL     1      -9.186   6.994  66.454  1.00  0.00    -0.186 C  
HETATM   26  C   UNL     1      -8.909   6.227  65.386  1.00  0.00     0.002 C  
HETATM   27  C   UNL     1      -7.521   5.952  64.962  1.00  0.00    -0.080 C  
ENDROOT
BRANCH   9  28
HETATM   28  C   UNL     1      -7.879   4.513  73.268  1.00  0.00    -0.091 C  
HETATM   29  O   UNL     1      -8.369   5.103  74.236  1.00  0.00    -0.105 OA 
BRANCH  28  30
HETATM   30  C   UNL     1      -7.218   3.140  73.456  1.00  0.00    -0.046 C  
HETATM   31  O   UNL     1      -5.837   3.230  73.773  1.00  0.00     0.000 OA 
HETATM   32  H   UNL     1      -5.428   2.381  73.890  1.00  0.00     0.000 HD 
ENDBRANCH  28  30
ENDBRANCH   9  28
TORSDOF 2
ENDMDL
MODEL       84
REMARK 921   NORMALIZED FREE ENERGY PREDICTED BY IDOCK:   -2.05 KCAL/MOL
REMARK 922        TOTAL FREE ENERGY PREDICTED BY IDOCK:   -2.21 KCAL/MOL
REMARK 923 INTER-LIGAND FREE ENERGY PREDICTED BY IDOCK:   -2.17 KCAL/MOL
REMARK 924 INTRA-LIGAND FREE ENERGY PREDICTED BY IDOCK:   -0.04 KCAL/MOL
REMARK 927      BINDING AFFINITY PREDICTED BY RF-SCORE:    0.00 PKD
ROOT
HETATM    1  C   UNL     1      -8.871  16.636  66.227  1.00  0.00    -0.348 C  
HETATM    2  C   UNL     1      -9.834  17.696  65.644  1.00  0.00     0.200 C  
HETATM    3  C   UNL     1      -9.770  18.885  66.574  1.00  0.00    -0.358 C  
HETATM    4  O   UNL     1     -10.492  18.672  67.794  1.00  0.00    -0.392 OA 
HETATM    5  C   UNL     1      -9.785  19.448  68.754  1.00  0.00    -0.449 C  
HETATM    6  C   UNL     1     -10.451  20.828  68.826  1.00  0.00     0.428 C  
HETATM    7  C   UNL     1      -9.800  18.888  70.169  1.00  0.00     1.085 C  
HETATM    8  O   UNL     1      -8.417  19.504  68.348  1.00  0.00    -0.343 OA 
HETATM    9  C   UNL     1      -8.318  18.987  67.004  1.00  0.00    -0.276 C  
HETATM   10  C   UNL     1      -7.720  17.503  66.882  1.00  0.00    -0.248 C  
HETATM   11  C   UNL     1      -9.587  13.545  69.925  1.00  0.00     2.044 C  
HETATM   12  C   UNL     1      -6.542  17.376  65.867  1.00  0.00    -0.080 C  
HETATM   13  C   UNL     1      -7.153  17.000  68.237  1.00  0.00    -0.190 C  
HETATM   14  C   UNL     1     -10.294  14.848  69.521  1.00  0.00    -0.168 C  
HETATM   15  C   UNL     1     -10.585  15.599  70.823  1.00  0.00    -0.056 C  
HETATM   16  O   UNL     1     -14.126  15.527  71.116  1.00  0.00    -0.537 OA 
HETATM   17  C   UNL     1      -7.971  15.985  69.038  1.00  0.00    -0.224 C  
HETATM   18  C   UNL     1     -11.802  15.855  71.318  1.00  0.00    -0.502 C  
HETATM   19  O   UNL     1      -7.240  14.742  69.019  1.00  0.00    -0.117 OA 
HETATM   20  C   UNL     1      -9.436  15.783  68.582  1.00  0.00    -0.208 C  
HETATM   21  C   UNL     1      -9.458  15.471  67.076  1.00  0.00    -0.238 C  
HETATM   22  H   UNL     1      -7.748  14.111  69.516  1.00  0.00     0.000 HD 
HETATM   23  C   UNL     1     -10.832  15.012  66.557  1.00  0.00    -0.320 C  
HETATM   24  C   UNL     1     -11.457  13.929  67.424  1.00  0.00    -0.374 C  
HETATM   25  C   UNL     1     -11.603  14.480  68.814  1.00  0.00    -0.343 C  
HETATM   26  C   UNL     1     -12.824  14.700  69.330  1.00  0.00     0.394 C  
HETATM   27  C   UNL     1     -13.011  15.368  70.634  1.00  0.00    -0.398 C  
ENDROOT
BRANCH   9  28
HETATM   28  C   UNL     1      -7.588  20.084  66.212  1.00  0.00    -0.303 C  
HETATM   29  O   UNL     1      -8.166  20.812  65.399  1.00  0.00     0.516 OA 
BRANCH  28  30
HETATM   30  C   UNL     1      -6.080  20.241  66.451  1.00  0.00    -0.180 C  
HETATM   31  O   UNL     1      -5.753  20.421  67.822  1.00  0.00    -0.190 OA 
HETATM   32  H   UNL     1      -4.820  20.518  67.970  1.00  0.00     0.000 HD 
ENDBRANCH  28  30
ENDBRANCH   9  28
TORSDOF 2
ENDMDL
MODEL       85
REMARK 921   NORMALIZED FREE ENERGY PREDICTED BY IDOCK:   -1.80 KCAL/MOL
REMARK 922        TOTAL FREE ENERGY PREDICTED BY IDOCK:   -1.93 KCAL/MOL
REMARK 923 INTER-LIGAND FREE ENERGY PREDICTED BY IDOCK:   -1.73 KCAL/MOL
REMARK 924 INTRA-LIGAND FREE ENERGY PREDICTED BY IDOCK:   -0.21 KCAL/MOL
REMARK 927      BINDING AFFINITY PREDICTED BY RF-SCORE:    0.00 PKD
ROOT
HETATM    1  C   UNL     1      -7.140  11.022  68.087  1.00  0.00    -0.074 C  
HETATM    2  C   UNL     1      -7.904  11.086  69.430  1.00  0.00     0.001 C  
HETATM    3  C   UNL     1      -8.748   9.834  69.498  1.00  0.00    -0.185 C  
HETATM    4  O   UNL     1      -9.906   9.901  68.657  1.00  0.00    -0.151 OA 
HETATM    5  C   UNL     1     -10.137   8.549  68.278  1.00  0.00    -0.192 C  
HETATM    6  C   UNL     1     -11.133   7.945  69.276  1.00  0.00     0.114 C  
HETATM    7  C   UNL     1     -10.745   8.364  66.896  1.00  0.00    -0.163 C  
HETATM    8  O   UNL     1      -8.877   7.878  68.266  1.00  0.00    -0.130 OA 
HETATM    9  C   UNL     1      -7.896   8.736  68.887  1.00  0.00    -0.104 C  
HETATM   10  C   UNL     1      -6.891   9.473  67.876  1.00  0.00    -0.074 C  
HETATM   11  C   UNL     1      -8.731  12.070  63.602  1.00  0.00     1.153 C  
HETATM   12  C   UNL     1      -5.384   9.293  68.238  1.00  0.00    -0.037 C  
HETATM   13  C   UNL     1      -7.036   8.933  66.429  1.00  0.00    -0.079 C  
HETATM   14  C   UNL     1      -9.473  11.741  64.906  1.00  0.00    -0.054 C  
HETATM   15  C   UNL     1     -10.654  10.849  64.514  1.00  0.00    -0.335 C  
HETATM   16  O   UNL     1     -13.524  12.848  65.141  1.00  0.00    -0.461 OA 
HETATM   17  C   UNL     1      -7.780   9.789  65.402  1.00  0.00    -0.123 C  
HETATM   18  C   UNL     1     -11.946  11.177  64.623  1.00  0.00     0.828 C  
HETATM   19  O   UNL     1      -6.806  10.237  64.438  1.00  0.00    -0.200 OA 
HETATM   20  C   UNL     1      -8.596  10.974  65.972  1.00  0.00    -0.173 C  
HETATM   21  C   UNL     1      -7.685  11.828  66.872  1.00  0.00    -0.129 C  
HETATM   22  H   UNL     1      -7.269  10.768  63.800  1.00  0.00     0.000 HD 
HETATM   23  C   UNL     1      -8.314  13.166  67.299  1.00  0.00    -0.182 C  
HETATM   24  C   UNL     1      -8.924  13.929  66.133  1.00  0.00     0.200 C  
HETATM   25  C   UNL     1      -9.976  13.056  65.512  1.00  0.00    -0.226 C  
HETATM   26  C   UNL     1     -11.273  13.403  65.584  1.00  0.00    -0.307 C  
HETATM   27  C   UNL     1     -12.348  12.506  65.111  1.00  0.00    -0.429 C  
ENDROOT
BRANCH   9  28
HETATM   28  C   UNL     1      -7.251   7.871  69.982  1.00  0.00    -0.062 C  
HETATM   29  O   UNL     1      -6.876   8.337  71.063  1.00  0.00    -0.041 OA 
BRANCH  28  30
HETATM   30  C   UNL     1      -7.062   6.377  69.680  1.00  0.00    -0.073 C  
HETATM   31  O   UNL     1      -6.614   5.637  70.807  1.00  0.00    -0.040 OA 
HETATM   32  H   UNL     1      -6.498   4.713  70.620  1.00  0.00     0.000 HD 
ENDBRANCH  28  30
ENDBRANCH   9  28
TORSDOF 2
ENDMDL
MODEL       86
REMARK 921   NORMALIZED FREE ENERGY PREDICTED BY IDOCK:   -1.17 KCAL/MOL
REMARK 922        TOTAL FREE ENERGY PREDICTED BY IDOCK:   -1.23 KCAL/MOL
REMARK 923 INTER-LIGAND FREE ENERGY PREDICTED BY IDOCK:   -1.21 KCAL/MOL
REMARK 924 INTRA-LIGAND FREE ENERGY PREDICTED BY IDOCK:   -0.02 KCAL/MOL
REMARK 927      BINDING AFFINITY PREDICTED BY RF-SCORE:    0.00 PKD
ROOT
HETATM    1  C   UNL     1      -7.988   8.746  64.833  1.00  0.00    -0.135 C  
HETATM    2  C   UNL     1      -9.471   8.424  64.537  1.00  0.00     1.329 C  
HETATM    3  C   UNL     1     -10.285   9.471  65.263  1.00  0.00     0.417 C  
HETATM    4  O   UNL     1     -10.353   9.236  66.675  1.00  0.00    -0.259 OA 
HETATM    5  C   UNL     1     -10.465  10.538  67.237  1.00  0.00    -0.250 C  
HETATM    6  C   UNL     1     -11.957  10.849  67.410  1.00  0.00     0.774 C  
HETATM    7  C   UNL     1      -9.829  10.702  68.609  1.00  0.00    -0.183 C  
HETATM    8  O   UNL     1      -9.799  11.450  66.363  1.00  0.00    -0.202 OA 
HETATM    9  C   UNL     1      -9.497  10.763  65.129  1.00  0.00    -0.226 C  
HETATM   10  C   UNL     1      -7.965  10.324  64.944  1.00  0.00    -0.146 C  
HETATM   11  C   UNL     1      -5.372   7.746  68.822  1.00  0.00    -0.026 C  
HETATM   12  C   UNL     1      -7.336  10.777  63.590  1.00  0.00     0.328 C  
HETATM   13  C   UNL     1      -7.058  10.934  66.046  1.00  0.00    -0.067 C  
HETATM   14  C   UNL     1      -6.888   7.816  68.576  1.00  0.00    -0.066 C  
HETATM   15  C   UNL     1      -7.493   8.478  69.816  1.00  0.00    -0.071 C  
HETATM   16  O   UNL     1      -9.378   5.897  71.369  1.00  0.00    -0.149 OA 
HETATM   17  C   UNL     1      -6.579  10.027  67.182  1.00  0.00    -0.070 C  
HETATM   18  C   UNL     1      -8.318   7.888  70.688  1.00  0.00    -0.123 C  
HETATM   19  O   UNL     1      -5.156   9.861  67.021  1.00  0.00    -0.040 OA 
HETATM   20  C   UNL     1      -7.296   8.660  67.305  1.00  0.00    -0.088 C  
HETATM   21  C   UNL     1      -7.251   7.942  65.945  1.00  0.00    -0.072 C  
HETATM   22  H   UNL     1      -4.859   9.297  67.726  1.00  0.00     0.000 HD 
HETATM   23  C   UNL     1      -7.714   6.476  66.003  1.00  0.00    -0.093 C  
HETATM   24  C   UNL     1      -7.064   5.696  67.136  1.00  0.00    -0.074 C  
HETATM   25  C   UNL     1      -7.413   6.384  68.425  1.00  0.00    -0.088 C  
HETATM   26  C   UNL     1      -8.208   5.777  69.323  1.00  0.00    -0.105 C  
HETATM   27  C   UNL     1      -8.687   6.472  70.536  1.00  0.00    -0.144 C  
ENDROOT
BRANCH   9  28
HETATM   28  C   UNL     1     -10.091  11.653  64.026  1.00  0.00    -0.323 C  
HETATM   29  O   UNL     1     -10.112  11.315  62.838  1.00  0.00    -0.282 OA 
BRANCH  28  30
HETATM   30  C   UNL     1     -10.653  13.018  64.449  1.00  0.00    -0.409 C  
HETATM   31  O   UNL     1     -12.073  13.050  64.464  1.00  0.00    -0.369 OA 
HETATM   32  H   UNL     1     -12.421  13.895  64.726  1.00  0.00     0.000 HD 
ENDBRANCH  28  30
ENDBRANCH   9  28
TORSDOF 2
ENDMDL
MODEL       87
REMARK 921   NORMALIZED FREE ENERGY PREDICTED BY IDOCK:   -1.02 KCAL/MOL
REMARK 922        TOTAL FREE ENERGY PREDICTED BY IDOCK:   -1.06 KCAL/MOL
REMARK 923 INTER-LIGAND FREE ENERGY PREDICTED BY IDOCK:   -1.21 KCAL/MOL
REMARK 924 INTRA-LIGAND FREE ENERGY PREDICTED BY IDOCK:    0.15 KCAL/MOL
REMARK 927      BINDING AFFINITY PREDICTED BY RF-SCORE:    0.00 PKD
ROOT
HETATM    1  C   UNL     1     -11.850  15.854  69.118  1.00  0.00    -0.340 C  
HETATM    2  C   UNL     1     -13.277  15.259  69.063  1.00  0.00     1.749 C  
HETATM    3  C   UNL     1     -13.228  13.968  69.848  1.00  0.00     0.862 C  
HETATM    4  O   UNL     1     -12.588  12.907  69.129  1.00  0.00     0.198 OA 
HETATM    5  C   UNL     1     -11.999  12.105  70.145  1.00  0.00    -0.314 C  
HETATM    6  C   UNL     1     -12.998  10.999  70.509  1.00  0.00    -0.162 C  
HETATM    7  C   UNL     1     -10.708  11.407  69.745  1.00  0.00     0.085 C  
HETATM    8  O   UNL     1     -11.681  12.959  71.245  1.00  0.00     0.612 OA 
HETATM    9  C   UNL     1     -12.306  14.242  71.023  1.00  0.00    -0.361 C  
HETATM   10  C   UNL     1     -11.319  15.412  70.541  1.00  0.00    -0.351 C  
HETATM   11  C   UNL     1      -7.917  14.633  66.513  1.00  0.00     0.611 C  
HETATM   12  C   UNL     1     -11.421  16.716  71.391  1.00  0.00     0.077 C  
HETATM   13  C   UNL     1      -9.831  14.978  70.627  1.00  0.00     0.808 C  
HETATM   14  C   UNL     1      -9.228  13.888  66.807  1.00  0.00    -0.267 C  
HETATM   15  C   UNL     1      -8.848  12.423  67.031  1.00  0.00    -0.210 C  
HETATM   16  O   UNL     1     -10.244  10.708  64.249  1.00  0.00    -0.351 OA 
HETATM   17  C   UNL     1      -9.101  14.616  69.332  1.00  0.00     0.135 C  
HETATM   18  C   UNL     1      -9.200  11.399  66.245  1.00  0.00    -0.220 C  
HETATM   19  O   UNL     1      -8.109  15.637  69.105  1.00  0.00    -0.203 OA 
HETATM   20  C   UNL     1      -9.994  14.410  68.085  1.00  0.00    -0.223 C  
HETATM   21  C   UNL     1     -10.899  15.641  67.903  1.00  0.00    -0.306 C  
HETATM   22  H   UNL     1      -7.656  15.413  68.301  1.00  0.00     0.000 HD 
HETATM   23  C   UNL     1     -11.656  15.662  66.564  1.00  0.00     0.284 C  
HETATM   24  C   UNL     1     -10.754  15.376  65.373  1.00  0.00    -0.416 C  
HETATM   25  C   UNL     1     -10.137  14.022  65.580  1.00  0.00    -0.343 C  
HETATM   26  C   UNL     1     -10.457  13.000  64.767  1.00  0.00    -0.382 C  
HETATM   27  C   UNL     1      -9.982  11.624  65.019  1.00  0.00    -0.259 C  
ENDROOT
BRANCH   9  28
HETATM   28  C   UNL     1     -13.115  14.514  72.301  1.00  0.00    -0.374 C  
HETATM   29  O   UNL     1     -14.350  14.506  72.321  1.00  0.00    -0.485 OA 
BRANCH  28  30
HETATM   30  C   UNL     1     -12.326  14.822  73.582  1.00  0.00    -0.352 C  
HETATM   31  O   UNL     1     -13.024  15.684  74.468  1.00  0.00    -0.712 OA 
HETATM   32  H   UNL     1     -12.536  15.875  75.260  1.00  0.00     0.000 HD 
ENDBRANCH  28  30
ENDBRANCH   9  28
TORSDOF 2
ENDMDL
MODEL       88
REMARK 921   NORMALIZED FREE ENERGY PREDICTED BY IDOCK:   -0.66 KCAL/MOL
REMARK 922        TOTAL FREE ENERGY PREDICTED BY IDOCK:   -0.65 KCAL/MOL
REMARK 923 INTER-LIGAND FREE ENERGY PREDICTED BY IDOCK:   -0.64 KCAL/MOL
REMARK 924 INTRA-LIGAND FREE ENERGY PREDICTED BY IDOCK:   -0.02 KCAL/MOL
REMARK 927      BINDING AFFINITY PREDICTED BY RF-SCORE:    0.00 PKD
ROOT
HETATM    1  C   UNL     1      -8.676   7.994  65.562  1.00  0.00    -0.134 C  
HETATM    2  C   UNL     1     -10.012   8.638  65.998  1.00  0.00    -0.090 C  
HETATM    3  C   UNL     1      -9.650   9.792  66.904  1.00  0.00    -0.180 C  
HETATM    4  O   UNL     1      -9.248   9.364  68.212  1.00  0.00    -0.131 OA 
HETATM    5  C   UNL     1      -8.318  10.356  68.631  1.00  0.00    -0.127 C  
HETATM    6  C   UNL     1      -9.090  11.418  69.425  1.00  0.00     0.513 C  
HETATM    7  C   UNL     1      -7.211   9.854  69.545  1.00  0.00    -0.095 C  
HETATM    8  O   UNL     1      -7.683  10.879  67.464  1.00  0.00    -0.105 OA 
HETATM    9  C   UNL     1      -8.397  10.404  66.302  1.00  0.00    -0.146 C  
HETATM   10  C   UNL     1      -7.678   9.220  65.492  1.00  0.00    -0.095 C  
HETATM   11  C   UNL     1      -5.806   4.919  68.022  1.00  0.00    -0.022 C  
HETATM   12  C   UNL     1      -7.540   9.493  63.962  1.00  0.00    -0.122 C  
HETATM   13  C   UNL     1      -6.232   8.973  66.000  1.00  0.00    -0.059 C  
HETATM   14  C   UNL     1      -6.910   5.885  68.479  1.00  0.00    -0.070 C  
HETATM   15  C   UNL     1      -6.418   6.511  69.786  1.00  0.00    -0.043 C  
HETATM   16  O   UNL     1      -8.600   5.212  72.271  1.00  0.00    -0.123 OA 
HETATM   17  C   UNL     1      -5.968   7.752  66.882  1.00  0.00    -0.047 C  
HETATM   18  C   UNL     1      -6.973   6.335  70.990  1.00  0.00    -0.068 C  
HETATM   19  O   UNL     1      -5.153   6.843  66.115  1.00  0.00    -0.020 OA 
HETATM   20  C   UNL     1      -7.220   7.042  67.451  1.00  0.00    -0.090 C  
HETATM   21  C   UNL     1      -8.182   6.713  66.297  1.00  0.00    -0.120 C  
HETATM   22  H   UNL     1      -4.989   6.084  66.664  1.00  0.00     0.000 HD 
HETATM   23  C   UNL     1      -9.347   5.793  66.703  1.00  0.00    -0.155 C  
HETATM   24  C   UNL     1      -8.889   4.577  67.494  1.00  0.00    -0.115 C  
HETATM   25  C   UNL     1      -8.184   5.069  68.726  1.00  0.00    -0.084 C  
HETATM   26  C   UNL     1      -8.718   4.858  69.941  1.00  0.00    -0.117 C  
HETATM   27  C   UNL     1      -8.131   5.444  71.163  1.00  0.00    -0.111 C  
ENDROOT
BRANCH   9  28
HETATM   28  C   UNL     1      -8.737  11.671  65.502  1.00  0.00     0.192 C  
HETATM   29  O   UNL     1      -9.453  11.649  64.496  1.00  0.00    -0.161 OA 
BRANCH  28  30
HETATM   30  C   UNL     1      -8.131  12.996  65.988  1.00  0.00     1.626 C  
HETATM   31  O   UNL     1      -9.079  13.834  66.631  1.00  0.00    -0.335 OA 
HETATM   32  H   UNL     1      -8.704  14.654  66.932  1.00  0.00     0.000 HD 
ENDBRANCH  28  30
ENDBRANCH   9  28
TORSDOF 2
ENDMDL
MODEL       89
REMARK 921   NORMALIZED FREE ENERGY PREDICTED BY IDOCK:    0.06 KCAL/MOL
REMARK 922        TOTAL FREE ENERGY PREDICTED BY IDOCK:    0.15 KCAL/MOL
REMARK 923 INTER-LIGAND FREE ENERGY PREDICTED BY IDOCK:    0.25 KCAL/MOL
REMARK 924 INTRA-LIGAND FREE ENERGY PREDICTED BY IDOCK:   -0.09 KCAL/MOL
REMARK 927      BINDING AFFINITY PREDICTED BY RF-SCORE:    0.00 PKD
ROOT
HETATM    1  C   UNL     1      -9.376  15.961  65.605  1.00  0.00    -0.165 C  
HETATM    2  C   UNL     1      -9.162  14.515  65.102  1.00  0.00     1.146 C  
HETATM    3  C   UNL     1     -10.031  13.632  65.967  1.00  0.00    -0.302 C  
HETATM    4  O   UNL     1      -9.481  13.425  67.274  1.00  0.00    -0.218 OA 
HETATM    5  C   UNL     1     -10.622  13.256  68.107  1.00  0.00    -0.249 C  
HETATM    6  C   UNL     1     -10.917  11.754  68.203  1.00  0.00    -0.275 C  
HETATM    7  C   UNL     1     -10.454  13.755  69.535  1.00  0.00     0.251 C  
HETATM    8  O   UNL     1     -11.695  14.004  67.534  1.00  0.00    -0.343 OA 
HETATM    9  C   UNL     1     -11.302  14.426  66.210  1.00  0.00    -0.350 C  
HETATM   10  C   UNL     1     -10.886  15.970  66.078  1.00  0.00    -0.190 C  
HETATM   11  C   UNL     1      -7.435  18.174  69.489  1.00  0.00     0.273 C  
HETATM   12  C   UNL     1     -11.624  16.728  64.931  1.00  0.00     0.586 C  
HETATM   13  C   UNL     1     -11.208  16.764  67.372  1.00  0.00     0.142 C  
HETATM   14  C   UNL     1      -7.592  16.690  69.122  1.00  0.00    -0.192 C  
HETATM   15  C   UNL     1      -7.965  15.965  70.417  1.00  0.00     1.541 C  
HETATM   16  O   UNL     1      -5.137  13.941  71.147  1.00  0.00    -0.108 OA 
HETATM   17  C   UNL     1     -10.056  17.130  68.309  1.00  0.00    -0.314 C  
HETATM   18  C   UNL     1      -7.208  15.059  71.047  1.00  0.00     1.334 C  
HETATM   19  O   UNL     1      -9.901  18.562  68.251  1.00  0.00    -0.324 OA 
HETATM   20  C   UNL     1      -8.712  16.407  68.046  1.00  0.00    -0.183 C  
HETATM   21  C   UNL     1      -8.324  16.586  66.568  1.00  0.00    -0.327 C  
HETATM   22  H   UNL     1      -9.185  18.789  68.833  1.00  0.00     0.000 HD 
HETATM   23  C   UNL     1      -6.893  16.122  66.242  1.00  0.00     0.927 C  
HETATM   24  C   UNL     1      -5.862  16.659  67.223  1.00  0.00    -0.198 C  
HETATM   25  C   UNL     1      -6.243  16.185  68.597  1.00  0.00    -0.117 C  
HETATM   26  C   UNL     1      -5.464  15.306  69.250  1.00  0.00    -0.096 C  
HETATM   27  C   UNL     1      -5.873  14.709  70.539  1.00  0.00    -0.168 C  
ENDROOT
BRANCH   9  28
HETATM   28  C   UNL     1     -12.434  13.942  65.290  1.00  0.00    -0.478 C  
HETATM   29  O   UNL     1     -13.628  14.124  65.551  1.00  0.00    -0.568 OA 
BRANCH  28  30
HETATM   30  C   UNL     1     -12.031  13.190  64.013  1.00  0.00    -0.460 C  
HETATM   31  O   UNL     1     -12.348  11.807  64.063  1.00  0.00    -0.327 OA 
HETATM   32  H   UNL     1     -12.099  11.341  63.273  1.00  0.00     0.000 HD 
ENDBRANCH  28  30
ENDBRANCH   9  28
TORSDOF 2
ENDMDL
MODEL       90
REMARK 921   NORMALIZED FREE ENERGY PREDICTED BY IDOCK:    0.37 KCAL/MOL
REMARK 922        TOTAL FREE ENERGY PREDICTED BY IDOCK:    0.49 KCAL/MOL
REMARK 923 INTER-LIGAND FREE ENERGY PREDICTED BY IDOCK:    0.42 KCAL/MOL
REMARK 924 INTRA-LIGAND FREE ENERGY PREDICTED BY IDOCK:    0.07 KCAL/MOL
REMARK 927      BINDING AFFINITY PREDICTED BY RF-SCORE:    0.00 PKD
ROOT
HETATM    1  C   UNL     1     -11.526  16.296  67.952  1.00  0.00    -0.056 C  
HETATM    2  C   UNL     1     -11.768  15.360  66.746  1.00  0.00     0.139 C  
HETATM    3  C   UNL     1     -10.926  14.129  66.988  1.00  0.00    -0.300 C  
HETATM    4  O   UNL     1      -9.533  14.353  66.735  1.00  0.00    -0.244 OA 
HETATM    5  C   UNL     1      -8.871  13.472  67.634  1.00  0.00    -0.202 C  
HETATM    6  C   UNL     1      -8.599  12.158  66.889  1.00  0.00    -0.191 C  
HETATM    7  C   UNL     1      -7.526  13.965  68.145  1.00  0.00    -0.126 C  
HETATM    8  O   UNL     1      -9.710  13.305  68.778  1.00  0.00    -0.114 OA 
HETATM    9  C   UNL     1     -11.004  13.871  68.483  1.00  0.00    -0.257 C  
HETATM   10  C   UNL     1     -11.300  15.296  69.158  1.00  0.00    -0.307 C  
HETATM   11  C   UNL     1      -7.764  19.269  68.821  1.00  0.00    -0.397 C  
HETATM   12  C   UNL     1     -12.648  15.357  69.942  1.00  0.00    -0.203 C  
HETATM   13  C   UNL     1     -10.206  15.680  70.189  1.00  0.00    -0.210 C  
HETATM   14  C   UNL     1      -7.925  18.059  67.888  1.00  0.00    -0.241 C  
HETATM   15  C   UNL     1      -6.610  17.280  67.966  1.00  0.00    -0.168 C  
HETATM   16  O   UNL     1      -5.155  17.673  64.748  1.00  0.00     0.053 OA 
HETATM   17  C   UNL     1      -9.167  16.731  69.791  1.00  0.00     0.721 C  
HETATM   18  C   UNL     1      -5.742  17.118  66.961  1.00  0.00    -0.205 C  
HETATM   19  O   UNL     1      -9.413  17.898  70.601  1.00  0.00     2.924 OA 
HETATM   20  C   UNL     1      -9.107  17.090  68.287  1.00  0.00    -0.241 C  
HETATM   21  C   UNL     1     -10.517  17.472  67.803  1.00  0.00    -0.381 C  
HETATM   22  H   UNL     1      -8.768  18.551  70.354  1.00  0.00     0.000 HD 
HETATM   23  C   UNL     1     -10.543  18.081  66.390  1.00  0.00    -0.259 C  
HETATM   24  C   UNL     1      -9.506  19.178  66.202  1.00  0.00    -0.289 C  
HETATM   25  C   UNL     1      -8.153  18.581  66.466  1.00  0.00    -0.299 C  
HETATM   26  C   UNL     1      -7.263  18.454  65.467  1.00  0.00    -0.031 C  
HETATM   27  C   UNL     1      -5.978  17.747  65.652  1.00  0.00    -0.089 C  
ENDROOT
BRANCH   9  28
HETATM   28  C   UNL     1     -12.007  12.747  68.791  1.00  0.00    -0.240 C  
HETATM   29  O   UNL     1     -13.229  12.921  68.765  1.00  0.00     1.957 OA 
BRANCH  28  30
HETATM   30  C   UNL     1     -11.432  11.372  69.162  1.00  0.00    -0.299 C  
HETATM   31  O   UNL     1     -10.730  11.380  70.396  1.00  0.00    -0.026 OA 
HETATM   32  H   UNL     1     -10.374  10.530  70.626  1.00  0.00     0.000 HD 
ENDBRANCH  28  30
ENDBRANCH   9  28
TORSDOF 2
ENDMDL
MODEL       91
REMARK 921   NORMALIZED FREE ENERGY PREDICTED BY IDOCK:    0.97 KCAL/MOL
REMARK 922        TOTAL FREE ENERGY PREDICTED BY IDOCK:    1.16 KCAL/MOL
REMARK 923 INTER-LIGAND FREE ENERGY PREDICTED BY IDOCK:    0.92 KCAL/MOL
REMARK 924 INTRA-LIGAND FREE ENERGY PREDICTED BY IDOCK:    0.24 KCAL/MOL
REMARK 927      BINDING AFFINITY PREDICTED BY RF-SCORE:    0.00 PKD
ROOT
HETATM    1  C   UNL     1      -6.756   8.902  69.130  1.00  0.00    -0.051 C  
HETATM    2  C   UNL     1      -7.742   9.044  70.312  1.00  0.00    -0.098 C  
HETATM    3  C   UNL     1      -8.697   7.877  70.210  1.00  0.00    -0.138 C  
HETATM    4  O   UNL     1      -9.671   8.048  69.173  1.00  0.00    -0.159 OA 
HETATM    5  C   UNL     1      -9.954   6.723  68.742  1.00  0.00    -0.147 C  
HETATM    6  C   UNL     1     -11.167   6.219  69.534  1.00  0.00    -0.500 C  
HETATM    7  C   UNL     1     -10.315   6.590  67.270  1.00  0.00    -0.283 C  
HETATM    8  O   UNL     1      -8.780   5.936  68.950  1.00  0.00    -0.116 OA 
HETATM    9  C   UNL     1      -7.853   6.701  69.750  1.00  0.00    -0.115 C  
HETATM   10  C   UNL     1      -6.617   7.336  68.948  1.00  0.00    -0.048 C  
HETATM   11  C   UNL     1      -7.398  10.076  64.444  1.00  0.00    -0.138 C  
HETATM   12  C   UNL     1      -5.225   7.017  69.575  1.00  0.00    -0.015 C  
HETATM   13  C   UNL     1      -6.546   6.805  67.491  1.00  0.00    -0.054 C  
HETATM   14  C   UNL     1      -8.393   9.824  65.587  1.00  0.00    -0.138 C  
HETATM   15  C   UNL     1      -9.560   9.045  64.976  1.00  0.00     0.219 C  
HETATM   16  O   UNL     1     -12.298  11.307  65.097  1.00  0.00     0.565 OA 
HETATM   17  C   UNL     1      -7.008   7.723  66.358  1.00  0.00    -0.063 C  
HETATM   18  C   UNL     1     -10.815   9.493  64.852  1.00  0.00     3.061 C  
HETATM   19  O   UNL     1      -5.837   8.073  65.592  1.00  0.00    -0.037 OA 
HETATM   20  C   UNL     1      -7.800   8.983  66.785  1.00  0.00    -0.104 C  
HETATM   21  C   UNL     1      -6.993   9.751  67.846  1.00  0.00    -0.078 C  
HETATM   22  H   UNL     1      -6.125   8.644  64.888  1.00  0.00     0.000 HD 
HETATM   23  C   UNL     1      -7.561  11.143  68.169  1.00  0.00    -0.103 C  
HETATM   24  C   UNL     1      -7.875  11.956  66.922  1.00  0.00    -0.120 C  
HETATM   25  C   UNL     1      -8.874  11.182  66.109  1.00  0.00    -0.195 C  
HETATM   26  C   UNL     1     -10.123  11.650  65.948  1.00  0.00    -0.267 C  
HETATM   27  C   UNL     1     -11.173  10.856  65.276  1.00  0.00     0.288 C  
ENDROOT
BRANCH   9  28
HETATM   28  C   UNL     1      -7.502   5.784  70.933  1.00  0.00    -0.090 C  
HETATM   29  O   UNL     1      -7.914   5.990  72.079  1.00  0.00    -0.105 OA 
BRANCH  28  30
HETATM   30  C   UNL     1      -6.585   4.585  70.647  1.00  0.00    -0.035 C  
HETATM   31  O   UNL     1      -6.407   3.744  71.776  1.00  0.00    -0.014 OA 
HETATM   32  H   UNL     1      -5.840   3.002  71.600  1.00  0.00     0.000 HD 
ENDBRANCH  28  30
ENDBRANCH   9  28
TORSDOF 2
ENDMDL
MODEL       92
REMARK 921   NORMALIZED FREE ENERGY PREDICTED BY IDOCK:    1.27 KCAL/MOL
REMARK 922        TOTAL FREE ENERGY PREDICTED BY IDOCK:    1.49 KCAL/MOL
REMARK 923 INTER-LIGAND FREE ENERGY PREDICTED BY IDOCK:    1.54 KCAL/MOL
REMARK 924 INTRA-LIGAND FREE ENERGY PREDICTED BY IDOCK:   -0.05 KCAL/MOL
REMARK 927      BINDING AFFINITY PREDICTED BY RF-SCORE:    0.00 PKD
ROOT
HETATM    1  C   UNL     1      -9.888  10.865  68.645  1.00  0.00    -0.194 C  
HETATM    2  C   UNL     1      -9.670  10.869  70.175  1.00  0.00     1.022 C  
HETATM    3  C   UNL     1     -10.915  11.477  70.779  1.00  0.00     1.763 C  
HETATM    4  O   UNL     1     -10.966  12.901  70.626  1.00  0.00     1.336 OA 
HETATM    5  C   UNL     1     -12.356  13.191  70.549  1.00  0.00    -0.304 C  
HETATM    6  C   UNL     1     -12.847  13.519  71.965  1.00  0.00    -0.348 C  
HETATM    7  C   UNL     1     -12.715  14.388  69.680  1.00  0.00     0.052 C  
HETATM    8  O   UNL     1     -13.008  12.057  69.976  1.00  0.00     0.341 OA 
HETATM    9  C   UNL     1     -12.069  10.962  69.937  1.00  0.00    -0.354 C  
HETATM   10  C   UNL     1     -11.447  10.642  68.492  1.00  0.00    -0.333 C  
HETATM   11  C   UNL     1      -9.411  14.533  65.472  1.00  0.00     0.042 C  
HETATM   12  C   UNL     1     -11.563   9.145  68.070  1.00  0.00     1.316 C  
HETATM   13  C   UNL     1     -12.161  11.444  67.372  1.00  0.00     0.470 C  
HETATM   14  C   UNL     1      -9.589  14.509  66.998  1.00  0.00    -0.250 C  
HETATM   15  C   UNL     1     -10.537  15.662  67.337  1.00  0.00    -0.301 C  
HETATM   16  O   UNL     1      -8.513  17.983  69.111  1.00  0.00    -0.073 OA 
HETATM   17  C   UNL     1     -11.445  12.657  66.774  1.00  0.00    -0.351 C  
HETATM   18  C   UNL     1     -10.214  16.752  68.043  1.00  0.00    -0.300 C  
HETATM   19  O   UNL     1     -11.105  12.322  65.414  1.00  0.00    -0.293 OA 
HETATM   20  C   UNL     1     -10.210  13.168  67.554  1.00  0.00    -0.225 C  
HETATM   21  C   UNL     1      -9.242  11.995  67.790  1.00  0.00    -0.190 C  
HETATM   22  H   UNL     1     -10.661  13.075  65.042  1.00  0.00     0.000 HD 
HETATM   23  C   UNL     1      -7.870  12.424  68.339  1.00  0.00    -0.142 C  
HETATM   24  C   UNL     1      -7.261  13.583  67.564  1.00  0.00    -0.165 C  
HETATM   25  C   UNL     1      -8.217  14.740  67.641  1.00  0.00    -0.187 C  
HETATM   26  C   UNL     1      -7.880  15.853  68.315  1.00  0.00    -0.138 C  
HETATM   27  C   UNL     1      -8.841  16.954  68.532  1.00  0.00    -0.251 C  
ENDROOT
BRANCH   9  28
HETATM   28  C   UNL     1     -12.786   9.800  70.643  1.00  0.00    -0.074 C  
HETATM   29  O   UNL     1     -13.847   9.323  70.227  1.00  0.00     0.669 OA 
BRANCH  28  30
HETATM   30  C   UNL     1     -12.142   9.249  71.924  1.00  0.00    -0.370 C  
HETATM   31  O   UNL     1     -13.088   8.993  72.952  1.00  0.00    -0.630 OA 
HETATM   32  H   UNL     1     -12.689   8.651  73.744  1.00  0.00     0.000 HD 
ENDBRANCH  28  30
ENDBRANCH   9  28
TORSDOF 2
ENDMDL
MODEL       93
REMARK 921   NORMALIZED FREE ENERGY PREDICTED BY IDOCK:    1.62 KCAL/MOL
REMARK 922        TOTAL FREE ENERGY PREDICTED BY IDOCK:    1.89 KCAL/MOL
REMARK 923 INTER-LIGAND FREE ENERGY PREDICTED BY IDOCK:    1.52 KCAL/MOL
REMARK 924 INTRA-LIGAND FREE ENERGY PREDICTED BY IDOCK:    0.37 KCAL/MOL
REMARK 927      BINDING AFFINITY PREDICTED BY RF-SCORE:    0.00 PKD
ROOT
HETATM    1  C   UNL     1      -8.780   9.263  66.140  1.00  0.00    -0.169 C  
HETATM    2  C   UNL     1      -9.429   8.945  67.507  1.00  0.00    -0.172 C  
HETATM    3  C   UNL     1      -8.293   8.818  68.496  1.00  0.00    -0.129 C  
HETATM    4  O   UNL     1      -7.584   7.579  68.367  1.00  0.00    -0.108 OA 
HETATM    5  C   UNL     1      -6.256   7.897  68.764  1.00  0.00    -0.040 C  
HETATM    6  C   UNL     1      -6.127   7.594  70.263  1.00  0.00    -0.030 C  
HETATM    7  C   UNL     1      -5.167   7.095  68.067  1.00  0.00    -0.020 C  
HETATM    8  O   UNL     1      -6.022   9.270  68.447  1.00  0.00    -0.044 OA 
HETATM    9  C   UNL     1      -7.283   9.878  68.093  1.00  0.00    -0.078 C  
HETATM   10  C   UNL     1      -7.509  10.124  66.524  1.00  0.00    -0.109 C  
HETATM   11  C   UNL     1      -6.625   6.233  62.990  1.00  0.00    -0.040 C  
HETATM   12  C   UNL     1      -7.934  11.582  66.166  1.00  0.00     0.093 C  
HETATM   13  C   UNL     1      -6.215   9.859  65.709  1.00  0.00    -0.082 C  
HETATM   14  C   UNL     1      -6.949   6.102  64.487  1.00  0.00    -0.051 C  
HETATM   15  C   UNL     1      -5.747   5.402  65.125  1.00  0.00    -0.017 C  
HETATM   16  O   UNL     1      -6.994   2.223  66.109  1.00  0.00    -0.042 OA 
HETATM   17  C   UNL     1      -6.112   8.562  64.904  1.00  0.00    -0.060 C  
HETATM   18  C   UNL     1      -5.761   4.184  65.680  1.00  0.00    -0.022 C  
HETATM   19  O   UNL     1      -6.133   8.926  63.509  1.00  0.00    -0.083 OA 
HETATM   20  C   UNL     1      -7.175   7.482  65.220  1.00  0.00    -0.065 C  
HETATM   21  C   UNL     1      -8.577   8.107  65.117  1.00  0.00    -0.097 C  
HETATM   22  H   UNL     1      -6.069   8.121  63.009  1.00  0.00     0.000 HD 
HETATM   23  C   UNL     1      -9.720   7.079  65.170  1.00  0.00     1.672 C  
HETATM   24  C   UNL     1      -9.497   5.901  64.234  1.00  0.00     1.267 C  
HETATM   25  C   UNL     1      -8.207   5.239  64.628  1.00  0.00    -0.134 C  
HETATM   26  C   UNL     1      -8.214   3.999  65.148  1.00  0.00    -0.101 C  
HETATM   27  C   UNL     1      -6.986   3.369  65.676  1.00  0.00    -0.057 C  
ENDROOT
BRANCH   9  28
HETATM   28  C   UNL     1      -7.394  11.113  69.001  1.00  0.00    -0.120 C  
HETATM   29  O   UNL     1      -8.328  11.273  69.793  1.00  0.00     0.526 OA 
BRANCH  28  30
HETATM   30  C   UNL     1      -6.295  12.178  68.880  1.00  0.00    -0.083 C  
HETATM   31  O   UNL     1      -6.700  13.308  68.121  1.00  0.00    -0.087 OA 
HETATM   32  H   UNL     1      -6.020  13.967  68.046  1.00  0.00     0.000 HD 
ENDBRANCH  28  30
ENDBRANCH   9  28
TORSDOF 2
ENDMDL
MODEL       94
REMARK 921   NORMALIZED FREE ENERGY PREDICTED BY IDOCK:    3.24 KCAL/MOL
REMARK 922        TOTAL FREE ENERGY PREDICTED BY IDOCK:    3.70 KCAL/MOL
REMARK 923 INTER-LIGAND FREE ENERGY PREDICTED BY IDOCK:    1.28 KCAL/MOL
REMARK 924 INTRA-LIGAND FREE ENERGY PREDICTED BY IDOCK:    2.41 KCAL/MOL
REMARK 927      BINDING AFFINITY PREDICTED BY RF-SCORE:    0.00 PKD
ROOT
HETATM    1  C   UNL     1      -9.012  17.575  68.700  1.00  0.00    -0.260 C  
HETATM    2  C   UNL     1      -7.772  17.107  69.496  1.00  0.00     0.367 C  
HETATM    3  C   UNL     1      -7.107  16.040  68.657  1.00  0.00    -0.136 C  
HETATM    4  O   UNL     1      -7.802  14.788  68.700  1.00  0.00    -0.126 OA 
HETATM    5  C   UNL     1      -7.544  14.205  67.429  1.00  0.00    -0.158 C  
HETATM    6  C   UNL     1      -6.309  13.305  67.567  1.00  0.00    -0.130 C  
HETATM    7  C   UNL     1      -8.661  13.325  66.888  1.00  0.00    -0.116 C  
HETATM    8  O   UNL     1      -7.364  15.265  66.490  1.00  0.00     0.131 OA 
HETATM    9  C   UNL     1      -7.251  16.506  67.219  1.00  0.00    -0.168 C  
HETATM   10  C   UNL     1      -8.555  17.441  67.190  1.00  0.00    -0.233 C  
HETATM   11  C   UNL     1     -13.374  15.443  68.283  1.00  0.00     3.810 C  
HETATM   12  C   UNL     1      -8.269  18.914  66.762  1.00  0.00    -0.287 C  
HETATM   13  C   UNL     1      -9.614  16.916  66.184  1.00  0.00    -0.280 C  
HETATM   14  C   UNL     1     -12.001  14.903  68.713  1.00  0.00    -0.284 C  
HETATM   15  C   UNL     1     -11.879  13.506  68.100  1.00  0.00    -0.400 C  
HETATM   16  O   UNL     1     -11.950  11.303  70.888  1.00  0.00    -0.326 OA 
HETATM   17  C   UNL     1     -10.847  16.196  66.733  1.00  0.00    -0.162 C  
HETATM   18  C   UNL     1     -11.822  12.358  68.785  1.00  0.00    -0.358 C  
HETATM   19  O   UNL     1     -11.983  17.047  66.478  1.00  0.00     1.910 OA 
HETATM   20  C   UNL     1     -10.781  15.776  68.221  1.00  0.00    -0.281 C  
HETATM   21  C   UNL     1     -10.409  17.001  69.076  1.00  0.00    -0.330 C  
HETATM   22  H   UNL     1     -12.749  16.600  66.819  1.00  0.00     0.000 HD 
HETATM   23  C   UNL     1     -10.550  16.767  70.590  1.00  0.00     0.667 C  
HETATM   24  C   UNL     1     -11.880  16.130  70.966  1.00  0.00    -0.368 C  
HETATM   25  C   UNL     1     -11.981  14.817  70.243  1.00  0.00    -0.367 C  
HETATM   26  C   UNL     1     -11.965  13.663  70.931  1.00  0.00    -0.226 C  
HETATM   27  C   UNL     1     -11.922  12.351  70.253  1.00  0.00    -0.289 C  
ENDROOT
BRANCH   9  28
HETATM   28  C   UNL     1      -5.944  17.141  66.716  1.00  0.00    -0.200 C  
HETATM   29  O   UNL     1      -5.472  16.895  65.602  1.00  0.00     0.212 OA 
BRANCH  28  30
HETATM   30  C   UNL     1      -5.214  18.099  67.668  1.00  0.00    -0.143 C  
HETATM   31  O   UNL     1      -5.589  17.921  69.026  1.00  0.00    -0.182 OA 
HETATM   32  H   UNL     1      -5.137  18.513  69.616  1.00  0.00     0.000 HD 
ENDBRANCH  28  30
ENDBRANCH   9  28
TORSDOF 2
ENDMDL
MODEL       95
REMARK 921   NORMALIZED FREE ENERGY PREDICTED BY IDOCK:    7.86 KCAL/MOL
REMARK 922        TOTAL FREE ENERGY PREDICTED BY IDOCK:    8.85 KCAL/MOL
REMARK 923 INTER-LIGAND FREE ENERGY PREDICTED BY IDOCK:    8.50 KCAL/MOL
REMARK 924 INTRA-LIGAND FREE ENERGY PREDICTED BY IDOCK:    0.36 KCAL/MOL
REMARK 927      BINDING AFFINITY PREDICTED BY RF-SCORE:    0.00 PKD
ROOT
HETATM    1  C   UNL     1     -10.060  13.847  67.466  1.00  0.00    -0.244 C  
HETATM    2  C   UNL     1      -9.845  13.756  68.994  1.00  0.00     0.091 C  
HETATM    3  C   UNL     1      -8.380  14.040  69.234  1.00  0.00     0.378 C  
HETATM    4  O   UNL     1      -7.538  12.932  68.891  1.00  0.00    -0.064 OA 
HETATM    5  C   UNL     1      -6.318  13.537  68.481  1.00  0.00    -0.088 C  
HETATM    6  C   UNL     1      -5.396  13.612  69.704  1.00  0.00    -0.087 C  
HETATM    7  C   UNL     1      -5.552  12.776  67.409  1.00  0.00    -0.057 C  
HETATM    8  O   UNL     1      -6.630  14.818  67.932  1.00  0.00    -0.131 OA 
HETATM    9  C   UNL     1      -8.007  15.123  68.236  1.00  0.00    -0.129 C  
HETATM   10  C   UNL     1      -9.032  14.961  67.012  1.00  0.00    -0.256 C  
HETATM   11  C   UNL     1      -9.049  10.547  64.026  1.00  0.00    -0.256 C  
HETATM   12  C   UNL     1      -9.932  16.213  66.771  1.00  0.00    -0.264 C  
HETATM   13  C   UNL     1      -8.289  14.721  65.671  1.00  0.00     2.444 C  
HETATM   14  C   UNL     1      -8.548  10.716  65.468  1.00  0.00    -0.191 C  
HETATM   15  C   UNL     1      -7.055  10.379  65.445  1.00  0.00    -0.117 C  
HETATM   16  O   UNL     1      -6.798   7.359  67.299  1.00  0.00    -0.072 OA 
HETATM   17  C   UNL     1      -8.271  13.306  65.090  1.00  0.00     4.325 C  
HETATM   18  C   UNL     1      -6.484   9.336  66.058  1.00  0.00    -0.068 C  
HETATM   19  O   UNL     1      -9.069  13.330  63.889  1.00  0.00     1.018 OA 
HETATM   20  C   UNL     1      -8.725  12.175  66.045  1.00  0.00     0.174 C  
HETATM   21  C   UNL     1     -10.101  12.532  66.632  1.00  0.00    -0.241 C  
HETATM   22  H   UNL     1      -9.057  12.451  63.529  1.00  0.00     0.000 HD 
HETATM   23  C   UNL     1     -10.765  11.378  67.404  1.00  0.00    -0.274 C  
HETATM   24  C   UNL     1     -10.741  10.065  66.635  1.00  0.00    -0.128 C  
HETATM   25  C   UNL     1      -9.305   9.723  66.356  1.00  0.00    -0.218 C  
HETATM   26  C   UNL     1      -8.739   8.652  66.937  1.00  0.00    -0.133 C  
HETATM   27  C   UNL     1      -7.297   8.361  66.800  1.00  0.00    -0.083 C  
ENDROOT
BRANCH   9  28
HETATM   28  C   UNL     1      -7.967  16.501  68.915  1.00  0.00    -0.239 C  
HETATM   29  O   UNL     1      -7.957  17.557  68.275  1.00  0.00    -0.240 OA 
BRANCH  28  30
HETATM   30  C   UNL     1      -7.916  16.530  70.450  1.00  0.00     2.514 C  
HETATM   31  O   UNL     1      -6.658  16.125  70.969  1.00  0.00     1.133 OA 
HETATM   32  H   UNL     1      -6.627  16.142  71.919  1.00  0.00     0.000 HD 
ENDBRANCH  28  30
ENDBRANCH   9  28
TORSDOF 2
ENDMDL
MODEL       96
REMARK 921   NORMALIZED FREE ENERGY PREDICTED BY IDOCK:    7.87 KCAL/MOL
REMARK 922        TOTAL FREE ENERGY PREDICTED BY IDOCK:    8.87 KCAL/MOL
REMARK 923 INTER-LIGAND FREE ENERGY PREDICTED BY IDOCK:    8.63 KCAL/MOL
REMARK 924 INTRA-LIGAND FREE ENERGY PREDICTED BY IDOCK:    0.24 KCAL/MOL
REMARK 927      BINDING AFFINITY PREDICTED BY RF-SCORE:    0.00 PKD
ROOT
HETATM    1  C   UNL     1     -10.905  16.270  66.799  1.00  0.00    -0.125 C  
HETATM    2  C   UNL     1     -10.936  17.814  66.871  1.00  0.00     0.110 C  
HETATM    3  C   UNL     1      -9.626  18.236  67.496  1.00  0.00    -0.280 C  
HETATM    4  O   UNL     1      -9.593  18.014  68.912  1.00  0.00    -0.297 OA 
HETATM    5  C   UNL     1      -8.222  17.758  69.190  1.00  0.00     0.096 C  
HETATM    6  C   UNL     1      -7.563  19.088  69.576  1.00  0.00     0.090 C  
HETATM    7  C   UNL     1      -7.969  16.800  70.345  1.00  0.00     2.848 C  
HETATM    8  O   UNL     1      -7.645  17.162  68.028  1.00  0.00    -0.181 OA 
HETATM    9  C   UNL     1      -8.583  17.284  66.938  1.00  0.00    -0.240 C  
HETATM   10  C   UNL     1      -9.375  15.940  66.560  1.00  0.00    -0.306 C  
HETATM   11  C   UNL     1     -11.756  13.019  70.328  1.00  0.00    -0.192 C  
HETATM   12  C   UNL     1      -9.313  15.574  65.044  1.00  0.00     1.036 C  
HETATM   13  C   UNL     1      -8.801  14.707  67.307  1.00  0.00    -0.220 C  
HETATM   14  C   UNL     1     -11.396  14.512  70.369  1.00  0.00    -0.196 C  
HETATM   15  C   UNL     1     -10.413  14.683  71.530  1.00  0.00     1.768 C  
HETATM   16  O   UNL     1     -12.205  16.584  73.938  1.00  0.00    -0.482 OA 
HETATM   17  C   UNL     1      -9.582  14.148  68.498  1.00  0.00    -0.214 C  
HETATM   18  C   UNL     1     -10.646  15.374  72.651  1.00  0.00     1.933 C  
HETATM   19  O   UNL     1     -10.084  12.854  68.105  1.00  0.00    -0.227 OA 
HETATM   20  C   UNL     1     -10.714  15.047  69.050  1.00  0.00    -0.239 C  
HETATM   21  C   UNL     1     -11.648  15.450  67.895  1.00  0.00    -0.267 C  
HETATM   22  H   UNL     1     -10.570  12.507  68.844  1.00  0.00     0.000 HD 
HETATM   23  C   UNL     1     -12.943  16.142  68.356  1.00  0.00     2.776 C  
HETATM   24  C   UNL     1     -13.639  15.395  69.484  1.00  0.00     1.935 C  
HETATM   25  C   UNL     1     -12.680  15.305  70.636  1.00  0.00    -0.470 C  
HETATM   26  C   UNL     1     -12.932  15.964  71.780  1.00  0.00    -0.405 C  
HETATM   27  C   UNL     1     -11.950  16.015  72.883  1.00  0.00    -0.506 C  
ENDROOT
BRANCH   9  28
HETATM   28  C   UNL     1      -7.787  17.949  65.804  1.00  0.00     0.070 C  
HETATM   29  O   UNL     1      -6.747  17.463  65.348  1.00  0.00     0.061 OA 
BRANCH  28  30
HETATM   30  C   UNL     1      -8.323  19.278  65.251  1.00  0.00     1.272 C  
HETATM   31  O   UNL     1      -8.154  20.361  66.155  1.00  0.00    -0.519 OA 
HETATM   32  H   UNL     1      -8.486  21.183  65.813  1.00  0.00     0.000 HD 
ENDBRANCH  28  30
ENDBRANCH   9  28
TORSDOF 2
ENDMDL
MODEL       97
REMARK 921   NORMALIZED FREE ENERGY PREDICTED BY IDOCK:    9.56 KCAL/MOL
REMARK 922        TOTAL FREE ENERGY PREDICTED BY IDOCK:   10.75 KCAL/MOL
REMARK 923 INTER-LIGAND FREE ENERGY PREDICTED BY IDOCK:    8.46 KCAL/MOL
REMARK 924 INTRA-LIGAND FREE ENERGY PREDICTED BY IDOCK:    2.29 KCAL/MOL
REMARK 927      BINDING AFFINITY PREDICTED BY RF-SCORE:    0.00 PKD
ROOT
HETATM    1  C   UNL     1      -8.687  13.206  69.824  1.00  0.00     2.279 C  
HETATM    2  C   UNL     1     -10.097  13.572  70.341  1.00  0.00     2.950 C  
HETATM    3  C   UNL     1     -11.065  13.171  69.252  1.00  0.00    -0.145 C  
HETATM    4  O   UNL     1     -11.062  14.082  68.146  1.00  0.00    -0.246 OA 
HETATM    5  C   UNL     1     -11.387  13.269  67.025  1.00  0.00    -0.312 C  
HETATM    6  C   UNL     1     -12.906  13.330  66.824  1.00  0.00     0.835 C  
HETATM    7  C   UNL     1     -10.760  13.707  65.710  1.00  0.00    -0.280 C  
HETATM    8  O   UNL     1     -10.907  11.950  67.290  1.00  0.00    -0.226 OA 
HETATM    9  C   UNL     1     -10.517  11.876  68.678  1.00  0.00    -0.212 C  
HETATM   10  C   UNL     1      -8.936  11.911  68.950  1.00  0.00     0.160 C  
HETATM   11  C   UNL     1      -5.854  15.617  66.676  1.00  0.00     1.338 C  
HETATM   12  C   UNL     1      -8.424  10.751  69.859  1.00  0.00     0.553 C  
HETATM   13  C   UNL     1      -8.126  11.791  67.632  1.00  0.00    -0.144 C  
HETATM   14  C   UNL     1      -7.363  15.679  66.958  1.00  0.00    -0.203 C  
HETATM   15  C   UNL     1      -8.048  15.827  65.598  1.00  0.00     1.875 C  
HETATM   16  O   UNL     1      -9.423  19.103  65.648  1.00  0.00    -0.308 OA 
HETATM   17  C   UNL     1      -7.473  13.052  67.060  1.00  0.00     0.147 C  
HETATM   18  C   UNL     1      -8.739  16.896  65.187  1.00  0.00     2.429 C  
HETATM   19  O   UNL     1      -6.047  12.884  67.184  1.00  0.00    -0.416 OA 
HETATM   20  C   UNL     1      -7.938  14.394  67.674  1.00  0.00    -0.191 C  
HETATM   21  C   UNL     1      -7.799  14.325  69.205  1.00  0.00     0.018 C  
HETATM   22  H   UNL     1      -5.641  13.667  66.829  1.00  0.00     0.000 HD 
HETATM   23  C   UNL     1      -7.999  15.679  69.908  1.00  0.00     0.206 C  
HETATM   24  C   UNL     1      -7.199  16.801  69.263  1.00  0.00    -0.181 C  
HETATM   25  C   UNL     1      -7.635  16.910  67.829  1.00  0.00    -0.180 C  
HETATM   26  C   UNL     1      -8.294  18.001  67.403  1.00  0.00    -0.233 C  
HETATM   27  C   UNL     1      -8.860  18.088  66.041  1.00  0.00     0.031 C  
ENDROOT
BRANCH   9  28
HETATM   28  C   UNL     1     -11.280  10.664  69.238  1.00  0.00    -0.273 C  
HETATM   29  O   UNL     1     -12.507  10.658  69.379  1.00  0.00    -0.297 OA 
BRANCH  28  30
HETATM   30  C   UNL     1     -10.451   9.437  69.645  1.00  0.00    -0.223 C  
HETATM   31  O   UNL     1     -10.139   9.415  71.031  1.00  0.00    -0.288 OA 
HETATM   32  H   UNL     1      -9.627   8.656  71.283  1.00  0.00     0.000 HD 
ENDBRANCH  28  30
ENDBRANCH   9  28
TORSDOF 2
ENDMDL
MODEL       98
REMARK 921   NORMALIZED FREE ENERGY PREDICTED BY IDOCK:   10.57 KCAL/MOL
REMARK 922        TOTAL FREE ENERGY PREDICTED BY IDOCK:   11.88 KCAL/MOL
REMARK 923 INTER-LIGAND FREE ENERGY PREDICTED BY IDOCK:   11.06 KCAL/MOL
REMARK 924 INTRA-LIGAND FREE ENERGY PREDICTED BY IDOCK:    0.82 KCAL/MOL
REMARK 927      BINDING AFFINITY PREDICTED BY RF-SCORE:    0.00 PKD
ROOT
HETATM    1  C   UNL     1     -10.134  10.694  68.736  1.00  0.00    -0.203 C  
HETATM    2  C   UNL     1      -9.853  10.828  70.250  1.00  0.00     0.941 C  
HETATM    3  C   UNL     1     -10.692  11.987  70.736  1.00  0.00     3.254 C  
HETATM    4  O   UNL     1     -10.149  13.259  70.363  1.00  0.00     2.491 OA 
HETATM    5  C   UNL     1     -11.290  14.096  70.224  1.00  0.00    -0.034 C  
HETATM    6  C   UNL     1     -11.521  14.804  71.565  1.00  0.00    -0.203 C  
HETATM    7  C   UNL     1     -11.159  15.191  69.175  1.00  0.00    -0.263 C  
HETATM    8  O   UNL     1     -12.388  13.275  69.825  1.00  0.00    -0.240 OA 
HETATM    9  C   UNL     1     -11.999  11.892  69.969  1.00  0.00    -0.332 C  
HETATM   10  C   UNL     1     -11.648  11.132  68.599  1.00  0.00    -0.383 C  
HETATM   11  C   UNL     1      -8.332  13.308  65.039  1.00  0.00     4.140 C  
HETATM   12  C   UNL     1     -12.405   9.781  68.413  1.00  0.00     2.944 C  
HETATM   13  C   UNL     1     -12.018  11.988  67.359  1.00  0.00    -0.125 C  
HETATM   14  C   UNL     1      -8.421  13.585  66.548  1.00  0.00     0.298 C  
HETATM   15  C   UNL     1      -8.777  15.066  66.692  1.00  0.00    -0.289 C  
HETATM   16  O   UNL     1      -5.873  16.543  68.111  1.00  0.00    -0.112 OA 
HETATM   17  C   UNL     1     -10.893  12.682  66.590  1.00  0.00    -0.258 C  
HETATM   18  C   UNL     1      -7.989  16.007  67.225  1.00  0.00    -0.207 C  
HETATM   19  O   UNL     1     -10.799  12.039  65.302  1.00  0.00    -0.277 OA 
HETATM   20  C   UNL     1      -9.517  12.729  67.297  1.00  0.00    -0.204 C  
HETATM   21  C   UNL     1      -9.120  11.306  67.725  1.00  0.00    -0.152 C  
HETATM   22  H   UNL     1     -10.100  12.471  64.825  1.00  0.00     0.000 HD 
HETATM   23  C   UNL     1      -7.668  11.189  68.219  1.00  0.00    -0.116 C  
HETATM   24  C   UNL     1      -6.671  11.854  67.282  1.00  0.00    -0.138 C  
HETATM   25  C   UNL     1      -7.047  13.304  67.166  1.00  0.00     0.146 C  
HETATM   26  C   UNL     1      -6.238  14.255  67.663  1.00  0.00    -0.099 C  
HETATM   27  C   UNL     1      -6.634  15.678  67.694  1.00  0.00    -0.172 C  
ENDROOT
BRANCH   9  28
HETATM   28  C   UNL     1     -13.099  11.260  70.837  1.00  0.00    -0.008 C  
HETATM   29  O   UNL     1     -13.704  10.236  70.503  1.00  0.00     0.064 OA 
BRANCH  28  30
HETATM   30  C   UNL     1     -13.448  11.966  72.156  1.00  0.00    -0.195 C  
HETATM   31  O   UNL     1     -14.112  11.116  73.079  1.00  0.00     0.787 OA 
HETATM   32  H   UNL     1     -14.328  11.552  73.895  1.00  0.00     0.000 HD 
ENDBRANCH  28  30
ENDBRANCH   9  28
TORSDOF 2
ENDMDL
MODEL       99
REMARK 921   NORMALIZED FREE ENERGY PREDICTED BY IDOCK:   10.58 KCAL/MOL
REMARK 922        TOTAL FREE ENERGY PREDICTED BY IDOCK:   11.89 KCAL/MOL
REMARK 923 INTER-LIGAND FREE ENERGY PREDICTED BY IDOCK:    9.20 KCAL/MOL
REMARK 924 INTRA-LIGAND FREE ENERGY PREDICTED BY IDOCK:    2.69 KCAL/MOL
REMARK 927      BINDING AFFINITY PREDICTED BY RF-SCORE:    0.00 PKD
ROOT
HETATM    1  C   UNL     1     -11.696  15.987  70.357  1.00  0.00    -0.326 C  
HETATM    2  C   UNL     1     -13.120  15.512  69.986  1.00  0.00     0.214 C  
HETATM    3  C   UNL     1     -13.044  14.008  69.854  1.00  0.00     0.593 C  
HETATM    4  O   UNL     1     -12.417  13.591  68.635  1.00  0.00    -0.082 OA 
HETATM    5  C   UNL     1     -11.797  12.355  68.969  1.00  0.00    -0.300 C  
HETATM    6  C   UNL     1     -12.779  11.228  68.625  1.00  0.00     1.350 C  
HETATM    7  C   UNL     1     -10.513  12.055  68.210  1.00  0.00    -0.218 C  
HETATM    8  O   UNL     1     -11.455  12.399  70.355  1.00  0.00    -0.005 OA 
HETATM    9  C   UNL     1     -12.092  13.552  70.946  1.00  0.00    -0.216 C  
HETATM   10  C   UNL     1     -11.124  14.799  71.233  1.00  0.00     0.065 C  
HETATM   11  C   UNL     1      -7.826  16.623  67.465  1.00  0.00    -0.191 C  
HETATM   12  C   UNL     1     -11.211  15.346  72.692  1.00  0.00    -0.047 C  
HETATM   13  C   UNL     1      -9.633  14.428  71.019  1.00  0.00     3.364 C  
HETATM   14  C   UNL     1      -9.125  15.822  67.284  1.00  0.00    -0.219 C  
HETATM   15  C   UNL     1      -8.731  14.516  66.590  1.00  0.00    -0.162 C  
HETATM   16  O   UNL     1     -10.191  14.752  63.359  1.00  0.00     3.474 OA 
HETATM   17  C   UNL     1      -8.935  14.917  69.748  1.00  0.00     0.229 C  
HETATM   18  C   UNL     1      -9.098  14.149  65.357  1.00  0.00     1.023 C  
HETATM   19  O   UNL     1      -7.955  15.895  70.151  1.00  0.00     0.436 OA 
HETATM   20  C   UNL     1      -9.860  15.472  68.637  1.00  0.00    -0.207 C  
HETATM   21  C   UNL     1     -10.776  16.553  69.236  1.00  0.00    -0.331 C  
HETATM   22  H   UNL     1      -7.522  16.199  69.362  1.00  0.00     0.000 HD 
HETATM   23  C   UNL     1     -11.568  17.347  68.183  1.00  0.00     0.850 C  
HETATM   24  C   UNL     1     -10.696  17.839  67.037  1.00  0.00    -0.192 C  
HETATM   25  C   UNL     1     -10.066  16.638  66.391  1.00  0.00    -0.325 C  
HETATM   26  C   UNL     1     -10.402  16.289  65.137  1.00  0.00    -0.154 C  
HETATM   27  C   UNL     1      -9.913  15.040  64.517  1.00  0.00     0.888 C  
ENDROOT
BRANCH   9  28
HETATM   28  C   UNL     1     -12.868  12.998  72.152  1.00  0.00    -0.148 C  
HETATM   29  O   UNL     1     -12.715  11.845  72.568  1.00  0.00     0.246 OA 
BRANCH  28  30
HETATM   30  C   UNL     1     -13.878  13.935  72.830  1.00  0.00     0.079 C  
HETATM   31  O   UNL     1     -14.287  15.006  71.993  1.00  0.00    -0.488 OA 
HETATM   32  H   UNL     1     -14.912  15.586  72.412  1.00  0.00     0.000 HD 
ENDBRANCH  28  30
ENDBRANCH   9  28
TORSDOF 2
ENDMDL
MODEL      100
REMARK 921   NORMALIZED FREE ENERGY PREDICTED BY IDOCK:   12.12 KCAL/MOL
REMARK 922        TOTAL FREE ENERGY PREDICTED BY IDOCK:   13.62 KCAL/MOL
REMARK 923 INTER-LIGAND FREE ENERGY PREDICTED BY IDOCK:   13.41 KCAL/MOL
REMARK 924 INTRA-LIGAND FREE ENERGY PREDICTED BY IDOCK:    0.20 KCAL/MOL
REMARK 927      BINDING AFFINITY PREDICTED BY RF-SCORE:    0.00 PKD
ROOT
HETATM    1  C   UNL     1      -9.262  14.280  69.721  1.00  0.00     0.893 C  
HETATM    2  C   UNL     1      -9.503  12.758  69.845  1.00  0.00     2.762 C  
HETATM    3  C   UNL     1      -8.400  12.089  69.059  1.00  0.00     0.288 C  
HETATM    4  O   UNL     1      -8.605  12.165  67.643  1.00  0.00    -0.149 OA 
HETATM    5  C   UNL     1      -7.290  12.188  67.102  1.00  0.00    -0.124 C  
HETATM    6  C   UNL     1      -6.891  10.743  66.774  1.00  0.00    -0.115 C  
HETATM    7  C   UNL     1      -7.138  12.981  65.813  1.00  0.00     4.759 C  
HETATM    8  O   UNL     1      -6.433  12.802  68.066  1.00  0.00    -0.074 OA 
HETATM    9  C   UNL     1      -7.157  12.926  69.308  1.00  0.00     0.104 C  
HETATM   10  C   UNL     1      -7.685  14.402  69.650  1.00  0.00     0.220 C  
HETATM   11  C   UNL     1     -10.340  17.264  66.023  1.00  0.00    -0.312 C  
HETATM   12  C   UNL     1      -7.292  14.900  71.076  1.00  0.00     1.504 C  
HETATM   13  C   UNL     1      -7.110  15.458  68.670  1.00  0.00    -0.116 C  
HETATM   14  C   UNL     1     -10.188  15.737  66.102  1.00  0.00    -0.332 C  
HETATM   15  C   UNL     1      -9.471  15.311  64.819  1.00  0.00     1.454 C  
HETATM   16  O   UNL     1     -11.913  13.472  63.007  1.00  0.00    -0.251 OA 
HETATM   17  C   UNL     1      -8.023  16.009  67.573  1.00  0.00    -0.144 C  
HETATM   18  C   UNL     1      -9.998  14.557  63.847  1.00  0.00     3.214 C  
HETATM   19  O   UNL     1      -8.273  17.394  67.886  1.00  0.00    -0.215 OA 
HETATM   20  C   UNL     1      -9.344  15.237  67.339  1.00  0.00    -0.202 C  
HETATM   21  C   UNL     1     -10.087  15.090  68.679  1.00  0.00    -0.233 C  
HETATM   22  H   UNL     1      -8.840  17.737  67.205  1.00  0.00     0.000 HD 
HETATM   23  C   UNL     1     -11.523  14.557  68.536  1.00  0.00    -0.327 C  
HETATM   24  C   UNL     1     -12.319  15.286  67.463  1.00  0.00     0.724 C  
HETATM   25  C   UNL     1     -11.590  15.121  66.160  1.00  0.00    -0.080 C  
HETATM   26  C   UNL     1     -12.135  14.398  65.166  1.00  0.00    -0.395 C  
HETATM   27  C   UNL     1     -11.393  14.096  63.925  1.00  0.00     0.227 C  
ENDROOT
BRANCH   9  28
HETATM   28  C   UNL     1      -6.253  12.263  70.360  1.00  0.00     0.111 C  
HETATM   29  O   UNL     1      -5.292  12.845  70.872  1.00  0.00    -0.148 OA 
BRANCH  28  30
HETATM   30  C   UNL     1      -6.575  10.814  70.753  1.00  0.00     0.406 C  
HETATM   31  O   UNL     1      -6.094   9.866  69.811  1.00  0.00    -0.040 OA 
HETATM   32  H   UNL     1      -6.293   8.969  70.054  1.00  0.00     0.000 HD 
ENDBRANCH  28  30
ENDBRANCH   9  28
TORSDOF 2
ENDMDL
MODEL      101
REMARK 921   NORMALIZED FREE ENERGY PREDICTED BY IDOCK:   12.69 KCAL/MOL
REMARK 922        TOTAL FREE ENERGY PREDICTED BY IDOCK:   14.25 KCAL/MOL
REMARK 923 INTER-LIGAND FREE ENERGY PREDICTED BY IDOCK:   11.74 KCAL/MOL
REMARK 924 INTRA-LIGAND FREE ENERGY PREDICTED BY IDOCK:    2.51 KCAL/MOL
REMARK 927      BINDING AFFINITY PREDICTED BY RF-SCORE:    0.00 PKD
ROOT
HETATM    1  C   UNL     1     -10.841  12.800  70.560  1.00  0.00     2.153 C  
HETATM    2  C   UNL     1      -9.649  13.758  70.330  1.00  0.00     3.276 C  
HETATM    3  C   UNL     1      -9.658  14.102  68.859  1.00  0.00    -0.050 C  
HETATM    4  O   UNL     1      -9.163  13.037  68.039  1.00  0.00    -0.198 OA 
HETATM    5  C   UNL     1      -9.870  13.185  66.813  1.00  0.00    -0.251 C  
HETATM    6  C   UNL     1      -9.013  14.048  65.877  1.00  0.00     0.487 C  
HETATM    7  C   UNL     1     -10.147  11.887  66.070  1.00  0.00    -0.261 C  
HETATM    8  O   UNL     1     -11.139  13.769  67.110  1.00  0.00    -0.291 OA 
HETATM    9  C   UNL     1     -11.124  14.224  68.479  1.00  0.00    -0.257 C  
HETATM   10  C   UNL     1     -11.923  13.300  69.519  1.00  0.00    -0.366 C  
HETATM   11  C   UNL     1     -11.159   8.026  69.636  1.00  0.00    -0.021 C  
HETATM   12  C   UNL     1     -12.947  14.079  70.402  1.00  0.00    -0.124 C  
HETATM   13  C   UNL     1     -12.751  12.205  68.794  1.00  0.00     1.310 C  
HETATM   14  C   UNL     1     -10.205   9.114  69.117  1.00  0.00    -0.215 C  
HETATM   15  C   UNL     1      -9.990   8.821  67.630  1.00  0.00    -0.247 C  
HETATM   16  O   UNL     1      -6.584   7.833  67.403  1.00  0.00    -0.059 OA 
HETATM   17  C   UNL     1     -12.227  10.768  68.804  1.00  0.00     0.193 C  
HETATM   18  C   UNL     1      -8.833   8.452  67.070  1.00  0.00    -0.146 C  
HETATM   19  O   UNL     1     -13.134   9.992  69.613  1.00  0.00    -0.194 OA 
HETATM   20  C   UNL     1     -10.761  10.584  69.266  1.00  0.00    -0.269 C  
HETATM   21  C   UNL     1     -10.572  11.269  70.630  1.00  0.00     1.800 C  
HETATM   22  H   UNL     1     -12.808   9.099  69.619  1.00  0.00     0.000 HD 
HETATM   23  C   UNL     1      -9.227  10.947  71.304  1.00  0.00     6.138 C  
HETATM   24  C   UNL     1      -8.911   9.459  71.309  1.00  0.00     0.119 C  
HETATM   25  C   UNL     1      -8.882   8.991  69.882  1.00  0.00    -0.164 C  
HETATM   26  C   UNL     1      -7.729   8.581  69.327  1.00  0.00    -0.093 C  
HETATM   27  C   UNL     1      -7.629   8.246  67.891  1.00  0.00    -0.102 C  
ENDROOT
BRANCH   9  28
HETATM   28  C   UNL     1     -11.550  15.699  68.410  1.00  0.00    -0.350 C  
HETATM   29  O   UNL     1     -12.087  16.281  69.358  1.00  0.00    -0.109 OA 
BRANCH  28  30
HETATM   30  C   UNL     1     -11.301  16.443  67.090  1.00  0.00     0.280 C  
HETATM   31  O   UNL     1     -11.213  15.572  65.972  1.00  0.00    -0.247 OA 
HETATM   32  H   UNL     1     -11.059  16.032  65.155  1.00  0.00     0.000 HD 
ENDBRANCH  28  30
ENDBRANCH   9  28
TORSDOF 2
ENDMDL
MODEL      102
REMARK 921   NORMALIZED FREE ENERGY PREDICTED BY IDOCK:   15.21 KCAL/MOL
REMARK 922        TOTAL FREE ENERGY PREDICTED BY IDOCK:   17.07 KCAL/MOL
REMARK 923 INTER-LIGAND FREE ENERGY PREDICTED BY IDOCK:   15.70 KCAL/MOL
REMARK 924 INTRA-LIGAND FREE ENERGY PREDICTED BY IDOCK:    1.37 KCAL/MOL
REMARK 927      BINDING AFFINITY PREDICTED BY RF-SCORE:    0.00 PKD
ROOT
HETATM    1  C   UNL     1     -11.842  16.293  68.577  1.00  0.00     0.062 C  
HETATM    2  C   UNL     1     -12.130  16.230  67.060  1.00  0.00     1.551 C  
HETATM    3  C   UNL     1     -11.017  15.410  66.450  1.00  0.00    -0.277 C  
HETATM    4  O   UNL     1      -9.787  16.138  66.346  1.00  0.00    -0.251 OA 
HETATM    5  C   UNL     1      -8.781  15.140  66.472  1.00  0.00    -0.245 C  
HETATM    6  C   UNL     1      -8.402  14.673  65.061  1.00  0.00     5.584 C  
HETATM    7  C   UNL     1      -7.493  15.607  67.133  1.00  0.00    -0.253 C  
HETATM    8  O   UNL     1      -9.306  14.093  67.288  1.00  0.00    -0.209 OA 
HETATM    9  C   UNL     1     -10.723  14.311  67.456  1.00  0.00    -0.270 C  
HETATM   10  C   UNL     1     -11.163  14.896  68.884  1.00  0.00    -0.282 C  
HETATM   11  C   UNL     1      -8.690  19.124  70.986  1.00  0.00     4.017 C  
HETATM   12  C   UNL     1     -12.299  14.083  69.579  1.00  0.00    -0.275 C  
HETATM   13  C   UNL     1      -9.982  14.900  69.890  1.00  0.00     0.080 C  
HETATM   14  C   UNL     1      -8.786  18.717  69.507  1.00  0.00     0.529 C  
HETATM   15  C   UNL     1      -7.350  18.473  69.035  1.00  0.00    -0.243 C  
HETATM   16  O   UNL     1      -6.719  21.097  66.723  1.00  0.00    -0.302 OA 
HETATM   17  C   UNL     1      -9.294  16.230  70.202  1.00  0.00     1.013 C  
HETATM   18  C   UNL     1      -6.698  19.201  68.121  1.00  0.00    -0.264 C  
HETATM   19  O   UNL     1      -9.604  16.557  71.572  1.00  0.00     4.260 OA 
HETATM   20  C   UNL     1      -9.628  17.406  69.252  1.00  0.00     0.042 C  
HETATM   21  C   UNL     1     -11.156  17.563  69.161  1.00  0.00     0.641 C  
HETATM   22  H   UNL     1      -9.176  17.384  71.765  1.00  0.00     0.000 HD 
HETATM   23  C   UNL     1     -11.606  18.846  68.442  1.00  0.00     2.084 C  
HETATM   24  C   UNL     1     -10.884  20.088  68.946  1.00  0.00     0.626 C  
HETATM   25  C   UNL     1      -9.412  19.882  68.732  1.00  0.00    -0.264 C  
HETATM   26  C   UNL     1      -8.745  20.638  67.844  1.00  0.00    -0.014 C  
HETATM   27  C   UNL     1      -7.331  20.376  67.502  1.00  0.00    -0.318 C  
ENDROOT
BRANCH   9  28
HETATM   28  C   UNL     1     -11.380  12.989  67.028  1.00  0.00    -0.301 C  
HETATM   29  O   UNL     1     -11.175  11.923  67.619  1.00  0.00    -0.239 OA 
BRANCH  28  30
HETATM   30  C   UNL     1     -12.306  13.025  65.804  1.00  0.00    -0.416 C  
HETATM   31  O   UNL     1     -11.928  14.012  64.855  1.00  0.00    -0.364 OA 
HETATM   32  H   UNL     1     -12.500  14.034  64.097  1.00  0.00     0.000 HD 
ENDBRANCH  28  30
ENDBRANCH   9  28
TORSDOF 2
ENDMDL
MODEL      103
REMARK 921   NORMALIZED FREE ENERGY PREDICTED BY IDOCK:   15.49 KCAL/MOL
REMARK 922        TOTAL FREE ENERGY PREDICTED BY IDOCK:   17.38 KCAL/MOL
REMARK 923 INTER-LIGAND FREE ENERGY PREDICTED BY IDOCK:   17.02 KCAL/MOL
REMARK 924 INTRA-LIGAND FREE ENERGY PREDICTED BY IDOCK:    0.36 KCAL/MOL
REMARK 927      BINDING AFFINITY PREDICTED BY RF-SCORE:    0.00 PKD
ROOT
HETATM    1  C   UNL     1     -10.448  14.397  66.452  1.00  0.00    -0.295 C  
HETATM    2  C   UNL     1      -9.421  13.271  66.709  1.00  0.00    -0.257 C  
HETATM    3  C   UNL     1     -10.223  12.028  67.017  1.00  0.00    -0.203 C  
HETATM    4  O   UNL     1     -10.777  12.039  68.338  1.00  0.00    -0.211 OA 
HETATM    5  C   UNL     1     -11.979  11.288  68.217  1.00  0.00    -0.145 C  
HETATM    6  C   UNL     1     -11.660   9.830  68.571  1.00  0.00     0.322 C  
HETATM    7  C   UNL     1     -13.104  11.721  69.146  1.00  0.00     2.129 C  
HETATM    8  O   UNL     1     -12.462  11.450  66.883  1.00  0.00     0.846 OA 
HETATM    9  C   UNL     1     -11.431  12.086  66.098  1.00  0.00    -0.339 C  
HETATM   10  C   UNL     1     -11.668  13.641  65.785  1.00  0.00    -0.369 C  
HETATM   11  C   UNL     1     -12.967  17.045  69.674  1.00  0.00     5.973 C  
HETATM   12  C   UNL     1     -11.545  14.009  64.273  1.00  0.00    -0.348 C  
HETATM   13  C   UNL     1     -13.089  14.101  66.207  1.00  0.00     0.597 C  
HETATM   14  C   UNL     1     -12.239  15.698  69.795  1.00  0.00    -0.293 C  
HETATM   15  C   UNL     1     -13.125  14.809  70.671  1.00  0.00    -0.343 C  
HETATM   16  O   UNL     1     -11.266  14.381  73.669  1.00  0.00     0.969 OA 
HETATM   17  C   UNL     1     -13.238  14.927  67.486  1.00  0.00     3.530 C  
HETATM   18  C   UNL     1     -12.808  14.352  71.888  1.00  0.00    -0.426 C  
HETATM   19  O   UNL     1     -13.640  16.254  67.089  1.00  0.00     4.919 OA 
HETATM   20  C   UNL     1     -12.002  14.968  68.415  1.00  0.00    -0.231 C  
HETATM   21  C   UNL     1     -10.770  15.399  67.599  1.00  0.00    -0.292 C  
HETATM   22  H   UNL     1     -13.733  16.767  67.883  1.00  0.00     0.000 HD 
HETATM   23  C   UNL     1      -9.534  15.710  68.460  1.00  0.00    -0.200 C  
HETATM   24  C   UNL     1      -9.849  16.624  69.635  1.00  0.00     0.066 C  
HETATM   25  C   UNL     1     -10.890  15.945  70.479  1.00  0.00    -0.283 C  
HETATM   26  C   UNL     1     -10.586  15.521  71.718  1.00  0.00     0.731 C  
HETATM   27  C   UNL     1     -11.536  14.727  72.525  1.00  0.00     0.194 C  
ENDROOT
BRANCH   9  28
HETATM   28  C   UNL     1     -11.237  11.166  64.881  1.00  0.00     0.043 C  
HETATM   29  O   UNL     1     -10.169  10.593  64.645  1.00  0.00    -0.333 OA 
BRANCH  28  30
HETATM   30  C   UNL     1     -12.433  10.989  63.934  1.00  0.00     1.770 C  
HETATM   31  O   UNL     1     -12.246  11.631  62.681  1.00  0.00    -0.501 OA 
HETATM   32  H   UNL     1     -12.985  11.522  62.095  1.00  0.00     0.000 HD 
ENDBRANCH  28  30
ENDBRANCH   9  28
TORSDOF 2
ENDMDL
MODEL      104
REMARK 921   NORMALIZED FREE ENERGY PREDICTED BY IDOCK:   15.79 KCAL/MOL
REMARK 922        TOTAL FREE ENERGY PREDICTED BY IDOCK:   17.71 KCAL/MOL
REMARK 923 INTER-LIGAND FREE ENERGY PREDICTED BY IDOCK:   17.48 KCAL/MOL
REMARK 924 INTRA-LIGAND FREE ENERGY PREDICTED BY IDOCK:    0.23 KCAL/MOL
REMARK 927      BINDING AFFINITY PREDICTED BY RF-SCORE:    0.00 PKD
ROOT
HETATM    1  C   UNL     1      -8.224  15.223  70.902  1.00  0.00     2.354 C  
HETATM    2  C   UNL     1      -6.859  15.949  70.910  1.00  0.00     1.608 C  
HETATM    3  C   UNL     1      -6.814  16.782  69.650  1.00  0.00    -0.032 C  
HETATM    4  O   UNL     1      -6.567  15.998  68.477  1.00  0.00    -0.118 OA 
HETATM    5  C   UNL     1      -7.242  16.702  67.441  1.00  0.00    -0.155 C  
HETATM    6  C   UNL     1      -6.234  17.654  66.784  1.00  0.00    -0.205 C  
HETATM    7  C   UNL     1      -7.798  15.827  66.327  1.00  0.00     0.296 C  
HETATM    8  O   UNL     1      -8.354  17.379  68.027  1.00  0.00    -0.218 OA 
HETATM    9  C   UNL     1      -8.225  17.312  69.463  1.00  0.00     0.583 C  
HETATM   10  C   UNL     1      -9.189  16.256  70.191  1.00  0.00     1.109 C  
HETATM   11  C   UNL     1      -9.561  11.236  68.439  1.00  0.00    -0.195 C  
HETATM   12  C   UNL     1     -10.013  16.859  71.371  1.00  0.00     4.346 C  
HETATM   13  C   UNL     1     -10.240  15.669  69.211  1.00  0.00    -0.250 C  
HETATM   14  C   UNL     1      -8.404  12.229  68.241  1.00  0.00    -0.174 C  
HETATM   15  C   UNL     1      -8.276  12.441  66.731  1.00  0.00    -0.028 C  
HETATM   16  O   UNL     1      -5.161  10.953  65.887  1.00  0.00    -0.102 OA 
HETATM   17  C   UNL     1     -10.033  14.247  68.685  1.00  0.00    -0.234 C  
HETATM   18  C   UNL     1      -7.231  12.075  65.980  1.00  0.00     1.068 C  
HETATM   19  O   UNL     1     -11.073  13.429  69.257  1.00  0.00    -0.347 OA 
HETATM   20  C   UNL     1      -8.634  13.631  68.928  1.00  0.00     0.175 C  
HETATM   21  C   UNL     1      -8.286  13.743  70.423  1.00  0.00     3.036 C  
HETATM   22  H   UNL     1     -10.945  12.545  68.931  1.00  0.00     0.000 HD 
HETATM   23  C   UNL     1      -7.031  12.950  70.828  1.00  0.00     2.443 C  
HETATM   24  C   UNL     1      -7.038  11.524  70.299  1.00  0.00     1.011 C  
HETATM   25  C   UNL     1      -7.128  11.591  68.800  1.00  0.00    -0.108 C  
HETATM   26  C   UNL     1      -6.096  11.185  68.042  1.00  0.00    -0.049 C  
HETATM   27  C   UNL     1      -6.088  11.364  66.575  1.00  0.00    -0.121 C  
ENDROOT
BRANCH   9  28
HETATM   28  C   UNL     1      -8.329  18.771  69.937  1.00  0.00     1.193 C  
HETATM   29  O   UNL     1      -9.402  19.290  70.261  1.00  0.00     0.896 OA 
BRANCH  28  30
HETATM   30  C   UNL     1      -7.032  19.592  69.980  1.00  0.00     0.001 C  
HETATM   31  O   UNL     1      -6.722  20.200  68.735  1.00  0.00    -0.307 OA 
HETATM   32  H   UNL     1      -5.920  20.709  68.761  1.00  0.00     0.000 HD 
ENDBRANCH  28  30
ENDBRANCH   9  28
TORSDOF 2
ENDMDL
MODEL      105
REMARK 921   NORMALIZED FREE ENERGY PREDICTED BY IDOCK:   16.46 KCAL/MOL
REMARK 922        TOTAL FREE ENERGY PREDICTED BY IDOCK:   18.46 KCAL/MOL
REMARK 923 INTER-LIGAND FREE ENERGY PREDICTED BY IDOCK:   18.67 KCAL/MOL
REMARK 924 INTRA-LIGAND FREE ENERGY PREDICTED BY IDOCK:   -0.21 KCAL/MOL
REMARK 927      BINDING AFFINITY PREDICTED BY RF-SCORE:    0.00 PKD
ROOT
HETATM    1  C   UNL     1      -8.058  13.967  66.418  1.00  0.00     0.993 C  
HETATM    2  C   UNL     1      -6.787  13.131  66.694  1.00  0.00     1.468 C  
HETATM    3  C   UNL     1      -6.996  12.472  68.038  1.00  0.00    -0.095 C  
HETATM    4  O   UNL     1      -6.826  13.382  69.133  1.00  0.00    -0.108 OA 
HETATM    5  C   UNL     1      -7.701  12.883  70.137  1.00  0.00     2.521 C  
HETATM    6  C   UNL     1      -6.893  11.944  71.041  1.00  0.00     2.871 C  
HETATM    7  C   UNL     1      -8.306  13.943  71.045  1.00  0.00     5.442 C  
HETATM    8  O   UNL     1      -8.791  12.232  69.482  1.00  0.00     1.011 OA 
HETATM    9  C   UNL     1      -8.466  12.096  68.082  1.00  0.00    -0.175 C  
HETATM   10  C   UNL     1      -9.211  13.125  67.101  1.00  0.00    -0.227 C  
HETATM   11  C   UNL     1      -9.288  18.346  68.166  1.00  0.00    -0.331 C  
HETATM   12  C   UNL     1      -9.929  12.443  65.895  1.00  0.00    -0.271 C  
HETATM   13  C   UNL     1     -10.315  13.925  67.842  1.00  0.00    -0.240 C  
HETATM   14  C   UNL     1      -8.277  17.293  68.647  1.00  0.00    -0.262 C  
HETATM   15  C   UNL     1      -8.373  17.273  70.174  1.00  0.00     2.499 C  
HETATM   16  O   UNL     1      -5.259  18.587  71.275  1.00  0.00    -0.297 OA 
HETATM   17  C   UNL     1     -10.033  15.381  68.217  1.00  0.00    -0.214 C  
HETATM   18  C   UNL     1      -7.404  17.645  71.019  1.00  0.00     4.840 C  
HETATM   19  O   UNL     1     -10.898  16.203  67.407  1.00  0.00    -0.322 OA 
HETATM   20  C   UNL     1      -8.558  15.836  68.107  1.00  0.00    -0.164 C  
HETATM   21  C   UNL     1      -8.029  15.498  66.702  1.00  0.00    -0.134 C  
HETATM   22  H   UNL     1     -10.723  17.107  67.640  1.00  0.00     0.000 HD 
HETATM   23  C   UNL     1      -6.656  16.118  66.390  1.00  0.00     0.819 C  
HETATM   24  C   UNL     1      -6.585  17.598  66.739  1.00  0.00    -0.226 C  
HETATM   25  C   UNL     1      -6.879  17.739  68.205  1.00  0.00    -0.213 C  
HETATM   26  C   UNL     1      -5.920  18.151  69.051  1.00  0.00    -0.221 C  
HETATM   27  C   UNL     1      -6.125  18.170  70.514  1.00  0.00     0.278 C  
ENDROOT
BRANCH   9  28
HETATM   28  C   UNL     1      -8.658  10.601  67.776  1.00  0.00    -0.123 C  
HETATM   29  O   UNL     1      -7.743   9.888  67.352  1.00  0.00    -0.092 OA 
BRANCH  28  30
HETATM   30  C   UNL     1     -10.057  10.010  68.000  1.00  0.00    -0.167 C  
HETATM   31  O   UNL     1     -10.244   9.517  69.318  1.00  0.00    -0.186 OA 
HETATM   32  H   UNL     1     -11.110   9.151  69.457  1.00  0.00     0.000 HD 
ENDBRANCH  28  30
ENDBRANCH   9  28
TORSDOF 2
ENDMDL
MODEL      106
REMARK 921   NORMALIZED FREE ENERGY PREDICTED BY IDOCK:   22.54 KCAL/MOL
REMARK 922        TOTAL FREE ENERGY PREDICTED BY IDOCK:   25.25 KCAL/MOL
REMARK 923 INTER-LIGAND FREE ENERGY PREDICTED BY IDOCK:   24.14 KCAL/MOL
REMARK 924 INTRA-LIGAND FREE ENERGY PREDICTED BY IDOCK:    1.11 KCAL/MOL
REMARK 927      BINDING AFFINITY PREDICTED BY RF-SCORE:    0.00 PKD
ROOT
HETATM    1  C   UNL     1     -10.408  14.355  69.365  1.00  0.00    -0.047 C  
HETATM    2  C   UNL     1     -11.757  13.601  69.338  1.00  0.00    -0.379 C  
HETATM    3  C   UNL     1     -11.559  12.411  68.427  1.00  0.00    -0.324 C  
HETATM    4  O   UNL     1     -11.553  12.772  67.040  1.00  0.00    -0.321 OA 
HETATM    5  C   UNL     1     -10.694  11.812  66.436  1.00  0.00    -0.266 C  
HETATM    6  C   UNL     1     -11.563  10.652  65.934  1.00  0.00     1.241 C  
HETATM    7  C   UNL     1      -9.911  12.317  65.233  1.00  0.00    -0.199 C  
HETATM    8  O   UNL     1      -9.732  11.412  67.413  1.00  0.00    -0.179 OA 
HETATM    9  C   UNL     1     -10.148  11.921  68.699  1.00  0.00    -0.177 C  
HETATM   10  C   UNL     1      -9.334  13.200  69.225  1.00  0.00     0.837 C  
HETATM   11  C   UNL     1      -8.542  17.423  66.071  1.00  0.00    -0.108 C  
HETATM   12  C   UNL     1      -8.775  13.043  70.673  1.00  0.00     7.151 C  
HETATM   13  C   UNL     1      -8.099  13.500  68.335  1.00  0.00    -0.145 C  
HETATM   14  C   UNL     1      -9.649  16.362  65.978  1.00  0.00    -0.352 C  
HETATM   15  C   UNL     1      -9.473  15.678  64.620  1.00  0.00     2.274 C  
HETATM   16  O   UNL     1     -12.331  16.665  62.753  1.00  0.00     5.031 OA 
HETATM   17  C   UNL     1      -8.174  14.671  67.353  1.00  0.00    -0.201 C  
HETATM   18  C   UNL     1     -10.340  15.735  63.603  1.00  0.00     4.918 C  
HETATM   19  O   UNL     1      -7.258  15.680  67.826  1.00  0.00    -0.128 OA 
HETATM   20  C   UNL     1      -9.584  15.261  67.108  1.00  0.00    -0.223 C  
HETATM   21  C   UNL     1     -10.228  15.610  68.461  1.00  0.00    -0.211 C  
HETATM   22  H   UNL     1      -7.305  16.407  67.216  1.00  0.00     0.000 HD 
HETATM   23  C   UNL     1     -11.527  16.425  68.338  1.00  0.00    -0.181 C  
HETATM   24  C   UNL     1     -11.391  17.610  67.393  1.00  0.00     0.564 C  
HETATM   25  C   UNL     1     -11.002  17.079  66.043  1.00  0.00     0.161 C  
HETATM   26  C   UNL     1     -11.854  17.171  65.008  1.00  0.00     2.096 C  
HETATM   27  C   UNL     1     -11.568  16.539  63.704  1.00  0.00     2.178 C  
ENDROOT
BRANCH   9  28
HETATM   28  C   UNL     1     -10.163  10.694  69.624  1.00  0.00    -0.116 C  
HETATM   29  O   UNL     1      -9.727   9.593  69.274  1.00  0.00    -0.168 OA 
BRANCH  28  30
HETATM   30  C   UNL     1     -10.770  10.874  71.023  1.00  0.00     1.749 C  
HETATM   31  O   UNL     1     -12.157  11.174  70.990  1.00  0.00    -0.335 OA 
HETATM   32  H   UNL     1     -12.533  11.285  71.855  1.00  0.00     0.000 HD 
ENDBRANCH  28  30
ENDBRANCH   9  28
TORSDOF 2
ENDMDL
MODEL      107
REMARK 921   NORMALIZED FREE ENERGY PREDICTED BY IDOCK:   33.65 KCAL/MOL
REMARK 922        TOTAL FREE ENERGY PREDICTED BY IDOCK:   37.66 KCAL/MOL
REMARK 923 INTER-LIGAND FREE ENERGY PREDICTED BY IDOCK:   30.63 KCAL/MOL
REMARK 924 INTRA-LIGAND FREE ENERGY PREDICTED BY IDOCK:    7.03 KCAL/MOL
REMARK 927      BINDING AFFINITY PREDICTED BY RF-SCORE:    0.00 PKD
ROOT
HETATM    1  C   UNL     1      -8.304   8.603  72.786  1.00  0.00    -0.022 C  
HETATM    2  C   UNL     1      -9.489   7.620  72.645  1.00  0.00    -0.230 C  
HETATM    3  C   UNL     1      -9.169   6.736  71.462  1.00  0.00    -0.149 C  
HETATM    4  O   UNL     1      -9.366   7.399  70.207  1.00  0.00    -0.161 OA 
HETATM    5  C   UNL     1      -8.410   6.796  69.343  1.00  0.00    -0.132 C  
HETATM    6  C   UNL     1      -9.099   5.632  68.619  1.00  0.00    -0.124 C  
HETATM    7  C   UNL     1      -7.856   7.710  68.261  1.00  0.00    -0.121 C  
HETATM    8  O   UNL     1      -7.300   6.383  70.141  1.00  0.00    -0.081 OA 
HETATM    9  C   UNL     1      -7.672   6.490  71.532  1.00  0.00    -0.099 C  
HETATM   10  C   UNL     1      -7.057   7.751  72.311  1.00  0.00    -0.079 C  
HETATM   11  C   UNL     1      -7.365  12.656  70.248  1.00  0.00     2.126 C  
HETATM   12  C   UNL     1      -6.338   7.381  73.645  1.00  0.00    -0.064 C  
HETATM   13  C   UNL     1      -5.992   8.489  71.458  1.00  0.00    -0.045 C  
HETATM   14  C   UNL     1      -8.264  11.444  69.957  1.00  0.00     1.761 C  
HETATM   15  C   UNL     1      -8.101  11.139  68.466  1.00  0.00    -0.146 C  
HETATM   16  O   UNL     1     -11.262  11.934  67.049  1.00  0.00    -0.285 OA 
HETATM   17  C   UNL     1      -6.376   9.814  70.798  1.00  0.00    -0.095 C  
HETATM   18  C   UNL     1      -9.060  11.253  67.540  1.00  0.00    -0.151 C  
HETATM   19  O   UNL     1      -5.618  10.850  71.454  1.00  0.00    -0.317 OA 
HETATM   20  C   UNL     1      -7.887  10.149  70.778  1.00  0.00     0.805 C  
HETATM   21  C   UNL     1      -8.447  10.041  72.208  1.00  0.00     4.709 C  
HETATM   22  H   UNL     1      -5.856  11.674  71.044  1.00  0.00     0.000 HD 
HETATM   23  C   UNL     1      -9.878  10.586  72.356  1.00  0.00     8.658 C  
HETATM   24  C   UNL     1     -10.055  11.958  71.724  1.00  0.00    12.085 C  
HETATM   25  C   UNL     1      -9.711  11.840  70.266  1.00  0.00     3.239 C  
HETATM   26  C   UNL     1     -10.664  11.995  69.331  1.00  0.00     0.022 C  
HETATM   27  C   UNL     1     -10.399  11.749  67.898  1.00  0.00    -0.193 C  
ENDROOT
BRANCH   9  28
HETATM   28  C   UNL     1      -7.372   5.106  72.129  1.00  0.00    -0.091 C  
HETATM   29  O   UNL     1      -7.934   4.078  71.738  1.00  0.00    -0.069 OA 
BRANCH  28  30
HETATM   30  C   UNL     1      -6.342   5.037  73.266  1.00  0.00    -0.055 C  
HETATM   31  O   UNL     1      -6.332   6.204  74.074  1.00  0.00    -0.068 OA 
HETATM   32  H   UNL     1      -5.696   6.162  74.778  1.00  0.00     0.000 HD 
ENDBRANCH  28  30
ENDBRANCH   9  28
TORSDOF 2
ENDMDL
MODEL      108
REMARK 921   NORMALIZED FREE ENERGY PREDICTED BY IDOCK:   41.49 KCAL/MOL
REMARK 922        TOTAL FREE ENERGY PREDICTED BY IDOCK:   46.42 KCAL/MOL
REMARK 923 INTER-LIGAND FREE ENERGY PREDICTED BY IDOCK:   46.77 KCAL/MOL
REMARK 924 INTRA-LIGAND FREE ENERGY PREDICTED BY IDOCK:   -0.35 KCAL/MOL
REMARK 927      BINDING AFFINITY PREDICTED BY RF-SCORE:    0.00 PKD
ROOT
HETATM    1  C   UNL     1      -7.937  16.514  69.634  1.00  0.00     0.417 C  
HETATM    2  C   UNL     1      -7.586  17.754  70.488  1.00  0.00     3.328 C  
HETATM    3  C   UNL     1      -8.867  18.542  70.638  1.00  0.00     4.119 C  
HETATM    4  O   UNL     1      -9.214  19.264  69.450  1.00  0.00    -0.139 OA 
HETATM    5  C   UNL     1     -10.635  19.310  69.475  1.00  0.00     0.895 C  
HETATM    6  C   UNL     1     -11.051  20.618  70.161  1.00  0.00     2.456 C  
HETATM    7  C   UNL     1     -11.303  19.309  68.108  1.00  0.00     0.872 C  
HETATM    8  O   UNL     1     -11.098  18.146  70.160  1.00  0.00     1.607 OA 
HETATM    9  C   UNL     1      -9.966  17.506  70.788  1.00  0.00     2.959 C  
HETATM   10  C   UNL     1      -9.428  16.186  70.051  1.00  0.00     0.523 C  
HETATM   11  C   UNL     1      -8.491  16.174  64.805  1.00  0.00     5.538 C  
HETATM   12  C   UNL     1      -9.281  14.950  70.993  1.00  0.00     2.592 C  
HETATM   13  C   UNL     1     -10.386  15.731  68.918  1.00  0.00    -0.224 C  
HETATM   14  C   UNL     1      -8.521  17.376  65.762  1.00  0.00     0.219 C  
HETATM   15  C   UNL     1      -9.645  18.290  65.267  1.00  0.00     1.602 C  
HETATM   16  O   UNL     1      -7.970  21.189  64.075  1.00  0.00     1.158 OA 
HETATM   17  C   UNL     1      -9.984  16.007  67.468  1.00  0.00    -0.240 C  
HETATM   18  C   UNL     1      -9.483  19.520  64.767  1.00  0.00     3.318 C  
HETATM   19  O   UNL     1      -9.709  14.732  66.854  1.00  0.00    -0.227 OA 
HETATM   20  C   UNL     1      -8.809  16.994  67.267  1.00  0.00    -0.221 C  
HETATM   21  C   UNL     1      -7.609  16.531  68.112  1.00  0.00    -0.162 C  
HETATM   22  H   UNL     1      -9.459  14.904  65.954  1.00  0.00     0.000 HD 
HETATM   23  C   UNL     1      -6.306  17.291  67.809  1.00  0.00    -0.161 C  
HETATM   24  C   UNL     1      -6.014  17.388  66.319  1.00  0.00    -0.231 C  
HETATM   25  C   UNL     1      -7.170  18.093  65.668  1.00  0.00    -0.118 C  
HETATM   26  C   UNL     1      -7.002  19.312  65.128  1.00  0.00     0.023 C  
HETATM   27  C   UNL     1      -8.139  20.097  64.604  1.00  0.00     1.871 C  
ENDROOT
BRANCH   9  28
HETATM   28  C   UNL     1     -10.371  17.348  72.263  1.00  0.00     5.360 C  
HETATM   29  O   UNL     1      -9.565  17.474  73.190  1.00  0.00     9.650 OA 
BRANCH  28  30
HETATM   30  C   UNL     1     -11.837  17.000  72.558  1.00  0.00     0.548 C  
HETATM   31  O   UNL     1     -12.455  16.271  71.507  1.00  0.00    -0.564 OA 
HETATM   32  H   UNL     1     -13.362  16.056  71.690  1.00  0.00     0.000 HD 
ENDBRANCH  28  30
ENDBRANCH   9  28
TORSDOF 2
ENDMDL
MODEL      109
REMARK 921   NORMALIZED FREE ENERGY PREDICTED BY IDOCK:   42.81 KCAL/MOL
REMARK 922        TOTAL FREE ENERGY PREDICTED BY IDOCK:   47.89 KCAL/MOL
REMARK 923 INTER-LIGAND FREE ENERGY PREDICTED BY IDOCK:   47.06 KCAL/MOL
REMARK 924 INTRA-LIGAND FREE ENERGY PREDICTED BY IDOCK:    0.83 KCAL/MOL
REMARK 927      BINDING AFFINITY PREDICTED BY RF-SCORE:    0.00 PKD
ROOT
HETATM    1  C   UNL     1     -11.786  13.229  68.623  1.00  0.00    -0.376 C  
HETATM    2  C   UNL     1     -11.546  13.765  67.193  1.00  0.00    -0.392 C  
HETATM    3  C   UNL     1     -10.120  13.411  66.840  1.00  0.00    -0.255 C  
HETATM    4  O   UNL     1      -9.163  14.259  67.487  1.00  0.00    -0.186 OA 
HETATM    5  C   UNL     1      -8.023  13.427  67.659  1.00  0.00    -0.174 C  
HETATM    6  C   UNL     1      -7.103  13.634  66.449  1.00  0.00     2.678 C  
HETATM    7  C   UNL     1      -7.187  13.729  68.894  1.00  0.00    -0.095 C  
HETATM    8  O   UNL     1      -8.481  12.081  67.792  1.00  0.00    -0.141 OA 
HETATM    9  C   UNL     1      -9.881  12.038  67.444  1.00  0.00    -0.184 C  
HETATM   10  C   UNL     1     -10.893  11.923  68.684  1.00  0.00    -0.273 C  
HETATM   11  C   UNL     1     -10.445  15.167  72.889  1.00  0.00     2.934 C  
HETATM   12  C   UNL     1     -11.930  10.765  68.549  1.00  0.00    -0.057 C  
HETATM   13  C   UNL     1     -10.141  11.652  70.014  1.00  0.00     1.542 C  
HETATM   14  C   UNL     1      -9.952  15.399  71.452  1.00  0.00     1.735 C  
HETATM   15  C   UNL     1      -8.431  15.547  71.540  1.00  0.00     4.877 C  
HETATM   16  O   UNL     1      -7.820  18.947  70.705  1.00  0.00     2.449 OA 
HETATM   17  C   UNL     1      -9.971  12.807  71.003  1.00  0.00     8.187 C  
HETATM   18  C   UNL     1      -7.740  16.660  71.266  1.00  0.00     6.242 C  
HETATM   19  O   UNL     1     -10.777  12.498  72.158  1.00  0.00     7.199 OA 
HETATM   20  C   UNL     1     -10.285  14.220  70.457  1.00  0.00     1.436 C  
HETATM   21  C   UNL     1     -11.688  14.216  69.823  1.00  0.00    -0.370 C  
HETATM   22  H   UNL     1     -10.671  13.216  72.772  1.00  0.00     0.000 HD 
HETATM   23  C   UNL     1     -12.210  15.618  69.464  1.00  0.00    -0.231 C  
HETATM   24  C   UNL     1     -12.047  16.616  70.600  1.00  0.00     1.108 C  
HETATM   25  C   UNL     1     -10.585  16.696  70.935  1.00  0.00     0.908 C  
HETATM   26  C   UNL     1      -9.897  17.826  70.699  1.00  0.00     2.928 C  
HETATM   27  C   UNL     1      -8.432  17.901  70.883  1.00  0.00     6.362 C  
ENDROOT
BRANCH   9  28
HETATM   28  C   UNL     1      -9.988  10.942  66.371  1.00  0.00    -0.221 C  
HETATM   29  O   UNL     1     -10.398  11.169  65.228  1.00  0.00    -0.258 OA 
BRANCH  28  30
HETATM   30  C   UNL     1      -9.579   9.518  66.775  1.00  0.00    -0.176 C  
HETATM   31  O   UNL     1      -9.468   9.353  68.181  1.00  0.00    -0.134 OA 
HETATM   32  H   UNL     1      -9.215   8.472  68.431  1.00  0.00     0.000 HD 
ENDBRANCH  28  30
ENDBRANCH   9  28
TORSDOF 2
ENDMDL
MODEL      110
REMARK 921   NORMALIZED FREE ENERGY PREDICTED BY IDOCK:   47.61 KCAL/MOL
REMARK 922        TOTAL FREE ENERGY PREDICTED BY IDOCK:   53.25 KCAL/MOL
REMARK 923 INTER-LIGAND FREE ENERGY PREDICTED BY IDOCK:   52.95 KCAL/MOL
REMARK 924 INTRA-LIGAND FREE ENERGY PREDICTED BY IDOCK:    0.30 KCAL/MOL
REMARK 927      BINDING AFFINITY PREDICTED BY RF-SCORE:    0.00 PKD
ROOT
HETATM    1  C   UNL     1      -7.550  18.074  67.799  1.00  0.00    -0.220 C  
HETATM    2  C   UNL     1      -8.071  17.015  66.800  1.00  0.00    -0.277 C  
HETATM    3  C   UNL     1      -9.530  16.799  67.133  1.00  0.00    -0.232 C  
HETATM    4  O   UNL     1      -9.717  16.008  68.313  1.00  0.00    -0.210 OA 
HETATM    5  C   UNL     1     -10.939  16.487  68.862  1.00  0.00    -0.325 C  
HETATM    6  C   UNL     1     -12.074  15.607  68.323  1.00  0.00     0.145 C  
HETATM    7  C   UNL     1     -11.029  16.427  70.379  1.00  0.00    -0.218 C  
HETATM    8  O   UNL     1     -11.071  17.861  68.497  1.00  0.00     0.071 OA 
HETATM    9  C   UNL     1     -10.068  18.170  67.505  1.00  0.00    -0.349 C  
HETATM   10  C   UNL     1      -8.807  19.005  68.042  1.00  0.00    -0.346 C  
HETATM   11  C   UNL     1      -6.213  17.508  72.450  1.00  0.00     3.460 C  
HETATM   12  C   UNL     1      -8.487  20.279  67.200  1.00  0.00    -0.407 C  
HETATM   13  C   UNL     1      -9.031  19.512  69.491  1.00  0.00     0.248 C  
HETATM   14  C   UNL     1      -7.073  16.644  71.514  1.00  0.00     5.383 C  
HETATM   15  C   UNL     1      -8.231  16.115  72.363  1.00  0.00    12.376 C  
HETATM   16  O   UNL     1      -7.637  12.619  72.594  1.00  0.00    10.432 OA 
HETATM   17  C   UNL     1      -8.311  18.793  70.634  1.00  0.00     3.622 C  
HETATM   18  C   UNL     1      -8.441  14.831  72.678  1.00  0.00     7.847 C  
HETATM   19  O   UNL     1      -7.332  19.711  71.163  1.00  0.00     1.014 OA 
HETATM   20  C   UNL     1      -7.671  17.429  70.281  1.00  0.00     2.537 C  
HETATM   21  C   UNL     1      -6.760  17.601  69.054  1.00  0.00    -0.250 C  
HETATM   22  H   UNL     1      -6.885  19.264  71.873  1.00  0.00     0.000 HD 
HETATM   23  C   UNL     1      -5.882  16.373  68.756  1.00  0.00    -0.126 C  
HETATM   24  C   UNL     1      -5.165  15.848  69.991  1.00  0.00    -0.131 C  
HETATM   25  C   UNL     1      -6.209  15.484  71.008  1.00  0.00     0.542 C  
HETATM   26  C   UNL     1      -6.395  14.200  71.358  1.00  0.00     0.371 C  
HETATM   27  C   UNL     1      -7.500  13.786  72.247  1.00  0.00     6.668 C  
ENDROOT
BRANCH   9  28
HETATM   28  C   UNL     1     -10.848  18.788  66.334  1.00  0.00    -0.102 C  
HETATM   29  O   UNL     1     -11.444  19.866  66.427  1.00  0.00     0.256 OA 
BRANCH  28  30
HETATM   30  C   UNL     1     -10.883  17.999  65.017  1.00  0.00     0.949 C  
HETATM   31  O   UNL     1     -11.618  16.788  65.117  1.00  0.00     0.224 OA 
HETATM   32  H   UNL     1     -11.640  16.300  64.302  1.00  0.00     0.000 HD 
ENDBRANCH  28  30
ENDBRANCH   9  28
TORSDOF 2
ENDMDL
MODEL      111
REMARK 921   NORMALIZED FREE ENERGY PREDICTED BY IDOCK:   49.01 KCAL/MOL
REMARK 922        TOTAL FREE ENERGY PREDICTED BY IDOCK:   54.82 KCAL/MOL
REMARK 923 INTER-LIGAND FREE ENERGY PREDICTED BY IDOCK:   50.13 KCAL/MOL
REMARK 924 INTRA-LIGAND FREE ENERGY PREDICTED BY IDOCK:    4.69 KCAL/MOL
REMARK 927      BINDING AFFINITY PREDICTED BY RF-SCORE:    0.00 PKD
ROOT
HETATM    1  C   UNL     1     -12.388  16.017  66.799  1.00  0.00     2.002 C  
HETATM    2  C   UNL     1     -11.248  17.042  67.000  1.00  0.00     0.378 C  
HETATM    3  C   UNL     1      -9.957  16.262  66.918  1.00  0.00    -0.260 C  
HETATM    4  O   UNL     1      -9.694  15.501  68.103  1.00  0.00    -0.206 OA 
HETATM    5  C   UNL     1      -8.964  14.373  67.636  1.00  0.00    -0.192 C  
HETATM    6  C   UNL     1      -7.470  14.700  67.746  1.00  0.00    -0.180 C  
HETATM    7  C   UNL     1      -9.184  13.092  68.428  1.00  0.00    -0.141 C  
HETATM    8  O   UNL     1      -9.384  14.105  66.297  1.00  0.00    -0.262 OA 
HETATM    9  C   UNL     1     -10.181  15.218  65.837  1.00  0.00    -0.332 C  
HETATM   10  C   UNL     1     -11.764  14.959  65.800  1.00  0.00    -0.179 C  
HETATM   11  C   UNL     1     -14.294  12.882  70.006  1.00  0.00     6.607 C  
HETATM   12  C   UNL     1     -12.430  15.309  64.433  1.00  0.00    -0.044 C  
HETATM   13  C   UNL     1     -12.107  13.468  66.058  1.00  0.00    -0.489 C  
HETATM   14  C   UNL     1     -12.961  13.646  69.981  1.00  0.00     0.322 C  
HETATM   15  C   UNL     1     -11.900  12.673  70.503  1.00  0.00    -0.140 C  
HETATM   16  O   UNL     1     -10.905  14.040  73.629  1.00  0.00     3.157 OA 
HETATM   17  C   UNL     1     -12.656  13.073  67.431  1.00  0.00     0.783 C  
HETATM   18  C   UNL     1     -11.213  12.811  71.642  1.00  0.00     4.344 C  
HETATM   19  O   UNL     1     -14.030  12.677  67.240  1.00  0.00     7.160 OA 
HETATM   20  C   UNL     1     -12.527  14.139  68.545  1.00  0.00     0.200 C  
HETATM   21  C   UNL     1     -13.133  15.464  68.049  1.00  0.00     2.933 C  
HETATM   22  H   UNL     1     -14.371  12.432  68.092  1.00  0.00     0.000 HD 
HETATM   23  C   UNL     1     -13.283  16.528  69.151  1.00  0.00     3.907 C  
HETATM   24  C   UNL     1     -13.937  15.982  70.412  1.00  0.00     2.314 C  
HETATM   25  C   UNL     1     -13.086  14.852  70.918  1.00  0.00    -0.430 C  
HETATM   26  C   UNL     1     -12.425  14.971  72.082  1.00  0.00    -0.421 C  
HETATM   27  C   UNL     1     -11.471  13.943  72.546  1.00  0.00     2.399 C  
ENDROOT
BRANCH   9  28
HETATM   28  C   UNL     1      -9.528  15.651  64.515  1.00  0.00     3.011 C  
HETATM   29  O   UNL     1      -8.330  15.468  64.274  1.00  0.00     6.881 OA 
BRANCH  28  30
HETATM   30  C   UNL     1     -10.424  16.352  63.483  1.00  0.00     5.868 C  
HETATM   31  O   UNL     1     -11.498  15.536  63.039  1.00  0.00     1.144 OA 
HETATM   32  H   UNL     1     -12.053  15.970  62.401  1.00  0.00     0.000 HD 
ENDBRANCH  28  30
ENDBRANCH   9  28
TORSDOF 2
ENDMDL
MODEL      112
REMARK 921   NORMALIZED FREE ENERGY PREDICTED BY IDOCK:   55.20 KCAL/MOL
REMARK 922        TOTAL FREE ENERGY PREDICTED BY IDOCK:   61.74 KCAL/MOL
REMARK 923 INTER-LIGAND FREE ENERGY PREDICTED BY IDOCK:   61.58 KCAL/MOL
REMARK 924 INTRA-LIGAND FREE ENERGY PREDICTED BY IDOCK:    0.15 KCAL/MOL
REMARK 927      BINDING AFFINITY PREDICTED BY RF-SCORE:    0.00 PKD
ROOT
HETATM    1  C   UNL     1     -10.360  12.540  71.082  1.00  0.00     7.084 C  
HETATM    2  C   UNL     1     -11.617  13.429  70.945  1.00  0.00     0.534 C  
HETATM    3  C   UNL     1     -11.776  13.715  69.470  1.00  0.00    -0.322 C  
HETATM    4  O   UNL     1     -10.842  14.691  68.992  1.00  0.00    -0.230 OA 
HETATM    5  C   UNL     1     -10.622  14.324  67.635  1.00  0.00    -0.253 C  
HETATM    6  C   UNL     1     -11.605  15.120  66.767  1.00  0.00    -0.136 C  
HETATM    7  C   UNL     1      -9.230  14.632  67.104  1.00  0.00    -0.231 C  
HETATM    8  O   UNL     1     -10.798  12.910  67.532  1.00  0.00    -0.230 OA 
HETATM    9  C   UNL     1     -11.381  12.431  68.762  1.00  0.00    -0.293 C  
HETATM   10  C   UNL     1     -10.370  11.678  69.754  1.00  0.00     0.657 C  
HETATM   11  C   UNL     1      -5.663  13.838  71.015  1.00  0.00    -0.210 C  
HETATM   12  C   UNL     1     -10.872  10.280  70.229  1.00  0.00    -0.349 C  
HETATM   13  C   UNL     1      -8.996  11.417  69.081  1.00  0.00     0.197 C  
HETATM   14  C   UNL     1      -6.935  14.549  70.526  1.00  0.00     0.356 C  
HETATM   15  C   UNL     1      -6.565  15.225  69.203  1.00  0.00    -0.130 C  
HETATM   16  O   UNL     1      -6.698  18.704  69.918  1.00  0.00    -0.061 OA 
HETATM   17  C   UNL     1      -7.811  12.302  69.473  1.00  0.00     0.897 C  
HETATM   18  C   UNL     1      -6.526  16.546  68.989  1.00  0.00    -0.182 C  
HETATM   19  O   UNL     1      -6.880  11.470  70.193  1.00  0.00    -0.435 OA 
HETATM   20  C   UNL     1      -8.157  13.582  70.272  1.00  0.00     2.919 C  
HETATM   21  C   UNL     1      -9.011  13.200  71.493  1.00  0.00    14.697 C  
HETATM   22  H   UNL     1      -6.144  12.020  70.437  1.00  0.00     0.000 HD 
HETATM   23  C   UNL     1      -9.212  14.351  72.494  1.00  0.00     8.242 C  
HETATM   24  C   UNL     1      -7.913  15.061  72.845  1.00  0.00     7.850 C  
HETATM   25  C   UNL     1      -7.325  15.599  71.571  1.00  0.00     3.698 C  
HETATM   26  C   UNL     1      -7.247  16.926  71.370  1.00  0.00     5.698 C  
HETATM   27  C   UNL     1      -6.807  17.494  70.079  1.00  0.00     0.640 C  
ENDROOT
BRANCH   9  28
HETATM   28  C   UNL     1     -12.626  11.641  68.327  1.00  0.00     1.430 C  
HETATM   29  O   UNL     1     -13.764  12.122  68.360  1.00  0.00     5.486 OA 
BRANCH  28  30
HETATM   30  C   UNL     1     -12.414  10.195  67.857  1.00  0.00     4.068 C  
HETATM   31  O   UNL     1     -11.545  10.099  66.738  1.00  0.00     0.190 OA 
HETATM   32  H   UNL     1     -11.414   9.204  66.447  1.00  0.00     0.000 HD 
ENDBRANCH  28  30
ENDBRANCH   9  28
TORSDOF 2
ENDMDL
MODEL      113
REMARK 921   NORMALIZED FREE ENERGY PREDICTED BY IDOCK:   64.99 KCAL/MOL
REMARK 922        TOTAL FREE ENERGY PREDICTED BY IDOCK:   72.67 KCAL/MOL
REMARK 923 INTER-LIGAND FREE ENERGY PREDICTED BY IDOCK:   72.58 KCAL/MOL
REMARK 924 INTRA-LIGAND FREE ENERGY PREDICTED BY IDOCK:    0.09 KCAL/MOL
REMARK 927      BINDING AFFINITY PREDICTED BY RF-SCORE:    0.00 PKD
ROOT
HETATM    1  C   UNL     1     -11.201  13.325  68.938  1.00  0.00    -0.322 C  
HETATM    2  C   UNL     1     -11.280  11.933  68.269  1.00  0.00    -0.317 C  
HETATM    3  C   UNL     1      -9.962  11.251  68.553  1.00  0.00    -0.202 C  
HETATM    4  O   UNL     1      -8.893  11.753  67.742  1.00  0.00    -0.151 OA 
HETATM    5  C   UNL     1      -7.737  11.597  68.556  1.00  0.00    -0.134 C  
HETATM    6  C   UNL     1      -7.102  10.243  68.216  1.00  0.00    -0.079 C  
HETATM    7  C   UNL     1      -6.655  12.646  68.343  1.00  0.00    -0.081 C  
HETATM    8  O   UNL     1      -8.147  11.700  69.920  1.00  0.00     0.971 OA 
HETATM    9  C   UNL     1      -9.589  11.659  69.968  1.00  0.00     2.224 C  
HETATM   10  C   UNL     1     -10.308  13.071  70.220  1.00  0.00     2.557 C  
HETATM   11  C   UNL     1      -8.981  17.364  67.355  1.00  0.00    -0.232 C  
HETATM   12  C   UNL     1     -11.342  13.055  71.388  1.00  0.00     2.749 C  
HETATM   13  C   UNL     1      -9.284  14.177  70.589  1.00  0.00     3.402 C  
HETATM   14  C   UNL     1      -8.811  15.883  66.982  1.00  0.00    -0.240 C  
HETATM   15  C   UNL     1      -7.308  15.656  66.803  1.00  0.00     0.010 C  
HETATM   16  O   UNL     1      -6.914  15.030  63.327  1.00  0.00    20.076 OA 
HETATM   17  C   UNL     1      -8.911  15.210  69.524  1.00  0.00    -0.124 C  
HETATM   18  C   UNL     1      -6.701  15.345  65.652  1.00  0.00     6.709 C  
HETATM   19  O   UNL     1      -9.447  16.477  69.955  1.00  0.00     0.424 OA 
HETATM   20  C   UNL     1      -9.345  14.878  68.076  1.00  0.00    -0.193 C  
HETATM   21  C   UNL     1     -10.851  14.563  68.060  1.00  0.00    -0.249 C  
HETATM   22  H   UNL     1      -9.215  17.118  69.293  1.00  0.00     0.000 HD 
HETATM   23  C   UNL     1     -11.448  14.457  66.646  1.00  0.00    -0.372 C  
HETATM   24  C   UNL     1     -11.049  15.619  65.749  1.00  0.00    -0.173 C  
HETATM   25  C   UNL     1      -9.549  15.638  65.662  1.00  0.00    -0.319 C  
HETATM   26  C   UNL     1      -8.936  15.366  64.497  1.00  0.00     5.223 C  
HETATM   27  C   UNL     1      -7.467  15.237  64.401  1.00  0.00    15.550 C  
ENDROOT
BRANCH   9  28
HETATM   28  C   UNL     1      -9.919  10.536  70.965  1.00  0.00     2.118 C  
HETATM   29  O   UNL     1     -10.495   9.496  70.629  1.00  0.00    -0.264 OA 
BRANCH  28  30
HETATM   30  C   UNL     1      -9.521  10.757  72.432  1.00  0.00    11.640 C  
HETATM   31  O   UNL     1      -9.612   9.576  73.214  1.00  0.00     2.380 OA 
HETATM   32  H   UNL     1      -9.366   9.712  74.121  1.00  0.00     0.000 HD 
ENDBRANCH  28  30
ENDBRANCH   9  28
TORSDOF 2
ENDMDL
MODEL      114
REMARK 921   NORMALIZED FREE ENERGY PREDICTED BY IDOCK:   75.49 KCAL/MOL
REMARK 922        TOTAL FREE ENERGY PREDICTED BY IDOCK:   84.39 KCAL/MOL
REMARK 923 INTER-LIGAND FREE ENERGY PREDICTED BY IDOCK:   84.09 KCAL/MOL
REMARK 924 INTRA-LIGAND FREE ENERGY PREDICTED BY IDOCK:    0.30 KCAL/MOL
REMARK 927      BINDING AFFINITY PREDICTED BY RF-SCORE:    0.00 PKD
ROOT
HETATM    1  C   UNL     1      -9.653  11.762  69.902  1.00  0.00     1.954 C  
HETATM    2  C   UNL     1      -8.501  12.181  70.845  1.00  0.00     8.788 C  
HETATM    3  C   UNL     1      -8.653  13.669  71.064  1.00  0.00     7.160 C  
HETATM    4  O   UNL     1      -8.221  14.441  69.937  1.00  0.00     0.417 OA 
HETATM    5  C   UNL     1      -9.041  15.603  69.978  1.00  0.00     0.328 C  
HETATM    6  C   UNL     1      -8.287  16.683  70.764  1.00  0.00     4.467 C  
HETATM    7  C   UNL     1      -9.368  16.206  68.620  1.00  0.00    -0.222 C  
HETATM    8  O   UNL     1     -10.285  15.237  70.576  1.00  0.00    -0.144 OA 
HETATM    9  C   UNL     1     -10.149  13.918  71.145  1.00  0.00     4.676 C  
HETATM   10  C   UNL     1     -10.835  12.734  70.306  1.00  0.00     1.416 C  
HETATM   11  C   UNL     1      -9.989  12.253  65.066  1.00  0.00    -0.227 C  
HETATM   12  C   UNL     1     -11.783  11.827  71.149  1.00  0.00     0.763 C  
HETATM   13  C   UNL     1     -11.711  13.286  69.149  1.00  0.00    -0.379 C  
HETATM   14  C   UNL     1      -9.102  12.948  66.111  1.00  0.00     0.063 C  
HETATM   15  C   UNL     1      -9.023  14.419  65.697  1.00  0.00     0.819 C  
HETATM   16  O   UNL     1      -5.640  14.883  64.714  1.00  0.00    13.935 OA 
HETATM   17  C   UNL     1     -11.168  13.206  67.721  1.00  0.00    -0.277 C  
HETATM   18  C   UNL     1      -7.918  15.054  65.289  1.00  0.00     5.725 C  
HETATM   19  O   UNL     1     -11.984  12.253  67.010  1.00  0.00    -0.576 OA 
HETATM   20  C   UNL     1      -9.663  12.870  67.585  1.00  0.00    -0.212 C  
HETATM   21  C   UNL     1      -9.357  11.591  68.383  1.00  0.00    -0.194 C  
HETATM   22  H   UNL     1     -11.647  12.204  66.123  1.00  0.00     0.000 HD 
HETATM   23  C   UNL     1      -7.951  11.022  68.128  1.00  0.00    -0.119 C  
HETATM   24  C   UNL     1      -7.615  10.924  66.647  1.00  0.00    -0.139 C  
HETATM   25  C   UNL     1      -7.713  12.304  66.061  1.00  0.00     1.131 C  
HETATM   26  C   UNL     1      -6.610  12.929  65.613  1.00  0.00     5.791 C  
HETATM   27  C   UNL     1      -6.641  14.335  65.160  1.00  0.00    14.434 C  
ENDROOT
BRANCH   9  28
HETATM   28  C   UNL     1     -10.600  14.069  72.606  1.00  0.00     5.486 C  
HETATM   29  O   UNL     1     -10.914  13.102  73.308  1.00  0.00     7.259 OA 
BRANCH  28  30
HETATM   30  C   UNL     1     -10.670  15.492  73.178  1.00  0.00     2.450 C  
HETATM   31  O   UNL     1     -11.938  16.103  72.987  1.00  0.00    -0.479 OA 
HETATM   32  H   UNL     1     -11.981  16.984  73.341  1.00  0.00     0.000 HD 
ENDBRANCH  28  30
ENDBRANCH   9  28
TORSDOF 2
ENDMDL
MODEL      115
REMARK 921   NORMALIZED FREE ENERGY PREDICTED BY IDOCK:   82.68 KCAL/MOL
REMARK 922        TOTAL FREE ENERGY PREDICTED BY IDOCK:   92.42 KCAL/MOL
REMARK 923 INTER-LIGAND FREE ENERGY PREDICTED BY IDOCK:   92.22 KCAL/MOL
REMARK 924 INTRA-LIGAND FREE ENERGY PREDICTED BY IDOCK:    0.20 KCAL/MOL
REMARK 927      BINDING AFFINITY PREDICTED BY RF-SCORE:    0.00 PKD
ROOT
HETATM    1  C   UNL     1      -7.860  15.932  68.274  1.00  0.00    -0.138 C  
HETATM    2  C   UNL     1      -8.322  14.860  67.260  1.00  0.00    -0.233 C  
HETATM    3  C   UNL     1      -9.798  14.652  67.505  1.00  0.00    -0.218 C  
HETATM    4  O   UNL     1     -10.060  13.878  68.682  1.00  0.00    -0.228 OA 
HETATM    5  C   UNL     1     -11.312  14.367  69.148  1.00  0.00    -0.277 C  
HETATM    6  C   UNL     1     -12.414  13.482  68.552  1.00  0.00     0.307 C  
HETATM    7  C   UNL     1     -11.496  14.328  70.658  1.00  0.00    -0.125 C  
HETATM    8  O   UNL     1     -11.418  15.736  68.756  1.00  0.00    -0.347 OA 
HETATM    9  C   UNL     1     -10.354  16.029  67.825  1.00  0.00    -0.279 C  
HETATM   10  C   UNL     1      -9.126  16.868  68.426  1.00  0.00    -0.243 C  
HETATM   11  C   UNL     1      -6.814  15.427  73.007  1.00  0.00     4.576 C  
HETATM   12  C   UNL     1      -8.751  18.130  67.589  1.00  0.00    -0.249 C  
HETATM   13  C   UNL     1      -9.437  17.396  69.852  1.00  0.00     1.157 C  
HETATM   14  C   UNL     1      -7.617  14.553  72.031  1.00  0.00     4.362 C  
HETATM   15  C   UNL     1      -8.827  14.038  72.814  1.00  0.00    10.940 C  
HETATM   16  O   UNL     1      -8.258  10.544  73.129  1.00  0.00     7.553 OA 
HETATM   17  C   UNL     1      -8.792  16.692  71.047  1.00  0.00     5.456 C  
HETATM   18  C   UNL     1      -9.060  12.759  73.134  1.00  0.00    22.202 C  
HETATM   19  O   UNL     1      -7.845  17.615  71.622  1.00  0.00     8.203 OA 
HETATM   20  C   UNL     1      -8.135  15.321  70.753  1.00  0.00     1.929 C  
HETATM   21  C   UNL     1      -7.150  15.474  69.582  1.00  0.00    -0.170 C  
HETATM   22  H   UNL     1      -7.444  17.177  72.365  1.00  0.00     0.000 HD 
HETATM   23  C   UNL     1      -6.259  14.240  69.356  1.00  0.00    -0.111 C  
HETATM   24  C   UNL     1      -5.621  13.731  70.640  1.00  0.00    -0.165 C  
HETATM   25  C   UNL     1      -6.726  13.384  71.596  1.00  0.00     2.849 C  
HETATM   26  C   UNL     1      -6.938  12.105  71.951  1.00  0.00     6.759 C  
HETATM   27  C   UNL     1      -8.097  11.706  72.775  1.00  0.00    18.992 C  
ENDROOT
BRANCH   9  28
HETATM   28  C   UNL     1     -11.059  16.632  66.599  1.00  0.00     0.247 C  
HETATM   29  O   UNL     1     -11.317  17.837  66.507  1.00  0.00     0.588 OA 
BRANCH  28  30
HETATM   30  C   UNL     1     -11.459  15.670  65.471  1.00  0.00     0.073 C  
HETATM   31  O   UNL     1     -11.321  16.243  64.179  1.00  0.00    -1.184 OA 
HETATM   32  H   UNL     1     -11.569  15.647  63.482  1.00  0.00     0.000 HD 
ENDBRANCH  28  30
ENDBRANCH   9  28
TORSDOF 2
ENDMDL
