MODEL        1
REMARK 921   NORMALIZED FREE ENERGY PREDICTED BY IDOCK:   -7.43 KCAL/MOL
REMARK 922        TOTAL FREE ENERGY PREDICTED BY IDOCK:   -8.73 KCAL/MOL
REMARK 923 INTER-LIGAND FREE ENERGY PREDICTED BY IDOCK:   -9.17 KCAL/MOL
REMARK 924 INTRA-LIGAND FREE ENERGY PREDICTED BY IDOCK:    0.44 KCAL/MOL
REMARK 927      BINDING AFFINITY PREDICTED BY RF-SCORE:    0.00 PKD
ROOT
HETATM    1  C   UNL     1     -11.656  15.780  68.756  1.00  0.00    -0.401 C  
HETATM    2  C   UNL     1     -10.780  16.230  69.787  1.00  0.00    -0.345 C  
HETATM    3  C   UNL     1      -9.994  15.551  68.709  1.00  0.00    -0.214 C  
HETATM    4  C   UNL     1     -11.059  15.119  67.014  1.00  0.00    -0.328 C  
HETATM    5  C   UNL     1      -8.904   9.774  69.829  1.00  0.00    -0.241 C  
HETATM    6  C   UNL     1     -10.492  16.311  67.344  1.00  0.00    -0.304 C  
HETATM    7  C   UNL     1     -10.609  17.739  66.895  1.00  0.00    -0.247 C  
HETATM    8  O   UNL     1     -10.277   7.902  70.451  1.00  0.00    -0.194 OA 
HETATM    9  C   UNL     1     -10.143   9.114  70.338  1.00  0.00    -0.218 C  
HETATM   10  C   UNL     1      -9.040  15.156  66.863  1.00  0.00    -0.270 C  
HETATM   11  C   UNL     1     -11.196  10.042  70.779  1.00  0.00    -0.428 C  
HETATM   12  C   UNL     1      -9.466  13.451  67.209  1.00  0.00    -0.234 C  
HETATM   13  C   UNL     1     -10.393  13.015  68.571  1.00  0.00    -0.247 C  
HETATM   14  C   UNL     1     -11.519  10.907  67.602  1.00  0.00    -0.281 C  
HETATM   15  C   UNL     1     -11.759  13.941  68.957  1.00  0.00    -0.378 C  
HETATM   16  C   UNL     1     -10.643  11.459  68.742  1.00  0.00    -0.235 C  
HETATM   17  C   UNL     1      -9.240  10.727  68.688  1.00  0.00    -0.184 C  
HETATM   18  C   UNL     1     -12.203  13.566  70.375  1.00  0.00    -0.426 C  
HETATM   19  C   UNL     1     -12.529  12.080  70.485  1.00  0.00    -0.292 C  
HETATM   20  C   UNL     1     -11.405  11.159  70.057  1.00  0.00    -0.326 C  
ENDROOT
BRANCH   4  21
HETATM   21  C   UNL     1     -11.167  15.496  65.387  1.00  0.00    -0.228 C  
HETATM   22  O   UNL     1     -10.537  16.362  64.776  1.00  0.00    -0.676 OA 
BRANCH  21  23
HETATM   23  C   UNL     1     -12.170  14.696  64.561  1.00  0.00    -0.456 C  
BRANCH  23  24
HETATM   24  O   UNL     1     -12.258  13.381  65.090  1.00  0.00    -0.385 OA 
BRANCH  24  25
HETATM   25  C   UNL     1     -12.278  12.382  64.175  1.00  0.00    -0.468 C  
HETATM   26  C   UNL     1     -10.905  11.816  63.996  1.00  0.00    -0.446 C  
HETATM   27  O   UNL     1     -13.267  11.990  63.575  1.00  0.00    -0.724 OA 
ENDBRANCH  24  25
ENDBRANCH  23  24
ENDBRANCH  21  23
ENDBRANCH   4  21
TORSDOF 4
ENDMDL
MODEL        2
REMARK 921   NORMALIZED FREE ENERGY PREDICTED BY IDOCK:   -6.77 KCAL/MOL
REMARK 922        TOTAL FREE ENERGY PREDICTED BY IDOCK:   -7.91 KCAL/MOL
REMARK 923 INTER-LIGAND FREE ENERGY PREDICTED BY IDOCK:   -8.22 KCAL/MOL
REMARK 924 INTRA-LIGAND FREE ENERGY PREDICTED BY IDOCK:    0.31 KCAL/MOL
REMARK 927      BINDING AFFINITY PREDICTED BY RF-SCORE:    0.00 PKD
ROOT
HETATM    1  C   UNL     1     -11.718  15.904  68.967  1.00  0.00    -0.377 C  
HETATM    2  C   UNL     1     -11.253  16.196  70.283  1.00  0.00    -0.389 C  
HETATM    3  C   UNL     1     -10.090  15.943  69.374  1.00  0.00    -0.267 C  
HETATM    4  C   UNL     1     -10.567  15.813  67.387  1.00  0.00    -0.313 C  
HETATM    5  C   UNL     1      -8.103  10.302  69.555  1.00  0.00    -0.170 C  
HETATM    6  C   UNL     1     -10.375  16.948  68.110  1.00  0.00    -0.336 C  
HETATM    7  C   UNL     1     -10.678  18.410  67.951  1.00  0.00    -0.334 C  
HETATM    8  O   UNL     1      -9.152   8.150  69.337  1.00  0.00    -0.147 OA 
HETATM    9  C   UNL     1      -9.258   9.356  69.521  1.00  0.00    -0.176 C  
HETATM   10  C   UNL     1      -8.634  16.186  67.859  1.00  0.00    -0.169 C  
HETATM   11  C   UNL     1     -10.563   9.971  69.808  1.00  0.00    -0.301 C  
HETATM   12  C   UNL     1      -8.756  14.406  67.702  1.00  0.00    -0.191 C  
HETATM   13  C   UNL     1      -9.883  13.500  68.604  1.00  0.00    -0.128 C  
HETATM   14  C   UNL     1     -10.243  11.571  66.930  1.00  0.00    -0.249 C  
HETATM   15  C   UNL     1     -11.470  14.081  68.745  1.00  0.00    -0.327 C  
HETATM   16  C   UNL     1      -9.827  11.933  68.368  1.00  0.00    -0.201 C  
HETATM   17  C   UNL     1      -8.334  11.457  68.587  1.00  0.00    -0.136 C  
HETATM   18  C   UNL     1     -12.169  13.290  69.856  1.00  0.00    -0.313 C  
HETATM   19  C   UNL     1     -12.184  11.795  69.554  1.00  0.00    -0.232 C  
HETATM   20  C   UNL     1     -10.817  11.193  69.303  1.00  0.00    -0.277 C  
ENDROOT
BRANCH   4  21
HETATM   21  C   UNL     1     -10.336  16.577  65.917  1.00  0.00    -0.350 C  
HETATM   22  O   UNL     1      -9.506  17.450  65.650  1.00  0.00    -0.509 OA 
BRANCH  21  23
HETATM   23  C   UNL     1     -11.261  16.168  64.776  1.00  0.00    -0.304 C  
BRANCH  23  24
HETATM   24  O   UNL     1     -11.034  14.801  64.465  1.00  0.00    -0.327 OA 
BRANCH  24  25
HETATM   25  C   UNL     1     -12.145  14.062  64.225  1.00  0.00    -0.445 C  
HETATM   26  C   UNL     1     -12.889  13.821  65.499  1.00  0.00    -0.464 C  
HETATM   27  O   UNL     1     -12.498  13.648  63.131  1.00  0.00    -0.786 OA 
ENDBRANCH  24  25
ENDBRANCH  23  24
ENDBRANCH  21  23
ENDBRANCH   4  21
TORSDOF 4
ENDMDL
MODEL        3
REMARK 921   NORMALIZED FREE ENERGY PREDICTED BY IDOCK:   -6.65 KCAL/MOL
REMARK 922        TOTAL FREE ENERGY PREDICTED BY IDOCK:   -7.76 KCAL/MOL
REMARK 923 INTER-LIGAND FREE ENERGY PREDICTED BY IDOCK:   -8.68 KCAL/MOL
REMARK 924 INTRA-LIGAND FREE ENERGY PREDICTED BY IDOCK:    0.91 KCAL/MOL
REMARK 927      BINDING AFFINITY PREDICTED BY RF-SCORE:    0.00 PKD
ROOT
HETATM    1  C   UNL     1     -11.521  14.480  66.090  1.00  0.00    -0.357 C  
HETATM    2  C   UNL     1     -10.636  14.042  65.062  1.00  0.00    -0.426 C  
HETATM    3  C   UNL     1      -9.942  13.997  66.387  1.00  0.00    -0.301 C  
HETATM    4  C   UNL     1     -11.161  14.300  68.004  1.00  0.00    -0.286 C  
HETATM    5  C   UNL     1      -6.710  18.896  67.554  1.00  0.00    -0.208 C  
HETATM    6  C   UNL     1     -10.976  13.137  67.325  1.00  0.00    -0.288 C  
HETATM    7  C   UNL     1     -11.676  11.814  67.211  1.00  0.00    -0.293 C  
HETATM    8  O   UNL     1      -7.172  21.255  67.516  1.00  0.00    -0.476 OA 
HETATM    9  C   UNL     1      -7.491  20.117  67.195  1.00  0.00    -0.290 C  
HETATM   10  C   UNL     1      -9.372  13.412  68.338  1.00  0.00    -0.165 C  
HETATM   11  C   UNL     1      -8.663  19.866  66.342  1.00  0.00    -0.397 C  
HETATM   12  C   UNL     1      -9.095  15.163  68.592  1.00  0.00    -0.195 C  
HETATM   13  C   UNL     1      -9.469  16.315  67.393  1.00  0.00    -0.227 C  
HETATM   14  C   UNL     1      -9.999  18.310  68.939  1.00  0.00    -0.361 C  
HETATM   15  C   UNL     1     -10.939  16.175  66.559  1.00  0.00    -0.047 C  
HETATM   16  C   UNL     1      -9.123  17.815  67.773  1.00  0.00    -0.249 C  
HETATM   17  C   UNL     1      -7.610  17.869  68.232  1.00  0.00    -0.266 C  
HETATM   18  C   UNL     1     -10.881  17.097  65.336  1.00  0.00    -0.051 C  
HETATM   19  C   UNL     1     -10.643  18.549  65.739  1.00  0.00    -0.265 C  
HETATM   20  C   UNL     1      -9.406  18.769  66.584  1.00  0.00    -0.339 C  
ENDROOT
BRANCH   4  21
HETATM   21  C   UNL     1     -11.770  13.538  69.363  1.00  0.00    -0.325 C  
HETATM   22  O   UNL     1     -11.612  12.361  69.697  1.00  0.00    -0.285 OA 
BRANCH  21  23
HETATM   23  C   UNL     1     -12.637  14.381  70.294  1.00  0.00    -0.323 C  
BRANCH  23  24
HETATM   24  O   UNL     1     -12.122  14.286  71.614  1.00  0.00    -0.323 OA 
BRANCH  24  25
HETATM   25  C   UNL     1     -13.047  14.303  72.606  1.00  0.00    -0.478 C  
HETATM   26  C   UNL     1     -12.641  15.266  73.675  1.00  0.00    -0.712 C  
HETATM   27  O   UNL     1     -14.068  13.633  72.633  1.00  0.00    -0.746 OA 
ENDBRANCH  24  25
ENDBRANCH  23  24
ENDBRANCH  21  23
ENDBRANCH   4  21
TORSDOF 4
ENDMDL
MODEL        4
REMARK 921   NORMALIZED FREE ENERGY PREDICTED BY IDOCK:   -6.65 KCAL/MOL
REMARK 922        TOTAL FREE ENERGY PREDICTED BY IDOCK:   -7.76 KCAL/MOL
REMARK 923 INTER-LIGAND FREE ENERGY PREDICTED BY IDOCK:   -8.47 KCAL/MOL
REMARK 924 INTRA-LIGAND FREE ENERGY PREDICTED BY IDOCK:    0.71 KCAL/MOL
REMARK 927      BINDING AFFINITY PREDICTED BY RF-SCORE:    0.00 PKD
ROOT
HETATM    1  C   UNL     1     -10.932  12.907  63.992  1.00  0.00    -0.447 C  
HETATM    2  C   UNL     1     -12.118  12.276  63.515  1.00  0.00    -0.649 C  
HETATM    3  C   UNL     1     -12.199  12.462  64.998  1.00  0.00    -0.465 C  
HETATM    4  C   UNL     1     -10.717  13.627  65.798  1.00  0.00    -0.280 C  
HETATM    5  C   UNL     1     -10.472   7.648  68.105  1.00  0.00    -0.233 C  
HETATM    6  C   UNL     1     -11.860  14.054  65.197  1.00  0.00    -0.370 C  
HETATM    7  C   UNL     1     -12.377  15.339  64.618  1.00  0.00    -0.080 C  
HETATM    8  O   UNL     1      -8.523   6.241  68.065  1.00  0.00    -0.117 OA 
HETATM    9  C   UNL     1      -9.217   7.090  67.520  1.00  0.00    -0.124 C  
HETATM   10  C   UNL     1     -12.393  13.361  66.903  1.00  0.00    -0.262 C  
HETATM   11  C   UNL     1      -8.895   7.584  66.171  1.00  0.00    -0.185 C  
HETATM   12  C   UNL     1     -11.261  12.078  67.429  1.00  0.00    -0.368 C  
HETATM   13  C   UNL     1     -10.567  10.982  66.323  1.00  0.00    -0.295 C  
HETATM   14  C   UNL     1      -8.356  10.532  67.573  1.00  0.00    -0.118 C  
HETATM   15  C   UNL     1      -9.970  11.578  64.852  1.00  0.00    -0.303 C  
HETATM   16  C   UNL     1      -9.617   9.888  66.968  1.00  0.00    -0.218 C  
HETATM   17  C   UNL     1     -10.415   9.170  68.132  1.00  0.00    -0.260 C  
HETATM   18  C   UNL     1      -9.725  10.385  63.921  1.00  0.00    -0.367 C  
HETATM   19  C   UNL     1      -8.733   9.397  64.527  1.00  0.00    -0.233 C  
HETATM   20  C   UNL     1      -9.119   8.883  65.898  1.00  0.00    -0.271 C  
ENDROOT
BRANCH   4  21
HETATM   21  C   UNL     1     -10.455  15.082  66.582  1.00  0.00    -0.284 C  
HETATM   22  O   UNL     1     -10.925  15.445  67.663  1.00  0.00    -0.301 OA 
BRANCH  21  23
HETATM   23  C   UNL     1      -9.549  16.088  65.880  1.00  0.00    -0.335 C  
BRANCH  23  24
HETATM   24  O   UNL     1      -9.584  17.316  66.594  1.00  0.00    -0.255 OA 
BRANCH  24  25
HETATM   25  C   UNL     1     -10.446  18.246  66.116  1.00  0.00    -0.383 C  
HETATM   26  C   UNL     1     -10.780  19.238  67.184  1.00  0.00    -0.584 C  
HETATM   27  O   UNL     1     -10.893  18.281  64.980  1.00  0.00    -0.679 OA 
ENDBRANCH  24  25
ENDBRANCH  23  24
ENDBRANCH  21  23
ENDBRANCH   4  21
TORSDOF 4
ENDMDL
MODEL        5
REMARK 921   NORMALIZED FREE ENERGY PREDICTED BY IDOCK:   -6.51 KCAL/MOL
REMARK 922        TOTAL FREE ENERGY PREDICTED BY IDOCK:   -7.59 KCAL/MOL
REMARK 923 INTER-LIGAND FREE ENERGY PREDICTED BY IDOCK:   -8.39 KCAL/MOL
REMARK 924 INTRA-LIGAND FREE ENERGY PREDICTED BY IDOCK:    0.80 KCAL/MOL
REMARK 927      BINDING AFFINITY PREDICTED BY RF-SCORE:    0.00 PKD
ROOT
HETATM    1  C   UNL     1     -11.697  15.291  68.589  1.00  0.00    -0.367 C  
HETATM    2  C   UNL     1     -10.913  15.858  69.637  1.00  0.00    -0.319 C  
HETATM    3  C   UNL     1     -10.027  15.142  68.665  1.00  0.00    -0.220 C  
HETATM    4  C   UNL     1     -10.956  14.535  66.944  1.00  0.00    -0.316 C  
HETATM    5  C   UNL     1      -8.753   9.525  70.287  1.00  0.00    -0.270 C  
HETATM    6  C   UNL     1     -10.467  15.774  67.217  1.00  0.00    -0.308 C  
HETATM    7  C   UNL     1     -10.618  17.158  66.655  1.00  0.00    -0.179 C  
HETATM    8  O   UNL     1     -10.078   7.636  70.962  1.00  0.00    -0.190 OA 
HETATM    9  C   UNL     1      -9.992   8.842  70.766  1.00  0.00    -0.213 C  
HETATM   10  C   UNL     1      -8.935  14.662  66.918  1.00  0.00    -0.275 C  
HETATM   11  C   UNL     1     -11.113   9.745  71.068  1.00  0.00    -0.431 C  
HETATM   12  C   UNL     1      -9.305  12.968  67.365  1.00  0.00    -0.209 C  
HETATM   13  C   UNL     1     -10.300  12.586  68.695  1.00  0.00    -0.193 C  
HETATM   14  C   UNL     1     -11.263  10.359  67.820  1.00  0.00    -0.309 C  
HETATM   15  C   UNL     1     -11.730  13.468  68.923  1.00  0.00    -0.379 C  
HETATM   16  C   UNL     1     -10.490  11.036  68.968  1.00  0.00    -0.242 C  
HETATM   17  C   UNL     1      -9.055  10.374  69.058  1.00  0.00    -0.193 C  
HETATM   18  C   UNL     1     -12.249  13.176  70.335  1.00  0.00    -0.389 C  
HETATM   19  C   UNL     1     -12.515  11.687  70.537  1.00  0.00    -0.344 C  
HETATM   20  C   UNL     1     -11.324  10.795  70.252  1.00  0.00    -0.374 C  
ENDROOT
BRANCH   4  21
HETATM   21  C   UNL     1     -10.973  14.786  65.290  1.00  0.00    -0.374 C  
HETATM   22  O   UNL     1     -10.654  15.813  64.685  1.00  0.00    -0.479 OA 
BRANCH  21  23
HETATM   23  C   UNL     1     -11.453  13.627  64.423  1.00  0.00    -0.386 C  
BRANCH  23  24
HETATM   24  O   UNL     1     -10.342  13.085  63.722  1.00  0.00    -0.349 OA 
BRANCH  24  25
HETATM   25  C   UNL     1     -10.235  11.734  63.752  1.00  0.00    -0.399 C  
HETATM   26  C   UNL     1      -9.179  11.279  62.796  1.00  0.00    -0.354 C  
HETATM   27  O   UNL     1     -10.898  10.985  64.454  1.00  0.00    -0.334 OA 
ENDBRANCH  24  25
ENDBRANCH  23  24
ENDBRANCH  21  23
ENDBRANCH   4  21
TORSDOF 4
ENDMDL
MODEL        6
REMARK 921   NORMALIZED FREE ENERGY PREDICTED BY IDOCK:   -6.51 KCAL/MOL
REMARK 922        TOTAL FREE ENERGY PREDICTED BY IDOCK:   -7.59 KCAL/MOL
REMARK 923 INTER-LIGAND FREE ENERGY PREDICTED BY IDOCK:   -8.00 KCAL/MOL
REMARK 924 INTRA-LIGAND FREE ENERGY PREDICTED BY IDOCK:    0.41 KCAL/MOL
REMARK 927      BINDING AFFINITY PREDICTED BY RF-SCORE:    0.00 PKD
ROOT
HETATM    1  C   UNL     1      -7.844  13.306  67.462  1.00  0.00    -0.173 C  
HETATM    2  C   UNL     1      -7.274  13.388  68.766  1.00  0.00    -0.092 C  
HETATM    3  C   UNL     1      -8.747  13.649  68.835  1.00  0.00     0.181 C  
HETATM    4  C   UNL     1      -9.767  13.266  67.101  1.00  0.00    -0.236 C  
HETATM    5  C   UNL     1     -10.151  19.464  68.705  1.00  0.00    -0.515 C  
HETATM    6  C   UNL     1      -9.393  12.364  68.047  1.00  0.00    -0.204 C  
HETATM    7  C   UNL     1      -9.260  10.871  68.143  1.00  0.00    -0.158 C  
HETATM    8  O   UNL     1      -9.572  21.294  67.259  1.00  0.00    -0.240 OA 
HETATM    9  C   UNL     1      -9.350  20.156  67.653  1.00  0.00    -0.365 C  
HETATM   10  C   UNL     1     -10.841  13.357  68.814  1.00  0.00    -0.275 C  
HETATM   11  C   UNL     1      -8.195  19.390  67.158  1.00  0.00    -0.299 C  
HETATM   12  C   UNL     1     -10.888  15.011  68.129  1.00  0.00    -0.263 C  
HETATM   13  C   UNL     1      -9.463  15.869  67.755  1.00  0.00    -0.216 C  
HETATM   14  C   UNL     1     -10.381  17.300  65.816  1.00  0.00    -0.245 C  
HETATM   15  C   UNL     1      -8.205  15.053  66.964  1.00  0.00    -0.246 C  
HETATM   16  C   UNL     1      -9.690  17.334  67.192  1.00  0.00    -0.259 C  
HETATM   17  C   UNL     1     -10.631  18.108  68.202  1.00  0.00    -0.320 C  
HETATM   18  C   UNL     1      -6.945  15.923  67.052  1.00  0.00    -0.173 C  
HETATM   19  C   UNL     1      -7.164  17.292  66.415  1.00  0.00    -0.327 C  
HETATM   20  C   UNL     1      -8.339  18.063  66.980  1.00  0.00    -0.248 C  
ENDROOT
BRANCH   4  21
HETATM   21  C   UNL     1     -10.934  12.262  66.446  1.00  0.00    -0.287 C  
HETATM   22  O   UNL     1     -11.968  11.862  66.987  1.00  0.00    -0.615 OA 
BRANCH  21  23
HETATM   23  C   UNL     1     -10.693  11.763  65.025  1.00  0.00    -0.292 C  
BRANCH  23  24
HETATM   24  O   UNL     1     -10.776  12.862  64.130  1.00  0.00    -0.376 OA 
BRANCH  24  25
HETATM   25  C   UNL     1     -12.028  13.211  63.745  1.00  0.00    -0.508 C  
HETATM   26  C   UNL     1     -12.760  12.017  63.224  1.00  0.00    -0.437 C  
HETATM   27  O   UNL     1     -12.501  14.336  63.810  1.00  0.00    -0.810 OA 
ENDBRANCH  24  25
ENDBRANCH  23  24
ENDBRANCH  21  23
ENDBRANCH   4  21
TORSDOF 4
ENDMDL
MODEL        7
REMARK 921   NORMALIZED FREE ENERGY PREDICTED BY IDOCK:   -6.41 KCAL/MOL
REMARK 922        TOTAL FREE ENERGY PREDICTED BY IDOCK:   -7.47 KCAL/MOL
REMARK 923 INTER-LIGAND FREE ENERGY PREDICTED BY IDOCK:   -7.98 KCAL/MOL
REMARK 924 INTRA-LIGAND FREE ENERGY PREDICTED BY IDOCK:    0.52 KCAL/MOL
REMARK 927      BINDING AFFINITY PREDICTED BY RF-SCORE:    0.00 PKD
ROOT
HETATM    1  C   UNL     1     -10.466   9.562  66.869  1.00  0.00    -0.279 C  
HETATM    2  C   UNL     1      -9.608   9.344  65.752  1.00  0.00    -0.340 C  
HETATM    3  C   UNL     1      -8.872  10.085  66.825  1.00  0.00    -0.144 C  
HETATM    4  C   UNL     1      -9.860  10.208  68.614  1.00  0.00    -0.170 C  
HETATM    5  C   UNL     1      -8.905  16.022  66.081  1.00  0.00    -0.366 C  
HETATM    6  C   UNL     1      -9.121   9.162  68.157  1.00  0.00    -0.134 C  
HETATM    7  C   UNL     1      -8.949   7.711  68.502  1.00  0.00    -0.129 C  
HETATM    8  O   UNL     1     -10.630  17.651  65.695  1.00  0.00    -0.565 OA 
HETATM    9  C   UNL     1     -10.276  16.479  65.706  1.00  0.00    -0.329 C  
HETATM   10  C   UNL     1      -7.861  10.527  68.629  1.00  0.00    -0.116 C  
HETATM   11  C   UNL     1     -11.181  15.406  65.265  1.00  0.00    -0.313 C  
HETATM   12  C   UNL     1      -8.606  12.145  68.444  1.00  0.00    -0.141 C  
HETATM   13  C   UNL     1      -9.698  12.492  67.182  1.00  0.00    -0.205 C  
HETATM   14  C   UNL     1     -11.099  14.296  68.381  1.00  0.00    -0.274 C  
HETATM   15  C   UNL     1     -10.906  11.361  66.817  1.00  0.00    -0.336 C  
HETATM   16  C   UNL     1     -10.230  13.986  67.148  1.00  0.00    -0.258 C  
HETATM   17  C   UNL     1      -8.978  14.954  67.165  1.00  0.00    -0.230 C  
HETATM   18  C   UNL     1     -11.518  11.739  65.463  1.00  0.00    -0.241 C  
HETATM   19  C   UNL     1     -12.108  13.146  65.489  1.00  0.00    -0.490 C  
HETATM   20  C   UNL     1     -11.134  14.225  65.911  1.00  0.00    -0.310 C  
ENDROOT
BRANCH   4  21
HETATM   21  C   UNL     1      -9.774   9.715  70.210  1.00  0.00    -0.259 C  
HETATM   22  O   UNL     1      -8.761   9.595  70.903  1.00  0.00    -0.220 OA 
BRANCH  21  23
HETATM   23  C   UNL     1     -11.090   9.353  70.891  1.00  0.00    -0.319 C  
BRANCH  23  24
HETATM   24  O   UNL     1     -12.019  10.409  70.689  1.00  0.00    -0.294 OA 
BRANCH  24  25
HETATM   25  C   UNL     1     -12.921  10.594  71.684  1.00  0.00    -0.477 C  
HETATM   26  C   UNL     1     -13.429   9.275  72.173  1.00  0.00    -0.539 C  
HETATM   27  O   UNL     1     -13.275  11.676  72.128  1.00  0.00    -0.504 OA 
ENDBRANCH  24  25
ENDBRANCH  23  24
ENDBRANCH  21  23
ENDBRANCH   4  21
TORSDOF 4
ENDMDL
MODEL        8
REMARK 921   NORMALIZED FREE ENERGY PREDICTED BY IDOCK:   -6.37 KCAL/MOL
REMARK 922        TOTAL FREE ENERGY PREDICTED BY IDOCK:   -7.41 KCAL/MOL
REMARK 923 INTER-LIGAND FREE ENERGY PREDICTED BY IDOCK:   -7.69 KCAL/MOL
REMARK 924 INTRA-LIGAND FREE ENERGY PREDICTED BY IDOCK:    0.28 KCAL/MOL
REMARK 927      BINDING AFFINITY PREDICTED BY RF-SCORE:    0.00 PKD
ROOT
HETATM    1  C   UNL     1      -7.758  12.656  67.146  1.00  0.00    -0.094 C  
HETATM    2  C   UNL     1      -7.055  12.053  68.230  1.00  0.00    -0.086 C  
HETATM    3  C   UNL     1      -8.394  11.404  68.065  1.00  0.00    -0.143 C  
HETATM    4  C   UNL     1      -9.403  11.940  66.365  1.00  0.00    -0.233 C  
HETATM    5  C   UNL     1     -12.616  13.703  71.629  1.00  0.00    -0.343 C  
HETATM    6  C   UNL     1      -8.424  11.003  66.475  1.00  0.00    -0.161 C  
HETATM    7  C   UNL     1      -7.515  10.256  65.542  1.00  0.00    -0.149 C  
HETATM    8  O   UNL     1     -13.395  15.931  72.079  1.00  0.00    -0.443 OA 
HETATM    9  C   UNL     1     -12.535  15.193  71.615  1.00  0.00    -0.350 C  
HETATM   10  C   UNL     1      -9.978  10.236  67.293  1.00  0.00    -0.233 C  
HETATM   11  C   UNL     1     -11.285  15.735  71.060  1.00  0.00    -0.396 C  
HETATM   12  C   UNL     1     -11.023  11.525  67.965  1.00  0.00    -0.284 C  
HETATM   13  C   UNL     1     -10.371  12.925  68.687  1.00  0.00    -0.202 C  
HETATM   14  C   UNL     1     -12.285  14.563  68.132  1.00  0.00    -0.120 C  
HETATM   15  C   UNL     1      -9.072  13.704  67.925  1.00  0.00    -0.198 C  
HETATM   16  C   UNL     1     -11.441  13.944  69.262  1.00  0.00    -0.348 C  
HETATM   17  C   UNL     1     -12.411  13.146  70.225  1.00  0.00    -0.319 C  
HETATM   18  C   UNL     1      -8.465  14.699  68.921  1.00  0.00    -0.136 C  
HETATM   19  C   UNL     1      -9.494  15.727  69.384  1.00  0.00    -0.275 C  
HETATM   20  C   UNL     1     -10.750  15.128  69.983  1.00  0.00    -0.259 C  
ENDROOT
BRANCH   4  21
HETATM   21  C   UNL     1      -9.981  11.327  64.921  1.00  0.00    -0.274 C  
HETATM   22  O   UNL     1     -10.216  10.147  64.649  1.00  0.00    -0.279 OA 
BRANCH  21  23
HETATM   23  C   UNL     1     -10.234  12.330  63.799  1.00  0.00    -0.402 C  
BRANCH  23  24
HETATM   24  O   UNL     1     -11.618  12.324  63.480  1.00  0.00    -0.442 OA 
BRANCH  24  25
HETATM   25  C   UNL     1     -12.419  13.005  64.335  1.00  0.00    -0.337 C  
HETATM   26  C   UNL     1     -11.936  14.411  64.488  1.00  0.00    -0.487 C  
HETATM   27  O   UNL     1     -13.398  12.547  64.906  1.00  0.00    -0.702 OA 
ENDBRANCH  24  25
ENDBRANCH  23  24
ENDBRANCH  21  23
ENDBRANCH   4  21
TORSDOF 4
ENDMDL
MODEL        9
REMARK 921   NORMALIZED FREE ENERGY PREDICTED BY IDOCK:   -6.21 KCAL/MOL
REMARK 922        TOTAL FREE ENERGY PREDICTED BY IDOCK:   -7.22 KCAL/MOL
REMARK 923 INTER-LIGAND FREE ENERGY PREDICTED BY IDOCK:   -8.04 KCAL/MOL
REMARK 924 INTRA-LIGAND FREE ENERGY PREDICTED BY IDOCK:    0.81 KCAL/MOL
REMARK 927      BINDING AFFINITY PREDICTED BY RF-SCORE:    0.00 PKD
ROOT
HETATM    1  C   UNL     1     -10.434   9.478  66.736  1.00  0.00    -0.263 C  
HETATM    2  C   UNL     1      -9.320   9.295  65.865  1.00  0.00    -0.297 C  
HETATM    3  C   UNL     1      -8.938  10.191  67.002  1.00  0.00    -0.148 C  
HETATM    4  C   UNL     1     -10.325  10.307  68.505  1.00  0.00    -0.200 C  
HETATM    5  C   UNL     1      -9.426  16.016  65.722  1.00  0.00    -0.283 C  
HETATM    6  C   UNL     1      -9.393   9.334  68.325  1.00  0.00    -0.141 C  
HETATM    7  C   UNL     1      -9.154   7.942  68.833  1.00  0.00    -0.141 C  
HETATM    8  O   UNL     1     -11.175  17.388  64.809  1.00  0.00    -0.895 OA 
HETATM    9  C   UNL     1     -10.712  16.272  65.009  1.00  0.00    -0.298 C  
HETATM   10  C   UNL     1      -8.431  10.874  68.939  1.00  0.00    -0.142 C  
HETATM   11  C   UNL     1     -11.370  15.068  64.477  1.00  0.00    -0.294 C  
HETATM   12  C   UNL     1      -9.278  12.371  68.441  1.00  0.00    -0.145 C  
HETATM   13  C   UNL     1     -10.076  12.495  66.940  1.00  0.00    -0.232 C  
HETATM   14  C   UNL     1     -11.901  14.185  67.621  1.00  0.00    -0.427 C  
HETATM   15  C   UNL     1     -11.038  11.200  66.419  1.00  0.00    -0.204 C  
HETATM   16  C   UNL     1     -10.740  13.905  66.648  1.00  0.00    -0.281 C  
HETATM   17  C   UNL     1      -9.637  15.020  66.857  1.00  0.00    -0.251 C  
HETATM   18  C   UNL     1     -11.353  11.409  64.934  1.00  0.00    -0.109 C  
HETATM   19  C   UNL     1     -12.078  12.730  64.695  1.00  0.00    -0.483 C  
HETATM   20  C   UNL     1     -11.350  13.948  65.224  1.00  0.00    -0.316 C  
ENDROOT
BRANCH   4  21
HETATM   21  C   UNL     1     -10.563   9.936  70.118  1.00  0.00    -0.297 C  
HETATM   22  O   UNL     1      -9.712   9.580  70.938  1.00  0.00    -0.259 OA 
BRANCH  21  23
HETATM   23  C   UNL     1     -11.993  10.026  70.642  1.00  0.00    -0.313 C  
BRANCH  23  24
HETATM   24  O   UNL     1     -12.424   8.729  71.031  1.00  0.00    -0.244 OA 
BRANCH  24  25
HETATM   25  C   UNL     1     -13.538   8.690  71.802  1.00  0.00    -0.403 C  
HETATM   26  C   UNL     1     -14.347   7.475  71.479  1.00  0.00    -0.603 C  
HETATM   27  O   UNL     1     -13.848   9.521  72.643  1.00  0.00    -0.370 OA 
ENDBRANCH  24  25
ENDBRANCH  23  24
ENDBRANCH  21  23
ENDBRANCH   4  21
TORSDOF 4
ENDMDL
MODEL       10
REMARK 921   NORMALIZED FREE ENERGY PREDICTED BY IDOCK:   -6.19 KCAL/MOL
REMARK 922        TOTAL FREE ENERGY PREDICTED BY IDOCK:   -7.19 KCAL/MOL
REMARK 923 INTER-LIGAND FREE ENERGY PREDICTED BY IDOCK:   -8.34 KCAL/MOL
REMARK 924 INTRA-LIGAND FREE ENERGY PREDICTED BY IDOCK:    1.15 KCAL/MOL
REMARK 927      BINDING AFFINITY PREDICTED BY RF-SCORE:    0.00 PKD
ROOT
HETATM    1  C   UNL     1     -11.067  12.739  63.950  1.00  0.00    -0.477 C  
HETATM    2  C   UNL     1     -12.290  12.061  63.669  1.00  0.00    -0.648 C  
HETATM    3  C   UNL     1     -12.347  12.675  65.034  1.00  0.00    -0.561 C  
HETATM    4  C   UNL     1     -10.798  13.942  65.470  1.00  0.00    -0.306 C  
HETATM    5  C   UNL     1     -10.853   8.889  69.420  1.00  0.00    -0.133 C  
HETATM    6  C   UNL     1     -11.921  14.236  64.762  1.00  0.00    -0.449 C  
HETATM    7  C   UNL     1     -12.374  15.322  63.830  1.00  0.00     0.199 C  
HETATM    8  O   UNL     1      -8.983   7.429  69.806  1.00  0.00    -0.141 OA 
HETATM    9  C   UNL     1      -9.635   8.119  69.032  1.00  0.00    -0.156 C  
HETATM   10  C   UNL     1     -12.475  14.100  66.592  1.00  0.00    -0.255 C  
HETATM   11  C   UNL     1      -9.300   8.180  67.601  1.00  0.00    -0.160 C  
HETATM   12  C   UNL     1     -11.409  12.966  67.478  1.00  0.00    -0.354 C  
HETATM   13  C   UNL     1     -10.785  11.560  66.744  1.00  0.00    -0.311 C  
HETATM   14  C   UNL     1      -8.590  11.375  68.085  1.00  0.00    -0.153 C  
HETATM   15  C   UNL     1     -10.171  11.668  65.167  1.00  0.00    -0.319 C  
HETATM   16  C   UNL     1      -9.890  10.652  67.686  1.00  0.00    -0.191 C  
HETATM   17  C   UNL     1     -10.714  10.349  69.003  1.00  0.00    -0.260 C  
HETATM   18  C   UNL     1      -9.998  10.244  64.626  1.00  0.00    -0.377 C  
HETATM   19  C   UNL     1      -9.055   9.423  65.500  1.00  0.00    -0.270 C  
HETATM   20  C   UNL     1      -9.456   9.354  66.959  1.00  0.00    -0.200 C  
ENDROOT
BRANCH   4  21
HETATM   21  C   UNL     1     -10.451  15.545  65.797  1.00  0.00    -0.361 C  
HETATM   22  O   UNL     1     -10.492  16.496  65.012  1.00  0.00    -0.652 OA 
BRANCH  21  23
HETATM   23  C   UNL     1     -10.016  15.878  67.221  1.00  0.00    -0.240 C  
BRANCH  23  24
HETATM   24  O   UNL     1     -10.782  16.979  67.691  1.00  0.00    -0.342 OA 
BRANCH  24  25
HETATM   25  C   UNL     1     -10.071  18.079  68.040  1.00  0.00    -0.365 C  
HETATM   26  C   UNL     1     -10.717  19.308  67.486  1.00  0.00    -0.571 C  
HETATM   27  O   UNL     1      -9.050  18.080  68.711  1.00  0.00    -0.288 OA 
ENDBRANCH  24  25
ENDBRANCH  23  24
ENDBRANCH  21  23
ENDBRANCH   4  21
TORSDOF 4
ENDMDL
MODEL       11
REMARK 921   NORMALIZED FREE ENERGY PREDICTED BY IDOCK:   -6.12 KCAL/MOL
REMARK 922        TOTAL FREE ENERGY PREDICTED BY IDOCK:   -7.11 KCAL/MOL
REMARK 923 INTER-LIGAND FREE ENERGY PREDICTED BY IDOCK:   -8.14 KCAL/MOL
REMARK 924 INTRA-LIGAND FREE ENERGY PREDICTED BY IDOCK:    1.04 KCAL/MOL
REMARK 927      BINDING AFFINITY PREDICTED BY RF-SCORE:    0.00 PKD
ROOT
HETATM    1  C   UNL     1     -10.532  10.201  65.369  1.00  0.00    -0.054 C  
HETATM    2  C   UNL     1      -9.435  10.185  64.459  1.00  0.00    -0.364 C  
HETATM    3  C   UNL     1      -8.990  10.712  65.787  1.00  0.00    -0.200 C  
HETATM    4  C   UNL     1     -10.364  10.513  67.293  1.00  0.00    -0.275 C  
HETATM    5  C   UNL     1      -9.063  16.686  66.134  1.00  0.00    -0.318 C  
HETATM    6  C   UNL     1      -9.503   9.563  66.839  1.00  0.00    -0.204 C  
HETATM    7  C   UNL     1      -9.363   8.072  66.948  1.00  0.00    -0.209 C  
HETATM    8  O   UNL     1     -10.711  18.370  65.659  1.00  0.00    -0.548 OA 
HETATM    9  C   UNL     1     -10.328  17.212  65.541  1.00  0.00    -0.115 C  
HETATM   10  C   UNL     1      -8.433  10.810  67.826  1.00  0.00    -0.120 C  
HETATM   11  C   UNL     1     -11.070  16.245  64.718  1.00  0.00    -0.293 C  
HETATM   12  C   UNL     1      -9.172  12.440  67.767  1.00  0.00    -0.193 C  
HETATM   13  C   UNL     1      -9.960  13.020  66.371  1.00  0.00    -0.277 C  
HETATM   14  C   UNL     1     -11.660  14.583  67.518  1.00  0.00    -0.403 C  
HETATM   15  C   UNL     1     -11.013  11.982  65.540  1.00  0.00    -0.345 C  
HETATM   16  C   UNL     1     -10.523  14.498  66.483  1.00  0.00    -0.285 C  
HETATM   17  C   UNL     1      -9.343  15.437  66.962  1.00  0.00    -0.238 C  
HETATM   18  C   UNL     1     -11.313  12.606  64.172  1.00  0.00    -0.439 C  
HETATM   19  C   UNL     1     -11.943  13.988  64.313  1.00  0.00    -0.463 C  
HETATM   20  C   UNL     1     -11.129  14.966  65.136  1.00  0.00    -0.399 C  
ENDROOT
BRANCH   4  21
HETATM   21  C   UNL     1     -10.626   9.736  68.751  1.00  0.00    -0.219 C  
HETATM   22  O   UNL     1     -10.189   8.638  69.104  1.00  0.00    -0.198 OA 
BRANCH  21  23
HETATM   23  C   UNL     1     -11.521  10.449  69.759  1.00  0.00    -0.280 C  
BRANCH  23  24
HETATM   24  O   UNL     1     -12.015   9.498  70.691  1.00  0.00    -0.263 OA 
BRANCH  24  25
HETATM   25  C   UNL     1     -12.876   9.980  71.620  1.00  0.00    -0.440 C  
HETATM   26  C   UNL     1     -13.613   8.857  72.276  1.00  0.00    -0.513 C  
HETATM   27  O   UNL     1     -13.036  11.161  71.892  1.00  0.00    -0.488 OA 
ENDBRANCH  24  25
ENDBRANCH  23  24
ENDBRANCH  21  23
ENDBRANCH   4  21
TORSDOF 4
ENDMDL
MODEL       12
REMARK 921   NORMALIZED FREE ENERGY PREDICTED BY IDOCK:   -6.05 KCAL/MOL
REMARK 922        TOTAL FREE ENERGY PREDICTED BY IDOCK:   -7.02 KCAL/MOL
REMARK 923 INTER-LIGAND FREE ENERGY PREDICTED BY IDOCK:   -7.44 KCAL/MOL
REMARK 924 INTRA-LIGAND FREE ENERGY PREDICTED BY IDOCK:    0.42 KCAL/MOL
REMARK 927      BINDING AFFINITY PREDICTED BY RF-SCORE:    0.00 PKD
ROOT
HETATM    1  C   UNL     1     -11.258  12.801  68.145  1.00  0.00    -0.310 C  
HETATM    2  C   UNL     1     -10.872  13.767  69.119  1.00  0.00    -0.205 C  
HETATM    3  C   UNL     1      -9.726  12.848  68.829  1.00  0.00     0.058 C  
HETATM    4  C   UNL     1     -10.013  11.597  67.233  1.00  0.00    -0.210 C  
HETATM    5  C   UNL     1      -9.293   8.288  72.680  1.00  0.00    -0.350 C  
HETATM    6  C   UNL     1      -9.610  12.895  67.194  1.00  0.00    -0.225 C  
HETATM    7  C   UNL     1      -9.508  13.978  66.159  1.00  0.00    -0.210 C  
HETATM    8  O   UNL     1     -10.833   6.631  73.493  1.00  0.00    -0.282 OA 
HETATM    9  C   UNL     1     -10.643   7.697  72.921  1.00  0.00    -0.354 C  
HETATM   10  C   UNL     1      -8.109  11.900  67.850  1.00  0.00    -0.147 C  
HETATM   11  C   UNL     1     -11.768   8.537  72.481  1.00  0.00    -0.390 C  
HETATM   12  C   UNL     1      -8.669  10.438  68.719  1.00  0.00    -0.146 C  
HETATM   13  C   UNL     1     -10.079  10.447  69.676  1.00  0.00    -0.226 C  
HETATM   14  C   UNL     1     -10.749   7.973  69.384  1.00  0.00    -0.167 C  
HETATM   15  C   UNL     1     -11.467  11.212  69.075  1.00  0.00    -0.364 C  
HETATM   16  C   UNL     1     -10.405   9.075  70.403  1.00  0.00    -0.253 C  
HETATM   17  C   UNL     1      -9.116   8.626  71.204  1.00  0.00    -0.263 C  
HETATM   18  C   UNL     1     -12.458  11.377  70.233  1.00  0.00    -0.312 C  
HETATM   19  C   UNL     1     -12.828  10.032  70.850  1.00  0.00    -0.408 C  
HETATM   20  C   UNL     1     -11.643   9.215  71.324  1.00  0.00    -0.401 C  
ENDROOT
BRANCH   4  21
HETATM   21  C   UNL     1      -9.441  11.258  65.698  1.00  0.00    -0.229 C  
HETATM   22  O   UNL     1      -8.289  10.956  65.378  1.00  0.00    -0.144 OA 
BRANCH  21  23
HETATM   23  C   UNL     1     -10.446  11.347  64.554  1.00  0.00    -0.322 C  
BRANCH  23  24
HETATM   24  O   UNL     1     -11.740  11.579  65.094  1.00  0.00    -0.069 OA 
BRANCH  24  25
HETATM   25  C   UNL     1     -12.553  12.365  64.347  1.00  0.00    -0.399 C  
HETATM   26  C   UNL     1     -12.866  13.630  65.080  1.00  0.00    -0.382 C  
HETATM   27  O   UNL     1     -12.976  12.092  63.234  1.00  0.00    -0.736 OA 
ENDBRANCH  24  25
ENDBRANCH  23  24
ENDBRANCH  21  23
ENDBRANCH   4  21
TORSDOF 4
ENDMDL
MODEL       13
REMARK 921   NORMALIZED FREE ENERGY PREDICTED BY IDOCK:   -6.05 KCAL/MOL
REMARK 922        TOTAL FREE ENERGY PREDICTED BY IDOCK:   -7.02 KCAL/MOL
REMARK 923 INTER-LIGAND FREE ENERGY PREDICTED BY IDOCK:   -7.61 KCAL/MOL
REMARK 924 INTRA-LIGAND FREE ENERGY PREDICTED BY IDOCK:    0.59 KCAL/MOL
REMARK 927      BINDING AFFINITY PREDICTED BY RF-SCORE:    0.00 PKD
ROOT
HETATM    1  C   UNL     1     -10.293   9.798  66.144  1.00  0.00    -0.215 C  
HETATM    2  C   UNL     1      -9.365   9.685  65.067  1.00  0.00    -0.319 C  
HETATM    3  C   UNL     1      -8.717  10.368  66.231  1.00  0.00    -0.163 C  
HETATM    4  C   UNL     1      -9.810  10.335  67.962  1.00  0.00    -0.171 C  
HETATM    5  C   UNL     1      -8.901  16.340  65.900  1.00  0.00    -0.187 C  
HETATM    6  C   UNL     1      -9.012   9.346  67.479  1.00  0.00    -0.130 C  
HETATM    7  C   UNL     1      -8.814   7.880  67.732  1.00  0.00    -0.122 C  
HETATM    8  O   UNL     1     -10.653  17.943  65.526  1.00  0.00    -0.638 OA 
HETATM    9  C   UNL     1     -10.262  16.783  65.477  1.00  0.00    -0.164 C  
HETATM   10  C   UNL     1      -7.827  10.710  68.119  1.00  0.00    -0.110 C  
HETATM   11  C   UNL     1     -11.105  15.719  64.909  1.00  0.00    -0.411 C  
HETATM   12  C   UNL     1      -8.612  12.315  68.002  1.00  0.00    -0.176 C  
HETATM   13  C   UNL     1      -9.640  12.720  66.704  1.00  0.00    -0.255 C  
HETATM   14  C   UNL     1     -11.166  14.393  67.940  1.00  0.00    -0.304 C  
HETATM   15  C   UNL     1     -10.788  11.583  66.190  1.00  0.00    -0.330 C  
HETATM   16  C   UNL     1     -10.218  14.196  66.742  1.00  0.00    -0.262 C  
HETATM   17  C   UNL     1      -9.002  15.196  66.901  1.00  0.00    -0.277 C  
HETATM   18  C   UNL     1     -11.333  12.039  64.831  1.00  0.00    -0.366 C  
HETATM   19  C   UNL     1     -11.969  13.423  64.920  1.00  0.00    -0.414 C  
HETATM   20  C   UNL     1     -11.056  14.497  65.474  1.00  0.00    -0.339 C  
ENDROOT
BRANCH   4  21
HETATM   21  C   UNL     1      -9.800   9.733  69.523  1.00  0.00    -0.214 C  
HETATM   22  O   UNL     1      -8.855   9.723  70.315  1.00  0.00    -0.225 OA 
BRANCH  21  23
HETATM   23  C   UNL     1     -11.096   9.107  70.027  1.00  0.00    -0.190 C  
BRANCH  23  24
HETATM   24  O   UNL     1     -11.364   9.592  71.335  1.00  0.00    -0.361 OA 
BRANCH  24  25
HETATM   25  C   UNL     1     -12.100   8.772  72.124  1.00  0.00    -0.371 C  
HETATM   26  C   UNL     1     -13.490   9.302  72.269  1.00  0.00    -0.548 C  
HETATM   27  O   UNL     1     -11.696   7.744  72.648  1.00  0.00    -0.349 OA 
ENDBRANCH  24  25
ENDBRANCH  23  24
ENDBRANCH  21  23
ENDBRANCH   4  21
TORSDOF 4
ENDMDL
MODEL       14
REMARK 921   NORMALIZED FREE ENERGY PREDICTED BY IDOCK:   -6.01 KCAL/MOL
REMARK 922        TOTAL FREE ENERGY PREDICTED BY IDOCK:   -6.97 KCAL/MOL
REMARK 923 INTER-LIGAND FREE ENERGY PREDICTED BY IDOCK:   -7.82 KCAL/MOL
REMARK 924 INTRA-LIGAND FREE ENERGY PREDICTED BY IDOCK:    0.85 KCAL/MOL
REMARK 927      BINDING AFFINITY PREDICTED BY RF-SCORE:    0.00 PKD
ROOT
HETATM    1  C   UNL     1      -8.925  13.544  67.188  1.00  0.00    -0.230 C  
HETATM    2  C   UNL     1      -8.673  13.135  68.530  1.00  0.00    -0.049 C  
HETATM    3  C   UNL     1      -9.740  14.185  68.507  1.00  0.00    -0.219 C  
HETATM    4  C   UNL     1     -10.437  14.659  66.641  1.00  0.00    -0.278 C  
HETATM    5  C   UNL     1      -7.663  19.719  69.440  1.00  0.00    -0.016 C  
HETATM    6  C   UNL     1     -10.815  13.605  67.413  1.00  0.00    -0.282 C  
HETATM    7  C   UNL     1     -11.545  12.309  67.213  1.00  0.00    -0.427 C  
HETATM    8  O   UNL     1      -5.902  21.032  68.464  1.00  0.00    -0.340 OA 
HETATM    9  C   UNL     1      -6.424  19.938  68.636  1.00  0.00    -0.291 C  
HETATM   10  C   UNL     1     -11.597  15.156  68.224  1.00  0.00    -0.357 C  
HETATM   11  C   UNL     1      -5.809  18.710  68.109  1.00  0.00    -0.195 C  
HETATM   12  C   UNL     1     -10.592  16.600  67.892  1.00  0.00    -0.342 C  
HETATM   13  C   UNL     1      -8.890  16.518  67.843  1.00  0.00    -0.193 C  
HETATM   14  C   UNL     1      -8.468  18.426  66.160  1.00  0.00    -0.145 C  
HETATM   15  C   UNL     1      -8.160  15.224  67.027  1.00  0.00    -0.253 C  
HETATM   16  C   UNL     1      -8.159  17.899  67.573  1.00  0.00    -0.228 C  
HETATM   17  C   UNL     1      -8.698  18.953  68.624  1.00  0.00    -0.374 C  
HETATM   18  C   UNL     1      -6.677  15.194  67.414  1.00  0.00    -0.134 C  
HETATM   19  C   UNL     1      -5.978  16.501  67.054  1.00  0.00    -0.157 C  
HETATM   20  C   UNL     1      -6.620  17.738  67.648  1.00  0.00    -0.191 C  
ENDROOT
BRANCH   4  21
HETATM   21  C   UNL     1     -11.807  14.590  65.683  1.00  0.00    -0.326 C  
HETATM   22  O   UNL     1     -12.960  14.338  66.042  1.00  0.00    -0.303 OA 
BRANCH  21  23
HETATM   23  C   UNL     1     -11.618  14.850  64.192  1.00  0.00    -0.054 C  
BRANCH  23  24
HETATM   24  O   UNL     1     -12.490  14.000  63.462  1.00  0.00    -0.826 OA 
BRANCH  24  25
HETATM   25  C   UNL     1     -12.206  12.676  63.526  1.00  0.00    -0.547 C  
HETATM   26  C   UNL     1     -10.729  12.460  63.456  1.00  0.00    -0.473 C  
HETATM   27  O   UNL     1     -13.030  11.779  63.628  1.00  0.00    -0.591 OA 
ENDBRANCH  24  25
ENDBRANCH  23  24
ENDBRANCH  21  23
ENDBRANCH   4  21
TORSDOF 4
ENDMDL
MODEL       15
REMARK 921   NORMALIZED FREE ENERGY PREDICTED BY IDOCK:   -6.00 KCAL/MOL
REMARK 922        TOTAL FREE ENERGY PREDICTED BY IDOCK:   -6.96 KCAL/MOL
REMARK 923 INTER-LIGAND FREE ENERGY PREDICTED BY IDOCK:   -7.96 KCAL/MOL
REMARK 924 INTRA-LIGAND FREE ENERGY PREDICTED BY IDOCK:    1.00 KCAL/MOL
REMARK 927      BINDING AFFINITY PREDICTED BY RF-SCORE:    0.00 PKD
ROOT
HETATM    1  C   UNL     1     -11.112  12.773  63.955  1.00  0.00    -0.477 C  
HETATM    2  C   UNL     1     -12.402  12.178  63.825  1.00  0.00    -0.635 C  
HETATM    3  C   UNL     1     -12.276  12.839  65.163  1.00  0.00    -0.530 C  
HETATM    4  C   UNL     1     -10.605  14.001  65.390  1.00  0.00    -0.351 C  
HETATM    5  C   UNL     1     -10.610   9.100  69.527  1.00  0.00    -0.233 C  
HETATM    6  C   UNL     1     -11.772  14.354  64.787  1.00  0.00    -0.420 C  
HETATM    7  C   UNL     1     -12.240  15.440  63.862  1.00  0.00     0.188 C  
HETATM    8  O   UNL     1      -8.818   7.519  69.784  1.00  0.00    -0.140 OA 
HETATM    9  C   UNL     1      -9.495   8.229  69.051  1.00  0.00    -0.155 C  
HETATM   10  C   UNL     1     -12.143  14.320  66.667  1.00  0.00    -0.448 C  
HETATM   11  C   UNL     1      -9.305   8.218  67.592  1.00  0.00    -0.158 C  
HETATM   12  C   UNL     1     -11.074  13.141  67.487  1.00  0.00    -0.296 C  
HETATM   13  C   UNL     1     -10.629  11.668  66.752  1.00  0.00    -0.280 C  
HETATM   14  C   UNL     1      -8.327  11.367  67.874  1.00  0.00    -0.137 C  
HETATM   15  C   UNL     1     -10.173  11.679  65.119  1.00  0.00    -0.319 C  
HETATM   16  C   UNL     1      -9.708  10.728  67.636  1.00  0.00    -0.185 C  
HETATM   17  C   UNL     1     -10.412  10.531  69.039  1.00  0.00    -0.238 C  
HETATM   18  C   UNL     1     -10.157  10.229  64.620  1.00  0.00    -0.317 C  
HETATM   19  C   UNL     1      -9.190   9.370  65.429  1.00  0.00    -0.305 C  
HETATM   20  C   UNL     1      -9.444   9.379  66.922  1.00  0.00    -0.204 C  
ENDROOT
BRANCH   4  21
HETATM   21  C   UNL     1     -10.115  15.585  65.617  1.00  0.00    -0.376 C  
HETATM   22  O   UNL     1     -10.771  16.609  65.410  1.00  0.00    -0.473 OA 
BRANCH  21  23
HETATM   23  C   UNL     1      -8.690  15.799  66.118  1.00  0.00    -0.258 C  
BRANCH  23  24
HETATM   24  O   UNL     1      -8.247  17.085  65.710  1.00  0.00    -0.486 OA 
BRANCH  24  25
HETATM   25  C   UNL     1      -7.079  17.503  66.257  1.00  0.00    -0.305 C  
HETATM   26  C   UNL     1      -7.337  18.559  67.283  1.00  0.00    -0.222 C  
HETATM   27  O   UNL     1      -5.969  17.084  65.963  1.00  0.00    -0.200 OA 
ENDBRANCH  24  25
ENDBRANCH  23  24
ENDBRANCH  21  23
ENDBRANCH   4  21
TORSDOF 4
ENDMDL
MODEL       16
REMARK 921   NORMALIZED FREE ENERGY PREDICTED BY IDOCK:   -5.93 KCAL/MOL
REMARK 922        TOTAL FREE ENERGY PREDICTED BY IDOCK:   -6.87 KCAL/MOL
REMARK 923 INTER-LIGAND FREE ENERGY PREDICTED BY IDOCK:   -7.43 KCAL/MOL
REMARK 924 INTRA-LIGAND FREE ENERGY PREDICTED BY IDOCK:    0.56 KCAL/MOL
REMARK 927      BINDING AFFINITY PREDICTED BY RF-SCORE:    0.00 PKD
ROOT
HETATM    1  C   UNL     1      -8.764  14.849  68.278  1.00  0.00    -0.166 C  
HETATM    2  C   UNL     1      -8.484  15.048  66.894  1.00  0.00    -0.269 C  
HETATM    3  C   UNL     1      -9.845  14.446  67.059  1.00  0.00    -0.252 C  
HETATM    4  C   UNL     1     -10.524  14.379  68.990  1.00  0.00    -0.227 C  
HETATM    5  C   UNL     1      -9.894   8.484  66.544  1.00  0.00    -0.342 C  
HETATM    6  C   UNL     1     -10.569  15.442  68.143  1.00  0.00    -0.263 C  
HETATM    7  C   UNL     1     -10.786  16.923  68.256  1.00  0.00    -0.377 C  
HETATM    8  O   UNL     1      -8.632   6.706  67.556  1.00  0.00    -0.120 OA 
HETATM    9  C   UNL     1      -8.753   7.899  67.309  1.00  0.00    -0.131 C  
HETATM   10  C   UNL     1     -11.898  14.213  67.512  1.00  0.00    -0.437 C  
HETATM   11  C   UNL     1      -7.713   8.866  67.695  1.00  0.00    -0.101 C  
HETATM   12  C   UNL     1     -11.435  12.535  67.930  1.00  0.00    -0.369 C  
HETATM   13  C   UNL     1      -9.812  12.015  67.895  1.00  0.00    -0.196 C  
HETATM   14  C   UNL     1      -9.957  10.203  69.725  1.00  0.00    -0.258 C  
HETATM   15  C   UNL     1      -8.620  13.023  68.557  1.00  0.00    -0.049 C  
HETATM   16  C   UNL     1      -9.589  10.487  68.257  1.00  0.00    -0.164 C  
HETATM   17  C   UNL     1     -10.535   9.620  67.331  1.00  0.00    -0.319 C  
HETATM   18  C   UNL     1      -7.252  12.502  68.104  1.00  0.00    -0.106 C  
HETATM   19  C   UNL     1      -7.026  11.060  68.550  1.00  0.00    -0.070 C  
HETATM   20  C   UNL     1      -8.099  10.091  68.100  1.00  0.00    -0.108 C  
ENDROOT
BRANCH   4  21
HETATM   21  C   UNL     1     -11.711  14.992  69.997  1.00  0.00    -0.306 C  
HETATM   22  O   UNL     1     -12.888  15.225  69.712  1.00  0.00    -0.099 OA 
BRANCH  21  23
HETATM   23  C   UNL     1     -11.297  15.321  71.428  1.00  0.00    -0.363 C  
BRANCH  23  24
HETATM   24  O   UNL     1     -12.437  15.773  72.146  1.00  0.00    -0.386 OA 
BRANCH  24  25
HETATM   25  C   UNL     1     -12.881  14.942  73.121  1.00  0.00    -0.512 C  
HETATM   26  C   UNL     1     -12.367  15.386  74.452  1.00  0.00    -0.766 C  
HETATM   27  O   UNL     1     -13.599  13.968  72.949  1.00  0.00    -0.676 OA 
ENDBRANCH  24  25
ENDBRANCH  23  24
ENDBRANCH  21  23
ENDBRANCH   4  21
TORSDOF 4
ENDMDL
MODEL       17
REMARK 921   NORMALIZED FREE ENERGY PREDICTED BY IDOCK:   -5.91 KCAL/MOL
REMARK 922        TOTAL FREE ENERGY PREDICTED BY IDOCK:   -6.85 KCAL/MOL
REMARK 923 INTER-LIGAND FREE ENERGY PREDICTED BY IDOCK:   -7.49 KCAL/MOL
REMARK 924 INTRA-LIGAND FREE ENERGY PREDICTED BY IDOCK:    0.63 KCAL/MOL
REMARK 927      BINDING AFFINITY PREDICTED BY RF-SCORE:    0.00 PKD
ROOT
HETATM    1  C   UNL     1      -8.066   9.528  66.473  1.00  0.00    -0.112 C  
HETATM    2  C   UNL     1      -6.957   9.990  65.705  1.00  0.00    -0.115 C  
HETATM    3  C   UNL     1      -7.263  10.966  66.798  1.00  0.00    -0.134 C  
HETATM    4  C   UNL     1      -8.625  10.308  68.178  1.00  0.00    -0.119 C  
HETATM    5  C   UNL     1     -10.790  15.474  65.054  1.00  0.00    -0.468 C  
HETATM    6  C   UNL     1      -7.295  10.027  68.142  1.00  0.00    -0.083 C  
HETATM    7  C   UNL     1      -6.373   9.022  68.769  1.00  0.00    -0.049 C  
HETATM    8  O   UNL     1     -12.901  15.602  63.912  1.00  0.00    -0.619 OA 
HETATM    9  C   UNL     1     -11.917  14.947  64.228  1.00  0.00    -0.338 C  
HETATM   10  C   UNL     1      -7.430  11.853  68.711  1.00  0.00    -0.100 C  
HETATM   11  C   UNL     1     -11.728  13.572  63.739  1.00  0.00    -0.367 C  
HETATM   12  C   UNL     1      -8.913  12.601  68.041  1.00  0.00    -0.200 C  
HETATM   13  C   UNL     1      -9.481  12.225  66.478  1.00  0.00    -0.238 C  
HETATM   14  C   UNL     1     -11.999  12.603  66.892  1.00  0.00    -0.345 C  
HETATM   15  C   UNL     1      -9.493  10.603  65.984  1.00  0.00    -0.233 C  
HETATM   16  C   UNL     1     -10.786  13.008  66.033  1.00  0.00    -0.290 C  
HETATM   17  C   UNL     1     -10.525  14.555  66.240  1.00  0.00    -0.303 C  
HETATM   18  C   UNL     1      -9.714  10.570  64.468  1.00  0.00    -0.375 C  
HETATM   19  C   UNL     1     -11.025  11.246  64.077  1.00  0.00    -0.377 C  
HETATM   20  C   UNL     1     -11.163  12.673  64.567  1.00  0.00    -0.375 C  
ENDROOT
BRANCH   4  21
HETATM   21  C   UNL     1      -8.781   9.898  69.792  1.00  0.00    -0.212 C  
HETATM   22  O   UNL     1      -7.884   9.819  70.635  1.00  0.00    -0.277 OA 
BRANCH  21  23
HETATM   23  C   UNL     1     -10.186   9.564  70.285  1.00  0.00    -0.260 C  
BRANCH  23  24
HETATM   24  O   UNL     1     -11.117  10.419  69.638  1.00  0.00    -0.239 OA 
BRANCH  24  25
HETATM   25  C   UNL     1     -11.945  11.110  70.459  1.00  0.00    -0.380 C  
HETATM   26  C   UNL     1     -12.599  10.183  71.433  1.00  0.00    -0.526 C  
HETATM   27  O   UNL     1     -12.139  12.316  70.419  1.00  0.00    -0.355 OA 
ENDBRANCH  24  25
ENDBRANCH  23  24
ENDBRANCH  21  23
ENDBRANCH   4  21
TORSDOF 4
ENDMDL
MODEL       18
REMARK 921   NORMALIZED FREE ENERGY PREDICTED BY IDOCK:   -5.86 KCAL/MOL
REMARK 922        TOTAL FREE ENERGY PREDICTED BY IDOCK:   -6.79 KCAL/MOL
REMARK 923 INTER-LIGAND FREE ENERGY PREDICTED BY IDOCK:   -7.15 KCAL/MOL
REMARK 924 INTRA-LIGAND FREE ENERGY PREDICTED BY IDOCK:    0.36 KCAL/MOL
REMARK 927      BINDING AFFINITY PREDICTED BY RF-SCORE:    0.00 PKD
ROOT
HETATM    1  C   UNL     1     -12.231   7.680  72.168  1.00  0.00    -0.301 C  
HETATM    2  C   UNL     1     -13.409   7.223  71.506  1.00  0.00    -0.435 C  
HETATM    3  C   UNL     1     -12.193   6.766  70.761  1.00  0.00    -0.353 C  
HETATM    4  C   UNL     1     -10.421   7.073  71.740  1.00  0.00    -0.223 C  
HETATM    5  C   UNL     1     -10.652  10.390  66.255  1.00  0.00    -0.180 C  
HETATM    6  C   UNL     1     -11.290   6.043  71.923  1.00  0.00    -0.335 C  
HETATM    7  C   UNL     1     -11.528   4.984  72.960  1.00  0.00    -0.344 C  
HETATM    8  O   UNL     1     -10.272  12.755  66.065  1.00  0.00    -0.267 OA 
HETATM    9  C   UNL     1     -10.727  11.813  66.701  1.00  0.00    -0.263 C  
HETATM   10  C   UNL     1     -10.434   5.714  70.240  1.00  0.00    -0.363 C  
HETATM   11  C   UNL     1     -11.470  12.026  67.952  1.00  0.00    -0.396 C  
HETATM   12  C   UNL     1      -9.944   7.262  69.483  1.00  0.00    -0.170 C  
HETATM   13  C   UNL     1     -10.900   8.667  69.613  1.00  0.00    -0.163 C  
HETATM   14  C   UNL     1      -9.013  10.420  69.479  1.00  0.00    -0.127 C  
HETATM   15  C   UNL     1     -11.573   9.058  71.119  1.00  0.00    -0.372 C  
HETATM   16  C   UNL     1     -10.333   9.937  68.850  1.00  0.00    -0.221 C  
HETATM   17  C   UNL     1     -10.046   9.521  67.351  1.00  0.00    -0.262 C  
HETATM   18  C   UNL     1     -12.638  10.139  70.898  1.00  0.00    -0.454 C  
HETATM   19  C   UNL     1     -12.043  11.386  70.250  1.00  0.00    -0.459 C  
HETATM   20  C   UNL     1     -11.319  11.128  68.945  1.00  0.00    -0.344 C  
ENDROOT
BRANCH   4  21
HETATM   21  C   UNL     1      -9.137   6.260  72.439  1.00  0.00    -0.138 C  
HETATM   22  O   UNL     1      -8.479   5.339  71.950  1.00  0.00    -0.123 OA 
BRANCH  21  23
HETATM   23  C   UNL     1      -8.738   6.686  73.848  1.00  0.00    -0.141 C  
BRANCH  23  24
HETATM   24  O   UNL     1      -8.441   8.075  73.843  1.00  0.00    -0.232 OA 
BRANCH  24  25
HETATM   25  C   UNL     1      -7.209   8.409  73.386  1.00  0.00    -0.067 C  
HETATM   26  C   UNL     1      -6.161   7.974  74.359  1.00  0.00    -0.101 C  
HETATM   27  O   UNL     1      -6.976   8.983  72.332  1.00  0.00    -0.320 OA 
ENDBRANCH  24  25
ENDBRANCH  23  24
ENDBRANCH  21  23
ENDBRANCH   4  21
TORSDOF 4
ENDMDL
MODEL       19
REMARK 921   NORMALIZED FREE ENERGY PREDICTED BY IDOCK:   -5.84 KCAL/MOL
REMARK 922        TOTAL FREE ENERGY PREDICTED BY IDOCK:   -6.76 KCAL/MOL
REMARK 923 INTER-LIGAND FREE ENERGY PREDICTED BY IDOCK:   -7.28 KCAL/MOL
REMARK 924 INTRA-LIGAND FREE ENERGY PREDICTED BY IDOCK:    0.52 KCAL/MOL
REMARK 927      BINDING AFFINITY PREDICTED BY RF-SCORE:    0.00 PKD
ROOT
HETATM    1  C   UNL     1     -10.956  13.099  64.251  1.00  0.00    -0.428 C  
HETATM    2  C   UNL     1     -12.262  12.578  64.016  1.00  0.00    -0.566 C  
HETATM    3  C   UNL     1     -12.180  13.148  65.399  1.00  0.00    -0.510 C  
HETATM    4  C   UNL     1     -10.473  14.209  65.788  1.00  0.00    -0.320 C  
HETATM    5  C   UNL     1     -10.932   9.065  69.592  1.00  0.00    -0.147 C  
HETATM    6  C   UNL     1     -11.587  14.656  65.149  1.00  0.00    -0.371 C  
HETATM    7  C   UNL     1     -11.952  15.819  64.273  1.00  0.00    -0.062 C  
HETATM    8  O   UNL     1      -9.232   7.384  69.838  1.00  0.00    -0.145 OA 
HETATM    9  C   UNL     1      -9.834   8.171  69.118  1.00  0.00    -0.182 C  
HETATM   10  C   UNL     1     -12.063  14.523  67.001  1.00  0.00    -0.303 C  
HETATM   11  C   UNL     1      -9.564   8.242  67.674  1.00  0.00    -0.187 C  
HETATM   12  C   UNL     1     -11.097  13.243  67.797  1.00  0.00    -0.289 C  
HETATM   13  C   UNL     1     -10.680  11.800  66.992  1.00  0.00    -0.286 C  
HETATM   14  C   UNL     1      -8.460  11.314  68.211  1.00  0.00    -0.152 C  
HETATM   15  C   UNL     1     -10.134  11.889  65.389  1.00  0.00    -0.285 C  
HETATM   16  C   UNL     1      -9.853  10.762  67.860  1.00  0.00    -0.185 C  
HETATM   17  C   UNL     1     -10.643  10.511  69.209  1.00  0.00    -0.265 C  
HETATM   18  C   UNL     1     -10.157  10.475  64.799  1.00  0.00    -0.406 C  
HETATM   19  C   UNL     1      -9.277   9.520  65.600  1.00  0.00    -0.281 C  
HETATM   20  C   UNL     1      -9.612   9.448  67.075  1.00  0.00    -0.209 C  
ENDROOT
BRANCH   4  21
HETATM   21  C   UNL     1      -9.924  15.749  66.143  1.00  0.00    -0.311 C  
HETATM   22  O   UNL     1     -10.596  16.778  66.247  1.00  0.00    -0.279 OA 
BRANCH  21  23
HETATM   23  C   UNL     1      -8.421  15.914  66.343  1.00  0.00    -0.313 C  
BRANCH  23  24
HETATM   24  O   UNL     1      -7.918  14.773  67.023  1.00  0.00    -0.200 OA 
BRANCH  24  25
HETATM   25  C   UNL     1      -6.953  15.017  67.944  1.00  0.00    -0.156 C  
HETATM   26  C   UNL     1      -7.551  15.088  69.312  1.00  0.00    -0.187 C  
HETATM   27  O   UNL     1      -5.764  15.161  67.703  1.00  0.00    -0.260 OA 
ENDBRANCH  24  25
ENDBRANCH  23  24
ENDBRANCH  21  23
ENDBRANCH   4  21
TORSDOF 4
ENDMDL
MODEL       20
REMARK 921   NORMALIZED FREE ENERGY PREDICTED BY IDOCK:   -5.82 KCAL/MOL
REMARK 922        TOTAL FREE ENERGY PREDICTED BY IDOCK:   -6.75 KCAL/MOL
REMARK 923 INTER-LIGAND FREE ENERGY PREDICTED BY IDOCK:   -6.96 KCAL/MOL
REMARK 924 INTRA-LIGAND FREE ENERGY PREDICTED BY IDOCK:    0.22 KCAL/MOL
REMARK 927      BINDING AFFINITY PREDICTED BY RF-SCORE:    0.00 PKD
ROOT
HETATM    1  C   UNL     1     -10.575  10.109  70.288  1.00  0.00    -0.324 C  
HETATM    2  C   UNL     1     -11.901   9.600  70.413  1.00  0.00    -0.219 C  
HETATM    3  C   UNL     1     -11.282   9.107  69.142  1.00  0.00     0.147 C  
HETATM    4  C   UNL     1      -9.279   9.493  68.959  1.00  0.00    -0.155 C  
HETATM    5  C   UNL     1     -12.646  12.449  64.370  1.00  0.00    -0.489 C  
HETATM    6  C   UNL     1      -9.856   8.468  69.641  1.00  0.00    -0.183 C  
HETATM    7  C   UNL     1      -9.435   7.476  70.686  1.00  0.00    -0.164 C  
HETATM    8  O   UNL     1     -12.537  14.801  63.887  1.00  0.00    -0.834 OA 
HETATM    9  C   UNL     1     -12.524  13.897  64.712  1.00  0.00    -0.354 C  
HETATM   10  C   UNL     1     -10.060   8.041  67.784  1.00  0.00    -0.250 C  
HETATM   11  C   UNL     1     -12.460  14.183  66.154  1.00  0.00    -0.426 C  
HETATM   12  C   UNL     1     -10.138   9.541  66.810  1.00  0.00    -0.312 C  
HETATM   13  C   UNL     1     -10.922  10.943  67.380  1.00  0.00    -0.353 C  
HETATM   14  C   UNL     1      -9.502  12.702  66.138  1.00  0.00    -0.177 C  
HETATM   15  C   UNL     1     -10.667  11.424  68.985  1.00  0.00    -0.245 C  
HETATM   16  C   UNL     1     -10.927  12.166  66.370  1.00  0.00    -0.327 C  
HETATM   17  C   UNL     1     -11.499  11.658  64.985  1.00  0.00    -0.189 C  
HETATM   18  C   UNL     1     -11.722  12.478  69.340  1.00  0.00    -0.383 C  
HETATM   19  C   UNL     1     -11.639  13.687  68.412  1.00  0.00    -0.377 C  
HETATM   20  C   UNL     1     -11.747  13.352  66.938  1.00  0.00    -0.434 C  
ENDROOT
BRANCH   4  21
HETATM   21  C   UNL     1      -7.789   8.738  68.867  1.00  0.00    -0.104 C  
HETATM   22  O   UNL     1      -7.505   7.715  68.239  1.00  0.00    -0.099 OA 
BRANCH  21  23
HETATM   23  C   UNL     1      -6.648   9.369  69.659  1.00  0.00    -0.044 C  
BRANCH  23  24
HETATM   24  O   UNL     1      -7.135  10.523  70.329  1.00  0.00    -0.228 OA 
BRANCH  24  25
HETATM   25  C   UNL     1      -6.312  11.600  70.313  1.00  0.00     0.023 C  
HETATM   26  C   UNL     1      -6.459  12.343  69.024  1.00  0.00    -0.097 C  
HETATM   27  O   UNL     1      -5.555  11.926  71.215  1.00  0.00    -0.367 OA 
ENDBRANCH  24  25
ENDBRANCH  23  24
ENDBRANCH  21  23
ENDBRANCH   4  21
TORSDOF 4
ENDMDL
MODEL       21
REMARK 921   NORMALIZED FREE ENERGY PREDICTED BY IDOCK:   -5.82 KCAL/MOL
REMARK 922        TOTAL FREE ENERGY PREDICTED BY IDOCK:   -6.74 KCAL/MOL
REMARK 923 INTER-LIGAND FREE ENERGY PREDICTED BY IDOCK:   -7.17 KCAL/MOL
REMARK 924 INTRA-LIGAND FREE ENERGY PREDICTED BY IDOCK:    0.43 KCAL/MOL
REMARK 927      BINDING AFFINITY PREDICTED BY RF-SCORE:    0.00 PKD
ROOT
HETATM    1  C   UNL     1     -11.437  11.904  67.081  1.00  0.00    -0.386 C  
HETATM    2  C   UNL     1     -11.614  12.077  65.677  1.00  0.00    -0.356 C  
HETATM    3  C   UNL     1     -10.155  11.976  66.000  1.00  0.00    -0.257 C  
HETATM    4  C   UNL     1      -9.740  11.420  67.927  1.00  0.00    -0.186 C  
HETATM    5  C   UNL     1      -7.486  17.290  66.665  1.00  0.00    -0.287 C  
HETATM    6  C   UNL     1     -10.060  10.601  66.889  1.00  0.00    -0.260 C  
HETATM    7  C   UNL     1     -10.517   9.181  66.717  1.00  0.00    -0.266 C  
HETATM    8  O   UNL     1      -7.965  19.253  67.967  1.00  0.00    -0.284 OA 
HETATM    9  C   UNL     1      -8.343  18.188  67.494  1.00  0.00    -0.237 C  
HETATM   10  C   UNL     1      -8.269  11.195  66.554  1.00  0.00    -0.167 C  
HETATM   11  C   UNL     1      -9.734  17.737  67.650  1.00  0.00    -0.282 C  
HETATM   12  C   UNL     1      -8.009  12.812  67.277  1.00  0.00    -0.156 C  
HETATM   13  C   UNL     1      -9.234  13.997  67.295  1.00  0.00    -0.231 C  
HETATM   14  C   UNL     1      -8.534  15.232  69.448  1.00  0.00    -0.231 C  
HETATM   15  C   UNL     1     -10.811  13.531  67.709  1.00  0.00    -0.267 C  
HETATM   16  C   UNL     1      -8.817  15.383  67.942  1.00  0.00    -0.168 C  
HETATM   17  C   UNL     1      -7.491  15.876  67.234  1.00  0.00    -0.244 C  
HETATM   18  C   UNL     1     -11.760  14.672  67.323  1.00  0.00    -0.406 C  
HETATM   19  C   UNL     1     -11.392  15.971  68.036  1.00  0.00    -0.266 C  
HETATM   20  C   UNL     1      -9.962  16.420  67.819  1.00  0.00    -0.248 C  
ENDROOT
BRANCH   4  21
HETATM   21  C   UNL     1      -9.057  10.189  68.831  1.00  0.00    -0.165 C  
HETATM   22  O   UNL     1      -8.035   9.549  68.573  1.00  0.00    -0.091 OA 
BRANCH  21  23
HETATM   23  C   UNL     1      -9.783   9.793  70.113  1.00  0.00    -0.248 C  
BRANCH  23  24
HETATM   24  O   UNL     1     -11.009  10.505  70.187  1.00  0.00    -0.287 OA 
BRANCH  24  25
HETATM   25  C   UNL     1     -11.995   9.901  70.895  1.00  0.00    -0.345 C  
HETATM   26  C   UNL     1     -12.929  10.925  71.457  1.00  0.00    -0.556 C  
HETATM   27  O   UNL     1     -12.114   8.696  71.058  1.00  0.00    -0.287 OA 
ENDBRANCH  24  25
ENDBRANCH  23  24
ENDBRANCH  21  23
ENDBRANCH   4  21
TORSDOF 4
ENDMDL
MODEL       22
REMARK 921   NORMALIZED FREE ENERGY PREDICTED BY IDOCK:   -5.77 KCAL/MOL
REMARK 922        TOTAL FREE ENERGY PREDICTED BY IDOCK:   -6.67 KCAL/MOL
REMARK 923 INTER-LIGAND FREE ENERGY PREDICTED BY IDOCK:   -7.44 KCAL/MOL
REMARK 924 INTRA-LIGAND FREE ENERGY PREDICTED BY IDOCK:    0.76 KCAL/MOL
REMARK 927      BINDING AFFINITY PREDICTED BY RF-SCORE:    0.00 PKD
ROOT
HETATM    1  C   UNL     1     -11.826  13.792  68.276  1.00  0.00    -0.413 C  
HETATM    2  C   UNL     1     -11.239  14.673  69.232  1.00  0.00    -0.306 C  
HETATM    3  C   UNL     1     -10.167  13.968  68.460  1.00  0.00    -0.237 C  
HETATM    4  C   UNL     1     -10.833  12.901  66.844  1.00  0.00    -0.278 C  
HETATM    5  C   UNL     1      -8.087   9.067  71.190  1.00  0.00    -0.185 C  
HETATM    6  C   UNL     1     -10.589  14.238  66.898  1.00  0.00    -0.273 C  
HETATM    7  C   UNL     1     -10.928  15.446  66.074  1.00  0.00    -0.286 C  
HETATM    8  O   UNL     1      -9.120   7.120  72.150  1.00  0.00    -0.130 OA 
HETATM    9  C   UNL     1      -9.225   8.265  71.730  1.00  0.00    -0.198 C  
HETATM   10  C   UNL     1      -8.870  13.390  66.892  1.00  0.00    -0.185 C  
HETATM   11  C   UNL     1     -10.506   8.987  71.799  1.00  0.00    -0.418 C  
HETATM   12  C   UNL     1      -8.979  11.766  67.638  1.00  0.00    -0.169 C  
HETATM   13  C   UNL     1     -10.000  11.454  68.967  1.00  0.00    -0.087 C  
HETATM   14  C   UNL     1     -10.491   8.968  68.490  1.00  0.00    -0.232 C  
HETATM   15  C   UNL     1     -11.573  12.085  68.951  1.00  0.00    -0.377 C  
HETATM   16  C   UNL     1      -9.943   9.970  69.523  1.00  0.00    -0.249 C  
HETATM   17  C   UNL     1      -8.428   9.610  69.808  1.00  0.00    -0.200 C  
HETATM   18  C   UNL     1     -12.149  11.961  70.367  1.00  0.00    -0.421 C  
HETATM   19  C   UNL     1     -12.171  10.510  70.838  1.00  0.00    -0.490 C  
HETATM   20  C   UNL     1     -10.826   9.816  70.787  1.00  0.00    -0.403 C  
ENDROOT
BRANCH   4  21
HETATM   21  C   UNL     1     -10.758  12.843  65.174  1.00  0.00    -0.305 C  
HETATM   22  O   UNL     1     -10.406  13.744  64.408  1.00  0.00    -0.415 OA 
BRANCH  21  23
HETATM   23  C   UNL     1     -11.187  11.538  64.511  1.00  0.00    -0.231 C  
BRANCH  23  24
HETATM   24  O   UNL     1     -10.335  11.281  63.404  1.00  0.00    -0.360 OA 
BRANCH  24  25
HETATM   25  C   UNL     1      -9.160  10.673  63.698  1.00  0.00    -0.232 C  
HETATM   26  C   UNL     1      -9.342   9.720  64.835  1.00  0.00    -0.327 C  
HETATM   27  O   UNL     1      -8.099  10.867  63.124  1.00  0.00    -0.031 OA 
ENDBRANCH  24  25
ENDBRANCH  23  24
ENDBRANCH  21  23
ENDBRANCH   4  21
TORSDOF 4
ENDMDL
MODEL       23
REMARK 921   NORMALIZED FREE ENERGY PREDICTED BY IDOCK:   -5.74 KCAL/MOL
REMARK 922        TOTAL FREE ENERGY PREDICTED BY IDOCK:   -6.64 KCAL/MOL
REMARK 923 INTER-LIGAND FREE ENERGY PREDICTED BY IDOCK:   -7.06 KCAL/MOL
REMARK 924 INTRA-LIGAND FREE ENERGY PREDICTED BY IDOCK:    0.42 KCAL/MOL
REMARK 927      BINDING AFFINITY PREDICTED BY RF-SCORE:    0.00 PKD
ROOT
HETATM    1  C   UNL     1      -7.990  13.135  67.318  1.00  0.00    -0.140 C  
HETATM    2  C   UNL     1      -7.459  13.168  68.641  1.00  0.00    -0.092 C  
HETATM    3  C   UNL     1      -8.930  13.445  68.673  1.00  0.00     0.018 C  
HETATM    4  C   UNL     1      -9.900  13.132  66.897  1.00  0.00    -0.249 C  
HETATM    5  C   UNL     1     -10.259  19.280  68.690  1.00  0.00    -0.438 C  
HETATM    6  C   UNL     1      -9.567  12.195  67.824  1.00  0.00    -0.195 C  
HETATM    7  C   UNL     1      -9.455  10.699  67.875  1.00  0.00    -0.168 C  
HETATM    8  O   UNL     1      -9.611  21.148  67.323  1.00  0.00    -0.335 OA 
HETATM    9  C   UNL     1      -9.416  19.995  67.686  1.00  0.00    -0.376 C  
HETATM   10  C   UNL     1     -11.026  13.182  68.578  1.00  0.00    -0.289 C  
HETATM   11  C   UNL     1      -8.256  19.230  67.202  1.00  0.00    -0.292 C  
HETATM   12  C   UNL     1     -11.031  14.858  67.946  1.00  0.00    -0.288 C  
HETATM   13  C   UNL     1      -9.585  15.708  67.645  1.00  0.00    -0.220 C  
HETATM   14  C   UNL     1     -10.425  17.213  65.726  1.00  0.00    -0.242 C  
HETATM   15  C   UNL     1      -8.313  14.902  66.866  1.00  0.00    -0.212 C  
HETATM   16  C   UNL     1      -9.776  17.193  67.123  1.00  0.00    -0.261 C  
HETATM   17  C   UNL     1     -10.739  17.947  68.128  1.00  0.00    -0.287 C  
HETATM   18  C   UNL     1      -7.046  15.751  67.021  1.00  0.00    -0.169 C  
HETATM   19  C   UNL     1      -7.228  17.143  66.424  1.00  0.00    -0.325 C  
HETATM   20  C   UNL     1      -8.411  17.912  66.976  1.00  0.00    -0.248 C  
ENDROOT
BRANCH   4  21
HETATM   21  C   UNL     1     -11.058  12.165  66.174  1.00  0.00    -0.312 C  
HETATM   22  O   UNL     1     -12.022  11.619  66.716  1.00  0.00    -0.536 OA 
BRANCH  21  23
HETATM   23  C   UNL     1     -10.904  11.908  64.678  1.00  0.00    -0.311 C  
BRANCH  23  24
HETATM   24  O   UNL     1     -10.441  10.579  64.485  1.00  0.00    -0.310 OA 
BRANCH  24  25
HETATM   25  C   UNL     1      -9.302  10.455  63.759  1.00  0.00    -0.288 C  
HETATM   26  C   UNL     1      -8.458   9.349  64.307  1.00  0.00    -0.198 C  
HETATM   27  O   UNL     1      -8.998  11.142  62.796  1.00  0.00    -0.294 OA 
ENDBRANCH  24  25
ENDBRANCH  23  24
ENDBRANCH  21  23
ENDBRANCH   4  21
TORSDOF 4
ENDMDL
MODEL       24
REMARK 921   NORMALIZED FREE ENERGY PREDICTED BY IDOCK:   -5.73 KCAL/MOL
REMARK 922        TOTAL FREE ENERGY PREDICTED BY IDOCK:   -6.63 KCAL/MOL
REMARK 923 INTER-LIGAND FREE ENERGY PREDICTED BY IDOCK:   -6.84 KCAL/MOL
REMARK 924 INTRA-LIGAND FREE ENERGY PREDICTED BY IDOCK:    0.21 KCAL/MOL
REMARK 927      BINDING AFFINITY PREDICTED BY RF-SCORE:    0.00 PKD
ROOT
HETATM    1  C   UNL     1     -10.416  13.091  68.617  1.00  0.00    -0.236 C  
HETATM    2  C   UNL     1     -11.588  13.404  69.367  1.00  0.00    -0.365 C  
HETATM    3  C   UNL     1     -11.784  13.778  67.930  1.00  0.00    -0.395 C  
HETATM    4  C   UNL     1     -10.319  13.114  66.663  1.00  0.00    -0.265 C  
HETATM    5  C   UNL     1     -10.571  19.522  66.772  1.00  0.00    -0.597 C  
HETATM    6  C   UNL     1     -11.384  12.406  67.126  1.00  0.00    -0.390 C  
HETATM    7  C   UNL     1     -11.784  10.962  67.207  1.00  0.00     0.283 C  
HETATM    8  O   UNL     1      -8.700  20.962  67.223  1.00  0.00    -0.240 OA 
HETATM    9  C   UNL     1      -9.301  19.919  67.449  1.00  0.00    -0.355 C  
HETATM   10  C   UNL     1     -12.093  13.640  65.842  1.00  0.00    -0.476 C  
HETATM   11  C   UNL     1      -8.843  18.985  68.489  1.00  0.00    -0.398 C  
HETATM   12  C   UNL     1     -11.076  15.112  65.772  1.00  0.00    -0.330 C  
HETATM   13  C   UNL     1     -10.347  15.768  67.167  1.00  0.00    -0.291 C  
HETATM   14  C   UNL     1      -8.276  16.823  66.050  1.00  0.00    -0.170 C  
HETATM   15  C   UNL     1      -9.599  14.716  68.266  1.00  0.00    -0.208 C  
HETATM   16  C   UNL     1      -9.512  17.094  66.927  1.00  0.00    -0.267 C  
HETATM   17  C   UNL     1     -10.440  18.129  66.169  1.00  0.00    -0.377 C  
HETATM   18  C   UNL     1      -9.336  15.492  69.562  1.00  0.00    -0.276 C  
HETATM   19  C   UNL     1      -8.450  16.710  69.316  1.00  0.00    -0.011 C  
HETATM   20  C   UNL     1      -8.977  17.664  68.265  1.00  0.00    -0.276 C  
ENDROOT
BRANCH   4  21
HETATM   21  C   UNL     1     -10.051  12.082  65.375  1.00  0.00    -0.256 C  
HETATM   22  O   UNL     1     -10.675  12.033  64.312  1.00  0.00    -0.288 OA 
BRANCH  21  23
HETATM   23  C   UNL     1      -8.921  11.068  65.529  1.00  0.00    -0.194 C  
BRANCH  23  24
HETATM   24  O   UNL     1      -7.990  11.557  66.482  1.00  0.00    -0.158 OA 
BRANCH  24  25
HETATM   25  C   UNL     1      -7.517  10.641  67.363  1.00  0.00    -0.094 C  
HETATM   26  C   UNL     1      -7.560  11.190  68.753  1.00  0.00    -0.129 C  
HETATM   27  O   UNL     1      -7.113   9.525  67.075  1.00  0.00    -0.084 OA 
ENDBRANCH  24  25
ENDBRANCH  23  24
ENDBRANCH  21  23
ENDBRANCH   4  21
TORSDOF 4
ENDMDL
MODEL       25
REMARK 921   NORMALIZED FREE ENERGY PREDICTED BY IDOCK:   -5.72 KCAL/MOL
REMARK 922        TOTAL FREE ENERGY PREDICTED BY IDOCK:   -6.61 KCAL/MOL
REMARK 923 INTER-LIGAND FREE ENERGY PREDICTED BY IDOCK:   -7.12 KCAL/MOL
REMARK 924 INTRA-LIGAND FREE ENERGY PREDICTED BY IDOCK:    0.51 KCAL/MOL
REMARK 927      BINDING AFFINITY PREDICTED BY RF-SCORE:    0.00 PKD
ROOT
HETATM    1  C   UNL     1     -10.000  13.761  68.646  1.00  0.00    -0.175 C  
HETATM    2  C   UNL     1     -11.004  14.221  69.547  1.00  0.00    -0.206 C  
HETATM    3  C   UNL     1     -11.308  14.693  68.160  1.00  0.00    -0.321 C  
HETATM    4  C   UNL     1     -10.137  13.866  66.697  1.00  0.00    -0.273 C  
HETATM    5  C   UNL     1      -9.305  20.217  67.026  1.00  0.00    -0.526 C  
HETATM    6  C   UNL     1     -11.241  13.317  67.271  1.00  0.00    -0.320 C  
HETATM    7  C   UNL     1     -11.863  11.953  67.360  1.00  0.00    -0.239 C  
HETATM    8  O   UNL     1      -7.180  21.312  67.277  1.00  0.00    -0.508 OA 
HETATM    9  C   UNL     1      -7.914  20.369  67.546  1.00  0.00    -0.291 C  
HETATM   10  C   UNL     1     -11.885  14.712  66.125  1.00  0.00    -0.282 C  
HETATM   11  C   UNL     1      -7.495  19.323  68.492  1.00  0.00    -0.360 C  
HETATM   12  C   UNL     1     -10.654  16.002  65.969  1.00  0.00    -0.324 C  
HETATM   13  C   UNL     1      -9.663  16.461  67.278  1.00  0.00    -0.239 C  
HETATM   14  C   UNL     1      -7.595  17.222  65.938  1.00  0.00    -0.063 C  
HETATM   15  C   UNL     1      -8.972  15.249  68.242  1.00  0.00    -0.176 C  
HETATM   16  C   UNL     1      -8.654  17.645  66.972  1.00  0.00    -0.252 C  
HETATM   17  C   UNL     1      -9.482  18.852  66.371  1.00  0.00    -0.358 C  
HETATM   18  C   UNL     1      -8.429  15.906  69.516  1.00  0.00    -0.089 C  
HETATM   19  C   UNL     1      -7.389  16.975  69.194  1.00  0.00    -0.186 C  
HETATM   20  C   UNL     1      -7.873  18.054  68.248  1.00  0.00    -0.292 C  
ENDROOT
BRANCH   4  21
HETATM   21  C   UNL     1     -10.203  12.869  65.355  1.00  0.00    -0.287 C  
HETATM   22  O   UNL     1     -10.929  12.992  64.366  1.00  0.00    -0.334 OA 
BRANCH  21  23
HETATM   23  C   UNL     1      -9.276  11.658  65.352  1.00  0.00    -0.065 C  
BRANCH  23  24
HETATM   24  O   UNL     1      -9.941  10.571  64.724  1.00  0.00    -0.300 OA 
BRANCH  24  25
HETATM   25  C   UNL     1      -9.379   9.352  64.914  1.00  0.00    -0.150 C  
HETATM   26  C   UNL     1      -9.798   8.789  66.234  1.00  0.00    -0.342 C  
HETATM   27  O   UNL     1      -8.635   8.785  64.128  1.00  0.00    -0.158 OA 
ENDBRANCH  24  25
ENDBRANCH  23  24
ENDBRANCH  21  23
ENDBRANCH   4  21
TORSDOF 4
ENDMDL
MODEL       26
REMARK 921   NORMALIZED FREE ENERGY PREDICTED BY IDOCK:   -5.68 KCAL/MOL
REMARK 922        TOTAL FREE ENERGY PREDICTED BY IDOCK:   -6.57 KCAL/MOL
REMARK 923 INTER-LIGAND FREE ENERGY PREDICTED BY IDOCK:   -6.70 KCAL/MOL
REMARK 924 INTRA-LIGAND FREE ENERGY PREDICTED BY IDOCK:    0.13 KCAL/MOL
REMARK 927      BINDING AFFINITY PREDICTED BY RF-SCORE:    0.00 PKD
ROOT
HETATM    1  C   UNL     1      -9.717   8.623  68.180  1.00  0.00    -0.178 C  
HETATM    2  C   UNL     1     -10.803   7.792  67.775  1.00  0.00    -0.111 C  
HETATM    3  C   UNL     1      -9.948   8.127  66.593  1.00  0.00    -0.339 C  
HETATM    4  C   UNL     1      -8.180   9.054  67.048  1.00  0.00    -0.109 C  
HETATM    5  C   UNL     1     -11.930  12.831  63.470  1.00  0.00    -0.633 C  
HETATM    6  C   UNL     1      -8.440   7.720  67.091  1.00  0.00    -0.124 C  
HETATM    7  C   UNL     1      -7.805   6.501  67.695  1.00  0.00    -0.110 C  
HETATM    8  O   UNL     1     -12.568  15.075  64.047  1.00  0.00    -0.817 OA 
HETATM    9  C   UNL     1     -12.326  13.928  64.401  1.00  0.00    -0.361 C  
HETATM   10  C   UNL     1      -8.330   8.172  65.232  1.00  0.00    -0.160 C  
HETATM   11  C   UNL     1     -12.486  13.514  65.804  1.00  0.00    -0.514 C  
HETATM   12  C   UNL     1      -8.817   9.876  64.981  1.00  0.00    -0.220 C  
HETATM   13  C   UNL     1     -10.069  10.596  65.887  1.00  0.00    -0.321 C  
HETATM   14  C   UNL     1      -9.213  13.028  65.849  1.00  0.00     0.152 C  
HETATM   15  C   UNL     1     -10.128  10.319  67.558  1.00  0.00    -0.239 C  
HETATM   16  C   UNL     1     -10.393  12.101  65.506  1.00  0.00    -0.296 C  
HETATM   17  C   UNL     1     -10.642  12.169  63.944  1.00  0.00    -0.457 C  
HETATM   18  C   UNL     1     -11.500  10.775  68.068  1.00  0.00    -0.333 C  
HETATM   19  C   UNL     1     -11.744  12.252  67.772  1.00  0.00    -0.403 C  
HETATM   20  C   UNL     1     -11.607  12.629  66.312  1.00  0.00    -0.440 C  
ENDROOT
BRANCH   4  21
HETATM   21  C   UNL     1      -6.522   8.841  66.993  1.00  0.00    -0.061 C  
HETATM   22  O   UNL     1      -5.874   8.222  66.146  1.00  0.00    -0.039 OA 
BRANCH  21  23
HETATM   23  C   UNL     1      -5.710   9.465  68.124  1.00  0.00    -0.037 C  
BRANCH  23  24
HETATM   24  O   UNL     1      -6.592   9.842  69.171  1.00  0.00    -0.051 OA 
BRANCH  24  25
HETATM   25  C   UNL     1      -6.349  11.051  69.735  1.00  0.00    -0.124 C  
HETATM   26  C   UNL     1      -6.846  12.145  68.845  1.00  0.00    -0.100 C  
HETATM   27  O   UNL     1      -5.804  11.233  70.813  1.00  0.00    -0.274 OA 
ENDBRANCH  24  25
ENDBRANCH  23  24
ENDBRANCH  21  23
ENDBRANCH   4  21
TORSDOF 4
ENDMDL
MODEL       27
REMARK 921   NORMALIZED FREE ENERGY PREDICTED BY IDOCK:   -5.66 KCAL/MOL
REMARK 922        TOTAL FREE ENERGY PREDICTED BY IDOCK:   -6.54 KCAL/MOL
REMARK 923 INTER-LIGAND FREE ENERGY PREDICTED BY IDOCK:   -7.77 KCAL/MOL
REMARK 924 INTRA-LIGAND FREE ENERGY PREDICTED BY IDOCK:    1.23 KCAL/MOL
REMARK 927      BINDING AFFINITY PREDICTED BY RF-SCORE:    0.00 PKD
ROOT
HETATM    1  C   UNL     1     -10.773  12.757  63.879  1.00  0.00    -0.443 C  
HETATM    2  C   UNL     1     -11.933  12.134  63.332  1.00  0.00    -0.578 C  
HETATM    3  C   UNL     1     -12.111  12.343  64.803  1.00  0.00    -0.483 C  
HETATM    4  C   UNL     1     -10.672  13.501  65.685  1.00  0.00    -0.284 C  
HETATM    5  C   UNL     1     -10.664   7.554  68.088  1.00  0.00    -0.145 C  
HETATM    6  C   UNL     1     -11.765  13.933  65.002  1.00  0.00    -0.365 C  
HETATM    7  C   UNL     1     -12.224  15.216  64.371  1.00  0.00    -0.289 C  
HETATM    8  O   UNL     1      -8.737   6.123  68.200  1.00  0.00    -0.115 OA 
HETATM    9  C   UNL     1      -9.380   6.972  67.597  1.00  0.00    -0.122 C  
HETATM   10  C   UNL     1     -12.422  13.273  66.677  1.00  0.00    -0.129 C  
HETATM   11  C   UNL     1      -8.961   7.442  66.267  1.00  0.00    -0.192 C  
HETATM   12  C   UNL     1     -11.345  11.983  67.298  1.00  0.00    -0.394 C  
HETATM   13  C   UNL     1     -10.593  10.863  66.257  1.00  0.00    -0.276 C  
HETATM   14  C   UNL     1      -8.478  10.404  67.660  1.00  0.00    -0.114 C  
HETATM   15  C   UNL     1      -9.890  11.429  64.821  1.00  0.00    -0.302 C  
HETATM   16  C   UNL     1      -9.704   9.767  66.980  1.00  0.00    -0.233 C  
HETATM   17  C   UNL     1     -10.588   9.077  68.097  1.00  0.00    -0.225 C  
HETATM   18  C   UNL     1      -9.598  10.219  63.926  1.00  0.00    -0.354 C  
HETATM   19  C   UNL     1      -8.663   9.228  64.612  1.00  0.00    -0.223 C  
HETATM   20  C   UNL     1      -9.149   8.740  65.961  1.00  0.00    -0.265 C  
ENDROOT
BRANCH   4  21
HETATM   21  C   UNL     1     -10.444  14.964  66.465  1.00  0.00    -0.297 C  
HETATM   22  O   UNL     1     -10.396  16.086  65.953  1.00  0.00    -0.328 OA 
BRANCH  21  23
HETATM   23  C   UNL     1     -10.254  14.916  67.977  1.00  0.00    -0.228 C  
BRANCH  23  24
HETATM   24  O   UNL     1     -11.225  15.751  68.591  1.00  0.00    -0.308 OA 
BRANCH  24  25
HETATM   25  C   UNL     1     -11.792  15.258  69.719  1.00  0.00    -0.332 C  
HETATM   26  C   UNL     1     -11.569  16.196  70.862  1.00  0.00    -0.406 C  
HETATM   27  O   UNL     1     -12.401  14.202  69.802  1.00  0.00    -0.336 OA 
ENDBRANCH  24  25
ENDBRANCH  23  24
ENDBRANCH  21  23
ENDBRANCH   4  21
TORSDOF 4
ENDMDL
MODEL       28
REMARK 921   NORMALIZED FREE ENERGY PREDICTED BY IDOCK:   -5.64 KCAL/MOL
REMARK 922        TOTAL FREE ENERGY PREDICTED BY IDOCK:   -6.52 KCAL/MOL
REMARK 923 INTER-LIGAND FREE ENERGY PREDICTED BY IDOCK:   -6.94 KCAL/MOL
REMARK 924 INTRA-LIGAND FREE ENERGY PREDICTED BY IDOCK:    0.42 KCAL/MOL
REMARK 927      BINDING AFFINITY PREDICTED BY RF-SCORE:    0.00 PKD
ROOT
HETATM    1  C   UNL     1      -8.829  14.130  68.610  1.00  0.00    -0.132 C  
HETATM    2  C   UNL     1      -8.346  15.158  67.747  1.00  0.00    -0.159 C  
HETATM    3  C   UNL     1      -9.721  14.740  67.325  1.00  0.00    -0.230 C  
HETATM    4  C   UNL     1     -10.679  13.495  68.638  1.00  0.00    -0.271 C  
HETATM    5  C   UNL     1      -9.735  10.626  62.980  1.00  0.00    -0.362 C  
HETATM    6  C   UNL     1     -10.590  14.850  68.712  1.00  0.00    -0.247 C  
HETATM    7  C   UNL     1     -10.811  15.905  69.757  1.00  0.00    -0.328 C  
HETATM    8  O   UNL     1      -8.650   8.502  62.682  1.00  0.00    -0.173 OA 
HETATM    9  C   UNL     1      -8.724   9.569  63.279  1.00  0.00    -0.227 C  
HETATM   10  C   UNL     1     -11.820  14.482  67.289  1.00  0.00    -0.419 C  
HETATM   11  C   UNL     1      -7.746   9.931  64.316  1.00  0.00    -0.139 C  
HETATM   12  C   UNL     1     -11.436  12.905  66.532  1.00  0.00    -0.390 C  
HETATM   13  C   UNL     1      -9.829  12.371  66.333  1.00  0.00    -0.249 C  
HETATM   14  C   UNL     1     -10.256   9.831  66.470  1.00  0.00    -0.289 C  
HETATM   15  C   UNL     1      -8.741  12.567  67.619  1.00  0.00    -0.177 C  
HETATM   16  C   UNL     1      -9.673  10.969  65.610  1.00  0.00    -0.276 C  
HETATM   17  C   UNL     1     -10.478  11.026  64.249  1.00  0.00    -0.427 C  
HETATM   18  C   UNL     1      -7.324  12.333  67.082  1.00  0.00    -0.107 C  
HETATM   19  C   UNL     1      -7.177  10.940  66.479  1.00  0.00    -0.142 C  
HETATM   20  C   UNL     1      -8.179  10.621  65.389  1.00  0.00    -0.125 C  
ENDROOT
BRANCH   4  21
HETATM   21  C   UNL     1     -11.997  13.415  69.665  1.00  0.00    -0.324 C  
HETATM   22  O   UNL     1     -12.776  14.327  69.956  1.00  0.00    -0.297 OA 
BRANCH  21  23
HETATM   23  C   UNL     1     -12.266  12.073  70.337  1.00  0.00    -0.294 C  
BRANCH  23  24
HETATM   24  O   UNL     1     -11.616  11.049  69.598  1.00  0.00    -0.259 OA 
BRANCH  24  25
HETATM   25  C   UNL     1     -11.293   9.935  70.300  1.00  0.00    -0.291 C  
HETATM   26  C   UNL     1      -9.822   9.681  70.220  1.00  0.00    -0.321 C  
HETATM   27  O   UNL     1     -12.081   9.231  70.914  1.00  0.00    -0.286 OA 
ENDBRANCH  24  25
ENDBRANCH  23  24
ENDBRANCH  21  23
ENDBRANCH   4  21
TORSDOF 4
ENDMDL
MODEL       29
REMARK 921   NORMALIZED FREE ENERGY PREDICTED BY IDOCK:   -5.63 KCAL/MOL
REMARK 922        TOTAL FREE ENERGY PREDICTED BY IDOCK:   -6.51 KCAL/MOL
REMARK 923 INTER-LIGAND FREE ENERGY PREDICTED BY IDOCK:   -7.00 KCAL/MOL
REMARK 924 INTRA-LIGAND FREE ENERGY PREDICTED BY IDOCK:    0.49 KCAL/MOL
REMARK 927      BINDING AFFINITY PREDICTED BY RF-SCORE:    0.00 PKD
ROOT
HETATM    1  C   UNL     1      -8.897  12.458  67.100  1.00  0.00    -0.197 C  
HETATM    2  C   UNL     1      -8.756  12.259  68.505  1.00  0.00    -0.071 C  
HETATM    3  C   UNL     1     -10.082  12.888  68.208  1.00  0.00    -0.242 C  
HETATM    4  C   UNL     1     -10.572  12.961  66.221  1.00  0.00    -0.281 C  
HETATM    5  C   UNL     1     -10.056  18.852  68.704  1.00  0.00    -0.447 C  
HETATM    6  C   UNL     1     -10.719  11.903  67.063  1.00  0.00    -0.280 C  
HETATM    7  C   UNL     1     -10.955  10.426  66.932  1.00  0.00    -0.167 C  
HETATM    8  O   UNL     1      -8.666  20.599  67.814  1.00  0.00    -0.174 OA 
HETATM    9  C   UNL     1      -8.835  19.410  68.051  1.00  0.00    -0.323 C  
HETATM   10  C   UNL     1     -12.077  13.161  67.560  1.00  0.00    -0.300 C  
HETATM   11  C   UNL     1      -7.783  18.421  67.769  1.00  0.00    -0.240 C  
HETATM   12  C   UNL     1     -11.541  14.828  67.186  1.00  0.00    -0.373 C  
HETATM   13  C   UNL     1      -9.918  15.314  67.374  1.00  0.00    -0.223 C  
HETATM   14  C   UNL     1      -9.849  17.121  65.535  1.00  0.00     0.169 C  
HETATM   15  C   UNL     1      -8.690  14.280  66.832  1.00  0.00    -0.202 C  
HETATM   16  C   UNL     1      -9.630  16.836  67.032  1.00  0.00    -0.244 C  
HETATM   17  C   UNL     1     -10.643  17.726  67.861  1.00  0.00    -0.389 C  
HETATM   18  C   UNL     1      -7.360  14.774  67.414  1.00  0.00    -0.214 C  
HETATM   19  C   UNL     1      -7.063  16.209  66.989  1.00  0.00    -0.248 C  
HETATM   20  C   UNL     1      -8.154  17.202  67.331  1.00  0.00    -0.193 C  
ENDROOT
BRANCH   4  21
HETATM   21  C   UNL     1     -11.669  12.368  65.106  1.00  0.00    -0.382 C  
HETATM   22  O   UNL     1     -12.889  12.551  65.086  1.00  0.00    -0.685 OA 
BRANCH  21  23
HETATM   23  C   UNL     1     -11.111  11.485  63.994  1.00  0.00    -0.365 C  
BRANCH  23  24
HETATM   24  O   UNL     1      -9.693  11.557  64.016  1.00  0.00    -0.242 OA 
BRANCH  24  25
HETATM   25  C   UNL     1      -9.043  10.431  63.632  1.00  0.00    -0.253 C  
HETATM   26  C   UNL     1      -8.057  10.021  64.678  1.00  0.00    -0.155 C  
HETATM   27  O   UNL     1      -9.228   9.829  62.585  1.00  0.00    -0.281 OA 
ENDBRANCH  24  25
ENDBRANCH  23  24
ENDBRANCH  21  23
ENDBRANCH   4  21
TORSDOF 4
ENDMDL
MODEL       30
REMARK 921   NORMALIZED FREE ENERGY PREDICTED BY IDOCK:   -5.62 KCAL/MOL
REMARK 922        TOTAL FREE ENERGY PREDICTED BY IDOCK:   -6.49 KCAL/MOL
REMARK 923 INTER-LIGAND FREE ENERGY PREDICTED BY IDOCK:   -7.07 KCAL/MOL
REMARK 924 INTRA-LIGAND FREE ENERGY PREDICTED BY IDOCK:    0.58 KCAL/MOL
REMARK 927      BINDING AFFINITY PREDICTED BY RF-SCORE:    0.00 PKD
ROOT
HETATM    1  C   UNL     1     -10.842  11.193  65.853  1.00  0.00    -0.223 C  
HETATM    2  C   UNL     1      -9.928  10.823  64.822  1.00  0.00    -0.382 C  
HETATM    3  C   UNL     1      -9.203  10.953  66.125  1.00  0.00    -0.205 C  
HETATM    4  C   UNL     1     -10.414  11.177  67.762  1.00  0.00    -0.225 C  
HETATM    5  C   UNL     1      -6.665  16.313  66.922  1.00  0.00    -0.165 C  
HETATM    6  C   UNL     1     -10.083  10.013  67.141  1.00  0.00    -0.265 C  
HETATM    7  C   UNL     1     -10.593   8.601  67.121  1.00  0.00    -0.304 C  
HETATM    8  O   UNL     1      -7.455  18.578  66.770  1.00  0.00    -0.209 OA 
HETATM    9  C   UNL     1      -7.619  17.390  66.522  1.00  0.00    -0.282 C  
HETATM   10  C   UNL     1      -8.511  10.567  68.086  1.00  0.00    -0.123 C  
HETATM   11  C   UNL     1      -8.764  16.930  65.721  1.00  0.00     0.147 C  
HETATM   12  C   UNL     1      -8.476  12.351  68.236  1.00  0.00    -0.170 C  
HETATM   13  C   UNL     1      -9.037  13.368  66.988  1.00  0.00    -0.245 C  
HETATM   14  C   UNL     1      -9.806  15.357  68.439  1.00  0.00    -0.215 C  
HETATM   15  C   UNL     1     -10.492  12.978  66.211  1.00  0.00    -0.285 C  
HETATM   16  C   UNL     1      -8.897  14.922  67.275  1.00  0.00    -0.216 C  
HETATM   17  C   UNL     1      -7.395  15.212  67.682  1.00  0.00    -0.205 C  
HETATM   18  C   UNL     1     -10.593  13.825  64.937  1.00  0.00    -0.427 C  
HETATM   19  C   UNL     1     -10.552  15.317  65.254  1.00  0.00    -0.438 C  
HETATM   20  C   UNL     1      -9.339  15.756  66.046  1.00  0.00    -0.384 C  
ENDROOT
BRANCH   4  21
HETATM   21  C   UNL     1     -10.878  10.418  69.179  1.00  0.00    -0.236 C  
HETATM   22  O   UNL     1     -10.302   9.493  69.756  1.00  0.00    -0.201 OA 
BRANCH  21  23
HETATM   23  C   UNL     1     -12.168  10.907  69.830  1.00  0.00    -0.336 C  
BRANCH  23  24
HETATM   24  O   UNL     1     -12.093  12.315  70.002  1.00  0.00    -0.314 OA 
BRANCH  24  25
HETATM   25  C   UNL     1     -12.637  12.794  71.147  1.00  0.00    -0.271 C  
HETATM   26  C   UNL     1     -12.274  14.233  71.329  1.00  0.00    -0.426 C  
HETATM   27  O   UNL     1     -13.326  12.154  71.927  1.00  0.00    -0.463 OA 
ENDBRANCH  24  25
ENDBRANCH  23  24
ENDBRANCH  21  23
ENDBRANCH   4  21
TORSDOF 4
ENDMDL
MODEL       31
REMARK 921   NORMALIZED FREE ENERGY PREDICTED BY IDOCK:   -5.61 KCAL/MOL
REMARK 922        TOTAL FREE ENERGY PREDICTED BY IDOCK:   -6.48 KCAL/MOL
REMARK 923 INTER-LIGAND FREE ENERGY PREDICTED BY IDOCK:   -6.65 KCAL/MOL
REMARK 924 INTRA-LIGAND FREE ENERGY PREDICTED BY IDOCK:    0.17 KCAL/MOL
REMARK 927      BINDING AFFINITY PREDICTED BY RF-SCORE:    0.00 PKD
ROOT
HETATM    1  C   UNL     1     -10.472  12.404  66.338  1.00  0.00    -0.267 C  
HETATM    2  C   UNL     1     -11.778  12.227  65.794  1.00  0.00    -0.445 C  
HETATM    3  C   UNL     1     -11.873  12.615  67.237  1.00  0.00    -0.395 C  
HETATM    4  C   UNL     1     -10.105  13.206  68.084  1.00  0.00    -0.237 C  
HETATM    5  C   UNL     1     -12.405   7.940  70.934  1.00  0.00    -0.095 C  
HETATM    6  C   UNL     1     -10.943  13.963  67.327  1.00  0.00    -0.299 C  
HETATM    7  C   UNL     1     -10.868  15.264  66.581  1.00  0.00    -0.310 C  
HETATM    8  O   UNL     1     -11.179   5.895  71.234  1.00  0.00    -0.273 OA 
HETATM    9  C   UNL     1     -11.441   6.871  70.542  1.00  0.00    -0.342 C  
HETATM   10  C   UNL     1     -11.816  13.751  69.020  1.00  0.00    -0.397 C  
HETATM   11  C   UNL     1     -10.864   7.028  69.197  1.00  0.00    -0.223 C  
HETATM   12  C   UNL     1     -11.323  12.207  69.780  1.00  0.00    -0.173 C  
HETATM   13  C   UNL     1     -11.053  10.798  68.859  1.00  0.00    -0.307 C  
HETATM   14  C   UNL     1      -9.288   9.687  70.377  1.00  0.00    -0.268 C  
HETATM   15  C   UNL     1     -10.176  10.926  67.414  1.00  0.00    -0.236 C  
HETATM   16  C   UNL     1     -10.660   9.512  69.700  1.00  0.00    -0.245 C  
HETATM   17  C   UNL     1     -11.750   9.312  70.830  1.00  0.00    -0.328 C  
HETATM   18  C   UNL     1     -10.365   9.624  66.626  1.00  0.00    -0.279 C  
HETATM   19  C   UNL     1      -9.889   8.413  67.423  1.00  0.00    -0.249 C  
HETATM   20  C   UNL     1     -10.535   8.267  68.785  1.00  0.00    -0.200 C  
ENDROOT
BRANCH   4  21
HETATM   21  C   UNL     1      -9.337  14.531  68.757  1.00  0.00    -0.177 C  
HETATM   22  O   UNL     1      -9.794  15.317  69.591  1.00  0.00    -0.252 OA 
BRANCH  21  23
HETATM   23  C   UNL     1      -7.918  14.820  68.280  1.00  0.00    -0.130 C  
BRANCH  23  24
HETATM   24  O   UNL     1      -7.033  13.877  68.868  1.00  0.00    -0.103 OA 
BRANCH  24  25
HETATM   25  C   UNL     1      -6.561  12.918  68.034  1.00  0.00    -0.107 C  
HETATM   26  C   UNL     1      -6.806  11.562  68.613  1.00  0.00    -0.077 C  
HETATM   27  O   UNL     1      -6.012  13.120  66.961  1.00  0.00    -0.235 OA 
ENDBRANCH  24  25
ENDBRANCH  23  24
ENDBRANCH  21  23
ENDBRANCH   4  21
TORSDOF 4
ENDMDL
MODEL       32
REMARK 921   NORMALIZED FREE ENERGY PREDICTED BY IDOCK:   -5.58 KCAL/MOL
REMARK 922        TOTAL FREE ENERGY PREDICTED BY IDOCK:   -6.44 KCAL/MOL
REMARK 923 INTER-LIGAND FREE ENERGY PREDICTED BY IDOCK:   -6.55 KCAL/MOL
REMARK 924 INTRA-LIGAND FREE ENERGY PREDICTED BY IDOCK:    0.12 KCAL/MOL
REMARK 927      BINDING AFFINITY PREDICTED BY RF-SCORE:    0.00 PKD
ROOT
HETATM    1  C   UNL     1      -8.353  10.164  69.356  1.00  0.00    -0.174 C  
HETATM    2  C   UNL     1      -7.204  10.153  68.512  1.00  0.00    -0.080 C  
HETATM    3  C   UNL     1      -8.434   9.875  67.705  1.00  0.00    -0.114 C  
HETATM    4  C   UNL     1     -10.198  10.158  68.706  1.00  0.00    -0.200 C  
HETATM    5  C   UNL     1      -9.499   4.040  66.910  1.00  0.00    -0.220 C  
HETATM    6  C   UNL     1      -9.435  11.111  68.107  1.00  0.00    -0.180 C  
HETATM    7  C   UNL     1      -9.328  12.608  68.143  1.00  0.00    -0.210 C  
HETATM    8  O   UNL     1      -9.652   2.151  68.387  1.00  0.00    -0.198 OA 
HETATM    9  C   UNL     1      -9.306   3.310  68.198  1.00  0.00    -0.187 C  
HETATM   10  C   UNL     1     -10.268  10.135  66.683  1.00  0.00    -0.287 C  
HETATM   11  C   UNL     1      -8.582   4.067  69.231  1.00  0.00    -0.111 C  
HETATM   12  C   UNL     1     -10.589   8.449  67.195  1.00  0.00    -0.326 C  
HETATM   13  C   UNL     1      -9.511   7.595  68.202  1.00  0.00    -0.150 C  
HETATM   14  C   UNL     1     -11.222   6.057  69.368  1.00  0.00    -0.397 C  
HETATM   15  C   UNL     1      -8.849   8.389  69.545  1.00  0.00    -0.145 C  
HETATM   16  C   UNL     1      -9.935   6.101  68.524  1.00  0.00    -0.173 C  
HETATM   17  C   UNL     1     -10.216   5.363  67.152  1.00  0.00    -0.266 C  
HETATM   18  C   UNL     1      -7.683   7.544  70.070  1.00  0.00    -0.094 C  
HETATM   19  C   UNL     1      -8.140   6.142  70.463  1.00  0.00    -0.113 C  
HETATM   20  C   UNL     1      -8.846   5.382  69.359  1.00  0.00    -0.117 C  
ENDROOT
BRANCH   4  21
HETATM   21  C   UNL     1     -11.573  11.112  68.723  1.00  0.00    -0.322 C  
HETATM   22  O   UNL     1     -12.079  11.713  67.771  1.00  0.00    -0.613 OA 
BRANCH  21  23
HETATM   23  C   UNL     1     -12.278  11.279  70.064  1.00  0.00    -0.314 C  
BRANCH  23  24
HETATM   24  O   UNL     1     -11.589  10.518  71.046  1.00  0.00    -0.330 OA 
BRANCH  24  25
HETATM   25  C   UNL     1     -12.330   9.582  71.688  1.00  0.00    -0.398 C  
HETATM   26  C   UNL     1     -11.449   8.488  72.200  1.00  0.00    -0.446 C  
HETATM   27  O   UNL     1     -13.542   9.616  71.834  1.00  0.00    -0.391 OA 
ENDBRANCH  24  25
ENDBRANCH  23  24
ENDBRANCH  21  23
ENDBRANCH   4  21
TORSDOF 4
ENDMDL
MODEL       33
REMARK 921   NORMALIZED FREE ENERGY PREDICTED BY IDOCK:   -5.55 KCAL/MOL
REMARK 922        TOTAL FREE ENERGY PREDICTED BY IDOCK:   -6.41 KCAL/MOL
REMARK 923 INTER-LIGAND FREE ENERGY PREDICTED BY IDOCK:   -6.83 KCAL/MOL
REMARK 924 INTRA-LIGAND FREE ENERGY PREDICTED BY IDOCK:    0.42 KCAL/MOL
REMARK 927      BINDING AFFINITY PREDICTED BY RF-SCORE:    0.00 PKD
ROOT
HETATM    1  C   UNL     1     -10.114   9.955  70.166  1.00  0.00    -0.309 C  
HETATM    2  C   UNL     1     -11.348   9.242  70.214  1.00  0.00    -0.238 C  
HETATM    3  C   UNL     1     -10.642   8.955  68.925  1.00  0.00    -0.188 C  
HETATM    4  C   UNL     1      -8.719   9.653  68.828  1.00  0.00    -0.126 C  
HETATM    5  C   UNL     1     -12.428  12.435  64.397  1.00  0.00    -0.520 C  
HETATM    6  C   UNL     1      -9.143   8.500  69.411  1.00  0.00    -0.150 C  
HETATM    7  C   UNL     1      -8.591   7.500  70.386  1.00  0.00    -0.143 C  
HETATM    8  O   UNL     1     -12.671  14.809  64.105  1.00  0.00    -0.758 OA 
HETATM    9  C   UNL     1     -12.533  13.852  64.857  1.00  0.00    -0.391 C  
HETATM   10  C   UNL     1      -9.251   8.201  67.521  1.00  0.00    -0.154 C  
HETATM   11  C   UNL     1     -12.536  14.024  66.318  1.00  0.00    -0.439 C  
HETATM   12  C   UNL     1      -9.542   9.748  66.667  1.00  0.00    -0.239 C  
HETATM   13  C   UNL     1     -10.540  10.964  67.325  1.00  0.00    -0.296 C  
HETATM   14  C   UNL     1      -9.386  13.013  66.266  1.00  0.00    -0.149 C  
HETATM   15  C   UNL     1     -10.385  11.343  68.970  1.00  0.00    -0.166 C  
HETATM   16  C   UNL     1     -10.716  12.251  66.416  1.00  0.00    -0.284 C  
HETATM   17  C   UNL     1     -11.182  11.778  64.979  1.00  0.00    -0.318 C  
HETATM   18  C   UNL     1     -11.594  12.193  69.377  1.00  0.00    -0.381 C  
HETATM   19  C   UNL     1     -11.682  13.473  68.551  1.00  0.00    -0.392 C  
HETATM   20  C   UNL     1     -11.716  13.249  67.053  1.00  0.00    -0.439 C  
ENDROOT
BRANCH   4  21
HETATM   21  C   UNL     1      -7.130   9.142  68.718  1.00  0.00    -0.073 C  
HETATM   22  O   UNL     1      -6.722   7.984  68.597  1.00  0.00    -0.058 OA 
BRANCH  21  23
HETATM   23  C   UNL     1      -6.053  10.220  68.792  1.00  0.00    -0.047 C  
BRANCH  23  24
HETATM   24  O   UNL     1      -5.353  10.258  67.556  1.00  0.00    -0.041 OA 
BRANCH  24  25
HETATM   25  C   UNL     1      -5.780  11.190  66.670  1.00  0.00    -0.118 C  
HETATM   26  C   UNL     1      -6.229  10.532  65.404  1.00  0.00    -0.110 C  
HETATM   27  O   UNL     1      -5.800  12.396  66.864  1.00  0.00    -0.298 OA 
ENDBRANCH  24  25
ENDBRANCH  23  24
ENDBRANCH  21  23
ENDBRANCH   4  21
TORSDOF 4
ENDMDL
MODEL       34
REMARK 921   NORMALIZED FREE ENERGY PREDICTED BY IDOCK:   -5.54 KCAL/MOL
REMARK 922        TOTAL FREE ENERGY PREDICTED BY IDOCK:   -6.40 KCAL/MOL
REMARK 923 INTER-LIGAND FREE ENERGY PREDICTED BY IDOCK:   -6.89 KCAL/MOL
REMARK 924 INTRA-LIGAND FREE ENERGY PREDICTED BY IDOCK:    0.49 KCAL/MOL
REMARK 927      BINDING AFFINITY PREDICTED BY RF-SCORE:    0.00 PKD
ROOT
HETATM    1  C   UNL     1     -10.520  12.343  66.228  1.00  0.00    -0.271 C  
HETATM    2  C   UNL     1     -11.850  12.173  65.744  1.00  0.00    -0.342 C  
HETATM    3  C   UNL     1     -11.877  12.537  67.196  1.00  0.00    -0.386 C  
HETATM    4  C   UNL     1     -10.071  13.116  67.968  1.00  0.00    -0.232 C  
HETATM    5  C   UNL     1     -12.229   7.802  70.838  1.00  0.00    -0.166 C  
HETATM    6  C   UNL     1     -10.944  13.884  67.264  1.00  0.00    -0.299 C  
HETATM    7  C   UNL     1     -10.905  15.197  66.537  1.00  0.00    -0.317 C  
HETATM    8  O   UNL     1     -10.989   5.754  71.046  1.00  0.00    -0.271 OA 
HETATM    9  C   UNL     1     -11.284   6.740  70.383  1.00  0.00    -0.328 C  
HETATM   10  C   UNL     1     -11.735  13.644  68.993  1.00  0.00    -0.375 C  
HETATM   11  C   UNL     1     -10.772   6.920  69.015  1.00  0.00    -0.259 C  
HETATM   12  C   UNL     1     -11.206  12.088  69.703  1.00  0.00    -0.168 C  
HETATM   13  C   UNL     1     -10.979  10.695  68.748  1.00  0.00    -0.292 C  
HETATM   14  C   UNL     1      -9.143   9.562  70.161  1.00  0.00    -0.276 C  
HETATM   15  C   UNL     1     -10.172  10.847  67.265  1.00  0.00    -0.242 C  
HETATM   16  C   UNL     1     -10.546   9.396  69.548  1.00  0.00    -0.237 C  
HETATM   17  C   UNL     1     -11.580   9.176  70.725  1.00  0.00    -0.329 C  
HETATM   18  C   UNL     1     -10.398   9.558  66.466  1.00  0.00    -0.263 C  
HETATM   19  C   UNL     1      -9.884   8.335  67.219  1.00  0.00    -0.258 C  
HETATM   20  C   UNL     1     -10.464   8.166  68.608  1.00  0.00    -0.195 C  
ENDROOT
BRANCH   4  21
HETATM   21  C   UNL     1      -9.272  14.431  68.625  1.00  0.00    -0.181 C  
HETATM   22  O   UNL     1      -9.762  15.351  69.285  1.00  0.00    -0.234 OA 
BRANCH  21  23
HETATM   23  C   UNL     1      -7.771  14.523  68.370  1.00  0.00    -0.128 C  
BRANCH  23  24
HETATM   24  O   UNL     1      -7.549  15.307  67.207  1.00  0.00    -0.188 OA 
BRANCH  24  25
HETATM   25  C   UNL     1      -7.128  16.576  67.428  1.00  0.00    -0.154 C  
HETATM   26  C   UNL     1      -7.362  17.418  66.215  1.00  0.00    -0.347 C  
HETATM   27  O   UNL     1      -6.628  16.987  68.465  1.00  0.00    -0.156 OA 
ENDBRANCH  24  25
ENDBRANCH  23  24
ENDBRANCH  21  23
ENDBRANCH   4  21
TORSDOF 4
ENDMDL
MODEL       35
REMARK 921   NORMALIZED FREE ENERGY PREDICTED BY IDOCK:   -5.53 KCAL/MOL
REMARK 922        TOTAL FREE ENERGY PREDICTED BY IDOCK:   -6.38 KCAL/MOL
REMARK 923 INTER-LIGAND FREE ENERGY PREDICTED BY IDOCK:   -7.23 KCAL/MOL
REMARK 924 INTRA-LIGAND FREE ENERGY PREDICTED BY IDOCK:    0.86 KCAL/MOL
REMARK 927      BINDING AFFINITY PREDICTED BY RF-SCORE:    0.00 PKD
ROOT
HETATM    1  C   UNL     1     -11.782  15.115  65.714  1.00  0.00    -0.016 C  
HETATM    2  C   UNL     1     -11.370  15.465  64.394  1.00  0.00    -0.246 C  
HETATM    3  C   UNL     1     -10.446  14.433  64.961  1.00  0.00    -0.454 C  
HETATM    4  C   UNL     1     -11.071  13.598  66.724  1.00  0.00    -0.315 C  
HETATM    5  C   UNL     1      -5.536  16.750  67.477  1.00  0.00    -0.164 C  
HETATM    6  C   UNL     1     -11.465  13.253  65.469  1.00  0.00    -0.335 C  
HETATM    7  C   UNL     1     -12.588  12.469  64.853  1.00  0.00    -0.469 C  
HETATM    8  O   UNL     1      -5.144  18.464  69.117  1.00  0.00    -0.182 OA 
HETATM    9  C   UNL     1      -5.905  17.924  68.323  1.00  0.00    -0.168 C  
HETATM   10  C   UNL     1      -9.678  12.589  65.657  1.00  0.00    -0.169 C  
HETATM   11  C   UNL     1      -7.255  18.455  68.080  1.00  0.00    -0.270 C  
HETATM   12  C   UNL     1      -8.758  13.608  66.807  1.00  0.00    -0.101 C  
HETATM   13  C   UNL     1      -8.976  15.296  66.885  1.00  0.00    -0.274 C  
HETATM   14  C   UNL     1      -8.404  15.636  69.377  1.00  0.00    -0.238 C  
HETATM   15  C   UNL     1     -10.554  15.916  66.847  1.00  0.00    -0.309 C  
HETATM   16  C   UNL     1      -8.052  16.044  67.935  1.00  0.00    -0.149 C  
HETATM   17  C   UNL     1      -6.552  15.628  67.653  1.00  0.00    -0.198 C  
HETATM   18  C   UNL     1     -10.466  17.424  66.588  1.00  0.00    -0.253 C  
HETATM   19  C   UNL     1      -9.651  18.132  67.667  1.00  0.00    -0.278 C  
HETATM   20  C   UNL     1      -8.254  17.579  67.859  1.00  0.00    -0.231 C  
ENDROOT
BRANCH   4  21
HETATM   21  C   UNL     1     -11.572  12.152  67.399  1.00  0.00    -0.340 C  
HETATM   22  O   UNL     1     -11.588  11.041  66.864  1.00  0.00    -0.378 OA 
BRANCH  21  23
HETATM   23  C   UNL     1     -12.089  12.205  68.834  1.00  0.00    -0.133 C  
BRANCH  23  24
HETATM   24  O   UNL     1     -12.445  10.892  69.244  1.00  0.00    -0.392 OA 
BRANCH  24  25
HETATM   25  C   UNL     1     -12.391  10.662  70.578  1.00  0.00    -0.359 C  
HETATM   26  C   UNL     1     -11.422   9.562  70.874  1.00  0.00    -0.405 C  
HETATM   27  O   UNL     1     -13.035  11.258  71.428  1.00  0.00    -0.407 OA 
ENDBRANCH  24  25
ENDBRANCH  23  24
ENDBRANCH  21  23
ENDBRANCH   4  21
TORSDOF 4
ENDMDL
MODEL       36
REMARK 921   NORMALIZED FREE ENERGY PREDICTED BY IDOCK:   -5.44 KCAL/MOL
REMARK 922        TOTAL FREE ENERGY PREDICTED BY IDOCK:   -6.27 KCAL/MOL
REMARK 923 INTER-LIGAND FREE ENERGY PREDICTED BY IDOCK:   -7.52 KCAL/MOL
REMARK 924 INTRA-LIGAND FREE ENERGY PREDICTED BY IDOCK:    1.25 KCAL/MOL
REMARK 927      BINDING AFFINITY PREDICTED BY RF-SCORE:    0.00 PKD
ROOT
HETATM    1  C   UNL     1     -10.340  10.218  64.825  1.00  0.00    -0.101 C  
HETATM    2  C   UNL     1      -9.322  10.328  63.833  1.00  0.00    -0.337 C  
HETATM    3  C   UNL     1      -8.767  10.688  65.176  1.00  0.00    -0.196 C  
HETATM    4  C   UNL     1     -10.011  10.288  66.752  1.00  0.00    -0.261 C  
HETATM    5  C   UNL     1      -8.808  16.570  66.276  1.00  0.00    -0.364 C  
HETATM    6  C   UNL     1      -9.192   9.411  66.113  1.00  0.00    -0.241 C  
HETATM    7  C   UNL     1      -9.045   7.920  66.021  1.00  0.00    -0.181 C  
HETATM    8  O   UNL     1     -10.489  18.284  66.155  1.00  0.00    -0.420 OA 
HETATM    9  C   UNL     1     -10.117  17.155  65.861  1.00  0.00    -0.240 C  
HETATM   10  C   UNL     1      -8.043  10.535  67.157  1.00  0.00    -0.120 C  
HETATM   11  C   UNL     1     -10.926  16.291  64.987  1.00  0.00    -0.311 C  
HETATM   12  C   UNL     1      -8.784  12.152  67.365  1.00  0.00    -0.177 C  
HETATM   13  C   UNL     1      -9.685  12.895  66.123  1.00  0.00    -0.250 C  
HETATM   14  C   UNL     1     -11.282  14.285  67.595  1.00  0.00    -0.321 C  
HETATM   15  C   UNL     1     -10.803  11.959  65.258  1.00  0.00    -0.347 C  
HETATM   16  C   UNL     1     -10.235  14.341  66.467  1.00  0.00    -0.277 C  
HETATM   17  C   UNL     1      -9.019  15.225  66.961  1.00  0.00    -0.254 C  
HETATM   18  C   UNL     1     -11.216  12.747  64.009  1.00  0.00    -0.463 C  
HETATM   19  C   UNL     1     -11.831  14.094  64.375  1.00  0.00    -0.447 C  
HETATM   20  C   UNL     1     -10.951  14.969  65.244  1.00  0.00    -0.391 C  
ENDROOT
BRANCH   4  21
HETATM   21  C   UNL     1     -10.152   9.332  68.118  1.00  0.00    -0.187 C  
HETATM   22  O   UNL     1     -10.673   8.217  68.201  1.00  0.00    -0.151 OA 
BRANCH  21  23
HETATM   23  C   UNL     1      -9.592   9.901  69.417  1.00  0.00    -0.215 C  
BRANCH  23  24
HETATM   24  O   UNL     1      -9.101   8.833  70.215  1.00  0.00    -0.151 OA 
BRANCH  24  25
HETATM   25  C   UNL     1      -9.415   8.895  71.533  1.00  0.00    -0.277 C  
HETATM   26  C   UNL     1     -10.899   8.887  71.712  1.00  0.00    -0.436 C  
HETATM   27  O   UNL     1      -8.610   8.950  72.451  1.00  0.00    -0.399 OA 
ENDBRANCH  24  25
ENDBRANCH  23  24
ENDBRANCH  21  23
ENDBRANCH   4  21
TORSDOF 4
ENDMDL
MODEL       37
REMARK 921   NORMALIZED FREE ENERGY PREDICTED BY IDOCK:   -5.43 KCAL/MOL
REMARK 922        TOTAL FREE ENERGY PREDICTED BY IDOCK:   -6.25 KCAL/MOL
REMARK 923 INTER-LIGAND FREE ENERGY PREDICTED BY IDOCK:   -6.64 KCAL/MOL
REMARK 924 INTRA-LIGAND FREE ENERGY PREDICTED BY IDOCK:    0.39 KCAL/MOL
REMARK 927      BINDING AFFINITY PREDICTED BY RF-SCORE:    0.00 PKD
ROOT
HETATM    1  C   UNL     1     -11.998   9.769  71.824  1.00  0.00    -0.388 C  
HETATM    2  C   UNL     1     -13.353   9.431  71.540  1.00  0.00    -0.458 C  
HETATM    3  C   UNL     1     -12.454   8.868  70.484  1.00  0.00     0.302 C  
HETATM    4  C   UNL     1     -10.454   8.997  70.903  1.00  0.00    -0.321 C  
HETATM    5  C   UNL     1     -11.954  12.368  65.656  1.00  0.00    -0.449 C  
HETATM    6  C   UNL     1     -11.324   8.052  71.348  1.00  0.00    -0.292 C  
HETATM    7  C   UNL     1     -11.349   7.012  72.431  1.00  0.00    -0.307 C  
HETATM    8  O   UNL     1     -11.426  14.688  65.319  1.00  0.00    -0.342 OA 
HETATM    9  C   UNL     1     -11.764  13.788  66.077  1.00  0.00    -0.363 C  
HETATM   10  C   UNL     1     -11.027   7.659  69.496  1.00  0.00    -0.108 C  
HETATM   11  C   UNL     1     -12.089  14.060  67.486  1.00  0.00    -0.361 C  
HETATM   12  C   UNL     1     -10.636   9.159  68.601  1.00  0.00    -0.207 C  
HETATM   13  C   UNL     1     -11.378  10.648  68.975  1.00  0.00    -0.340 C  
HETATM   14  C   UNL     1      -9.456  12.215  68.267  1.00  0.00    -0.204 C  
HETATM   15  C   UNL     1     -11.546  11.088  70.603  1.00  0.00    -0.268 C  
HETATM   16  C   UNL     1     -10.940  11.864  68.056  1.00  0.00    -0.271 C  
HETATM   17  C   UNL     1     -11.140  11.436  66.546  1.00  0.00    -0.312 C  
HETATM   18  C   UNL     1     -12.524  12.266  70.679  1.00  0.00    -0.323 C  
HETATM   19  C   UNL     1     -12.029  13.457  69.863  1.00  0.00    -0.408 C  
HETATM   20  C   UNL     1     -11.741  13.143  68.409  1.00  0.00    -0.386 C  
ENDROOT
BRANCH   4  21
HETATM   21  C   UNL     1      -9.104   8.060  71.216  1.00  0.00    -0.139 C  
HETATM   22  O   UNL     1      -8.903   6.895  70.864  1.00  0.00    -0.147 OA 
BRANCH  21  23
HETATM   23  C   UNL     1      -7.997   8.703  72.045  1.00  0.00    -0.054 C  
BRANCH  23  24
HETATM   24  O   UNL     1      -6.813   8.769  71.262  1.00  0.00    -0.068 OA 
BRANCH  24  25
HETATM   25  C   UNL     1      -6.840   9.652  70.234  1.00  0.00    -0.107 C  
HETATM   26  C   UNL     1      -6.817   8.925  68.928  1.00  0.00    -0.061 C  
HETATM   27  O   UNL     1      -6.877  10.868  70.345  1.00  0.00    -0.257 OA 
ENDBRANCH  24  25
ENDBRANCH  23  24
ENDBRANCH  21  23
ENDBRANCH   4  21
TORSDOF 4
ENDMDL
MODEL       38
REMARK 921   NORMALIZED FREE ENERGY PREDICTED BY IDOCK:   -5.42 KCAL/MOL
REMARK 922        TOTAL FREE ENERGY PREDICTED BY IDOCK:   -6.25 KCAL/MOL
REMARK 923 INTER-LIGAND FREE ENERGY PREDICTED BY IDOCK:   -6.39 KCAL/MOL
REMARK 924 INTRA-LIGAND FREE ENERGY PREDICTED BY IDOCK:    0.14 KCAL/MOL
REMARK 927      BINDING AFFINITY PREDICTED BY RF-SCORE:    0.00 PKD
ROOT
HETATM    1  C   UNL     1      -8.172   9.889  70.151  1.00  0.00    -0.162 C  
HETATM    2  C   UNL     1      -6.838   9.410  70.307  1.00  0.00    -0.080 C  
HETATM    3  C   UNL     1      -7.577   8.554  69.326  1.00  0.00    -0.095 C  
HETATM    4  C   UNL     1      -9.404   9.284  68.757  1.00  0.00    -0.139 C  
HETATM    5  C   UNL     1      -9.987   3.655  71.773  1.00  0.00    -0.210 C  
HETATM    6  C   UNL     1      -8.189   9.643  68.262  1.00  0.00    -0.106 C  
HETATM    7  C   UNL     1      -7.630  10.772  67.446  1.00  0.00    -0.099 C  
HETATM    8  O   UNL     1     -11.404   3.256  73.674  1.00  0.00    -0.224 OA 
HETATM    9  C   UNL     1     -10.654   4.007  73.062  1.00  0.00    -0.174 C  
HETATM   10  C   UNL     1      -8.543   7.894  67.564  1.00  0.00    -0.122 C  
HETATM   11  C   UNL     1     -10.283   5.322  73.606  1.00  0.00    -0.237 C  
HETATM   12  C   UNL     1      -9.590   6.978  68.691  1.00  0.00    -0.138 C  
HETATM   13  C   UNL     1      -9.436   7.128  70.382  1.00  0.00    -0.162 C  
HETATM   14  C   UNL     1     -11.885   6.642  71.029  1.00  0.00    -0.427 C  
HETATM   15  C   UNL     1      -9.245   8.675  71.049  1.00  0.00    -0.253 C  
HETATM   16  C   UNL     1     -10.419   6.215  71.228  1.00  0.00    -0.274 C  
HETATM   17  C   UNL     1     -10.262   4.724  70.723  1.00  0.00    -0.246 C  
HETATM   18  C   UNL     1      -8.794   8.512  72.506  1.00  0.00    -0.245 C  
HETATM   19  C   UNL     1      -9.807   7.712  73.319  1.00  0.00    -0.360 C  
HETATM   20  C   UNL     1     -10.133   6.348  72.746  1.00  0.00    -0.195 C  
ENDROOT
BRANCH   4  21
HETATM   21  C   UNL     1     -10.240   9.874  67.433  1.00  0.00    -0.222 C  
HETATM   22  O   UNL     1     -10.263   9.405  66.292  1.00  0.00    -0.274 OA 
BRANCH  21  23
HETATM   23  C   UNL     1     -11.054  11.147  67.644  1.00  0.00    -0.287 C  
BRANCH  23  24
HETATM   24  O   UNL     1     -12.144  10.858  68.508  1.00  0.00    -0.545 OA 
BRANCH  24  25
HETATM   25  C   UNL     1     -12.073  11.410  69.744  1.00  0.00    -0.320 C  
HETATM   26  C   UNL     1     -12.352  10.377  70.788  1.00  0.00    -0.463 C  
HETATM   27  O   UNL     1     -11.819  12.581  69.983  1.00  0.00    -0.331 OA 
ENDBRANCH  24  25
ENDBRANCH  23  24
ENDBRANCH  21  23
ENDBRANCH   4  21
TORSDOF 4
ENDMDL
MODEL       39
REMARK 921   NORMALIZED FREE ENERGY PREDICTED BY IDOCK:   -5.35 KCAL/MOL
REMARK 922        TOTAL FREE ENERGY PREDICTED BY IDOCK:   -6.17 KCAL/MOL
REMARK 923 INTER-LIGAND FREE ENERGY PREDICTED BY IDOCK:   -6.79 KCAL/MOL
REMARK 924 INTRA-LIGAND FREE ENERGY PREDICTED BY IDOCK:    0.62 KCAL/MOL
REMARK 927      BINDING AFFINITY PREDICTED BY RF-SCORE:    0.00 PKD
ROOT
HETATM    1  C   UNL     1      -8.239  12.205  68.082  1.00  0.00    -0.164 C  
HETATM    2  C   UNL     1      -7.574  11.595  66.978  1.00  0.00    -0.154 C  
HETATM    3  C   UNL     1      -9.040  11.294  66.921  1.00  0.00    -0.172 C  
HETATM    4  C   UNL     1     -10.183  12.346  68.256  1.00  0.00    -0.230 C  
HETATM    5  C   UNL     1     -10.496   6.041  69.391  1.00  0.00    -0.331 C  
HETATM    6  C   UNL     1      -9.733  12.775  67.046  1.00  0.00    -0.224 C  
HETATM    7  C   UNL     1      -9.581  14.091  66.340  1.00  0.00    -0.299 C  
HETATM    8  O   UNL     1     -10.039   5.004  71.510  1.00  0.00    -0.182 OA 
HETATM    9  C   UNL     1      -9.779   5.876  70.690  1.00  0.00    -0.176 C  
HETATM   10  C   UNL     1     -11.128  11.517  66.670  1.00  0.00    -0.355 C  
HETATM   11  C   UNL     1      -8.659   6.807  70.896  1.00  0.00    -0.137 C  
HETATM   12  C   UNL     1     -11.238  10.304  67.983  1.00  0.00    -0.303 C  
HETATM   13  C   UNL     1      -9.851   9.718  68.783  1.00  0.00    -0.176 C  
HETATM   14  C   UNL     1     -10.922   9.214  71.074  1.00  0.00    -0.375 C  
HETATM   15  C   UNL     1      -8.649  10.821  69.243  1.00  0.00    -0.047 C  
HETATM   16  C   UNL     1     -10.131   8.621  69.893  1.00  0.00    -0.197 C  
HETATM   17  C   UNL     1     -11.001   7.471  69.240  1.00  0.00    -0.057 C  
HETATM   18  C   UNL     1      -7.393  10.026  69.618  1.00  0.00    -0.127 C  
HETATM   19  C   UNL     1      -7.669   9.047  70.756  1.00  0.00    -0.144 C  
HETATM   20  C   UNL     1      -8.805   8.082  70.488  1.00  0.00    -0.137 C  
ENDROOT
BRANCH   4  21
HETATM   21  C   UNL     1     -11.387  13.504  68.343  1.00  0.00    -0.292 C  
HETATM   22  O   UNL     1     -12.279  13.720  67.519  1.00  0.00    -0.355 OA 
BRANCH  21  23
HETATM   23  C   UNL     1     -11.380  14.414  69.567  1.00  0.00    -0.276 C  
BRANCH  23  24
HETATM   24  O   UNL     1     -12.591  14.231  70.285  1.00  0.00    -0.348 OA 
BRANCH  24  25
HETATM   25  C   UNL     1     -13.016  15.302  70.999  1.00  0.00    -0.462 C  
HETATM   26  C   UNL     1     -11.847  16.041  71.567  1.00  0.00    -0.554 C  
HETATM   27  O   UNL     1     -14.182  15.627  71.163  1.00  0.00    -0.514 OA 
ENDBRANCH  24  25
ENDBRANCH  23  24
ENDBRANCH  21  23
ENDBRANCH   4  21
TORSDOF 4
ENDMDL
MODEL       40
REMARK 921   NORMALIZED FREE ENERGY PREDICTED BY IDOCK:   -5.35 KCAL/MOL
REMARK 922        TOTAL FREE ENERGY PREDICTED BY IDOCK:   -6.16 KCAL/MOL
REMARK 923 INTER-LIGAND FREE ENERGY PREDICTED BY IDOCK:   -6.72 KCAL/MOL
REMARK 924 INTRA-LIGAND FREE ENERGY PREDICTED BY IDOCK:    0.55 KCAL/MOL
REMARK 927      BINDING AFFINITY PREDICTED BY RF-SCORE:    0.00 PKD
ROOT
HETATM    1  C   UNL     1      -8.076  15.016  68.493  1.00  0.00    -0.148 C  
HETATM    2  C   UNL     1      -7.408  15.687  67.427  1.00  0.00    -0.235 C  
HETATM    3  C   UNL     1      -8.813  15.360  67.025  1.00  0.00    -0.252 C  
HETATM    4  C   UNL     1     -10.002  14.674  68.544  1.00  0.00    -0.235 C  
HETATM    5  C   UNL     1      -9.292  10.240  63.965  1.00  0.00    -0.337 C  
HETATM    6  C   UNL     1      -9.708  15.970  68.256  1.00  0.00    -0.214 C  
HETATM    7  C   UNL     1      -9.805  17.295  68.956  1.00  0.00    -0.237 C  
HETATM    8  O   UNL     1      -8.536   7.989  64.340  1.00  0.00    -0.071 OA 
HETATM    9  C   UNL     1      -8.468   9.180  64.618  1.00  0.00    -0.181 C  
HETATM   10  C   UNL     1     -10.924  15.393  66.892  1.00  0.00    -0.294 C  
HETATM   11  C   UNL     1      -7.487   9.679  65.594  1.00  0.00    -0.101 C  
HETATM   12  C   UNL     1     -10.758  13.630  66.622  1.00  0.00    -0.280 C  
HETATM   13  C   UNL     1      -9.246  12.847  66.704  1.00  0.00    -0.222 C  
HETATM   14  C   UNL     1     -10.064  10.529  67.486  1.00  0.00    -0.225 C  
HETATM   15  C   UNL     1      -8.192  13.242  67.972  1.00  0.00    -0.162 C  
HETATM   16  C   UNL     1      -9.280  11.291  66.402  1.00  0.00    -0.206 C  
HETATM   17  C   UNL     1     -10.013  11.076  65.016  1.00  0.00    -0.340 C  
HETATM   18  C   UNL     1      -6.808  12.676  67.633  1.00  0.00    -0.144 C  
HETATM   19  C   UNL     1      -6.854  11.163  67.442  1.00  0.00    -0.089 C  
HETATM   20  C   UNL     1      -7.850  10.693  66.402  1.00  0.00    -0.144 C  
ENDROOT
BRANCH   4  21
HETATM   21  C   UNL     1     -11.356  15.066  69.446  1.00  0.00    -0.297 C  
HETATM   22  O   UNL     1     -12.382  15.626  69.051  1.00  0.00    -0.194 OA 
BRANCH  21  23
HETATM   23  C   UNL     1     -11.322  14.710  70.929  1.00  0.00    -0.095 C  
BRANCH  23  24
HETATM   24  O   UNL     1     -12.365  13.788  71.206  1.00  0.00    -0.353 OA 
BRANCH  24  25
HETATM   25  C   UNL     1     -13.144  14.088  72.274  1.00  0.00    -0.423 C  
HETATM   26  C   UNL     1     -12.886  15.490  72.724  1.00  0.00    -0.539 C  
HETATM   27  O   UNL     1     -13.944  13.331  72.803  1.00  0.00    -0.701 OA 
ENDBRANCH  24  25
ENDBRANCH  23  24
ENDBRANCH  21  23
ENDBRANCH   4  21
TORSDOF 4
ENDMDL
MODEL       41
REMARK 921   NORMALIZED FREE ENERGY PREDICTED BY IDOCK:   -5.31 KCAL/MOL
REMARK 922        TOTAL FREE ENERGY PREDICTED BY IDOCK:   -6.12 KCAL/MOL
REMARK 923 INTER-LIGAND FREE ENERGY PREDICTED BY IDOCK:   -7.56 KCAL/MOL
REMARK 924 INTRA-LIGAND FREE ENERGY PREDICTED BY IDOCK:    1.44 KCAL/MOL
REMARK 927      BINDING AFFINITY PREDICTED BY RF-SCORE:    0.00 PKD
ROOT
HETATM    1  C   UNL     1     -11.270  16.506  68.811  1.00  0.00    -0.277 C  
HETATM    2  C   UNL     1     -10.846  16.183  70.133  1.00  0.00    -0.328 C  
HETATM    3  C   UNL     1      -9.668  16.201  69.209  1.00  0.00    -0.242 C  
HETATM    4  C   UNL     1     -10.055  16.947  67.342  1.00  0.00    -0.279 C  
HETATM    5  C   UNL     1      -8.237  10.802  67.062  1.00  0.00    -0.126 C  
HETATM    6  C   UNL     1      -9.792  17.659  68.469  1.00  0.00    -0.346 C  
HETATM    7  C   UNL     1      -9.948  19.081  68.925  1.00  0.00    -0.460 C  
HETATM    8  O   UNL     1      -9.473   9.054  65.969  1.00  0.00    -0.221 OA 
HETATM    9  C   UNL     1      -9.473  10.083  66.633  1.00  0.00    -0.171 C  
HETATM   10  C   UNL     1      -8.122  16.885  67.939  1.00  0.00    -0.191 C  
HETATM   11  C   UNL     1     -10.727  10.663  67.139  1.00  0.00    -0.327 C  
HETATM   12  C   UNL     1      -8.403  15.349  67.062  1.00  0.00    -0.268 C  
HETATM   13  C   UNL     1      -9.656  14.280  67.502  1.00  0.00    -0.216 C  
HETATM   14  C   UNL     1     -10.111  13.256  65.178  1.00  0.00    -0.249 C  
HETATM   15  C   UNL     1     -11.185  14.919  67.858  1.00  0.00    -0.324 C  
HETATM   16  C   UNL     1      -9.736  12.951  66.640  1.00  0.00    -0.254 C  
HETATM   17  C   UNL     1      -8.308  12.269  66.655  1.00  0.00    -0.016 C  
HETATM   18  C   UNL     1     -12.012  13.823  68.540  1.00  0.00    -0.402 C  
HETATM   19  C   UNL     1     -12.153  12.593  67.648  1.00  0.00    -0.166 C  
HETATM   20  C   UNL     1     -10.838  12.004  67.181  1.00  0.00    -0.297 C  
ENDROOT
BRANCH   4  21
HETATM   21  C   UNL     1      -9.678  18.216  66.319  1.00  0.00    -0.276 C  
HETATM   22  O   UNL     1     -10.455  18.868  65.617  1.00  0.00    -0.569 OA 
BRANCH  21  23
HETATM   23  C   UNL     1      -8.207  18.608  66.222  1.00  0.00    -0.237 C  
BRANCH  23  24
HETATM   24  O   UNL     1      -8.114  20.019  66.086  1.00  0.00    -0.326 OA 
BRANCH  24  25
HETATM   25  C   UNL     1      -6.917  20.561  66.418  1.00  0.00    -0.234 C  
HETATM   26  C   UNL     1      -5.844  20.036  65.520  1.00  0.00    -0.207 C  
HETATM   27  O   UNL     1      -6.729  21.364  67.320  1.00  0.00    -0.551 OA 
ENDBRANCH  24  25
ENDBRANCH  23  24
ENDBRANCH  21  23
ENDBRANCH   4  21
TORSDOF 4
ENDMDL
MODEL       42
REMARK 921   NORMALIZED FREE ENERGY PREDICTED BY IDOCK:   -5.31 KCAL/MOL
REMARK 922        TOTAL FREE ENERGY PREDICTED BY IDOCK:   -6.12 KCAL/MOL
REMARK 923 INTER-LIGAND FREE ENERGY PREDICTED BY IDOCK:   -6.32 KCAL/MOL
REMARK 924 INTRA-LIGAND FREE ENERGY PREDICTED BY IDOCK:    0.20 KCAL/MOL
REMARK 927      BINDING AFFINITY PREDICTED BY RF-SCORE:    0.00 PKD
ROOT
HETATM    1  C   UNL     1      -8.162   8.770  69.556  1.00  0.00    -0.111 C  
HETATM    2  C   UNL     1      -7.491   9.227  70.727  1.00  0.00    -0.144 C  
HETATM    3  C   UNL     1      -8.964   9.143  70.983  1.00  0.00    -0.281 C  
HETATM    4  C   UNL     1     -10.037   8.213  69.508  1.00  0.00    -0.193 C  
HETATM    5  C   UNL     1     -11.828  14.335  70.179  1.00  0.00    -0.379 C  
HETATM    6  C   UNL     1      -9.340   7.617  70.512  1.00  0.00    -0.163 C  
HETATM    7  C   UNL     1      -8.816   6.244  70.814  1.00  0.00    -0.144 C  
HETATM    8  O   UNL     1     -11.906  15.945  68.396  1.00  0.00    -0.322 OA 
HETATM    9  C   UNL     1     -11.355  14.986  68.921  1.00  0.00    -0.297 C  
HETATM   10  C   UNL     1     -10.901   8.369  71.332  1.00  0.00    -0.304 C  
HETATM   11  C   UNL     1     -10.104  14.434  68.377  1.00  0.00    -0.244 C  
HETATM   12  C   UNL     1     -11.449   9.807  70.416  1.00  0.00    -0.347 C  
HETATM   13  C   UNL     1     -10.345  10.890  69.699  1.00  0.00    -0.080 C  
HETATM   14  C   UNL     1     -11.812  11.675  67.728  1.00  0.00    -0.247 C  
HETATM   15  C   UNL     1      -9.015  10.258  68.856  1.00  0.00    -0.164 C  
HETATM   16  C   UNL     1     -11.004  12.127  68.959  1.00  0.00    -0.255 C  
HETATM   17  C   UNL     1     -11.994  12.834  69.971  1.00  0.00    -0.371 C  
HETATM   18  C   UNL     1      -8.021  11.400  68.614  1.00  0.00    -0.141 C  
HETATM   19  C   UNL     1      -8.656  12.535  67.816  1.00  0.00    -0.178 C  
HETATM   20  C   UNL     1      -9.920  13.101  68.430  1.00  0.00    -0.223 C  
ENDROOT
BRANCH   4  21
HETATM   21  C   UNL     1     -10.971   6.858  69.204  1.00  0.00    -0.199 C  
HETATM   22  O   UNL     1     -11.750   6.296  69.978  1.00  0.00    -0.408 OA 
BRANCH  21  23
HETATM   23  C   UNL     1     -10.838   6.227  67.821  1.00  0.00    -0.338 C  
BRANCH  23  24
HETATM   24  O   UNL     1     -10.562   7.247  66.873  1.00  0.00    -0.316 OA 
BRANCH  24  25
HETATM   25  C   UNL     1      -9.356   7.165  66.258  1.00  0.00    -0.104 C  
HETATM   26  C   UNL     1      -8.937   8.510  65.760  1.00  0.00    -0.229 C  
HETATM   27  O   UNL     1      -8.697   6.144  66.125  1.00  0.00    -0.138 OA 
ENDBRANCH  24  25
ENDBRANCH  23  24
ENDBRANCH  21  23
ENDBRANCH   4  21
TORSDOF 4
ENDMDL
MODEL       43
REMARK 921   NORMALIZED FREE ENERGY PREDICTED BY IDOCK:   -5.31 KCAL/MOL
REMARK 922        TOTAL FREE ENERGY PREDICTED BY IDOCK:   -6.10 KCAL/MOL
REMARK 923 INTER-LIGAND FREE ENERGY PREDICTED BY IDOCK:   -6.79 KCAL/MOL
REMARK 924 INTRA-LIGAND FREE ENERGY PREDICTED BY IDOCK:    0.69 KCAL/MOL
REMARK 927      BINDING AFFINITY PREDICTED BY RF-SCORE:    0.00 PKD
ROOT
HETATM    1  C   UNL     1     -11.543   6.615  70.324  1.00  0.00    -0.454 C  
HETATM    2  C   UNL     1     -10.691   5.687  70.992  1.00  0.00    -0.304 C  
HETATM    3  C   UNL     1     -10.012   7.017  70.882  1.00  0.00    -0.200 C  
HETATM    4  C   UNL     1     -11.213   8.541  70.226  1.00  0.00    -0.185 C  
HETATM    5  C   UNL     1      -6.387   7.461  66.142  1.00  0.00    -0.042 C  
HETATM    6  C   UNL     1     -11.122   8.058  71.494  1.00  0.00    -0.290 C  
HETATM    7  C   UNL     1     -11.931   8.141  72.757  1.00  0.00    -0.252 C  
HETATM    8  O   UNL     1      -6.648   7.041  63.790  1.00  0.00    -0.042 OA 
HETATM    9  C   UNL     1      -7.060   6.898  64.934  1.00  0.00    -0.060 C  
HETATM   10  C   UNL     1      -9.508   9.047  71.194  1.00  0.00    -0.348 C  
HETATM   11  C   UNL     1      -8.243   6.071  65.220  1.00  0.00    -0.138 C  
HETATM   12  C   UNL     1      -9.086   9.027  69.454  1.00  0.00    -0.146 C  
HETATM   13  C   UNL     1      -9.353   7.653  68.480  1.00  0.00    -0.147 C  
HETATM   14  C   UNL     1      -9.724   8.854  66.228  1.00  0.00    -0.345 C  
HETATM   15  C   UNL     1     -10.823   6.823  68.630  1.00  0.00    -0.277 C  
HETATM   16  C   UNL     1      -8.885   7.799  66.972  1.00  0.00    -0.136 C  
HETATM   17  C   UNL     1      -7.375   8.274  66.971  1.00  0.00    -0.084 C  
HETATM   18  C   UNL     1     -10.679   5.470  67.923  1.00  0.00    -0.174 C  
HETATM   19  C   UNL     1     -10.322   5.644  66.449  1.00  0.00    -0.241 C  
HETATM   20  C   UNL     1      -9.077   6.469  66.200  1.00  0.00    -0.146 C  
ENDROOT
BRANCH   4  21
HETATM   21  C   UNL     1     -11.894   9.991  70.709  1.00  0.00    -0.346 C  
HETATM   22  O   UNL     1     -12.663  10.178  71.656  1.00  0.00    -0.380 OA 
BRANCH  21  23
HETATM   23  C   UNL     1     -11.547  11.224  69.882  1.00  0.00    -0.334 C  
BRANCH  23  24
HETATM   24  O   UNL     1     -12.095  11.075  68.580  1.00  0.00    -0.573 OA 
BRANCH  24  25
HETATM   25  C   UNL     1     -11.541  11.855  67.619  1.00  0.00    -0.312 C  
HETATM   26  C   UNL     1     -10.153  12.249  68.010  1.00  0.00    -0.206 C  
HETATM   27  O   UNL     1     -12.087  12.193  66.579  1.00  0.00    -0.627 OA 
ENDBRANCH  24  25
ENDBRANCH  23  24
ENDBRANCH  21  23
ENDBRANCH   4  21
TORSDOF 4
ENDMDL
MODEL       44
REMARK 921   NORMALIZED FREE ENERGY PREDICTED BY IDOCK:   -5.28 KCAL/MOL
REMARK 922        TOTAL FREE ENERGY PREDICTED BY IDOCK:   -6.08 KCAL/MOL
REMARK 923 INTER-LIGAND FREE ENERGY PREDICTED BY IDOCK:   -6.52 KCAL/MOL
REMARK 924 INTRA-LIGAND FREE ENERGY PREDICTED BY IDOCK:    0.44 KCAL/MOL
REMARK 927      BINDING AFFINITY PREDICTED BY RF-SCORE:    0.00 PKD
ROOT
HETATM    1  C   UNL     1      -8.318  11.121  68.827  1.00  0.00    -0.136 C  
HETATM    2  C   UNL     1      -7.168  10.564  68.193  1.00  0.00    -0.087 C  
HETATM    3  C   UNL     1      -8.413  10.018  67.566  1.00  0.00    -0.118 C  
HETATM    4  C   UNL     1     -10.144  10.944  68.149  1.00  0.00    -0.190 C  
HETATM    5  C   UNL     1     -10.129   4.760  69.851  1.00  0.00    -0.299 C  
HETATM    6  C   UNL     1      -9.271  11.366  67.196  1.00  0.00    -0.170 C  
HETATM    7  C   UNL     1      -8.993  12.642  66.456  1.00  0.00    -0.115 C  
HETATM    8  O   UNL     1     -10.513   3.949  72.081  1.00  0.00    -0.117 OA 
HETATM    9  C   UNL     1     -10.034   4.799  71.340  1.00  0.00    -0.197 C  
HETATM   10  C   UNL     1     -10.194   9.869  66.434  1.00  0.00    -0.292 C  
HETATM   11  C   UNL     1      -9.240   5.916  71.876  1.00  0.00    -0.155 C  
HETATM   12  C   UNL     1     -10.711   8.740  67.724  1.00  0.00    -0.193 C  
HETATM   13  C   UNL     1      -9.749   8.447  69.101  1.00  0.00    -0.171 C  
HETATM   14  C   UNL     1     -11.637   7.914  70.775  1.00  0.00    -0.258 C  
HETATM   15  C   UNL     1      -9.015   9.763  69.877  1.00  0.00    -0.254 C  
HETATM   16  C   UNL     1     -10.344   7.390  70.122  1.00  0.00    -0.219 C  
HETATM   17  C   UNL     1     -10.692   6.072  69.319  1.00  0.00    -0.401 C  
HETATM   18  C   UNL     1      -7.959   9.216  70.844  1.00  0.00    -0.192 C  
HETATM   19  C   UNL     1      -8.577   8.277  71.876  1.00  0.00    -0.224 C  
HETATM   20  C   UNL     1      -9.353   7.120  71.283  1.00  0.00    -0.155 C  
ENDROOT
BRANCH   4  21
HETATM   21  C   UNL     1     -11.401  11.885  67.572  1.00  0.00    -0.314 C  
HETATM   22  O   UNL     1     -12.023  11.739  66.517  1.00  0.00    -0.545 OA 
BRANCH  21  23
HETATM   23  C   UNL     1     -11.821  13.073  68.432  1.00  0.00    -0.334 C  
BRANCH  23  24
HETATM   24  O   UNL     1     -12.101  14.179  67.585  1.00  0.00    -0.378 OA 
BRANCH  24  25
HETATM   25  C   UNL     1     -11.357  15.290  67.808  1.00  0.00    -0.326 C  
HETATM   26  C   UNL     1     -11.519  15.745  69.223  1.00  0.00    -0.368 C  
HETATM   27  O   UNL     1     -10.651  15.848  66.982  1.00  0.00    -0.305 OA 
ENDBRANCH  24  25
ENDBRANCH  23  24
ENDBRANCH  21  23
ENDBRANCH   4  21
TORSDOF 4
ENDMDL
MODEL       45
REMARK 921   NORMALIZED FREE ENERGY PREDICTED BY IDOCK:   -5.23 KCAL/MOL
REMARK 922        TOTAL FREE ENERGY PREDICTED BY IDOCK:   -6.01 KCAL/MOL
REMARK 923 INTER-LIGAND FREE ENERGY PREDICTED BY IDOCK:   -6.82 KCAL/MOL
REMARK 924 INTRA-LIGAND FREE ENERGY PREDICTED BY IDOCK:    0.80 KCAL/MOL
REMARK 927      BINDING AFFINITY PREDICTED BY RF-SCORE:    0.00 PKD
ROOT
HETATM    1  C   UNL     1     -10.114  16.512  68.004  1.00  0.00    -0.255 C  
HETATM    2  C   UNL     1     -10.594  16.563  69.345  1.00  0.00    -0.329 C  
HETATM    3  C   UNL     1      -9.238  15.930  69.312  1.00  0.00    -0.254 C  
HETATM    4  C   UNL     1      -8.276  16.058  67.508  1.00  0.00    -0.171 C  
HETATM    5  C   UNL     1      -9.396   9.952  69.118  1.00  0.00    -0.197 C  
HETATM    6  C   UNL     1      -8.337  17.015  68.473  1.00  0.00    -0.260 C  
HETATM    7  C   UNL     1      -8.074  18.490  68.569  1.00  0.00    -0.354 C  
HETATM    8  O   UNL     1     -10.528   8.351  67.728  1.00  0.00    -0.236 OA 
HETATM    9  C   UNL     1     -10.420   9.503  68.130  1.00  0.00    -0.223 C  
HETATM   10  C   UNL     1      -7.145  15.672  69.142  1.00  0.00    -0.168 C  
HETATM   11  C   UNL     1     -11.369  10.547  67.713  1.00  0.00    -0.267 C  
HETATM   12  C   UNL     1      -7.576  14.071  68.465  1.00  0.00    -0.130 C  
HETATM   13  C   UNL     1      -9.196  13.614  68.198  1.00  0.00    -0.204 C  
HETATM   14  C   UNL     1      -8.816  12.019  66.208  1.00  0.00    -0.075 C  
HETATM   15  C   UNL     1     -10.253  14.737  67.492  1.00  0.00    -0.233 C  
HETATM   16  C   UNL     1      -9.395  12.148  67.629  1.00  0.00    -0.187 C  
HETATM   17  C   UNL     1      -8.618  11.144  68.575  1.00  0.00    -0.157 C  
HETATM   18  C   UNL     1     -11.685  14.221  67.674  1.00  0.00    -0.421 C  
HETATM   19  C   UNL     1     -11.872  12.850  67.032  1.00  0.00    -0.437 C  
HETATM   20  C   UNL     1     -10.900  11.794  67.517  1.00  0.00    -0.286 C  
ENDROOT
BRANCH   4  21
HETATM   21  C   UNL     1      -6.938  16.735  66.767  1.00  0.00    -0.234 C  
HETATM   22  O   UNL     1      -5.760  16.394  66.893  1.00  0.00    -0.326 OA 
BRANCH  21  23
HETATM   23  C   UNL     1      -7.191  17.921  65.842  1.00  0.00    -0.242 C  
BRANCH  23  24
HETATM   24  O   UNL     1      -5.980  18.255  65.178  1.00  0.00    -0.204 OA 
BRANCH  24  25
HETATM   25  C   UNL     1      -6.019  19.375  64.416  1.00  0.00    -0.260 C  
HETATM   26  C   UNL     1      -6.300  20.571  65.268  1.00  0.00    -0.303 C  
HETATM   27  O   UNL     1      -5.850  19.415  63.206  1.00  0.00    -0.403 OA 
ENDBRANCH  24  25
ENDBRANCH  23  24
ENDBRANCH  21  23
ENDBRANCH   4  21
TORSDOF 4
ENDMDL
MODEL       46
REMARK 921   NORMALIZED FREE ENERGY PREDICTED BY IDOCK:   -5.23 KCAL/MOL
REMARK 922        TOTAL FREE ENERGY PREDICTED BY IDOCK:   -6.01 KCAL/MOL
REMARK 923 INTER-LIGAND FREE ENERGY PREDICTED BY IDOCK:   -7.14 KCAL/MOL
REMARK 924 INTRA-LIGAND FREE ENERGY PREDICTED BY IDOCK:    1.13 KCAL/MOL
REMARK 927      BINDING AFFINITY PREDICTED BY RF-SCORE:    0.00 PKD
ROOT
HETATM    1  C   UNL     1     -12.187  10.427  71.750  1.00  0.00    -0.219 C  
HETATM    2  C   UNL     1     -13.514  10.007  71.441  1.00  0.00    -0.355 C  
HETATM    3  C   UNL     1     -12.546   9.392  70.478  1.00  0.00     0.126 C  
HETATM    4  C   UNL     1     -10.574   9.645  70.966  1.00  0.00    -0.362 C  
HETATM    5  C   UNL     1     -11.968  12.473  65.381  1.00  0.00    -0.492 C  
HETATM    6  C   UNL     1     -11.425   8.705  71.458  1.00  0.00    -0.363 C  
HETATM    7  C   UNL     1     -11.457   7.764  72.628  1.00  0.00    -0.430 C  
HETATM    8  O   UNL     1     -11.518  14.775  64.859  1.00  0.00    -0.378 OA 
HETATM    9  C   UNL     1     -11.853  13.931  65.680  1.00  0.00    -0.371 C  
HETATM   10  C   UNL     1     -11.029   8.164  69.663  1.00  0.00    -0.094 C  
HETATM   11  C   UNL     1     -12.253  14.311  67.044  1.00  0.00    -0.338 C  
HETATM   12  C   UNL     1     -10.658   9.596  68.654  1.00  0.00    -0.246 C  
HETATM   13  C   UNL     1     -11.474  11.078  68.861  1.00  0.00    -0.364 C  
HETATM   14  C   UNL     1      -9.586  12.659  68.096  1.00  0.00    -0.219 C  
HETATM   15  C   UNL     1     -11.733  11.651  70.435  1.00  0.00    -0.292 C  
HETATM   16  C   UNL     1     -11.044  12.227  67.856  1.00  0.00    -0.290 C  
HETATM   17  C   UNL     1     -11.158  11.659  66.384  1.00  0.00    -0.347 C  
HETATM   18  C   UNL     1     -12.759  12.788  70.364  1.00  0.00     0.003 C  
HETATM   19  C   UNL     1     -12.276  13.923  69.466  1.00  0.00    -0.356 C  
HETATM   20  C   UNL     1     -11.911  13.496  68.059  1.00  0.00    -0.400 C  
ENDROOT
BRANCH   4  21
HETATM   21  C   UNL     1      -9.203   8.799  71.418  1.00  0.00    -0.255 C  
HETATM   22  O   UNL     1      -8.534   8.950  72.443  1.00  0.00    -0.396 OA 
BRANCH  21  23
HETATM   23  C   UNL     1      -8.705   7.729  70.452  1.00  0.00    -0.139 C  
BRANCH  23  24
HETATM   24  O   UNL     1      -8.178   6.642  71.199  1.00  0.00    -0.118 OA 
BRANCH  24  25
HETATM   25  C   UNL     1      -8.933   5.516  71.206  1.00  0.00    -0.142 C  
HETATM   26  C   UNL     1      -9.223   5.080  69.806  1.00  0.00    -0.168 C  
HETATM   27  O   UNL     1      -9.326   4.933  72.205  1.00  0.00    -0.135 OA 
ENDBRANCH  24  25
ENDBRANCH  23  24
ENDBRANCH  21  23
ENDBRANCH   4  21
TORSDOF 4
ENDMDL
MODEL       47
REMARK 921   NORMALIZED FREE ENERGY PREDICTED BY IDOCK:   -5.23 KCAL/MOL
REMARK 922        TOTAL FREE ENERGY PREDICTED BY IDOCK:   -6.01 KCAL/MOL
REMARK 923 INTER-LIGAND FREE ENERGY PREDICTED BY IDOCK:   -6.59 KCAL/MOL
REMARK 924 INTRA-LIGAND FREE ENERGY PREDICTED BY IDOCK:    0.58 KCAL/MOL
REMARK 927      BINDING AFFINITY PREDICTED BY RF-SCORE:    0.00 PKD
ROOT
HETATM    1  C   UNL     1      -8.358  10.203  69.289  1.00  0.00    -0.160 C  
HETATM    2  C   UNL     1      -7.255  10.199  68.385  1.00  0.00    -0.076 C  
HETATM    3  C   UNL     1      -8.528   9.944  67.639  1.00  0.00    -0.114 C  
HETATM    4  C   UNL     1     -10.234  10.222  68.736  1.00  0.00    -0.205 C  
HETATM    5  C   UNL     1      -9.680   4.133  66.799  1.00  0.00    -0.234 C  
HETATM    6  C   UNL     1      -9.496  11.180  68.114  1.00  0.00    -0.180 C  
HETATM    7  C   UNL     1      -9.374  12.675  68.171  1.00  0.00    -0.210 C  
HETATM    8  O   UNL     1      -9.772   2.218  68.249  1.00  0.00    -0.150 OA 
HETATM    9  C   UNL     1      -9.426   3.378  68.062  1.00  0.00    -0.156 C  
HETATM   10  C   UNL     1     -10.410  10.235  66.719  1.00  0.00    -0.288 C  
HETATM   11  C   UNL     1      -8.644   4.111  69.069  1.00  0.00    -0.111 C  
HETATM   12  C   UNL     1     -10.718   8.543  67.217  1.00  0.00    -0.219 C  
HETATM   13  C   UNL     1      -9.596   7.663  68.152  1.00  0.00    -0.158 C  
HETATM   14  C   UNL     1     -11.256   6.118  69.379  1.00  0.00    -0.466 C  
HETATM   15  C   UNL     1      -8.858   8.428  69.472  1.00  0.00    -0.145 C  
HETATM   16  C   UNL     1     -10.015   6.167  68.469  1.00  0.00    -0.173 C  
HETATM   17  C   UNL     1     -10.373   5.456  67.101  1.00  0.00    -0.288 C  
HETATM   18  C   UNL     1      -7.673   7.565  69.920  1.00  0.00    -0.098 C  
HETATM   19  C   UNL     1      -8.120   6.160  70.312  1.00  0.00    -0.112 C  
HETATM   20  C   UNL     1      -8.889   5.425  69.234  1.00  0.00    -0.112 C  
ENDROOT
BRANCH   4  21
HETATM   21  C   UNL     1     -11.598  11.185  68.841  1.00  0.00    -0.317 C  
HETATM   22  O   UNL     1     -12.245  11.672  67.910  1.00  0.00    -0.560 OA 
BRANCH  21  23
HETATM   23  C   UNL     1     -12.097  11.522  70.243  1.00  0.00    -0.359 C  
BRANCH  23  24
HETATM   24  O   UNL     1     -12.135  12.934  70.392  1.00  0.00    -0.361 OA 
BRANCH  24  25
HETATM   25  C   UNL     1     -12.944  13.396  71.377  1.00  0.00    -0.328 C  
HETATM   26  C   UNL     1     -13.048  14.886  71.303  1.00  0.00    -0.448 C  
HETATM   27  O   UNL     1     -13.511  12.706  72.211  1.00  0.00    -0.561 OA 
ENDBRANCH  24  25
ENDBRANCH  23  24
ENDBRANCH  21  23
ENDBRANCH   4  21
TORSDOF 4
ENDMDL
MODEL       48
REMARK 921   NORMALIZED FREE ENERGY PREDICTED BY IDOCK:   -5.22 KCAL/MOL
REMARK 922        TOTAL FREE ENERGY PREDICTED BY IDOCK:   -6.00 KCAL/MOL
REMARK 923 INTER-LIGAND FREE ENERGY PREDICTED BY IDOCK:   -6.82 KCAL/MOL
REMARK 924 INTRA-LIGAND FREE ENERGY PREDICTED BY IDOCK:    0.82 KCAL/MOL
REMARK 927      BINDING AFFINITY PREDICTED BY RF-SCORE:    0.00 PKD
ROOT
HETATM    1  C   UNL     1     -12.023  12.267  68.409  1.00  0.00    -0.266 C  
HETATM    2  C   UNL     1     -11.783  13.309  69.352  1.00  0.00    -0.383 C  
HETATM    3  C   UNL     1     -10.512  12.570  69.073  1.00  0.00    -0.024 C  
HETATM    4  C   UNL     1     -10.615  11.245  67.515  1.00  0.00    -0.257 C  
HETATM    5  C   UNL     1      -9.346   8.243  73.039  1.00  0.00    -0.310 C  
HETATM    6  C   UNL     1     -10.417  12.588  67.436  1.00  0.00    -0.231 C  
HETATM    7  C   UNL     1     -10.493  13.644  66.370  1.00  0.00    -0.288 C  
HETATM    8  O   UNL     1     -10.604   6.393  73.915  1.00  0.00    -0.295 OA 
HETATM    9  C   UNL     1     -10.586   7.459  73.312  1.00  0.00    -0.392 C  
HETATM   10  C   UNL     1      -8.775  11.856  68.099  1.00  0.00    -0.173 C  
HETATM   11  C   UNL     1     -11.831   8.102  72.865  1.00  0.00    -0.145 C  
HETATM   12  C   UNL     1      -9.095  10.350  69.013  1.00  0.00    -0.193 C  
HETATM   13  C   UNL     1     -10.482  10.168  69.988  1.00  0.00    -0.325 C  
HETATM   14  C   UNL     1     -10.763   7.614  69.771  1.00  0.00    -0.243 C  
HETATM   15  C   UNL     1     -11.976  10.692  69.384  1.00  0.00    -0.298 C  
HETATM   16  C   UNL     1     -10.585   8.785  70.756  1.00  0.00    -0.269 C  
HETATM   17  C   UNL     1      -9.236   8.563  71.552  1.00  0.00    -0.288 C  
HETATM   18  C   UNL     1     -12.971  10.736  70.549  1.00  0.00    -0.258 C  
HETATM   19  C   UNL     1     -13.123   9.368  71.207  1.00  0.00    -0.363 C  
HETATM   20  C   UNL     1     -11.823   8.757  71.688  1.00  0.00    -0.399 C  
ENDROOT
BRANCH   4  21
HETATM   21  C   UNL     1     -10.010  10.955  65.982  1.00  0.00    -0.240 C  
HETATM   22  O   UNL     1      -9.725  11.789  65.119  1.00  0.00    -0.243 OA 
BRANCH  21  23
HETATM   23  C   UNL     1      -9.801   9.496  65.590  1.00  0.00    -0.272 C  
BRANCH  23  24
HETATM   24  O   UNL     1     -10.591   8.673  66.436  1.00  0.00    -0.115 OA 
BRANCH  24  25
HETATM   25  C   UNL     1     -10.254   7.360  66.457  1.00  0.00    -0.078 C  
HETATM   26  C   UNL     1      -8.789   7.199  66.206  1.00  0.00    -0.166 C  
HETATM   27  O   UNL     1     -11.026   6.433  66.653  1.00  0.00    -0.304 OA 
ENDBRANCH  24  25
ENDBRANCH  23  24
ENDBRANCH  21  23
ENDBRANCH   4  21
TORSDOF 4
ENDMDL
MODEL       49
REMARK 921   NORMALIZED FREE ENERGY PREDICTED BY IDOCK:   -5.21 KCAL/MOL
REMARK 922        TOTAL FREE ENERGY PREDICTED BY IDOCK:   -5.99 KCAL/MOL
REMARK 923 INTER-LIGAND FREE ENERGY PREDICTED BY IDOCK:   -7.42 KCAL/MOL
REMARK 924 INTRA-LIGAND FREE ENERGY PREDICTED BY IDOCK:    1.43 KCAL/MOL
REMARK 927      BINDING AFFINITY PREDICTED BY RF-SCORE:    0.00 PKD
ROOT
HETATM    1  C   UNL     1     -11.447  15.704  68.945  1.00  0.00    -0.367 C  
HETATM    2  C   UNL     1     -11.196  15.825  70.343  1.00  0.00    -0.383 C  
HETATM    3  C   UNL     1      -9.904  15.667  69.604  1.00  0.00    -0.280 C  
HETATM    4  C   UNL     1     -10.061  15.789  67.566  1.00  0.00    -0.245 C  
HETATM    5  C   UNL     1      -7.950  10.015  69.393  1.00  0.00    -0.145 C  
HETATM    6  C   UNL     1      -9.989  16.824  68.445  1.00  0.00    -0.268 C  
HETATM    7  C   UNL     1     -10.269  18.299  68.423  1.00  0.00    -0.402 C  
HETATM    8  O   UNL     1      -8.944   7.923  68.748  1.00  0.00    -0.141 OA 
HETATM    9  C   UNL     1      -9.082   9.099  69.062  1.00  0.00    -0.143 C  
HETATM   10  C   UNL     1      -8.228  16.070  68.378  1.00  0.00    -0.165 C  
HETATM   11  C   UNL     1     -10.419   9.695  69.214  1.00  0.00    -0.232 C  
HETATM   12  C   UNL     1      -8.317  14.326  67.985  1.00  0.00    -0.157 C  
HETATM   13  C   UNL     1      -9.570  13.334  68.579  1.00  0.00    -0.127 C  
HETATM   14  C   UNL     1      -9.653  11.632  66.642  1.00  0.00    -0.220 C  
HETATM   15  C   UNL     1     -11.160  13.919  68.539  1.00  0.00    -0.289 C  
HETATM   16  C   UNL     1      -9.471  11.807  68.161  1.00  0.00    -0.193 C  
HETATM   17  C   UNL     1      -8.029  11.283  68.552  1.00  0.00    -0.145 C  
HETATM   18  C   UNL     1     -12.024  13.008  69.420  1.00  0.00    -0.338 C  
HETATM   19  C   UNL     1     -11.985  11.562  68.937  1.00  0.00    -0.364 C  
HETATM   20  C   UNL     1     -10.594  10.974  68.831  1.00  0.00    -0.239 C  
ENDROOT
BRANCH   4  21
HETATM   21  C   UNL     1      -9.603  16.724  66.257  1.00  0.00    -0.289 C  
HETATM   22  O   UNL     1     -10.306  17.079  65.307  1.00  0.00    -0.626 OA 
BRANCH  21  23
HETATM   23  C   UNL     1      -8.148  17.181  66.213  1.00  0.00    -0.290 C  
BRANCH  23  24
HETATM   24  O   UNL     1      -8.102  18.530  65.769  1.00  0.00    -0.490 OA 
BRANCH  24  25
HETATM   25  C   UNL     1      -6.868  19.008  65.477  1.00  0.00    -0.239 C  
HETATM   26  C   UNL     1      -6.195  19.495  66.720  1.00  0.00    -0.180 C  
HETATM   27  O   UNL     1      -6.366  19.042  64.364  1.00  0.00    -0.468 OA 
ENDBRANCH  24  25
ENDBRANCH  23  24
ENDBRANCH  21  23
ENDBRANCH   4  21
TORSDOF 4
ENDMDL
MODEL       50
REMARK 921   NORMALIZED FREE ENERGY PREDICTED BY IDOCK:   -5.18 KCAL/MOL
REMARK 922        TOTAL FREE ENERGY PREDICTED BY IDOCK:   -5.95 KCAL/MOL
REMARK 923 INTER-LIGAND FREE ENERGY PREDICTED BY IDOCK:   -6.52 KCAL/MOL
REMARK 924 INTRA-LIGAND FREE ENERGY PREDICTED BY IDOCK:    0.57 KCAL/MOL
REMARK 927      BINDING AFFINITY PREDICTED BY RF-SCORE:    0.00 PKD
ROOT
HETATM    1  C   UNL     1      -8.284  10.062  69.881  1.00  0.00    -0.175 C  
HETATM    2  C   UNL     1      -6.951   9.730  70.262  1.00  0.00    -0.135 C  
HETATM    3  C   UNL     1      -7.458   8.739  69.261  1.00  0.00    -0.078 C  
HETATM    4  C   UNL     1      -9.237   9.243  68.381  1.00  0.00    -0.132 C  
HETATM    5  C   UNL     1      -9.763   3.806  71.742  1.00  0.00    -0.245 C  
HETATM    6  C   UNL     1      -7.999   9.685  68.035  1.00  0.00    -0.097 C  
HETATM    7  C   UNL     1      -7.427  10.805  67.215  1.00  0.00    -0.101 C  
HETATM    8  O   UNL     1     -11.405   3.402  73.451  1.00  0.00    -0.201 OA 
HETATM    9  C   UNL     1     -10.641   4.178  72.890  1.00  0.00    -0.167 C  
HETATM   10  C   UNL     1      -8.090   7.866  67.441  1.00  0.00    -0.123 C  
HETATM   11  C   UNL     1     -10.472   5.559  73.370  1.00  0.00    -0.266 C  
HETATM   12  C   UNL     1      -9.208   6.931  68.482  1.00  0.00    -0.129 C  
HETATM   13  C   UNL     1      -9.320   7.212  70.160  1.00  0.00    -0.158 C  
HETATM   14  C   UNL     1     -11.785   6.532  70.493  1.00  0.00    -0.438 C  
HETATM   15  C   UNL     1      -9.367   8.812  70.716  1.00  0.00    -0.253 C  
HETATM   16  C   UNL     1     -10.333   6.267  70.931  1.00  0.00    -0.253 C  
HETATM   17  C   UNL     1      -9.972   4.767  70.578  1.00  0.00    -0.306 C  
HETATM   18  C   UNL     1      -9.124   8.797  72.230  1.00  0.00    -0.163 C  
HETATM   19  C   UNL     1     -10.172   7.958  72.956  1.00  0.00    -0.394 C  
HETATM   20  C   UNL     1     -10.287   6.533  72.458  1.00  0.00    -0.216 C  
ENDROOT
BRANCH   4  21
HETATM   21  C   UNL     1      -9.917   9.654  66.909  1.00  0.00    -0.212 C  
HETATM   22  O   UNL     1      -9.822   9.040  65.843  1.00  0.00    -0.276 OA 
BRANCH  21  23
HETATM   23  C   UNL     1     -10.733  10.942  66.863  1.00  0.00    -0.264 C  
BRANCH  23  24
HETATM   24  O   UNL     1     -10.612  11.518  65.570  1.00  0.00    -0.268 OA 
BRANCH  24  25
HETATM   25  C   UNL     1     -11.723  12.132  65.097  1.00  0.00    -0.310 C  
HETATM   26  C   UNL     1     -11.775  12.031  63.606  1.00  0.00    -0.587 C  
HETATM   27  O   UNL     1     -12.569  12.691  65.778  1.00  0.00    -0.575 OA 
ENDBRANCH  24  25
ENDBRANCH  23  24
ENDBRANCH  21  23
ENDBRANCH   4  21
TORSDOF 4
ENDMDL
MODEL       51
REMARK 921   NORMALIZED FREE ENERGY PREDICTED BY IDOCK:   -5.18 KCAL/MOL
REMARK 922        TOTAL FREE ENERGY PREDICTED BY IDOCK:   -5.95 KCAL/MOL
REMARK 923 INTER-LIGAND FREE ENERGY PREDICTED BY IDOCK:   -6.54 KCAL/MOL
REMARK 924 INTRA-LIGAND FREE ENERGY PREDICTED BY IDOCK:    0.59 KCAL/MOL
REMARK 927      BINDING AFFINITY PREDICTED BY RF-SCORE:    0.00 PKD
ROOT
HETATM    1  C   UNL     1      -7.530  15.136  68.751  1.00  0.00    -0.132 C  
HETATM    2  C   UNL     1      -6.497  15.248  67.775  1.00  0.00    -0.179 C  
HETATM    3  C   UNL     1      -7.835  15.224  67.103  1.00  0.00    -0.249 C  
HETATM    4  C   UNL     1      -9.434  15.375  68.372  1.00  0.00    -0.200 C  
HETATM    5  C   UNL     1      -9.471   9.776  65.244  1.00  0.00    -0.343 C  
HETATM    6  C   UNL     1      -8.673  16.393  67.889  1.00  0.00    -0.179 C  
HETATM    7  C   UNL     1      -8.437  17.837  68.226  1.00  0.00    -0.277 C  
HETATM    8  O   UNL     1      -9.601   7.618  66.294  1.00  0.00    -0.170 OA 
HETATM    9  C   UNL     1      -9.185   8.770  66.309  1.00  0.00    -0.207 C  
HETATM   10  C   UNL     1      -9.750  15.803  66.418  1.00  0.00    -0.305 C  
HETATM   11  C   UNL     1      -8.281   9.239  67.370  1.00  0.00    -0.117 C  
HETATM   12  C   UNL     1     -10.147  14.066  66.601  1.00  0.00    -0.276 C  
HETATM   13  C   UNL     1      -9.030  12.953  67.248  1.00  0.00    -0.208 C  
HETATM   14  C   UNL     1     -10.710  11.293  68.284  1.00  0.00    -0.231 C  
HETATM   15  C   UNL     1      -8.146  13.393  68.626  1.00  0.00    -0.040 C  
HETATM   16  C   UNL     1      -9.535  11.450  67.301  1.00  0.00    -0.176 C  
HETATM   17  C   UNL     1     -10.040  11.050  65.856  1.00  0.00    -0.301 C  
HETATM   18  C   UNL     1      -6.999  12.390  68.796  1.00  0.00    -0.094 C  
HETATM   19  C   UNL     1      -7.521  10.963  68.941  1.00  0.00    -0.116 C  
HETATM   20  C   UNL     1      -8.416  10.506  67.809  1.00  0.00    -0.114 C  
ENDROOT
BRANCH   4  21
HETATM   21  C   UNL     1     -10.712  16.376  68.777  1.00  0.00    -0.321 C  
HETATM   22  O   UNL     1     -11.379  17.084  68.018  1.00  0.00    -0.147 OA 
BRANCH  21  23
HETATM   23  C   UNL     1     -11.093  16.443  70.253  1.00  0.00    -0.256 C  
BRANCH  23  24
HETATM   24  O   UNL     1     -12.167  15.545  70.493  1.00  0.00    -0.352 OA 
BRANCH  24  25
HETATM   25  C   UNL     1     -12.819  15.715  71.669  1.00  0.00    -0.463 C  
HETATM   26  C   UNL     1     -14.254  15.318  71.526  1.00  0.00    -0.629 C  
HETATM   27  O   UNL     1     -12.320  16.131  72.703  1.00  0.00    -0.455 OA 
ENDBRANCH  24  25
ENDBRANCH  23  24
ENDBRANCH  21  23
ENDBRANCH   4  21
TORSDOF 4
ENDMDL
MODEL       52
REMARK 921   NORMALIZED FREE ENERGY PREDICTED BY IDOCK:   -5.16 KCAL/MOL
REMARK 922        TOTAL FREE ENERGY PREDICTED BY IDOCK:   -5.93 KCAL/MOL
REMARK 923 INTER-LIGAND FREE ENERGY PREDICTED BY IDOCK:   -6.49 KCAL/MOL
REMARK 924 INTRA-LIGAND FREE ENERGY PREDICTED BY IDOCK:    0.56 KCAL/MOL
REMARK 927      BINDING AFFINITY PREDICTED BY RF-SCORE:    0.00 PKD
ROOT
HETATM    1  C   UNL     1      -8.056  10.277  69.348  1.00  0.00    -0.167 C  
HETATM    2  C   UNL     1      -7.112   9.428  68.699  1.00  0.00    -0.070 C  
HETATM    3  C   UNL     1      -8.505   8.970  68.395  1.00  0.00    -0.129 C  
HETATM    4  C   UNL     1      -9.980  10.258  68.995  1.00  0.00    -0.223 C  
HETATM    5  C   UNL     1     -10.437   4.624  72.025  1.00  0.00    -0.198 C  
HETATM    6  C   UNL     1      -9.240  10.334  67.857  1.00  0.00    -0.143 C  
HETATM    7  C   UNL     1      -8.938  11.374  66.816  1.00  0.00    -0.177 C  
HETATM    8  O   UNL     1     -10.527   4.353  74.412  1.00  0.00    -0.234 OA 
HETATM    9  C   UNL     1     -10.082   4.948  73.438  1.00  0.00    -0.166 C  
HETATM   10  C   UNL     1     -10.459   8.880  67.591  1.00  0.00    -0.320 C  
HETATM   11  C   UNL     1      -9.075   6.010  73.590  1.00  0.00    -0.127 C  
HETATM   12  C   UNL     1     -10.881   8.132  69.162  1.00  0.00    -0.033 C  
HETATM   13  C   UNL     1      -9.739   7.975  70.418  1.00  0.00    -0.178 C  
HETATM   14  C   UNL     1     -11.360   8.098  72.420  1.00  0.00    -0.456 C  
HETATM   15  C   UNL     1      -8.724   9.288  70.765  1.00  0.00    -0.272 C  
HETATM   16  C   UNL     1     -10.274   7.255  71.725  1.00  0.00    -0.211 C  
HETATM   17  C   UNL     1     -10.917   5.874  71.297  1.00  0.00    -0.325 C  
HETATM   18  C   UNL     1      -7.592   8.787  71.670  1.00  0.00    -0.109 C  
HETATM   19  C   UNL     1      -8.134   8.187  72.964  1.00  0.00    -0.230 C  
HETATM   20  C   UNL     1      -9.139   7.072  72.764  1.00  0.00    -0.155 C  
ENDROOT
BRANCH   4  21
HETATM   21  C   UNL     1     -11.191  11.250  68.405  1.00  0.00    -0.262 C  
HETATM   22  O   UNL     1     -12.020  10.982  67.532  1.00  0.00    -0.529 OA 
BRANCH  21  23
HETATM   23  C   UNL     1     -11.277  12.655  68.994  1.00  0.00    -0.269 C  
BRANCH  23  24
HETATM   24  O   UNL     1     -11.955  12.592  70.240  1.00  0.00    -0.347 OA 
BRANCH  24  25
HETATM   25  C   UNL     1     -12.328  13.785  70.765  1.00  0.00    -0.379 C  
HETATM   26  C   UNL     1     -13.270  13.576  71.907  1.00  0.00    -0.510 C  
HETATM   27  O   UNL     1     -11.955  14.880  70.371  1.00  0.00    -0.274 OA 
ENDBRANCH  24  25
ENDBRANCH  23  24
ENDBRANCH  21  23
ENDBRANCH   4  21
TORSDOF 4
ENDMDL
MODEL       53
REMARK 921   NORMALIZED FREE ENERGY PREDICTED BY IDOCK:   -5.09 KCAL/MOL
REMARK 922        TOTAL FREE ENERGY PREDICTED BY IDOCK:   -5.84 KCAL/MOL
REMARK 923 INTER-LIGAND FREE ENERGY PREDICTED BY IDOCK:   -6.16 KCAL/MOL
REMARK 924 INTRA-LIGAND FREE ENERGY PREDICTED BY IDOCK:    0.33 KCAL/MOL
REMARK 927      BINDING AFFINITY PREDICTED BY RF-SCORE:    0.00 PKD
ROOT
HETATM    1  C   UNL     1      -9.420   9.592  64.327  1.00  0.00    -0.089 C  
HETATM    2  C   UNL     1      -8.497  10.409  63.609  1.00  0.00    -0.168 C  
HETATM    3  C   UNL     1      -8.048  10.255  65.029  1.00  0.00    -0.146 C  
HETATM    4  C   UNL     1      -9.091   8.866  66.113  1.00  0.00    -0.251 C  
HETATM    5  C   UNL     1      -9.787  14.745  68.583  1.00  0.00    -0.225 C  
HETATM    6  C   UNL     1      -8.063   8.631  65.255  1.00  0.00    -0.136 C  
HETATM    7  C   UNL     1      -7.488   7.445  64.537  1.00  0.00    -0.095 C  
HETATM    8  O   UNL     1     -11.898  15.804  69.029  1.00  0.00    -0.391 OA 
HETATM    9  C   UNL     1     -11.218  15.077  68.316  1.00  0.00    -0.299 C  
HETATM   10  C   UNL     1      -7.275   9.422  66.813  1.00  0.00    -0.083 C  
HETATM   11  C   UNL     1     -11.754  14.522  67.063  1.00  0.00    -0.412 C  
HETATM   12  C   UNL     1      -8.452  10.503  67.620  1.00  0.00    -0.115 C  
HETATM   13  C   UNL     1      -9.553  11.455  66.733  1.00  0.00    -0.207 C  
HETATM   14  C   UNL     1     -11.460  11.540  68.467  1.00  0.00    -0.354 C  
HETATM   15  C   UNL     1     -10.365  10.751  65.421  1.00  0.00    -0.315 C  
HETATM   16  C   UNL     1     -10.497  12.380  67.609  1.00  0.00    -0.229 C  
HETATM   17  C   UNL     1      -9.583  13.234  68.579  1.00  0.00    -0.127 C  
HETATM   18  C   UNL     1     -11.012  11.876  64.605  1.00  0.00    -0.370 C  
HETATM   19  C   UNL     1     -11.988  12.690  65.449  1.00  0.00    -0.496 C  
HETATM   20  C   UNL     1     -11.387  13.276  66.710  1.00  0.00    -0.359 C  
ENDROOT
BRANCH   4  21
HETATM   21  C   UNL     1      -8.921   7.397  66.895  1.00  0.00    -0.135 C  
HETATM   22  O   UNL     1      -7.933   6.984  67.507  1.00  0.00    -0.110 OA 
BRANCH  21  23
HETATM   23  C   UNL     1     -10.111   6.444  66.835  1.00  0.00    -0.187 C  
BRANCH  23  24
HETATM   24  O   UNL     1     -11.116   6.905  67.725  1.00  0.00    -0.217 OA 
BRANCH  24  25
HETATM   25  C   UNL     1     -10.834   6.777  69.045  1.00  0.00    -0.249 C  
HETATM   26  C   UNL     1     -10.931   8.104  69.726  1.00  0.00    -0.133 C  
HETATM   27  O   UNL     1     -10.541   5.733  69.608  1.00  0.00    -0.266 OA 
ENDBRANCH  24  25
ENDBRANCH  23  24
ENDBRANCH  21  23
ENDBRANCH   4  21
TORSDOF 4
ENDMDL
MODEL       54
REMARK 921   NORMALIZED FREE ENERGY PREDICTED BY IDOCK:   -5.08 KCAL/MOL
REMARK 922        TOTAL FREE ENERGY PREDICTED BY IDOCK:   -5.83 KCAL/MOL
REMARK 923 INTER-LIGAND FREE ENERGY PREDICTED BY IDOCK:   -6.35 KCAL/MOL
REMARK 924 INTRA-LIGAND FREE ENERGY PREDICTED BY IDOCK:    0.52 KCAL/MOL
REMARK 927      BINDING AFFINITY PREDICTED BY RF-SCORE:    0.00 PKD
ROOT
HETATM    1  C   UNL     1     -11.169   6.351  69.606  1.00  0.00    -0.483 C  
HETATM    2  C   UNL     1     -10.203   5.310  69.739  1.00  0.00    -0.364 C  
HETATM    3  C   UNL     1      -9.833   6.465  70.616  1.00  0.00    -0.206 C  
HETATM    4  C   UNL     1     -11.271   7.914  70.778  1.00  0.00    -0.274 C  
HETATM    5  C   UNL     1      -5.932  10.231  68.084  1.00  0.00    -0.041 C  
HETATM    6  C   UNL     1     -11.205   6.745  71.469  1.00  0.00    -0.300 C  
HETATM    7  C   UNL     1     -12.138   5.912  72.301  1.00  0.00    -0.138 C  
HETATM    8  O   UNL     1      -5.848  11.388  65.980  1.00  0.00    -0.134 OA 
HETATM    9  C   UNL     1      -6.333  10.502  66.672  1.00  0.00    -0.084 C  
HETATM   10  C   UNL     1      -9.834   7.864  72.202  1.00  0.00    -0.264 C  
HETATM   11  C   UNL     1      -7.322   9.562  66.123  1.00  0.00    -0.093 C  
HETATM   12  C   UNL     1      -9.240   9.009  70.959  1.00  0.00    -0.331 C  
HETATM   13  C   UNL     1      -9.089   8.558  69.322  1.00  0.00    -0.153 C  
HETATM   14  C   UNL     1      -9.487  10.872  68.255  1.00  0.00    -0.168 C  
HETATM   15  C   UNL     1     -10.343   7.671  68.603  1.00  0.00    -0.220 C  
HETATM   16  C   UNL     1      -8.513   9.685  68.367  1.00  0.00    -0.118 C  
HETATM   17  C   UNL     1      -7.157  10.211  68.990  1.00  0.00    -0.072 C  
HETATM   18  C   UNL     1      -9.826   7.111  67.273  1.00  0.00    -0.217 C  
HETATM   19  C   UNL     1      -9.367   8.225  66.336  1.00  0.00    -0.274 C  
HETATM   20  C   UNL     1      -8.321   9.147  66.926  1.00  0.00    -0.119 C  
ENDROOT
BRANCH   4  21
HETATM   21  C   UNL     1     -12.308   8.633  71.877  1.00  0.00    -0.354 C  
HETATM   22  O   UNL     1     -12.294   8.518  73.105  1.00  0.00    -0.092 OA 
BRANCH  21  23
HETATM   23  C   UNL     1     -13.409   9.520  71.306  1.00  0.00    -0.314 C  
BRANCH  23  24
HETATM   24  O   UNL     1     -12.812  10.587  70.581  1.00  0.00    -0.358 OA 
BRANCH  24  25
HETATM   25  C   UNL     1     -12.806  11.788  71.209  1.00  0.00    -0.308 C  
HETATM   26  C   UNL     1     -12.062  12.795  70.390  1.00  0.00    -0.382 C  
HETATM   27  O   UNL     1     -13.328  12.028  72.287  1.00  0.00    -0.485 OA 
ENDBRANCH  24  25
ENDBRANCH  23  24
ENDBRANCH  21  23
ENDBRANCH   4  21
TORSDOF 4
ENDMDL
MODEL       55
REMARK 921   NORMALIZED FREE ENERGY PREDICTED BY IDOCK:   -4.96 KCAL/MOL
REMARK 922        TOTAL FREE ENERGY PREDICTED BY IDOCK:   -5.68 KCAL/MOL
REMARK 923 INTER-LIGAND FREE ENERGY PREDICTED BY IDOCK:   -6.97 KCAL/MOL
REMARK 924 INTRA-LIGAND FREE ENERGY PREDICTED BY IDOCK:    1.29 KCAL/MOL
REMARK 927      BINDING AFFINITY PREDICTED BY RF-SCORE:    0.00 PKD
ROOT
HETATM    1  C   UNL     1     -11.837  14.816  65.911  1.00  0.00    -0.204 C  
HETATM    2  C   UNL     1     -11.516  15.262  64.595  1.00  0.00    -0.356 C  
HETATM    3  C   UNL     1     -10.493  14.274  65.064  1.00  0.00    -0.458 C  
HETATM    4  C   UNL     1     -10.971  13.307  66.805  1.00  0.00    -0.302 C  
HETATM    5  C   UNL     1      -5.648  16.820  67.483  1.00  0.00    -0.165 C  
HETATM    6  C   UNL     1     -11.400  12.997  65.552  1.00  0.00    -0.330 C  
HETATM    7  C   UNL     1     -12.491  12.164  64.944  1.00  0.00    -0.185 C  
HETATM    8  O   UNL     1      -5.303  18.473  69.194  1.00  0.00    -0.192 OA 
HETATM    9  C   UNL     1      -6.060  17.918  68.406  1.00  0.00    -0.179 C  
HETATM   10  C   UNL     1      -9.561  12.460  65.624  1.00  0.00    -0.120 C  
HETATM   11  C   UNL     1      -7.455  18.359  68.253  1.00  0.00    -0.293 C  
HETATM   12  C   UNL     1      -8.663  13.484  66.786  1.00  0.00    -0.100 C  
HETATM   13  C   UNL     1      -8.999  15.146  66.965  1.00  0.00    -0.255 C  
HETATM   14  C   UNL     1      -8.334  15.400  69.444  1.00  0.00    -0.250 C  
HETATM   15  C   UNL     1     -10.618  15.647  67.031  1.00  0.00    -0.311 C  
HETATM   16  C   UNL     1      -8.082  15.906  68.012  1.00  0.00    -0.144 C  
HETATM   17  C   UNL     1      -6.571  15.618  67.642  1.00  0.00    -0.198 C  
HETATM   18  C   UNL     1     -10.651  17.169  66.850  1.00  0.00    -0.209 C  
HETATM   19  C   UNL     1      -9.839  17.879  67.929  1.00  0.00    -0.309 C  
HETATM   20  C   UNL     1      -8.398  17.424  68.028  1.00  0.00    -0.231 C  
ENDROOT
BRANCH   4  21
HETATM   21  C   UNL     1     -11.334  11.795  67.422  1.00  0.00    -0.311 C  
HETATM   22  O   UNL     1     -12.338  11.468  68.059  1.00  0.00    -0.445 OA 
BRANCH  21  23
HETATM   23  C   UNL     1     -10.305  10.692  67.192  1.00  0.00    -0.228 C  
BRANCH  23  24
HETATM   24  O   UNL     1     -10.880   9.444  67.551  1.00  0.00    -0.269 OA 
BRANCH  24  25
HETATM   25  C   UNL     1     -10.433   8.372  66.852  1.00  0.00    -0.289 C  
HETATM   26  C   UNL     1      -9.269   8.760  65.998  1.00  0.00    -0.282 C  
HETATM   27  O   UNL     1     -10.905   7.246  66.904  1.00  0.00    -0.355 OA 
ENDBRANCH  24  25
ENDBRANCH  23  24
ENDBRANCH  21  23
ENDBRANCH   4  21
TORSDOF 4
ENDMDL
MODEL       56
REMARK 921   NORMALIZED FREE ENERGY PREDICTED BY IDOCK:   -4.96 KCAL/MOL
REMARK 922        TOTAL FREE ENERGY PREDICTED BY IDOCK:   -5.68 KCAL/MOL
REMARK 923 INTER-LIGAND FREE ENERGY PREDICTED BY IDOCK:   -5.88 KCAL/MOL
REMARK 924 INTRA-LIGAND FREE ENERGY PREDICTED BY IDOCK:    0.21 KCAL/MOL
REMARK 927      BINDING AFFINITY PREDICTED BY RF-SCORE:    0.00 PKD
ROOT
HETATM    1  C   UNL     1      -9.106   9.958  66.762  1.00  0.00    -0.164 C  
HETATM    2  C   UNL     1     -10.037   9.367  65.857  1.00  0.00    -0.243 C  
HETATM    3  C   UNL     1     -10.766  10.173  66.888  1.00  0.00    -0.231 C  
HETATM    4  C   UNL     1      -9.567  11.333  68.074  1.00  0.00    -0.182 C  
HETATM    5  C   UNL     1     -12.692   6.926  71.531  1.00  0.00    -0.396 C  
HETATM    6  C   UNL     1     -10.016  11.630  66.826  1.00  0.00    -0.229 C  
HETATM    7  C   UNL     1      -9.670  12.610  65.743  1.00  0.00    -0.183 C  
HETATM    8  O   UNL     1     -11.648   5.363  73.029  1.00  0.00    -0.296 OA 
HETATM    9  C   UNL     1     -11.616   5.994  71.980  1.00  0.00    -0.276 C  
HETATM   10  C   UNL     1     -11.532  11.811  67.985  1.00  0.00    -0.388 C  
HETATM   11  C   UNL     1     -10.516   5.818  71.018  1.00  0.00    -0.307 C  
HETATM   12  C   UNL     1     -11.366  10.718  69.394  1.00  0.00    -0.351 C  
HETATM   13  C   UNL     1     -10.672   9.168  69.252  1.00  0.00    -0.199 C  
HETATM   14  C   UNL     1      -9.708   8.967  71.636  1.00  0.00    -0.379 C  
HETATM   15  C   UNL     1      -9.257   8.990  68.335  1.00  0.00    -0.137 C  
HETATM   16  C   UNL     1     -10.640   8.322  70.593  1.00  0.00    -0.235 C  
HETATM   17  C   UNL     1     -12.105   8.291  71.189  1.00  0.00    -0.274 C  
HETATM   18  C   UNL     1      -9.038   7.494  68.084  1.00  0.00    -0.128 C  
HETATM   19  C   UNL     1      -8.914   6.719  69.393  1.00  0.00    -0.137 C  
HETATM   20  C   UNL     1     -10.084   6.898  70.339  1.00  0.00    -0.201 C  
ENDROOT
BRANCH   4  21
HETATM   21  C   UNL     1      -9.217  12.926  68.447  1.00  0.00    -0.137 C  
HETATM   22  O   UNL     1      -9.991  13.780  68.885  1.00  0.00    -0.160 OA 
BRANCH  21  23
HETATM   23  C   UNL     1      -7.784  13.391  68.204  1.00  0.00    -0.143 C  
BRANCH  23  24
HETATM   24  O   UNL     1      -6.891  12.370  68.626  1.00  0.00    -0.076 OA 
BRANCH  24  25
HETATM   25  C   UNL     1      -5.952  12.004  67.719  1.00  0.00    -0.078 C  
HETATM   26  C   UNL     1      -5.576  10.570  67.916  1.00  0.00    -0.040 C  
HETATM   27  O   UNL     1      -5.474  12.730  66.861  1.00  0.00    -0.314 OA 
ENDBRANCH  24  25
ENDBRANCH  23  24
ENDBRANCH  21  23
ENDBRANCH   4  21
TORSDOF 4
ENDMDL
MODEL       57
REMARK 921   NORMALIZED FREE ENERGY PREDICTED BY IDOCK:   -4.92 KCAL/MOL
REMARK 922        TOTAL FREE ENERGY PREDICTED BY IDOCK:   -5.63 KCAL/MOL
REMARK 923 INTER-LIGAND FREE ENERGY PREDICTED BY IDOCK:   -6.75 KCAL/MOL
REMARK 924 INTRA-LIGAND FREE ENERGY PREDICTED BY IDOCK:    1.13 KCAL/MOL
REMARK 927      BINDING AFFINITY PREDICTED BY RF-SCORE:    0.00 PKD
ROOT
HETATM    1  C   UNL     1     -12.099   7.800  72.273  1.00  0.00    -0.332 C  
HETATM    2  C   UNL     1     -13.315   7.378  71.659  1.00  0.00    -0.426 C  
HETATM    3  C   UNL     1     -12.145   6.908  70.851  1.00  0.00    -0.424 C  
HETATM    4  C   UNL     1     -10.324   7.164  71.752  1.00  0.00    -0.216 C  
HETATM    5  C   UNL     1     -10.740  10.574  66.335  1.00  0.00    -0.166 C  
HETATM    6  C   UNL     1     -11.204   6.148  71.958  1.00  0.00    -0.335 C  
HETATM    7  C   UNL     1     -11.415   5.078  72.990  1.00  0.00    -0.344 C  
HETATM    8  O   UNL     1     -10.319  12.934  66.164  1.00  0.00    -0.265 OA 
HETATM    9  C   UNL     1     -10.764  11.991  66.806  1.00  0.00    -0.243 C  
HETATM   10  C   UNL     1     -10.434   5.831  70.232  1.00  0.00    -0.349 C  
HETATM   11  C   UNL     1     -11.444  12.198  68.094  1.00  0.00    -0.375 C  
HETATM   12  C   UNL     1      -9.948   7.380  69.478  1.00  0.00    -0.179 C  
HETATM   13  C   UNL     1     -10.867   8.802  69.674  1.00  0.00    -0.175 C  
HETATM   14  C   UNL     1      -8.953  10.519  69.479  1.00  0.00    -0.054 C  
HETATM   15  C   UNL     1     -11.462   9.182  71.215  1.00  0.00    -0.405 C  
HETATM   16  C   UNL     1     -10.310  10.072  68.905  1.00  0.00    -0.217 C  
HETATM   17  C   UNL     1     -10.101   9.675  67.388  1.00  0.00    -0.257 C  
HETATM   18  C   UNL     1     -12.513  10.287  71.061  1.00  0.00    -0.484 C  
HETATM   19  C   UNL     1     -11.923  11.533  70.405  1.00  0.00    -0.459 C  
HETATM   20  C   UNL     1     -11.266  11.282  69.064  1.00  0.00    -0.321 C  
ENDROOT
BRANCH   4  21
HETATM   21  C   UNL     1      -9.026   6.314  72.377  1.00  0.00    -0.138 C  
HETATM   22  O   UNL     1      -8.707   6.200  73.563  1.00  0.00    -0.125 OA 
BRANCH  21  23
HETATM   23  C   UNL     1      -8.115   5.612  71.375  1.00  0.00    -0.118 C  
BRANCH  23  24
HETATM   24  O   UNL     1      -7.679   4.380  71.932  1.00  0.00    -0.079 OA 
BRANCH  24  25
HETATM   25  C   UNL     1      -7.889   3.284  71.163  1.00  0.00    -0.051 C  
HETATM   26  C   UNL     1      -9.212   2.669  71.491  1.00  0.00    -0.185 C  
HETATM   27  O   UNL     1      -7.117   2.850  70.321  1.00  0.00    -0.033 OA 
ENDBRANCH  24  25
ENDBRANCH  23  24
ENDBRANCH  21  23
ENDBRANCH   4  21
TORSDOF 4
ENDMDL
MODEL       58
REMARK 921   NORMALIZED FREE ENERGY PREDICTED BY IDOCK:   -4.92 KCAL/MOL
REMARK 922        TOTAL FREE ENERGY PREDICTED BY IDOCK:   -5.63 KCAL/MOL
REMARK 923 INTER-LIGAND FREE ENERGY PREDICTED BY IDOCK:   -5.84 KCAL/MOL
REMARK 924 INTRA-LIGAND FREE ENERGY PREDICTED BY IDOCK:    0.21 KCAL/MOL
REMARK 927      BINDING AFFINITY PREDICTED BY RF-SCORE:    0.00 PKD
ROOT
HETATM    1  C   UNL     1     -10.619  14.166  66.085  1.00  0.00    -0.293 C  
HETATM    2  C   UNL     1     -11.920  13.933  65.549  1.00  0.00    -0.397 C  
HETATM    3  C   UNL     1     -11.876  13.512  66.985  1.00  0.00    -0.447 C  
HETATM    4  C   UNL     1     -10.178  14.063  67.989  1.00  0.00    -0.238 C  
HETATM    5  C   UNL     1     -10.763   7.681  67.733  1.00  0.00    -0.215 C  
HETATM    6  C   UNL     1     -11.272  14.833  67.746  1.00  0.00    -0.323 C  
HETATM    7  C   UNL     1     -11.608  16.296  67.781  1.00  0.00     0.136 C  
HETATM    8  O   UNL     1      -9.076   6.180  66.910  1.00  0.00    -0.121 OA 
HETATM    9  C   UNL     1      -9.654   7.256  66.828  1.00  0.00    -0.185 C  
HETATM   10  C   UNL     1     -11.802  13.583  69.098  1.00  0.00    -0.386 C  
HETATM   11  C   UNL     1      -9.342   8.208  65.750  1.00  0.00    -0.053 C  
HETATM   12  C   UNL     1     -10.863  12.067  68.940  1.00  0.00    -0.252 C  
HETATM   13  C   UNL     1     -10.427  11.434  67.418  1.00  0.00    -0.239 C  
HETATM   14  C   UNL     1      -8.245  10.248  68.113  1.00  0.00    -0.114 C  
HETATM   15  C   UNL     1      -9.835  12.494  66.235  1.00  0.00    -0.260 C  
HETATM   16  C   UNL     1      -9.629  10.064  67.464  1.00  0.00    -0.178 C  
HETATM   17  C   UNL     1     -10.458   9.043  68.344  1.00  0.00    -0.234 C  
HETATM   18  C   UNL     1      -9.845  11.759  64.890  1.00  0.00    -0.251 C  
HETATM   19  C   UNL     1      -8.990  10.495  64.936  1.00  0.00    -0.222 C  
HETATM   20  C   UNL     1      -9.369   9.524  66.035  1.00  0.00    -0.273 C  
ENDROOT
BRANCH   4  21
HETATM   21  C   UNL     1      -9.635  15.032  69.239  1.00  0.00    -0.180 C  
HETATM   22  O   UNL     1     -10.204  15.264  70.309  1.00  0.00    -0.232 OA 
BRANCH  21  23
HETATM   23  C   UNL     1      -8.293  15.729  69.037  1.00  0.00    -0.236 C  
BRANCH  23  24
HETATM   24  O   UNL     1      -7.269  14.746  68.969  1.00  0.00    -0.117 OA 
BRANCH  24  25
HETATM   25  C   UNL     1      -6.651  14.627  67.769  1.00  0.00    -0.171 C  
HETATM   26  C   UNL     1      -6.498  13.184  67.408  1.00  0.00    -0.079 C  
HETATM   27  O   UNL     1      -6.269  15.555  67.073  1.00  0.00    -0.279 OA 
ENDBRANCH  24  25
ENDBRANCH  23  24
ENDBRANCH  21  23
ENDBRANCH   4  21
TORSDOF 4
ENDMDL
MODEL       59
REMARK 921   NORMALIZED FREE ENERGY PREDICTED BY IDOCK:   -4.83 KCAL/MOL
REMARK 922        TOTAL FREE ENERGY PREDICTED BY IDOCK:   -5.52 KCAL/MOL
REMARK 923 INTER-LIGAND FREE ENERGY PREDICTED BY IDOCK:   -6.48 KCAL/MOL
REMARK 924 INTRA-LIGAND FREE ENERGY PREDICTED BY IDOCK:    0.97 KCAL/MOL
REMARK 927      BINDING AFFINITY PREDICTED BY RF-SCORE:    0.00 PKD
ROOT
HETATM    1  C   UNL     1      -8.453   6.623  68.913  1.00  0.00    -0.123 C  
HETATM    2  C   UNL     1      -7.047   6.858  68.882  1.00  0.00    -0.089 C  
HETATM    3  C   UNL     1      -7.698   7.786  69.859  1.00  0.00    -0.095 C  
HETATM    4  C   UNL     1      -9.666   7.375  70.252  1.00  0.00    -0.172 C  
HETATM    5  C   UNL     1      -8.991  13.155  67.554  1.00  0.00    -0.197 C  
HETATM    6  C   UNL     1      -8.578   6.778  70.808  1.00  0.00    -0.141 C  
HETATM    7  C   UNL     1      -8.297   5.528  71.590  1.00  0.00    -0.123 C  
HETATM    8  O   UNL     1     -10.156  13.895  65.586  1.00  0.00    -0.310 OA 
HETATM    9  C   UNL     1      -9.604  12.992  66.202  1.00  0.00    -0.202 C  
HETATM   10  C   UNL     1      -8.670   8.526  71.586  1.00  0.00    -0.262 C  
HETATM   11  C   UNL     1      -9.430  11.658  65.606  1.00  0.00    -0.228 C  
HETATM   12  C   UNL     1      -9.443   9.670  70.446  1.00  0.00    -0.280 C  
HETATM   13  C   UNL     1      -9.182   9.577  68.764  1.00  0.00    -0.140 C  
HETATM   14  C   UNL     1     -11.445  10.531  67.977  1.00  0.00    -0.230 C  
HETATM   15  C   UNL     1      -9.216   8.055  68.018  1.00  0.00    -0.139 C  
HETATM   16  C   UNL     1      -9.915  10.692  67.908  1.00  0.00    -0.189 C  
HETATM   17  C   UNL     1      -9.536  12.104  68.515  1.00  0.00    -0.137 C  
HETATM   18  C   UNL     1      -8.628   8.202  66.610  1.00  0.00    -0.140 C  
HETATM   19  C   UNL     1      -9.413   9.211  65.778  1.00  0.00    -0.322 C  
HETATM   20  C   UNL     1      -9.535  10.582  66.409  1.00  0.00    -0.208 C  
ENDROOT
BRANCH   4  21
HETATM   21  C   UNL     1     -10.697   6.885  71.474  1.00  0.00    -0.223 C  
HETATM   22  O   UNL     1     -10.926   5.730  71.843  1.00  0.00    -0.252 OA 
BRANCH  21  23
HETATM   23  C   UNL     1     -11.461   7.980  72.211  1.00  0.00    -0.360 C  
BRANCH  23  24
HETATM   24  O   UNL     1     -12.507   8.455  71.376  1.00  0.00    -0.303 OA 
BRANCH  24  25
HETATM   25  C   UNL     1     -13.352   9.348  71.946  1.00  0.00    -0.434 C  
HETATM   26  C   UNL     1     -12.954  10.743  71.581  1.00  0.00    -0.581 C  
HETATM   27  O   UNL     1     -14.304   9.068  72.658  1.00  0.00    -0.603 OA 
ENDBRANCH  24  25
ENDBRANCH  23  24
ENDBRANCH  21  23
ENDBRANCH   4  21
TORSDOF 4
ENDMDL
MODEL       60
REMARK 921   NORMALIZED FREE ENERGY PREDICTED BY IDOCK:   -4.83 KCAL/MOL
REMARK 922        TOTAL FREE ENERGY PREDICTED BY IDOCK:   -5.51 KCAL/MOL
REMARK 923 INTER-LIGAND FREE ENERGY PREDICTED BY IDOCK:   -5.81 KCAL/MOL
REMARK 924 INTRA-LIGAND FREE ENERGY PREDICTED BY IDOCK:    0.30 KCAL/MOL
REMARK 927      BINDING AFFINITY PREDICTED BY RF-SCORE:    0.00 PKD
ROOT
HETATM    1  C   UNL     1      -9.116  10.090  69.367  1.00  0.00    -0.228 C  
HETATM    2  C   UNL     1      -7.792   9.997  69.888  1.00  0.00    -0.185 C  
HETATM    3  C   UNL     1      -7.796   9.640  68.434  1.00  0.00    -0.085 C  
HETATM    4  C   UNL     1      -9.559  10.019  67.463  1.00  0.00    -0.178 C  
HETATM    5  C   UNL     1      -8.183   3.755  67.423  1.00  0.00    -0.090 C  
HETATM    6  C   UNL     1      -8.567  10.908  67.737  1.00  0.00    -0.128 C  
HETATM    7  C   UNL     1      -8.415  12.402  67.767  1.00  0.00    -0.169 C  
HETATM    8  O   UNL     1      -9.664   2.020  68.181  1.00  0.00    -0.161 OA 
HETATM    9  C   UNL     1      -9.222   3.155  68.311  1.00  0.00    -0.192 C  
HETATM   10  C   UNL     1      -7.898   9.796  66.327  1.00  0.00    -0.106 C  
HETATM   11  C   UNL     1      -9.640   4.011  69.432  1.00  0.00    -0.257 C  
HETATM   12  C   UNL     1      -8.640   8.169  66.418  1.00  0.00    -0.150 C  
HETATM   13  C   UNL     1      -8.980   7.419  67.911  1.00  0.00    -0.131 C  
HETATM   14  C   UNL     1     -11.005   6.003  67.170  1.00  0.00    -0.360 C  
HETATM   15  C   UNL     1      -9.688   8.342  69.144  1.00  0.00    -0.171 C  
HETATM   16  C   UNL     1      -9.602   5.964  67.804  1.00  0.00    -0.118 C  
HETATM   17  C   UNL     1      -8.661   5.095  66.876  1.00  0.00    -0.105 C  
HETATM   18  C   UNL     1      -9.575   7.554  70.454  1.00  0.00    -0.168 C  
HETATM   19  C   UNL     1     -10.266   6.197  70.352  1.00  0.00    -0.256 C  
HETATM   20  C   UNL     1      -9.780   5.332  69.208  1.00  0.00    -0.235 C  
ENDROOT
BRANCH   4  21
HETATM   21  C   UNL     1     -10.230  10.969  66.261  1.00  0.00    -0.245 C  
HETATM   22  O   UNL     1      -9.915  11.002  65.068  1.00  0.00    -0.245 OA 
BRANCH  21  23
HETATM   23  C   UNL     1     -11.347  11.920  66.678  1.00  0.00    -0.337 C  
BRANCH  23  24
HETATM   24  O   UNL     1     -11.960  11.421  67.858  1.00  0.00    -0.626 OA 
BRANCH  24  25
HETATM   25  C   UNL     1     -11.910  12.242  68.936  1.00  0.00    -0.303 C  
HETATM   26  C   UNL     1     -12.391  11.523  70.155  1.00  0.00    -0.323 C  
HETATM   27  O   UNL     1     -11.530  13.403  68.925  1.00  0.00    -0.262 OA 
ENDBRANCH  24  25
ENDBRANCH  23  24
ENDBRANCH  21  23
ENDBRANCH   4  21
TORSDOF 4
ENDMDL
MODEL       61
REMARK 921   NORMALIZED FREE ENERGY PREDICTED BY IDOCK:   -4.81 KCAL/MOL
REMARK 922        TOTAL FREE ENERGY PREDICTED BY IDOCK:   -5.50 KCAL/MOL
REMARK 923 INTER-LIGAND FREE ENERGY PREDICTED BY IDOCK:   -6.04 KCAL/MOL
REMARK 924 INTRA-LIGAND FREE ENERGY PREDICTED BY IDOCK:    0.54 KCAL/MOL
REMARK 927      BINDING AFFINITY PREDICTED BY RF-SCORE:    0.00 PKD
ROOT
HETATM    1  C   UNL     1      -7.291  10.082  68.230  1.00  0.00    -0.078 C  
HETATM    2  C   UNL     1      -6.181   9.192  68.142  1.00  0.00    -0.054 C  
HETATM    3  C   UNL     1      -7.368   8.599  67.449  1.00  0.00    -0.089 C  
HETATM    4  C   UNL     1      -8.952   9.876  67.216  1.00  0.00    -0.145 C  
HETATM    5  C   UNL     1     -10.526   4.866  70.898  1.00  0.00    -0.162 C  
HETATM    6  C   UNL     1      -7.845   9.793  66.431  1.00  0.00    -0.106 C  
HETATM    7  C   UNL     1      -7.176  10.644  65.391  1.00  0.00    -0.012 C  
HETATM    8  O   UNL     1     -11.487   5.026  73.096  1.00  0.00    -0.327 OA 
HETATM    9  C   UNL     1     -10.712   5.463  72.254  1.00  0.00    -0.231 C  
HETATM   10  C   UNL     1      -8.891   8.239  66.027  1.00  0.00    -0.203 C  
HETATM   11  C   UNL     1      -9.824   6.598  72.552  1.00  0.00    -0.176 C  
HETATM   12  C   UNL     1      -9.865   7.762  67.452  1.00  0.00    -0.230 C  
HETATM   13  C   UNL     1      -9.265   7.909  69.040  1.00  0.00    -0.147 C  
HETATM   14  C   UNL     1     -11.506   8.288  70.258  1.00  0.00    -0.065 C  
HETATM   15  C   UNL     1      -8.440   9.325  69.472  1.00  0.00    -0.144 C  
HETATM   16  C   UNL     1     -10.247   7.405  70.178  1.00  0.00    -0.207 C  
HETATM   17  C   UNL     1     -10.697   5.930  69.821  1.00  0.00    -0.411 C  
HETATM   18  C   UNL     1      -7.722   9.071  70.803  1.00  0.00    -0.144 C  
HETATM   19  C   UNL     1      -8.705   8.681  71.903  1.00  0.00    -0.256 C  
HETATM   20  C   UNL     1      -9.573   7.486  71.571  1.00  0.00    -0.171 C  
ENDROOT
BRANCH   4  21
HETATM   21  C   UNL     1      -9.855  10.665  66.050  1.00  0.00    -0.228 C  
HETATM   22  O   UNL     1     -10.223  10.221  64.960  1.00  0.00    -0.320 OA 
BRANCH  21  23
HETATM   23  C   UNL     1     -10.260  12.105  66.351  1.00  0.00    -0.220 C  
BRANCH  23  24
HETATM   24  O   UNL     1     -11.654  12.250  66.119  1.00  0.00    -0.367 OA 
BRANCH  24  25
HETATM   25  C   UNL     1     -12.009  13.280  65.313  1.00  0.00    -0.388 C  
HETATM   26  C   UNL     1     -10.796  14.039  64.880  1.00  0.00    -0.421 C  
HETATM   27  O   UNL     1     -13.152  13.559  64.982  1.00  0.00    -0.736 OA 
ENDBRANCH  24  25
ENDBRANCH  23  24
ENDBRANCH  21  23
ENDBRANCH   4  21
TORSDOF 4
ENDMDL
MODEL       62
REMARK 921   NORMALIZED FREE ENERGY PREDICTED BY IDOCK:   -4.81 KCAL/MOL
REMARK 922        TOTAL FREE ENERGY PREDICTED BY IDOCK:   -5.50 KCAL/MOL
REMARK 923 INTER-LIGAND FREE ENERGY PREDICTED BY IDOCK:   -5.82 KCAL/MOL
REMARK 924 INTRA-LIGAND FREE ENERGY PREDICTED BY IDOCK:    0.32 KCAL/MOL
REMARK 927      BINDING AFFINITY PREDICTED BY RF-SCORE:    0.00 PKD
ROOT
HETATM    1  C   UNL     1     -10.842   7.370  70.719  1.00  0.00    -0.257 C  
HETATM    2  C   UNL     1     -12.140   6.941  70.311  1.00  0.00    -0.182 C  
HETATM    3  C   UNL     1     -11.206   6.930  69.141  1.00  0.00    -0.163 C  
HETATM    4  C   UNL     1      -9.235   7.222  69.613  1.00  0.00    -0.143 C  
HETATM    5  C   UNL     1     -11.444  11.923  65.851  1.00  0.00    -0.340 C  
HETATM    6  C   UNL     1      -9.930   6.055  69.685  1.00  0.00    -0.217 C  
HETATM    7  C   UNL     1      -9.751   4.714  70.335  1.00  0.00    -0.292 C  
HETATM    8  O   UNL     1     -11.296  14.268  66.355  1.00  0.00    -0.325 OA 
HETATM    9  C   UNL     1     -11.459  13.119  66.744  1.00  0.00    -0.343 C  
HETATM   10  C   UNL     1      -9.649   6.383  67.818  1.00  0.00    -0.123 C  
HETATM   11  C   UNL     1     -11.768  12.828  68.153  1.00  0.00    -0.392 C  
HETATM   12  C   UNL     1      -9.530   8.143  67.511  1.00  0.00    -0.184 C  
HETATM   13  C   UNL     1     -10.478   9.271  68.368  1.00  0.00    -0.246 C  
HETATM   14  C   UNL     1      -8.851  11.271  68.287  1.00  0.00    -0.158 C  
HETATM   15  C   UNL     1     -10.649   9.084  70.044  1.00  0.00    -0.246 C  
HETATM   16  C   UNL     1     -10.271  10.784  67.940  1.00  0.00    -0.203 C  
HETATM   17  C   UNL     1     -10.461  10.882  66.372  1.00  0.00    -0.307 C  
HETATM   18  C   UNL     1     -11.793   9.992  70.510  1.00  0.00    -0.387 C  
HETATM   19  C   UNL     1     -11.521  11.455  70.170  1.00  0.00    -0.302 C  
HETATM   20  C   UNL     1     -11.246  11.716  68.704  1.00  0.00    -0.308 C  
ENDROOT
BRANCH   4  21
HETATM   21  C   UNL     1      -7.745   6.462  69.603  1.00  0.00    -0.103 C  
HETATM   22  O   UNL     1      -7.332   5.635  68.786  1.00  0.00    -0.078 OA 
BRANCH  21  23
HETATM   23  C   UNL     1      -6.787   6.810  70.738  1.00  0.00    -0.059 C  
BRANCH  23  24
HETATM   24  O   UNL     1      -7.330   7.889  71.485  1.00  0.00    -0.062 OA 
BRANCH  24  25
HETATM   25  C   UNL     1      -6.582   9.019  71.508  1.00  0.00    -0.064 C  
HETATM   26  C   UNL     1      -6.249   9.448  70.115  1.00  0.00    -0.055 C  
HETATM   27  O   UNL     1      -6.224   9.612  72.515  1.00  0.00    -0.277 OA 
ENDBRANCH  24  25
ENDBRANCH  23  24
ENDBRANCH  21  23
ENDBRANCH   4  21
TORSDOF 4
ENDMDL
MODEL       63
REMARK 921   NORMALIZED FREE ENERGY PREDICTED BY IDOCK:   -4.77 KCAL/MOL
REMARK 922        TOTAL FREE ENERGY PREDICTED BY IDOCK:   -5.44 KCAL/MOL
REMARK 923 INTER-LIGAND FREE ENERGY PREDICTED BY IDOCK:   -5.82 KCAL/MOL
REMARK 924 INTRA-LIGAND FREE ENERGY PREDICTED BY IDOCK:    0.38 KCAL/MOL
REMARK 927      BINDING AFFINITY PREDICTED BY RF-SCORE:    0.00 PKD
ROOT
HETATM    1  C   UNL     1     -11.412  15.564  67.975  1.00  0.00    -0.313 C  
HETATM    2  C   UNL     1     -12.137  15.368  69.187  1.00  0.00    -0.270 C  
HETATM    3  C   UNL     1     -10.673  15.173  69.430  1.00  0.00    -0.269 C  
HETATM    4  C   UNL     1      -9.465  15.717  67.868  1.00  0.00    -0.204 C  
HETATM    5  C   UNL     1      -8.948   9.450  69.132  1.00  0.00    -0.147 C  
HETATM    6  C   UNL     1     -10.003  16.536  68.811  1.00  0.00    -0.255 C  
HETATM    7  C   UNL     1     -10.229  18.011  68.978  1.00  0.00    -0.262 C  
HETATM    8  O   UNL     1      -9.241   7.696  67.516  1.00  0.00    -0.131 OA 
HETATM    9  C   UNL     1      -9.572   8.793  67.946  1.00  0.00    -0.145 C  
HETATM   10  C   UNL     1      -8.611  15.562  69.697  1.00  0.00    -0.119 C  
HETATM   11  C   UNL     1     -10.695   9.536  67.353  1.00  0.00    -0.297 C  
HETATM   12  C   UNL     1      -8.389  13.961  68.925  1.00  0.00     0.074 C  
HETATM   13  C   UNL     1      -9.707  13.065  68.320  1.00  0.00    -0.221 C  
HETATM   14  C   UNL     1      -8.475  11.810  66.433  1.00  0.00    -0.081 C  
HETATM   15  C   UNL     1     -10.897  13.872  67.423  1.00  0.00    -0.291 C  
HETATM   16  C   UNL     1      -9.331  11.653  67.704  1.00  0.00    -0.178 C  
HETATM   17  C   UNL     1      -8.484  10.858  68.778  1.00  0.00    -0.150 C  
HETATM   18  C   UNL     1     -12.109  12.942  67.295  1.00  0.00    -0.275 C  
HETATM   19  C   UNL     1     -11.737  11.629  66.611  1.00  0.00    -0.066 C  
HETATM   20  C   UNL     1     -10.602  10.877  67.275  1.00  0.00    -0.296 C  
ENDROOT
BRANCH   4  21
HETATM   21  C   UNL     1      -8.281  16.816  67.431  1.00  0.00    -0.177 C  
HETATM   22  O   UNL     1      -7.387  17.276  68.144  1.00  0.00    -0.186 OA 
BRANCH  21  23
HETATM   23  C   UNL     1      -8.313  17.326  65.994  1.00  0.00    -0.119 C  
BRANCH  23  24
HETATM   24  O   UNL     1      -8.904  18.618  65.977  1.00  0.00    -0.489 OA 
BRANCH  24  25
HETATM   25  C   UNL     1     -10.209  18.660  65.610  1.00  0.00     0.072 C  
HETATM   26  C   UNL     1     -10.754  20.039  65.797  1.00  0.00    -0.357 C  
HETATM   27  O   UNL     1     -10.857  17.714  65.187  1.00  0.00    -0.664 OA 
ENDBRANCH  24  25
ENDBRANCH  23  24
ENDBRANCH  21  23
ENDBRANCH   4  21
TORSDOF 4
ENDMDL
MODEL       64
REMARK 921   NORMALIZED FREE ENERGY PREDICTED BY IDOCK:   -4.76 KCAL/MOL
REMARK 922        TOTAL FREE ENERGY PREDICTED BY IDOCK:   -5.44 KCAL/MOL
REMARK 923 INTER-LIGAND FREE ENERGY PREDICTED BY IDOCK:   -5.77 KCAL/MOL
REMARK 924 INTRA-LIGAND FREE ENERGY PREDICTED BY IDOCK:    0.33 KCAL/MOL
REMARK 927      BINDING AFFINITY PREDICTED BY RF-SCORE:    0.00 PKD
ROOT
HETATM    1  C   UNL     1      -8.009   8.302  69.813  1.00  0.00    -0.106 C  
HETATM    2  C   UNL     1      -7.349   8.933  70.908  1.00  0.00    -0.100 C  
HETATM    3  C   UNL     1      -8.831   9.100  71.040  1.00  0.00    -0.267 C  
HETATM    4  C   UNL     1      -9.939   7.994  69.720  1.00  0.00    -0.191 C  
HETATM    5  C   UNL     1     -10.856  14.280  68.831  1.00  0.00    -0.272 C  
HETATM    6  C   UNL     1      -9.397   7.568  70.892  1.00  0.00    -0.154 C  
HETATM    7  C   UNL     1      -9.097   6.248  71.542  1.00  0.00    -0.145 C  
HETATM    8  O   UNL     1     -10.593  15.421  66.733  1.00  0.00    -0.298 OA 
HETATM    9  C   UNL     1     -10.220  14.550  67.508  1.00  0.00    -0.232 C  
HETATM   10  C   UNL     1     -10.877   8.684  71.376  1.00  0.00    -0.339 C  
HETATM   11  C   UNL     1      -9.033  13.730  67.219  1.00  0.00    -0.227 C  
HETATM   12  C   UNL     1     -11.155   9.924  70.114  1.00  0.00    -0.353 C  
HETATM   13  C   UNL     1      -9.864  10.657  69.276  1.00  0.00    -0.201 C  
HETATM   14  C   UNL     1     -11.082  11.138  67.054  1.00  0.00    -0.339 C  
HETATM   15  C   UNL     1      -8.593   9.681  68.722  1.00  0.00    -0.125 C  
HETATM   16  C   UNL     1     -10.291  11.760  68.219  1.00  0.00    -0.217 C  
HETATM   17  C   UNL     1     -11.226  12.806  68.952  1.00  0.00    -0.332 C  
HETATM   18  C   UNL     1      -7.431  10.597  68.320  1.00  0.00    -0.091 C  
HETATM   19  C   UNL     1      -7.846  11.584  67.233  1.00  0.00    -0.153 C  
HETATM   20  C   UNL     1      -9.048  12.435  67.586  1.00  0.00    -0.186 C  
ENDROOT
BRANCH   4  21
HETATM   21  C   UNL     1     -11.040   6.737  69.645  1.00  0.00    -0.292 C  
HETATM   22  O   UNL     1     -11.967   6.505  70.425  1.00  0.00    -0.397 OA 
BRANCH  21  23
HETATM   23  C   UNL     1     -10.877   5.748  68.495  1.00  0.00    -0.184 C  
BRANCH  23  24
HETATM   24  O   UNL     1     -10.097   4.647  68.940  1.00  0.00    -0.139 OA 
BRANCH  24  25
HETATM   25  C   UNL     1      -9.204   4.162  68.044  1.00  0.00    -0.147 C  
HETATM   26  C   UNL     1      -7.884   4.845  68.207  1.00  0.00    -0.082 C  
HETATM   27  O   UNL     1      -9.432   3.292  67.216  1.00  0.00    -0.203 OA 
ENDBRANCH  24  25
ENDBRANCH  23  24
ENDBRANCH  21  23
ENDBRANCH   4  21
TORSDOF 4
ENDMDL
MODEL       65
REMARK 921   NORMALIZED FREE ENERGY PREDICTED BY IDOCK:   -4.74 KCAL/MOL
REMARK 922        TOTAL FREE ENERGY PREDICTED BY IDOCK:   -5.41 KCAL/MOL
REMARK 923 INTER-LIGAND FREE ENERGY PREDICTED BY IDOCK:   -6.00 KCAL/MOL
REMARK 924 INTRA-LIGAND FREE ENERGY PREDICTED BY IDOCK:    0.59 KCAL/MOL
REMARK 927      BINDING AFFINITY PREDICTED BY RF-SCORE:    0.00 PKD
ROOT
HETATM    1  C   UNL     1     -11.169  14.194  66.222  1.00  0.00    -0.329 C  
HETATM    2  C   UNL     1     -12.516  13.835  65.922  1.00  0.00    -0.512 C  
HETATM    3  C   UNL     1     -12.159  13.374  67.301  1.00  0.00    -0.352 C  
HETATM    4  C   UNL     1     -10.368  14.077  68.003  1.00  0.00    -0.240 C  
HETATM    5  C   UNL     1     -10.326   7.682  67.515  1.00  0.00    -0.326 C  
HETATM    6  C   UNL     1     -11.561  14.728  68.008  1.00  0.00    -0.367 C  
HETATM    7  C   UNL     1     -12.035  16.142  68.184  1.00  0.00     0.347 C  
HETATM    8  O   UNL     1      -8.678   6.408  66.316  1.00  0.00    -0.133 OA 
HETATM    9  C   UNL     1      -9.370   7.415  66.400  1.00  0.00    -0.155 C  
HETATM   10  C   UNL     1     -11.695  13.382  69.365  1.00  0.00    -0.382 C  
HETATM   11  C   UNL     1      -9.368   8.431  65.337  1.00  0.00     0.131 C  
HETATM   12  C   UNL     1     -10.650  11.986  68.955  1.00  0.00    -0.192 C  
HETATM   13  C   UNL     1     -10.446  11.458  67.347  1.00  0.00    -0.239 C  
HETATM   14  C   UNL     1      -8.061  10.501  67.563  1.00  0.00    -0.107 C  
HETATM   15  C   UNL     1     -10.201  12.617  66.134  1.00  0.00    -0.272 C  
HETATM   16  C   UNL     1      -9.516  10.185  67.172  1.00  0.00    -0.185 C  
HETATM   17  C   UNL     1     -10.054   9.049  68.133  1.00  0.00    -0.229 C  
HETATM   18  C   UNL     1     -10.389  11.930  64.776  1.00  0.00    -0.323 C  
HETATM   19  C   UNL     1      -9.415  10.769  64.596  1.00  0.00    -0.297 C  
HETATM   20  C   UNL     1      -9.476   9.726  65.692  1.00  0.00    -0.307 C  
ENDROOT
BRANCH   4  21
HETATM   21  C   UNL     1      -9.702  15.059  69.182  1.00  0.00    -0.212 C  
HETATM   22  O   UNL     1     -10.108  15.226  70.335  1.00  0.00    -0.151 OA 
BRANCH  21  23
HETATM   23  C   UNL     1      -8.461  15.856  68.794  1.00  0.00    -0.204 C  
BRANCH  23  24
HETATM   24  O   UNL     1      -8.667  17.222  69.127  1.00  0.00    -0.134 OA 
BRANCH  24  25
HETATM   25  C   UNL     1      -7.737  18.087  68.654  1.00  0.00    -0.296 C  
HETATM   26  C   UNL     1      -8.215  19.495  68.807  1.00  0.00    -0.348 C  
HETATM   27  O   UNL     1      -6.660  17.774  68.170  1.00  0.00    -0.183 OA 
ENDBRANCH  24  25
ENDBRANCH  23  24
ENDBRANCH  21  23
ENDBRANCH   4  21
TORSDOF 4
ENDMDL
MODEL       66
REMARK 921   NORMALIZED FREE ENERGY PREDICTED BY IDOCK:   -4.68 KCAL/MOL
REMARK 922        TOTAL FREE ENERGY PREDICTED BY IDOCK:   -5.33 KCAL/MOL
REMARK 923 INTER-LIGAND FREE ENERGY PREDICTED BY IDOCK:   -5.43 KCAL/MOL
REMARK 924 INTRA-LIGAND FREE ENERGY PREDICTED BY IDOCK:    0.10 KCAL/MOL
REMARK 927      BINDING AFFINITY PREDICTED BY RF-SCORE:    0.00 PKD
ROOT
HETATM    1  C   UNL     1      -7.962   7.755  71.558  1.00  0.00    -0.097 C  
HETATM    2  C   UNL     1      -7.630   8.605  72.654  1.00  0.00     0.013 C  
HETATM    3  C   UNL     1      -9.117   8.462  72.550  1.00  0.00    -0.326 C  
HETATM    4  C   UNL     1      -9.750   7.035  71.224  1.00  0.00    -0.171 C  
HETATM    5  C   UNL     1     -11.731  12.878  69.471  1.00  0.00    -0.387 C  
HETATM    6  C   UNL     1      -9.336   6.837  72.504  1.00  0.00    -0.151 C  
HETATM    7  C   UNL     1      -8.894   5.673  73.343  1.00  0.00    -0.123 C  
HETATM    8  O   UNL     1     -11.353  13.864  67.312  1.00  0.00    -0.298 OA 
HETATM    9  C   UNL     1     -10.950  13.163  68.232  1.00  0.00    -0.253 C  
HETATM   10  C   UNL     1     -11.068   7.649  72.633  1.00  0.00    -0.412 C  
HETATM   11  C   UNL     1      -9.593  12.594  68.216  1.00  0.00    -0.208 C  
HETATM   12  C   UNL     1     -11.371   8.687  71.206  1.00  0.00    -0.341 C  
HETATM   13  C   UNL     1     -10.130   9.604  70.482  1.00  0.00    -0.338 C  
HETATM   14  C   UNL     1     -11.033   9.619  68.066  1.00  0.00    -0.197 C  
HETATM   15  C   UNL     1      -8.618   8.878  70.237  1.00  0.00    -0.178 C  
HETATM   16  C   UNL     1     -10.585  10.495  69.251  1.00  0.00    -0.265 C  
HETATM   17  C   UNL     1     -11.817  11.375  69.711  1.00  0.00    -0.435 C  
HETATM   18  C   UNL     1      -7.609   9.983  69.902  1.00  0.00    -0.177 C  
HETATM   19  C   UNL     1      -8.024  10.761  68.657  1.00  0.00    -0.133 C  
HETATM   20  C   UNL     1      -9.412  11.362  68.729  1.00  0.00    -0.128 C  
ENDROOT
BRANCH   4  21
HETATM   21  C   UNL     1     -10.553   5.569  71.140  1.00  0.00    -0.233 C  
HETATM   22  O   UNL     1     -11.604   5.258  71.705  1.00  0.00     0.119 OA 
BRANCH  21  23
HETATM   23  C   UNL     1      -9.911   4.481  70.286  1.00  0.00    -0.218 C  
BRANCH  23  24
HETATM   24  O   UNL     1      -8.857   5.054  69.525  1.00  0.00    -0.093 OA 
BRANCH  24  25
HETATM   25  C   UNL     1      -9.123   5.248  68.210  1.00  0.00    -0.110 C  
HETATM   26  C   UNL     1      -8.326   6.399  67.685  1.00  0.00    -0.117 C  
HETATM   27  O   UNL     1      -9.900   4.585  67.539  1.00  0.00    -0.174 OA 
ENDBRANCH  24  25
ENDBRANCH  23  24
ENDBRANCH  21  23
ENDBRANCH   4  21
TORSDOF 4
ENDMDL
MODEL       67
REMARK 921   NORMALIZED FREE ENERGY PREDICTED BY IDOCK:   -4.65 KCAL/MOL
REMARK 922        TOTAL FREE ENERGY PREDICTED BY IDOCK:   -5.30 KCAL/MOL
REMARK 923 INTER-LIGAND FREE ENERGY PREDICTED BY IDOCK:   -6.53 KCAL/MOL
REMARK 924 INTRA-LIGAND FREE ENERGY PREDICTED BY IDOCK:    1.23 KCAL/MOL
REMARK 927      BINDING AFFINITY PREDICTED BY RF-SCORE:    0.00 PKD
ROOT
HETATM    1  C   UNL     1      -7.788  11.468  68.478  1.00  0.00    -0.140 C  
HETATM    2  C   UNL     1      -7.126  10.677  67.494  1.00  0.00    -0.089 C  
HETATM    3  C   UNL     1      -8.609  10.516  67.366  1.00  0.00    -0.122 C  
HETATM    4  C   UNL     1      -9.714  11.816  68.498  1.00  0.00    -0.181 C  
HETATM    5  C   UNL     1     -10.749   5.737  70.262  1.00  0.00    -0.380 C  
HETATM    6  C   UNL     1      -9.150  12.062  67.286  1.00  0.00    -0.178 C  
HETATM    7  C   UNL     1      -8.820  13.270  66.458  1.00  0.00     0.000 C  
HETATM    8  O   UNL     1     -10.531   4.903  72.506  1.00  0.00    -0.194 OA 
HETATM    9  C   UNL     1     -10.134   5.649  71.619  1.00  0.00    -0.195 C  
HETATM   10  C   UNL     1     -10.643  10.911  66.945  1.00  0.00    -0.312 C  
HETATM   11  C   UNL     1      -8.936   6.483  71.806  1.00  0.00    -0.138 C  
HETATM   12  C   UNL     1     -10.957   9.869  68.367  1.00  0.00    -0.235 C  
HETATM   13  C   UNL     1      -9.690   9.243  69.320  1.00  0.00    -0.169 C  
HETATM   14  C   UNL     1     -10.943   9.104  71.570  1.00  0.00    -0.434 C  
HETATM   15  C   UNL     1      -8.409  10.269  69.747  1.00  0.00    -0.099 C  
HETATM   16  C   UNL     1     -10.149   8.309  70.516  1.00  0.00    -0.210 C  
HETATM   17  C   UNL     1     -11.093   7.184  69.927  1.00  0.00    -0.264 C  
HETATM   18  C   UNL     1      -7.268   9.402  70.291  1.00  0.00    -0.104 C  
HETATM   19  C   UNL     1      -7.712   8.587  71.502  1.00  0.00    -0.146 C  
HETATM   20  C   UNL     1      -8.925   7.713  71.257  1.00  0.00    -0.141 C  
ENDROOT
BRANCH   4  21
HETATM   21  C   UNL     1     -10.794  13.088  68.378  1.00  0.00    -0.258 C  
HETATM   22  O   UNL     1     -10.711  14.194  68.918  1.00  0.00    -0.251 OA 
BRANCH  21  23
HETATM   23  C   UNL     1     -12.034  12.859  67.520  1.00  0.00    -0.296 C  
BRANCH  23  24
HETATM   24  O   UNL     1     -12.249  14.004  66.706  1.00  0.00    -0.439 OA 
BRANCH  24  25
HETATM   25  C   UNL     1     -12.511  13.753  65.400  1.00  0.00    -0.500 C  
HETATM   26  C   UNL     1     -11.583  14.537  64.528  1.00  0.00    -0.385 C  
HETATM   27  O   UNL     1     -13.376  12.998  64.983  1.00  0.00    -0.671 OA 
ENDBRANCH  24  25
ENDBRANCH  23  24
ENDBRANCH  21  23
ENDBRANCH   4  21
TORSDOF 4
ENDMDL
MODEL       68
REMARK 921   NORMALIZED FREE ENERGY PREDICTED BY IDOCK:   -4.63 KCAL/MOL
REMARK 922        TOTAL FREE ENERGY PREDICTED BY IDOCK:   -5.27 KCAL/MOL
REMARK 923 INTER-LIGAND FREE ENERGY PREDICTED BY IDOCK:   -5.77 KCAL/MOL
REMARK 924 INTRA-LIGAND FREE ENERGY PREDICTED BY IDOCK:    0.50 KCAL/MOL
REMARK 927      BINDING AFFINITY PREDICTED BY RF-SCORE:    0.00 PKD
ROOT
HETATM    1  C   UNL     1      -7.881  13.242  68.303  1.00  0.00    -0.143 C  
HETATM    2  C   UNL     1      -6.840  12.800  67.434  1.00  0.00    -0.137 C  
HETATM    3  C   UNL     1      -8.169  12.637  66.764  1.00  0.00     0.029 C  
HETATM    4  C   UNL     1      -9.739  13.506  67.751  1.00  0.00    -0.226 C  
HETATM    5  C   UNL     1     -10.477   7.147  67.351  1.00  0.00    -0.354 C  
HETATM    6  C   UNL     1      -8.854  14.119  66.920  1.00  0.00    -0.223 C  
HETATM    7  C   UNL     1      -8.438  15.528  66.613  1.00  0.00    -0.314 C  
HETATM    8  O   UNL     1     -10.881   5.693  69.222  1.00  0.00    -0.303 OA 
HETATM    9  C   UNL     1     -10.323   6.680  68.761  1.00  0.00    -0.194 C  
HETATM   10  C   UNL     1      -9.995  13.073  65.790  1.00  0.00    -0.260 C  
HETATM   11  C   UNL     1      -9.368   7.460  69.565  1.00  0.00    -0.156 C  
HETATM   12  C   UNL     1     -10.608  11.646  66.682  1.00  0.00    -0.281 C  
HETATM   13  C   UNL     1      -9.642  10.807  67.808  1.00  0.00    -0.176 C  
HETATM   14  C   UNL     1     -11.519   9.966  69.364  1.00  0.00    -0.079 C  
HETATM   15  C   UNL     1      -8.712  11.701  68.908  1.00  0.00     0.078 C  
HETATM   16  C   UNL     1     -10.333   9.546  68.476  1.00  0.00    -0.234 C  
HETATM   17  C   UNL     1     -10.882   8.616  67.320  1.00  0.00    -0.077 C  
HETATM   18  C   UNL     1      -7.701  10.749  69.559  1.00  0.00    -0.074 C  
HETATM   19  C   UNL     1      -8.399   9.597  70.277  1.00  0.00    -0.216 C  
HETATM   20  C   UNL     1      -9.343   8.797  69.405  1.00  0.00    -0.157 C  
ENDROOT
BRANCH   4  21
HETATM   21  C   UNL     1     -10.881  14.721  67.611  1.00  0.00    -0.285 C  
HETATM   22  O   UNL     1     -11.604  14.960  66.641  1.00  0.00    -0.342 OA 
BRANCH  21  23
HETATM   23  C   UNL     1     -11.040  15.655  68.806  1.00  0.00    -0.307 C  
BRANCH  23  24
HETATM   24  O   UNL     1     -11.378  16.952  68.334  1.00  0.00    -0.230 OA 
BRANCH  24  25
HETATM   25  C   UNL     1     -10.363  17.850  68.314  1.00  0.00    -0.383 C  
HETATM   26  C   UNL     1     -10.637  18.917  67.304  1.00  0.00    -0.529 C  
HETATM   27  O   UNL     1      -9.363  17.805  69.015  1.00  0.00    -0.197 OA 
ENDBRANCH  24  25
ENDBRANCH  23  24
ENDBRANCH  21  23
ENDBRANCH   4  21
TORSDOF 4
ENDMDL
MODEL       69
REMARK 921   NORMALIZED FREE ENERGY PREDICTED BY IDOCK:   -4.58 KCAL/MOL
REMARK 922        TOTAL FREE ENERGY PREDICTED BY IDOCK:   -5.21 KCAL/MOL
REMARK 923 INTER-LIGAND FREE ENERGY PREDICTED BY IDOCK:   -6.26 KCAL/MOL
REMARK 924 INTRA-LIGAND FREE ENERGY PREDICTED BY IDOCK:    1.05 KCAL/MOL
REMARK 927      BINDING AFFINITY PREDICTED BY RF-SCORE:    0.00 PKD
ROOT
HETATM    1  C   UNL     1     -11.083   9.505  71.502  1.00  0.00    -0.406 C  
HETATM    2  C   UNL     1     -12.244   8.759  71.143  1.00  0.00    -0.284 C  
HETATM    3  C   UNL     1     -11.049   8.225  70.416  1.00  0.00    -0.238 C  
HETATM    4  C   UNL     1      -9.254   8.980  71.047  1.00  0.00    -0.331 C  
HETATM    5  C   UNL     1     -10.389  10.493  64.919  1.00  0.00    -0.307 C  
HETATM    6  C   UNL     1      -9.962   7.969  71.617  1.00  0.00    -0.237 C  
HETATM    7  C   UNL     1      -9.970   7.245  72.932  1.00  0.00    -0.257 C  
HETATM    8  O   UNL     1     -10.336  12.723  64.023  1.00  0.00    -0.415 OA 
HETATM    9  C   UNL     1     -10.608  11.969  64.949  1.00  0.00    -0.291 C  
HETATM   10  C   UNL     1      -9.221   7.245  70.005  1.00  0.00    -0.148 C  
HETATM   11  C   UNL     1     -11.261  12.468  66.170  1.00  0.00    -0.362 C  
HETATM   12  C   UNL     1      -9.003   8.542  68.789  1.00  0.00    -0.139 C  
HETATM   13  C   UNL     1     -10.118   9.821  68.630  1.00  0.00    -0.186 C  
HETATM   14  C   UNL     1      -8.493  11.635  67.779  1.00  0.00    -0.144 C  
HETATM   15  C   UNL     1     -10.703  10.570  70.034  1.00  0.00    -0.282 C  
HETATM   16  C   UNL     1      -9.789  10.859  67.477  1.00  0.00    -0.192 C  
HETATM   17  C   UNL     1      -9.582  10.050  66.133  1.00  0.00    -0.265 C  
HETATM   18  C   UNL     1     -11.914  11.427  69.647  1.00  0.00    -0.416 C  
HETATM   19  C   UNL     1     -11.544  12.480  68.606  1.00  0.00    -0.357 C  
HETATM   20  C   UNL     1     -10.909  11.922  67.350  1.00  0.00    -0.289 C  
ENDROOT
BRANCH   4  21
HETATM   21  C   UNL     1      -7.819   8.541  71.787  1.00  0.00    -0.120 C  
HETATM   22  O   UNL     1      -7.475   8.769  72.949  1.00  0.00    -0.357 OA 
BRANCH  21  23
HETATM   23  C   UNL     1      -6.806   7.787  70.931  1.00  0.00    -0.042 C  
BRANCH  23  24
HETATM   24  O   UNL     1      -6.110   6.859  71.750  1.00  0.00    -0.037 OA 
BRANCH  24  25
HETATM   25  C   UNL     1      -6.542   5.576  71.679  1.00  0.00    -0.052 C  
HETATM   26  C   UNL     1      -6.914   5.079  73.039  1.00  0.00    -0.078 C  
HETATM   27  O   UNL     1      -6.621   4.911  70.657  1.00  0.00    -0.029 OA 
ENDBRANCH  24  25
ENDBRANCH  23  24
ENDBRANCH  21  23
ENDBRANCH   4  21
TORSDOF 4
ENDMDL
MODEL       70
REMARK 921   NORMALIZED FREE ENERGY PREDICTED BY IDOCK:   -4.56 KCAL/MOL
REMARK 922        TOTAL FREE ENERGY PREDICTED BY IDOCK:   -5.19 KCAL/MOL
REMARK 923 INTER-LIGAND FREE ENERGY PREDICTED BY IDOCK:   -5.70 KCAL/MOL
REMARK 924 INTRA-LIGAND FREE ENERGY PREDICTED BY IDOCK:    0.51 KCAL/MOL
REMARK 927      BINDING AFFINITY PREDICTED BY RF-SCORE:    0.00 PKD
ROOT
HETATM    1  C   UNL     1     -11.273   9.472  69.445  1.00  0.00    -0.066 C  
HETATM    2  C   UNL     1     -11.180   9.815  70.826  1.00  0.00    -0.419 C  
HETATM    3  C   UNL     1      -9.833   9.922  70.180  1.00  0.00    -0.272 C  
HETATM    4  C   UNL     1      -9.846   9.763  68.139  1.00  0.00    -0.170 C  
HETATM    5  C   UNL     1      -6.482   5.006  70.819  1.00  0.00    -0.031 C  
HETATM    6  C   UNL     1     -10.116  10.874  68.875  1.00  0.00    -0.211 C  
HETATM    7  C   UNL     1     -10.763  12.209  68.644  1.00  0.00    -0.261 C  
HETATM    8  O   UNL     1      -6.847   2.666  70.408  1.00  0.00    -0.032 OA 
HETATM    9  C   UNL     1      -7.308   3.791  70.556  1.00  0.00    -0.041 C  
HETATM   10  C   UNL     1      -8.221  10.612  68.997  1.00  0.00    -0.151 C  
HETATM   11  C   UNL     1      -8.761   4.024  70.560  1.00  0.00    -0.120 C  
HETATM   12  C   UNL     1      -7.826   8.874  68.835  1.00  0.00    -0.096 C  
HETATM   13  C   UNL     1      -8.826   7.659  69.491  1.00  0.00    -0.139 C  
HETATM   14  C   UNL     1      -8.308   5.786  67.796  1.00  0.00    -0.104 C  
HETATM   15  C   UNL     1     -10.505   7.793  69.295  1.00  0.00    -0.221 C  
HETATM   16  C   UNL     1      -8.304   6.176  69.286  1.00  0.00    -0.116 C  
HETATM   17  C   UNL     1      -6.814   6.103  69.815  1.00  0.00    -0.068 C  
HETATM   18  C   UNL     1     -11.175   6.793  70.245  1.00  0.00    -0.385 C  
HETATM   19  C   UNL     1     -10.726   5.363  69.960  1.00  0.00    -0.296 C  
HETATM   20  C   UNL     1      -9.226   5.158  70.003  1.00  0.00    -0.180 C  
ENDROOT
BRANCH   4  21
HETATM   21  C   UNL     1      -9.536  10.630  66.742  1.00  0.00    -0.169 C  
HETATM   22  O   UNL     1      -8.602  11.408  66.535  1.00  0.00    -0.169 OA 
BRANCH  21  23
HETATM   23  C   UNL     1     -10.525  10.460  65.593  1.00  0.00    -0.115 C  
BRANCH  23  24
HETATM   24  O   UNL     1     -10.569  11.664  64.840  1.00  0.00    -0.272 OA 
BRANCH  24  25
HETATM   25  C   UNL     1     -11.783  12.263  64.764  1.00  0.00    -0.358 C  
HETATM   26  C   UNL     1     -12.103  12.603  63.344  1.00  0.00    -0.614 C  
HETATM   27  O   UNL     1     -12.518  12.497  65.711  1.00  0.00    -0.626 OA 
ENDBRANCH  24  25
ENDBRANCH  23  24
ENDBRANCH  21  23
ENDBRANCH   4  21
TORSDOF 4
ENDMDL
MODEL       71
REMARK 921   NORMALIZED FREE ENERGY PREDICTED BY IDOCK:   -4.56 KCAL/MOL
REMARK 922        TOTAL FREE ENERGY PREDICTED BY IDOCK:   -5.19 KCAL/MOL
REMARK 923 INTER-LIGAND FREE ENERGY PREDICTED BY IDOCK:   -5.85 KCAL/MOL
REMARK 924 INTRA-LIGAND FREE ENERGY PREDICTED BY IDOCK:    0.66 KCAL/MOL
REMARK 927      BINDING AFFINITY PREDICTED BY RF-SCORE:    0.00 PKD
ROOT
HETATM    1  C   UNL     1      -9.746   8.927  69.253  1.00  0.00    -0.165 C  
HETATM    2  C   UNL     1     -10.975   8.204  69.293  1.00  0.00     0.030 C  
HETATM    3  C   UNL     1     -10.341   8.060  67.945  1.00  0.00    -0.282 C  
HETATM    4  C   UNL     1      -8.427   8.778  67.816  1.00  0.00    -0.125 C  
HETATM    5  C   UNL     1     -12.383  11.983  63.914  1.00  0.00    -0.553 C  
HETATM    6  C   UNL     1      -8.816   7.567  68.297  1.00  0.00    -0.125 C  
HETATM    7  C   UNL     1      -8.209   6.474  69.128  1.00  0.00    -0.116 C  
HETATM    8  O   UNL     1     -12.646  14.372  63.888  1.00  0.00    -0.814 OA 
HETATM    9  C   UNL     1     -12.464  13.342  64.526  1.00  0.00    -0.301 C  
HETATM   10  C   UNL     1      -9.029   7.468  66.394  1.00  0.00    -0.196 C  
HETATM   11  C   UNL     1     -12.386  13.360  65.995  1.00  0.00    -0.471 C  
HETATM   12  C   UNL     1      -9.370   9.094  65.726  1.00  0.00    -0.309 C  
HETATM   13  C   UNL     1     -10.332  10.226  66.562  1.00  0.00    -0.276 C  
HETATM   14  C   UNL     1      -9.242  12.384  65.663  1.00  0.00     0.141 C  
HETATM   15  C   UNL     1     -10.086  10.431  68.227  1.00  0.00    -0.174 C  
HETATM   16  C   UNL     1     -10.560  11.601  65.805  1.00  0.00    -0.320 C  
HETATM   17  C   UNL     1     -11.105  11.278  64.354  1.00  0.00    -0.273 C  
HETATM   18  C   UNL     1     -11.272  11.224  68.787  1.00  0.00    -0.311 C  
HETATM   19  C   UNL     1     -11.409  12.583  68.107  1.00  0.00    -0.343 C  
HETATM   20  C   UNL     1     -11.525  12.518  66.598  1.00  0.00    -0.417 C  
ENDROOT
BRANCH   4  21
HETATM   21  C   UNL     1      -6.846   8.294  67.565  1.00  0.00    -0.070 C  
HETATM   22  O   UNL     1      -6.342   7.204  67.847  1.00  0.00    -0.040 OA 
BRANCH  21  23
HETATM   23  C   UNL     1      -5.906   9.315  66.932  1.00  0.00    -0.051 C  
BRANCH  23  24
HETATM   24  O   UNL     1      -5.409   8.789  65.709  1.00  0.00    -0.033 OA 
BRANCH  24  25
HETATM   25  C   UNL     1      -6.036   9.222  64.588  1.00  0.00    -0.070 C  
HETATM   26  C   UNL     1      -6.155   8.107  63.599  1.00  0.00    -0.071 C  
HETATM   27  O   UNL     1      -6.449  10.356  64.400  1.00  0.00    -0.114 OA 
ENDBRANCH  24  25
ENDBRANCH  23  24
ENDBRANCH  21  23
ENDBRANCH   4  21
TORSDOF 4
ENDMDL
MODEL       72
REMARK 921   NORMALIZED FREE ENERGY PREDICTED BY IDOCK:   -4.55 KCAL/MOL
REMARK 922        TOTAL FREE ENERGY PREDICTED BY IDOCK:   -5.17 KCAL/MOL
REMARK 923 INTER-LIGAND FREE ENERGY PREDICTED BY IDOCK:   -5.29 KCAL/MOL
REMARK 924 INTRA-LIGAND FREE ENERGY PREDICTED BY IDOCK:    0.12 KCAL/MOL
REMARK 927      BINDING AFFINITY PREDICTED BY RF-SCORE:    0.00 PKD
ROOT
HETATM    1  C   UNL     1     -10.818   6.841  68.881  1.00  0.00    -0.288 C  
HETATM    2  C   UNL     1     -10.675   5.689  68.053  1.00  0.00    -0.235 C  
HETATM    3  C   UNL     1      -9.409   5.931  68.816  1.00  0.00    -0.133 C  
HETATM    4  C   UNL     1      -9.548   7.359  70.277  1.00  0.00    -0.165 C  
HETATM    5  C   UNL     1      -5.336   9.064  65.750  1.00  0.00    -0.040 C  
HETATM    6  C   UNL     1      -9.923   6.055  70.368  1.00  0.00    -0.233 C  
HETATM    7  C   UNL     1     -10.774   5.224  71.285  1.00  0.00    -0.198 C  
HETATM    8  O   UNL     1      -5.384  11.143  64.545  1.00  0.00    -0.137 OA 
HETATM    9  C   UNL     1      -5.993  10.218  65.067  1.00  0.00    -0.133 C  
HETATM   10  C   UNL     1      -8.007   6.051  70.395  1.00  0.00    -0.107 C  
HETATM   11  C   UNL     1      -7.460  10.133  64.992  1.00  0.00    -0.140 C  
HETATM   12  C   UNL     1      -7.374   7.461  69.489  1.00  0.00    -0.085 C  
HETATM   13  C   UNL     1      -8.135   8.037  68.077  1.00  0.00    -0.129 C  
HETATM   14  C   UNL     1      -7.473  10.522  68.278  1.00  0.00    -0.090 C  
HETATM   15  C   UNL     1      -9.825   8.172  68.059  1.00  0.00    -0.200 C  
HETATM   16  C   UNL     1      -7.417   9.269  67.384  1.00  0.00    -0.087 C  
HETATM   17  C   UNL     1      -5.898   8.889  67.156  1.00  0.00    -0.046 C  
HETATM   18  C   UNL     1     -10.271   8.374  66.607  1.00  0.00    -0.335 C  
HETATM   19  C   UNL     1      -9.639   9.622  65.996  1.00  0.00    -0.305 C  
HETATM   20  C   UNL     1      -8.126   9.652  66.059  1.00  0.00    -0.112 C  
ENDROOT
BRANCH   4  21
HETATM   21  C   UNL     1      -9.472   7.568  71.935  1.00  0.00    -0.144 C  
HETATM   22  O   UNL     1      -8.641   7.092  72.712  1.00  0.00    -0.115 OA 
BRANCH  21  23
HETATM   23  C   UNL     1     -10.558   8.429  72.571  1.00  0.00    -0.298 C  
BRANCH  23  24
HETATM   24  O   UNL     1     -11.038   9.353  71.604  1.00  0.00    -0.369 OA 
BRANCH  24  25
HETATM   25  C   UNL     1     -12.371   9.600  71.642  1.00  0.00    -0.404 C  
HETATM   26  C   UNL     1     -13.135   8.315  71.605  1.00  0.00    -0.354 C  
HETATM   27  O   UNL     1     -12.886  10.706  71.698  1.00  0.00    -0.414 OA 
ENDBRANCH  24  25
ENDBRANCH  23  24
ENDBRANCH  21  23
ENDBRANCH   4  21
TORSDOF 4
ENDMDL
MODEL       73
REMARK 921   NORMALIZED FREE ENERGY PREDICTED BY IDOCK:   -4.53 KCAL/MOL
REMARK 922        TOTAL FREE ENERGY PREDICTED BY IDOCK:   -5.15 KCAL/MOL
REMARK 923 INTER-LIGAND FREE ENERGY PREDICTED BY IDOCK:   -5.67 KCAL/MOL
REMARK 924 INTRA-LIGAND FREE ENERGY PREDICTED BY IDOCK:    0.52 KCAL/MOL
REMARK 927      BINDING AFFINITY PREDICTED BY RF-SCORE:    0.00 PKD
ROOT
HETATM    1  C   UNL     1      -7.248  12.627  67.195  1.00  0.00    -0.040 C  
HETATM    2  C   UNL     1      -6.472  12.592  68.390  1.00  0.00    -0.078 C  
HETATM    3  C   UNL     1      -7.592  11.603  68.479  1.00  0.00    -0.127 C  
HETATM    4  C   UNL     1      -8.615  11.307  66.730  1.00  0.00    -0.159 C  
HETATM    5  C   UNL     1     -12.437  13.728  71.276  1.00  0.00    -0.428 C  
HETATM    6  C   UNL     1      -7.438  10.734  67.097  1.00  0.00    -0.102 C  
HETATM    7  C   UNL     1      -6.322   9.995  66.416  1.00  0.00    -0.073 C  
HETATM    8  O   UNL     1     -13.778  15.708  71.031  1.00  0.00    -0.582 OA 
HETATM    9  C   UNL     1     -12.736  15.109  70.794  1.00  0.00    -0.405 C  
HETATM   10  C   UNL     1      -8.787   9.886  68.162  1.00  0.00    -0.118 C  
HETATM   11  C   UNL     1     -11.638  15.754  70.058  1.00  0.00    -0.361 C  
HETATM   12  C   UNL     1     -10.158  11.007  68.429  1.00  0.00    -0.194 C  
HETATM   13  C   UNL     1      -9.920  12.680  68.656  1.00  0.00    -0.106 C  
HETATM   14  C   UNL     1     -12.155  13.515  67.677  1.00  0.00    -0.321 C  
HETATM   15  C   UNL     1      -8.824  13.490  67.648  1.00  0.00    -0.202 C  
HETATM   16  C   UNL     1     -11.242  13.516  68.917  1.00  0.00    -0.316 C  
HETATM   17  C   UNL     1     -12.025  12.835  70.111  1.00  0.00    -0.371 C  
HETATM   18  C   UNL     1      -8.541  14.866  68.263  1.00  0.00    -0.160 C  
HETATM   19  C   UNL     1      -9.819  15.686  68.413  1.00  0.00    -0.206 C  
HETATM   20  C   UNL     1     -10.911  15.001  69.209  1.00  0.00    -0.269 C  
ENDROOT
BRANCH   4  21
HETATM   21  C   UNL     1      -8.944  10.148  65.569  1.00  0.00    -0.172 C  
HETATM   22  O   UNL     1      -9.562   9.091  65.720  1.00  0.00    -0.256 OA 
BRANCH  21  23
HETATM   23  C   UNL     1      -8.409  10.410  64.165  1.00  0.00    -0.139 C  
BRANCH  23  24
HETATM   24  O   UNL     1      -8.304   9.173  63.473  1.00  0.00    -0.170 OA 
BRANCH  24  25
HETATM   25  C   UNL     1      -7.142   8.972  62.806  1.00  0.00    -0.095 C  
HETATM   26  C   UNL     1      -6.402  10.263  62.656  1.00  0.00    -0.135 C  
HETATM   27  O   UNL     1      -6.744   7.897  62.383  1.00  0.00    -0.083 OA 
ENDBRANCH  24  25
ENDBRANCH  23  24
ENDBRANCH  21  23
ENDBRANCH   4  21
TORSDOF 4
ENDMDL
MODEL       74
REMARK 921   NORMALIZED FREE ENERGY PREDICTED BY IDOCK:   -4.51 KCAL/MOL
REMARK 922        TOTAL FREE ENERGY PREDICTED BY IDOCK:   -5.13 KCAL/MOL
REMARK 923 INTER-LIGAND FREE ENERGY PREDICTED BY IDOCK:   -5.31 KCAL/MOL
REMARK 924 INTRA-LIGAND FREE ENERGY PREDICTED BY IDOCK:    0.18 KCAL/MOL
REMARK 927      BINDING AFFINITY PREDICTED BY RF-SCORE:    0.00 PKD
ROOT
HETATM    1  C   UNL     1      -9.704  12.479  66.260  1.00  0.00    -0.259 C  
HETATM    2  C   UNL     1     -10.305  11.676  65.247  1.00  0.00    -0.316 C  
HETATM    3  C   UNL     1     -10.900  11.345  66.580  1.00  0.00    -0.339 C  
HETATM    4  C   UNL     1     -10.370  12.619  68.094  1.00  0.00    -0.238 C  
HETATM    5  C   UNL     1      -8.315   6.654  69.248  1.00  0.00    -0.124 C  
HETATM    6  C   UNL     1     -11.346  12.810  67.167  1.00  0.00    -0.365 C  
HETATM    7  C   UNL     1     -12.159  13.965  66.657  1.00  0.00    -0.485 C  
HETATM    8  O   UNL     1      -6.042   6.060  69.756  1.00  0.00    -0.024 OA 
HETATM    9  C   UNL     1      -6.830   6.758  69.131  1.00  0.00    -0.065 C  
HETATM   10  C   UNL     1     -12.020  11.478  68.369  1.00  0.00    -0.268 C  
HETATM   11  C   UNL     1      -6.360   7.730  68.131  1.00  0.00    -0.050 C  
HETATM   12  C   UNL     1     -10.667  10.545  69.079  1.00  0.00    -0.259 C  
HETATM   13  C   UNL     1      -9.277  10.150  68.176  1.00  0.00    -0.137 C  
HETATM   14  C   UNL     1      -7.574  10.087  70.112  1.00  0.00    -0.168 C  
HETATM   15  C   UNL     1      -8.578  11.343  67.194  1.00  0.00    -0.151 C  
HETATM   16  C   UNL     1      -8.195   9.288  68.951  1.00  0.00    -0.111 C  
HETATM   17  C   UNL     1      -8.921   8.018  69.555  1.00  0.00    -0.148 C  
HETATM   18  C   UNL     1      -7.581  10.658  66.251  1.00  0.00    -0.137 C  
HETATM   19  C   UNL     1      -6.496   9.916  67.027  1.00  0.00    -0.069 C  
HETATM   20  C   UNL     1      -7.022   8.898  68.017  1.00  0.00    -0.078 C  
ENDROOT
BRANCH   4  21
HETATM   21  C   UNL     1     -11.000  13.751  69.153  1.00  0.00    -0.208 C  
HETATM   22  O   UNL     1     -11.998  13.632  69.869  1.00  0.00    -0.311 OA 
BRANCH  21  23
HETATM   23  C   UNL     1     -10.278  15.092  69.236  1.00  0.00    -0.241 C  
BRANCH  23  24
HETATM   24  O   UNL     1      -8.883  14.874  69.082  1.00  0.00    -0.193 OA 
BRANCH  24  25
HETATM   25  C   UNL     1      -8.242  15.745  68.265  1.00  0.00    -0.143 C  
HETATM   26  C   UNL     1      -7.411  15.002  67.268  1.00  0.00    -0.215 C  
HETATM   27  O   UNL     1      -8.322  16.963  68.325  1.00  0.00    -0.208 OA 
ENDBRANCH  24  25
ENDBRANCH  23  24
ENDBRANCH  21  23
ENDBRANCH   4  21
TORSDOF 4
ENDMDL
MODEL       75
REMARK 921   NORMALIZED FREE ENERGY PREDICTED BY IDOCK:   -4.50 KCAL/MOL
REMARK 922        TOTAL FREE ENERGY PREDICTED BY IDOCK:   -5.12 KCAL/MOL
REMARK 923 INTER-LIGAND FREE ENERGY PREDICTED BY IDOCK:   -5.26 KCAL/MOL
REMARK 924 INTRA-LIGAND FREE ENERGY PREDICTED BY IDOCK:    0.14 KCAL/MOL
REMARK 927      BINDING AFFINITY PREDICTED BY RF-SCORE:    0.00 PKD
ROOT
HETATM    1  C   UNL     1      -7.589   9.645  68.852  1.00  0.00    -0.076 C  
HETATM    2  C   UNL     1      -7.532   9.890  70.255  1.00  0.00    -0.173 C  
HETATM    3  C   UNL     1      -8.958   9.788  69.811  1.00  0.00    -0.239 C  
HETATM    4  C   UNL     1      -9.213   9.134  67.888  1.00  0.00    -0.144 C  
HETATM    5  C   UNL     1     -11.480  15.086  68.638  1.00  0.00    -0.329 C  
HETATM    6  C   UNL     1      -8.996   8.368  68.991  1.00  0.00    -0.147 C  
HETATM    7  C   UNL     1      -8.578   6.955  69.276  1.00  0.00    -0.132 C  
HETATM    8  O   UNL     1     -10.859  16.972  67.284  1.00  0.00    -0.252 OA 
HETATM    9  C   UNL     1     -10.540  15.930  67.842  1.00  0.00    -0.300 C  
HETATM   10  C   UNL     1     -10.800   8.997  69.136  1.00  0.00    -0.110 C  
HETATM   11  C   UNL     1      -9.147  15.456  67.833  1.00  0.00    -0.178 C  
HETATM   12  C   UNL     1     -10.973  10.576  68.309  1.00  0.00    -0.314 C  
HETATM   13  C   UNL     1      -9.733  11.746  68.337  1.00  0.00    -0.197 C  
HETATM   14  C   UNL     1     -10.224  12.872  66.069  1.00  0.00    -0.293 C  
HETATM   15  C   UNL     1      -8.133  11.243  68.088  1.00  0.00    -0.134 C  
HETATM   16  C   UNL     1     -10.071  13.100  67.585  1.00  0.00    -0.221 C  
HETATM   17  C   UNL     1     -11.447  13.644  68.147  1.00  0.00    -0.348 C  
HETATM   18  C   UNL     1      -7.204  12.392  68.495  1.00  0.00    -0.103 C  
HETATM   19  C   UNL     1      -7.489  13.655  67.686  1.00  0.00    -0.191 C  
HETATM   20  C   UNL     1      -8.925  14.130  67.753  1.00  0.00    -0.187 C  
ENDROOT
BRANCH   4  21
HETATM   21  C   UNL     1      -9.833   7.864  66.992  1.00  0.00    -0.225 C  
HETATM   22  O   UNL     1     -10.975   7.400  67.041  1.00  0.00    -0.332 OA 
BRANCH  21  23
HETATM   23  C   UNL     1      -8.881   7.182  66.014  1.00  0.00    -0.131 C  
BRANCH  23  24
HETATM   24  O   UNL     1      -7.793   8.055  65.745  1.00  0.00    -0.089 OA 
BRANCH  24  25
HETATM   25  C   UNL     1      -7.793   8.628  64.517  1.00  0.00    -0.132 C  
HETATM   26  C   UNL     1      -7.212  10.004  64.589  1.00  0.00    -0.140 C  
HETATM   27  O   UNL     1      -8.206   8.108  63.492  1.00  0.00    -0.140 OA 
ENDBRANCH  24  25
ENDBRANCH  23  24
ENDBRANCH  21  23
ENDBRANCH   4  21
TORSDOF 4
ENDMDL
MODEL       76
REMARK 921   NORMALIZED FREE ENERGY PREDICTED BY IDOCK:   -4.45 KCAL/MOL
REMARK 922        TOTAL FREE ENERGY PREDICTED BY IDOCK:   -5.05 KCAL/MOL
REMARK 923 INTER-LIGAND FREE ENERGY PREDICTED BY IDOCK:   -5.74 KCAL/MOL
REMARK 924 INTRA-LIGAND FREE ENERGY PREDICTED BY IDOCK:    0.69 KCAL/MOL
REMARK 927      BINDING AFFINITY PREDICTED BY RF-SCORE:    0.00 PKD
ROOT
HETATM    1  C   UNL     1      -6.236  12.284  68.131  1.00  0.00    -0.058 C  
HETATM    2  C   UNL     1      -6.018  12.497  69.524  1.00  0.00    -0.113 C  
HETATM    3  C   UNL     1      -7.460  12.180  69.275  1.00  0.00     0.219 C  
HETATM    4  C   UNL     1      -7.882  11.547  67.374  1.00  0.00    -0.143 C  
HETATM    5  C   UNL     1     -10.910  17.038  68.720  1.00  0.00    -0.258 C  
HETATM    6  C   UNL     1      -7.395  10.796  68.398  1.00  0.00    -0.092 C  
HETATM    7  C   UNL     1      -6.727   9.461  68.554  1.00  0.00    -0.058 C  
HETATM    8  O   UNL     1     -10.788  19.035  67.387  1.00  0.00    -0.473 OA 
HETATM    9  C   UNL     1     -10.236  18.042  67.845  1.00  0.00    -0.378 C  
HETATM   10  C   UNL     1      -9.235  11.125  68.819  1.00  0.00    -0.151 C  
HETATM   11  C   UNL     1      -8.802  17.798  67.623  1.00  0.00    -0.248 C  
HETATM   12  C   UNL     1      -9.766  12.678  68.102  1.00  0.00    -0.219 C  
HETATM   13  C   UNL     1      -8.730  14.029  68.019  1.00  0.00    -0.180 C  
HETATM   14  C   UNL     1      -9.707  15.123  65.897  1.00  0.00    -0.385 C  
HETATM   15  C   UNL     1      -7.124  13.795  67.529  1.00  0.00    -0.172 C  
HETATM   16  C   UNL     1      -9.377  15.332  67.387  1.00  0.00    -0.202 C  
HETATM   17  C   UNL     1     -10.725  15.634  68.158  1.00  0.00    -0.287 C  
HETATM   18  C   UNL     1      -6.335  15.067  67.861  1.00  0.00    -0.179 C  
HETATM   19  C   UNL     1      -6.923  16.289  67.162  1.00  0.00    -0.243 C  
HETATM   20  C   UNL     1      -8.392  16.527  67.448  1.00  0.00    -0.188 C  
ENDROOT
BRANCH   4  21
HETATM   21  C   UNL     1      -8.420  10.219  66.510  1.00  0.00    -0.125 C  
HETATM   22  O   UNL     1      -8.592   9.072  66.931  1.00  0.00    -0.121 OA 
BRANCH  21  23
HETATM   23  C   UNL     1      -8.718  10.435  65.030  1.00  0.00    -0.182 C  
BRANCH  23  24
HETATM   24  O   UNL     1      -9.556  11.573  64.890  1.00  0.00    -0.233 OA 
BRANCH  24  25
HETATM   25  C   UNL     1     -10.080  11.765  63.655  1.00  0.00    -0.418 C  
HETATM   26  C   UNL     1     -11.396  12.468  63.755  1.00  0.00    -0.534 C  
HETATM   27  O   UNL     1      -9.563  11.419  62.603  1.00  0.00    -0.320 OA 
ENDBRANCH  24  25
ENDBRANCH  23  24
ENDBRANCH  21  23
ENDBRANCH   4  21
TORSDOF 4
ENDMDL
MODEL       77
REMARK 921   NORMALIZED FREE ENERGY PREDICTED BY IDOCK:   -4.45 KCAL/MOL
REMARK 922        TOTAL FREE ENERGY PREDICTED BY IDOCK:   -5.05 KCAL/MOL
REMARK 923 INTER-LIGAND FREE ENERGY PREDICTED BY IDOCK:   -5.27 KCAL/MOL
REMARK 924 INTRA-LIGAND FREE ENERGY PREDICTED BY IDOCK:    0.22 KCAL/MOL
REMARK 927      BINDING AFFINITY PREDICTED BY RF-SCORE:    0.00 PKD
ROOT
HETATM    1  C   UNL     1     -11.764   7.991  71.077  1.00  0.00    -0.295 C  
HETATM    2  C   UNL     1     -11.885   8.692  72.313  1.00  0.00    -0.436 C  
HETATM    3  C   UNL     1     -10.498   8.849  71.770  1.00  0.00    -0.431 C  
HETATM    4  C   UNL     1     -10.244   8.164  69.857  1.00  0.00    -0.204 C  
HETATM    5  C   UNL     1      -6.603   4.892  74.001  1.00  0.00    -0.068 C  
HETATM    6  C   UNL     1     -10.751   9.368  70.235  1.00  0.00    -0.299 C  
HETATM    7  C   UNL     1     -11.543  10.470  69.595  1.00  0.00    -0.342 C  
HETATM    8  O   UNL     1      -6.590   2.499  74.224  1.00  0.00    -0.020 OA 
HETATM    9  C   UNL     1      -7.216   3.531  74.019  1.00  0.00    -0.052 C  
HETATM   10  C   UNL     1      -8.867   9.464  70.573  1.00  0.00    -0.287 C  
HETATM   11  C   UNL     1      -8.677   3.514  73.845  1.00  0.00    -0.088 C  
HETATM   12  C   UNL     1      -8.219   7.832  70.928  1.00  0.00    -0.107 C  
HETATM   13  C   UNL     1      -9.114   6.683  71.814  1.00  0.00    -0.144 C  
HETATM   14  C   UNL     1      -8.143   4.545  70.747  1.00  0.00    -0.068 C  
HETATM   15  C   UNL     1     -10.759   6.482  71.457  1.00  0.00    -0.275 C  
HETATM   16  C   UNL     1      -8.371   5.305  72.067  1.00  0.00    -0.122 C  
HETATM   17  C   UNL     1      -6.960   5.619  72.710  1.00  0.00    -0.080 C  
HETATM   18  C   UNL     1     -11.395   5.667  72.590  1.00  0.00    -0.356 C  
HETATM   19  C   UNL     1     -10.722   4.307  72.747  1.00  0.00    -0.217 C  
HETATM   20  C   UNL     1      -9.224   4.370  72.962  1.00  0.00    -0.132 C  
ENDROOT
BRANCH   4  21
HETATM   21  C   UNL     1      -9.891   8.676  68.304  1.00  0.00    -0.165 C  
HETATM   22  O   UNL     1      -9.212   9.651  67.973  1.00  0.00    -0.126 OA 
BRANCH  21  23
HETATM   23  C   UNL     1     -10.487   7.862  67.160  1.00  0.00    -0.344 C  
BRANCH  23  24
HETATM   24  O   UNL     1      -9.441   7.165  66.497  1.00  0.00    -0.171 OA 
BRANCH  24  25
HETATM   25  C   UNL     1      -8.994   6.048  67.122  1.00  0.00    -0.114 C  
HETATM   26  C   UNL     1     -10.099   5.049  67.247  1.00  0.00    -0.226 C  
HETATM   27  O   UNL     1      -7.856   5.872  67.530  1.00  0.00    -0.096 OA 
ENDBRANCH  24  25
ENDBRANCH  23  24
ENDBRANCH  21  23
ENDBRANCH   4  21
TORSDOF 4
ENDMDL
MODEL       78
REMARK 921   NORMALIZED FREE ENERGY PREDICTED BY IDOCK:   -4.37 KCAL/MOL
REMARK 922        TOTAL FREE ENERGY PREDICTED BY IDOCK:   -4.95 KCAL/MOL
REMARK 923 INTER-LIGAND FREE ENERGY PREDICTED BY IDOCK:   -5.56 KCAL/MOL
REMARK 924 INTRA-LIGAND FREE ENERGY PREDICTED BY IDOCK:    0.61 KCAL/MOL
REMARK 927      BINDING AFFINITY PREDICTED BY RF-SCORE:    0.00 PKD
ROOT
HETATM    1  C   UNL     1      -8.654   9.047  69.432  1.00  0.00    -0.137 C  
HETATM    2  C   UNL     1      -7.706   9.646  70.312  1.00  0.00    -0.184 C  
HETATM    3  C   UNL     1      -8.841   9.071  71.100  1.00  0.00    -0.282 C  
HETATM    4  C   UNL     1     -10.133   7.907  70.017  1.00  0.00    -0.199 C  
HETATM    5  C   UNL     1     -13.100  13.064  72.413  1.00  0.00    -0.380 C  
HETATM    6  C   UNL     1      -8.939   7.529  70.548  1.00  0.00    -0.152 C  
HETATM    7  C   UNL     1      -7.975   6.392  70.372  1.00  0.00    -0.112 C  
HETATM    8  O   UNL     1     -14.375  14.638  71.119  1.00  0.00    -0.318 OA 
HETATM    9  C   UNL     1     -13.409  13.890  71.209  1.00  0.00    -0.243 C  
HETATM   10  C   UNL     1     -10.144   7.688  72.029  1.00  0.00    -0.233 C  
HETATM   11  C   UNL     1     -12.410  13.805  70.133  1.00  0.00    -0.390 C  
HETATM   12  C   UNL     1     -11.407   8.906  71.671  1.00  0.00    -0.407 C  
HETATM   13  C   UNL     1     -11.064  10.323  70.787  1.00  0.00    -0.303 C  
HETATM   14  C   UNL     1     -13.385  10.671  69.716  1.00  0.00     0.974 C  
HETATM   15  C   UNL     1     -10.102  10.202  69.397  1.00  0.00    -0.250 C  
HETATM   16  C   UNL     1     -12.292  11.307  70.596  1.00  0.00    -0.477 C  
HETATM   17  C   UNL     1     -12.912  11.603  72.021  1.00  0.00    -0.365 C  
HETATM   18  C   UNL     1      -9.668  11.617  68.995  1.00  0.00     0.067 C  
HETATM   19  C   UNL     1     -10.871  12.515  68.724  1.00  0.00    -0.276 C  
HETATM   20  C   UNL     1     -11.856  12.606  69.870  1.00  0.00    -0.364 C  
ENDROOT
BRANCH   4  21
HETATM   21  C   UNL     1     -10.687   6.336  69.862  1.00  0.00    -0.294 C  
HETATM   22  O   UNL     1     -10.855   5.510  70.763  1.00  0.00    -0.250 OA 
BRANCH  21  23
HETATM   23  C   UNL     1     -11.006   5.855  68.451  1.00  0.00    -0.178 C  
BRANCH  23  24
HETATM   24  O   UNL     1      -9.985   4.964  68.025  1.00  0.00    -0.154 OA 
BRANCH  24  25
HETATM   25  C   UNL     1     -10.115   4.483  66.765  1.00  0.00    -0.186 C  
HETATM   26  C   UNL     1      -9.268   3.265  66.586  1.00  0.00    -0.178 C  
HETATM   27  O   UNL     1     -10.821   4.966  65.891  1.00  0.00    -0.289 OA 
ENDBRANCH  24  25
ENDBRANCH  23  24
ENDBRANCH  21  23
ENDBRANCH   4  21
TORSDOF 4
ENDMDL
MODEL       79
REMARK 921   NORMALIZED FREE ENERGY PREDICTED BY IDOCK:   -4.30 KCAL/MOL
REMARK 922        TOTAL FREE ENERGY PREDICTED BY IDOCK:   -4.86 KCAL/MOL
REMARK 923 INTER-LIGAND FREE ENERGY PREDICTED BY IDOCK:   -5.41 KCAL/MOL
REMARK 924 INTRA-LIGAND FREE ENERGY PREDICTED BY IDOCK:    0.55 KCAL/MOL
REMARK 927      BINDING AFFINITY PREDICTED BY RF-SCORE:    0.00 PKD
ROOT
HETATM    1  C   UNL     1      -8.330   5.518  71.299  1.00  0.00    -0.126 C  
HETATM    2  C   UNL     1      -6.935   5.240  71.197  1.00  0.00    -0.056 C  
HETATM    3  C   UNL     1      -7.278   6.444  70.375  1.00  0.00    -0.083 C  
HETATM    4  C   UNL     1      -9.176   7.160  70.654  1.00  0.00    -0.158 C  
HETATM    5  C   UNL     1      -8.302   5.186  64.615  1.00  0.00    -0.140 C  
HETATM    6  C   UNL     1      -8.087   7.403  71.431  1.00  0.00    -0.097 C  
HETATM    7  C   UNL     1      -7.824   7.938  72.809  1.00  0.00    -0.157 C  
HETATM    8  O   UNL     1      -9.706   3.607  63.470  1.00  0.00    -0.130 OA 
HETATM    9  C   UNL     1      -9.166   3.974  64.506  1.00  0.00    -0.151 C  
HETATM   10  C   UNL     1      -7.820   8.413  69.824  1.00  0.00    -0.099 C  
HETATM   11  C   UNL     1      -9.269   3.180  65.741  1.00  0.00    -0.138 C  
HETATM   12  C   UNL     1      -8.642   7.613  68.449  1.00  0.00    -0.124 C  
HETATM   13  C   UNL     1      -8.706   5.916  68.303  1.00  0.00    -0.112 C  
HETATM   14  C   UNL     1     -10.940   5.730  67.028  1.00  0.00    -0.225 C  
HETATM   15  C   UNL     1      -9.062   4.994  69.680  1.00  0.00    -0.151 C  
HETATM   16  C   UNL     1      -9.440   5.381  67.004  1.00  0.00    -0.133 C  
HETATM   17  C   UNL     1      -8.787   6.085  65.746  1.00  0.00    -0.143 C  
HETATM   18  C   UNL     1      -8.727   3.530  69.372  1.00  0.00    -0.130 C  
HETATM   19  C   UNL     1      -9.520   3.014  68.175  1.00  0.00    -0.219 C  
HETATM   20  C   UNL     1      -9.357   3.836  66.914  1.00  0.00    -0.214 C  
ENDROOT
BRANCH   4  21
HETATM   21  C   UNL     1     -10.020   8.485  71.229  1.00  0.00    -0.221 C  
HETATM   22  O   UNL     1      -9.791   9.675  71.001  1.00  0.00    -0.226 OA 
BRANCH  21  23
HETATM   23  C   UNL     1     -11.197   8.202  72.157  1.00  0.00    -0.329 C  
BRANCH  23  24
HETATM   24  O   UNL     1     -12.407   8.400  71.440  1.00  0.00    -0.302 OA 
BRANCH  24  25
HETATM   25  C   UNL     1     -13.315   9.211  72.036  1.00  0.00    -0.445 C  
HETATM   26  C   UNL     1     -13.008  10.642  71.731  1.00  0.00    -0.577 C  
HETATM   27  O   UNL     1     -14.253   8.839  72.724  1.00  0.00    -0.520 OA 
ENDBRANCH  24  25
ENDBRANCH  23  24
ENDBRANCH  21  23
ENDBRANCH   4  21
TORSDOF 4
ENDMDL
MODEL       80
REMARK 921   NORMALIZED FREE ENERGY PREDICTED BY IDOCK:   -4.24 KCAL/MOL
REMARK 922        TOTAL FREE ENERGY PREDICTED BY IDOCK:   -4.80 KCAL/MOL
REMARK 923 INTER-LIGAND FREE ENERGY PREDICTED BY IDOCK:   -5.00 KCAL/MOL
REMARK 924 INTRA-LIGAND FREE ENERGY PREDICTED BY IDOCK:    0.20 KCAL/MOL
REMARK 927      BINDING AFFINITY PREDICTED BY RF-SCORE:    0.00 PKD
ROOT
HETATM    1  C   UNL     1      -8.214  12.185  67.399  1.00  0.00    -0.175 C  
HETATM    2  C   UNL     1      -7.703  12.996  68.455  1.00  0.00    -0.111 C  
HETATM    3  C   UNL     1      -7.316  11.566  68.676  1.00  0.00    -0.106 C  
HETATM    4  C   UNL     1      -7.705  10.320  67.098  1.00  0.00    -0.092 C  
HETATM    5  C   UNL     1     -11.057   8.612  72.292  1.00  0.00    -0.395 C  
HETATM    6  C   UNL     1      -6.630  11.138  67.249  1.00  0.00    -0.083 C  
HETATM    7  C   UNL     1      -5.550  11.699  66.369  1.00  0.00     0.012 C  
HETATM    8  O   UNL     1     -13.441   8.309  72.349  1.00  0.00    -0.233 OA 
HETATM    9  C   UNL     1     -12.470   8.923  71.925  1.00  0.00    -0.378 C  
HETATM   10  C   UNL     1      -6.362   9.690  68.475  1.00  0.00    -0.047 C  
HETATM   11  C   UNL     1     -12.633  10.098  71.054  1.00  0.00    -0.478 C  
HETATM   12  C   UNL     1      -7.940   9.029  69.004  1.00  0.00    -0.102 C  
HETATM   13  C   UNL     1      -9.293  10.032  69.264  1.00  0.00    -0.224 C  
HETATM   14  C   UNL     1     -11.142   8.330  68.688  1.00  0.00     0.313 C  
HETATM   15  C   UNL     1      -9.634  11.248  68.133  1.00  0.00    -0.186 C  
HETATM   16  C   UNL     1     -10.597   9.283  69.767  1.00  0.00    -0.244 C  
HETATM   17  C   UNL     1     -10.210   8.425  71.039  1.00  0.00    -0.245 C  
HETATM   18  C   UNL     1     -10.660  12.202  68.756  1.00  0.00    -0.230 C  
HETATM   19  C   UNL     1     -11.943  11.470  69.141  1.00  0.00    -0.386 C  
HETATM   20  C   UNL     1     -11.735  10.291  70.069  1.00  0.00    -0.330 C  
ENDROOT
BRANCH   4  21
HETATM   21  C   UNL     1      -6.953   9.359  65.953  1.00  0.00    -0.090 C  
HETATM   22  O   UNL     1      -5.903   8.724  66.082  1.00  0.00    -0.046 OA 
BRANCH  21  23
HETATM   23  C   UNL     1      -7.623   9.266  64.586  1.00  0.00    -0.106 C  
BRANCH  23  24
HETATM   24  O   UNL     1      -8.084  10.555  64.209  1.00  0.00    -0.134 OA 
BRANCH  24  25
HETATM   25  C   UNL     1      -9.286  10.587  63.584  1.00  0.00    -0.270 C  
HETATM   26  C   UNL     1     -10.275  11.354  64.403  1.00  0.00    -0.361 C  
HETATM   27  O   UNL     1      -9.538  10.069  62.506  1.00  0.00    -0.272 OA 
ENDBRANCH  24  25
ENDBRANCH  23  24
ENDBRANCH  21  23
ENDBRANCH   4  21
TORSDOF 4
ENDMDL
MODEL       81
REMARK 921   NORMALIZED FREE ENERGY PREDICTED BY IDOCK:   -4.24 KCAL/MOL
REMARK 922        TOTAL FREE ENERGY PREDICTED BY IDOCK:   -4.79 KCAL/MOL
REMARK 923 INTER-LIGAND FREE ENERGY PREDICTED BY IDOCK:   -6.40 KCAL/MOL
REMARK 924 INTRA-LIGAND FREE ENERGY PREDICTED BY IDOCK:    1.61 KCAL/MOL
REMARK 927      BINDING AFFINITY PREDICTED BY RF-SCORE:    0.00 PKD
ROOT
HETATM    1  C   UNL     1     -13.105  11.047  70.180  1.00  0.00     0.157 C  
HETATM    2  C   UNL     1     -12.875  11.681  71.436  1.00  0.00    -0.461 C  
HETATM    3  C   UNL     1     -11.571  11.276  70.821  1.00  0.00     0.031 C  
HETATM    4  C   UNL     1     -11.702  10.631  68.882  1.00  0.00    -0.282 C  
HETATM    5  C   UNL     1      -9.571   5.973  72.742  1.00  0.00    -0.161 C  
HETATM    6  C   UNL     1     -11.650  11.919  69.315  1.00  0.00    -0.376 C  
HETATM    7  C   UNL     1     -11.941  13.277  68.744  1.00  0.00    -0.335 C  
HETATM    8  O   UNL     1     -10.540   3.780  72.909  1.00  0.00    -0.169 OA 
HETATM    9  C   UNL     1     -10.691   4.986  72.763  1.00  0.00    -0.236 C  
HETATM   10  C   UNL     1      -9.882  11.217  69.549  1.00  0.00     0.231 C  
HETATM   11  C   UNL     1     -12.034   5.579  72.670  1.00  0.00    -0.106 C  
HETATM   12  C   UNL     1      -9.952   9.449  69.831  1.00  0.00    -0.237 C  
HETATM   13  C   UNL     1     -11.205   8.733  70.738  1.00  0.00    -0.309 C  
HETATM   14  C   UNL     1     -11.249   6.434  69.571  1.00  0.00    -0.477 C  
HETATM   15  C   UNL     1     -12.800   9.242  70.469  1.00  0.00     0.315 C  
HETATM   16  C   UNL     1     -11.089   7.162  70.918  1.00  0.00    -0.290 C  
HETATM   17  C   UNL     1      -9.649   6.838  71.490  1.00  0.00    -0.165 C  
HETATM   18  C   UNL     1     -13.668   8.713  71.617  1.00  0.00    -0.424 C  
HETATM   19  C   UNL     1     -13.612   7.191  71.705  1.00  0.00    -0.399 C  
HETATM   20  C   UNL     1     -12.214   6.623  71.838  1.00  0.00    -0.381 C  
ENDROOT
BRANCH   4  21
HETATM   21  C   UNL     1     -11.233  11.020  67.324  1.00  0.00    -0.258 C  
HETATM   22  O   UNL     1     -10.303  10.531  66.678  1.00  0.00    -0.228 OA 
BRANCH  21  23
HETATM   23  C   UNL     1     -12.028  12.114  66.618  1.00  0.00    -0.107 C  
BRANCH  23  24
HETATM   24  O   UNL     1     -11.155  12.843  65.768  1.00  0.00    -0.278 OA 
BRANCH  24  25
HETATM   25  C   UNL     1     -11.715  13.890  65.113  1.00  0.00    -0.350 C  
HETATM   26  C   UNL     1     -10.691  14.949  64.860  1.00  0.00    -0.426 C  
HETATM   27  O   UNL     1     -12.886  13.968  64.773  1.00  0.00    -0.681 OA 
ENDBRANCH  24  25
ENDBRANCH  23  24
ENDBRANCH  21  23
ENDBRANCH   4  21
TORSDOF 4
ENDMDL
MODEL       82
REMARK 921   NORMALIZED FREE ENERGY PREDICTED BY IDOCK:   -4.22 KCAL/MOL
REMARK 922        TOTAL FREE ENERGY PREDICTED BY IDOCK:   -4.76 KCAL/MOL
REMARK 923 INTER-LIGAND FREE ENERGY PREDICTED BY IDOCK:   -5.92 KCAL/MOL
REMARK 924 INTRA-LIGAND FREE ENERGY PREDICTED BY IDOCK:    1.16 KCAL/MOL
REMARK 927      BINDING AFFINITY PREDICTED BY RF-SCORE:    0.00 PKD
ROOT
HETATM    1  C   UNL     1     -11.268  11.069  70.668  1.00  0.00     0.199 C  
HETATM    2  C   UNL     1     -12.624  10.632  70.731  1.00  0.00    -0.479 C  
HETATM    3  C   UNL     1     -11.867   9.808  69.736  1.00  0.00     0.064 C  
HETATM    4  C   UNL     1      -9.840  10.100  69.746  1.00  0.00    -0.245 C  
HETATM    5  C   UNL     1     -12.401  11.773  64.109  1.00  0.00    -0.268 C  
HETATM    6  C   UNL     1     -10.557   9.304  70.584  1.00  0.00    -0.324 C  
HETATM    7  C   UNL     1     -10.332   8.621  71.902  1.00  0.00    -0.405 C  
HETATM    8  O   UNL     1     -12.104  13.908  63.046  1.00  0.00    -0.290 OA 
HETATM    9  C   UNL     1     -12.249  13.257  64.073  1.00  0.00    -0.410 C  
HETATM   10  C   UNL     1     -10.532   8.399  68.895  1.00  0.00    -0.208 C  
HETATM   11  C   UNL     1     -12.364  13.918  65.383  1.00  0.00    -0.494 C  
HETATM   12  C   UNL     1     -10.399   9.585  67.560  1.00  0.00    -0.306 C  
HETATM   13  C   UNL     1     -11.177  11.100  67.623  1.00  0.00    -0.364 C  
HETATM   14  C   UNL     1      -9.512  12.441  66.180  1.00  0.00    -0.201 C  
HETATM   15  C   UNL     1     -11.115  11.988  69.066  1.00  0.00    -0.291 C  
HETATM   16  C   UNL     1     -10.982  12.009  66.339  1.00  0.00    -0.337 C  
HETATM   17  C   UNL     1     -11.389  11.157  65.068  1.00  0.00     0.097 C  
HETATM   18  C   UNL     1     -12.150  13.115  68.976  1.00  0.00    -0.240 C  
HETATM   19  C   UNL     1     -11.880  14.030  67.785  1.00  0.00    -0.419 C  
HETATM   20  C   UNL     1     -11.807  13.316  66.452  1.00  0.00    -0.446 C  
ENDROOT
BRANCH   4  21
HETATM   21  C   UNL     1      -8.393   9.326  70.070  1.00  0.00    -0.168 C  
HETATM   22  O   UNL     1      -8.042   8.807  71.133  1.00  0.00    -0.130 OA 
BRANCH  21  23
HETATM   23  C   UNL     1      -7.376   9.264  68.934  1.00  0.00    -0.074 C  
BRANCH  23  24
HETATM   24  O   UNL     1      -7.383   7.956  68.380  1.00  0.00    -0.096 OA 
BRANCH  24  25
HETATM   25  C   UNL     1      -6.179   7.487  67.971  1.00  0.00    -0.040 C  
HETATM   26  C   UNL     1      -5.277   7.285  69.146  1.00  0.00    -0.015 C  
HETATM   27  O   UNL     1      -5.864   7.258  66.813  1.00  0.00    -0.032 OA 
ENDBRANCH  24  25
ENDBRANCH  23  24
ENDBRANCH  21  23
ENDBRANCH   4  21
TORSDOF 4
ENDMDL
MODEL       83
REMARK 921   NORMALIZED FREE ENERGY PREDICTED BY IDOCK:   -4.21 KCAL/MOL
REMARK 922        TOTAL FREE ENERGY PREDICTED BY IDOCK:   -4.75 KCAL/MOL
REMARK 923 INTER-LIGAND FREE ENERGY PREDICTED BY IDOCK:   -5.26 KCAL/MOL
REMARK 924 INTRA-LIGAND FREE ENERGY PREDICTED BY IDOCK:    0.51 KCAL/MOL
REMARK 927      BINDING AFFINITY PREDICTED BY RF-SCORE:    0.00 PKD
ROOT
HETATM    1  C   UNL     1     -10.724  15.212  66.107  1.00  0.00    -0.327 C  
HETATM    2  C   UNL     1     -12.015  14.841  66.585  1.00  0.00    -0.199 C  
HETATM    3  C   UNL     1     -11.004  14.701  67.681  1.00  0.00    -0.296 C  
HETATM    4  C   UNL     1      -9.161  15.483  67.251  1.00  0.00    -0.215 C  
HETATM    5  C   UNL     1      -8.830   9.153  68.225  1.00  0.00    -0.129 C  
HETATM    6  C   UNL     1     -10.255  16.160  67.691  1.00  0.00    -0.265 C  
HETATM    7  C   UNL     1     -10.702  17.592  67.758  1.00  0.00    -0.336 C  
HETATM    8  O   UNL     1      -7.859   7.577  66.692  1.00  0.00    -0.101 OA 
HETATM    9  C   UNL     1      -8.507   8.600  66.877  1.00  0.00    -0.112 C  
HETATM   10  C   UNL     1      -9.610  15.171  69.200  1.00  0.00    -0.232 C  
HETATM   11  C   UNL     1      -9.098   9.341  65.752  1.00  0.00    -0.260 C  
HETATM   12  C   UNL     1      -8.779  13.682  68.654  1.00  0.00    -0.027 C  
HETATM   13  C   UNL     1      -9.327  12.788  67.310  1.00  0.00    -0.200 C  
HETATM   14  C   UNL     1      -7.061  11.824  66.547  1.00  0.00     0.111 C  
HETATM   15  C   UNL     1      -9.791  13.624  65.910  1.00  0.00    -0.263 C  
HETATM   16  C   UNL     1      -8.494  11.477  66.991  1.00  0.00    -0.164 C  
HETATM   17  C   UNL     1      -8.409  10.615  68.315  1.00  0.00    -0.122 C  
HETATM   18  C   UNL     1     -10.549  12.648  65.003  1.00  0.00    -0.329 C  
HETATM   19  C   UNL     1      -9.688  11.443  64.634  1.00  0.00    -0.275 C  
HETATM   20  C   UNL     1      -9.130  10.686  65.821  1.00  0.00    -0.208 C  
ENDROOT
BRANCH   4  21
HETATM   21  C   UNL     1      -8.095  16.688  67.710  1.00  0.00    -0.176 C  
HETATM   22  O   UNL     1      -8.190  17.442  68.682  1.00  0.00    -0.267 OA 
BRANCH  21  23
HETATM   23  C   UNL     1      -6.872  16.899  66.824  1.00  0.00    -0.232 C  
BRANCH  23  24
HETATM   24  O   UNL     1      -5.700  16.763  67.615  1.00  0.00    -0.125 OA 
BRANCH  24  25
HETATM   25  C   UNL     1      -5.394  15.499  67.995  1.00  0.00    -0.127 C  
HETATM   26  C   UNL     1      -5.291  15.418  69.484  1.00  0.00    -0.099 C  
HETATM   27  O   UNL     1      -5.224  14.553  67.240  1.00  0.00    -0.282 OA 
ENDBRANCH  24  25
ENDBRANCH  23  24
ENDBRANCH  21  23
ENDBRANCH   4  21
TORSDOF 4
ENDMDL
MODEL       84
REMARK 921   NORMALIZED FREE ENERGY PREDICTED BY IDOCK:   -4.20 KCAL/MOL
REMARK 922        TOTAL FREE ENERGY PREDICTED BY IDOCK:   -4.74 KCAL/MOL
REMARK 923 INTER-LIGAND FREE ENERGY PREDICTED BY IDOCK:   -5.94 KCAL/MOL
REMARK 924 INTRA-LIGAND FREE ENERGY PREDICTED BY IDOCK:    1.20 KCAL/MOL
REMARK 927      BINDING AFFINITY PREDICTED BY RF-SCORE:    0.00 PKD
ROOT
HETATM    1  C   UNL     1      -7.129  11.942  67.183  1.00  0.00    -0.142 C  
HETATM    2  C   UNL     1      -6.323  12.081  68.352  1.00  0.00    -0.053 C  
HETATM    3  C   UNL     1      -7.460  11.145  68.623  1.00  0.00    -0.119 C  
HETATM    4  C   UNL     1      -8.533  10.597  66.967  1.00  0.00    -0.129 C  
HETATM    5  C   UNL     1     -12.188  13.804  71.149  1.00  0.00    -0.362 C  
HETATM    6  C   UNL     1      -7.358  10.063  67.395  1.00  0.00    -0.090 C  
HETATM    7  C   UNL     1      -6.276   9.198  66.817  1.00  0.00    -0.065 C  
HETATM    8  O   UNL     1     -13.496  15.750  70.619  1.00  0.00    -0.453 OA 
HETATM    9  C   UNL     1     -12.473  15.097  70.458  1.00  0.00    -0.379 C  
HETATM   10  C   UNL     1      -8.696   9.429  68.612  1.00  0.00    -0.131 C  
HETATM   11  C   UNL     1     -11.381  15.589  69.604  1.00  0.00    -0.319 C  
HETATM   12  C   UNL     1     -10.037  10.610  68.726  1.00  0.00    -0.203 C  
HETATM   13  C   UNL     1      -9.760  12.291  68.676  1.00  0.00    -0.074 C  
HETATM   14  C   UNL     1     -12.003  13.011  67.625  1.00  0.00    -0.353 C  
HETATM   15  C   UNL     1      -8.675  12.904  67.527  1.00  0.00    -0.190 C  
HETATM   16  C   UNL     1     -11.058  13.189  68.829  1.00  0.00    -0.309 C  
HETATM   17  C   UNL     1     -11.824  12.727  70.134  1.00  0.00    -0.326 C  
HETATM   18  C   UNL     1      -8.349  14.353  67.906  1.00  0.00    -0.162 C  
HETATM   19  C   UNL     1      -9.607  15.216  67.951  1.00  0.00    -0.203 C  
HETATM   20  C   UNL     1     -10.691  14.694  68.871  1.00  0.00    -0.251 C  
ENDROOT
BRANCH   4  21
HETATM   21  C   UNL     1      -8.915   9.276  66.015  1.00  0.00    -0.176 C  
HETATM   22  O   UNL     1      -8.462   8.999  64.901  1.00  0.00    -0.160 OA 
BRANCH  21  23
HETATM   23  C   UNL     1      -9.953   8.305  66.569  1.00  0.00    -0.250 C  
BRANCH  23  24
HETATM   24  O   UNL     1      -9.634   6.991  66.133  1.00  0.00    -0.083 OA 
BRANCH  24  25
HETATM   25  C   UNL     1     -10.439   6.007  66.603  1.00  0.00    -0.228 C  
HETATM   26  C   UNL     1     -11.025   6.404  67.920  1.00  0.00    -0.416 C  
HETATM   27  O   UNL     1     -10.661   4.944  66.043  1.00  0.00    -0.316 OA 
ENDBRANCH  24  25
ENDBRANCH  23  24
ENDBRANCH  21  23
ENDBRANCH   4  21
TORSDOF 4
ENDMDL
MODEL       85
REMARK 921   NORMALIZED FREE ENERGY PREDICTED BY IDOCK:   -4.20 KCAL/MOL
REMARK 922        TOTAL FREE ENERGY PREDICTED BY IDOCK:   -4.74 KCAL/MOL
REMARK 923 INTER-LIGAND FREE ENERGY PREDICTED BY IDOCK:   -5.56 KCAL/MOL
REMARK 924 INTRA-LIGAND FREE ENERGY PREDICTED BY IDOCK:    0.82 KCAL/MOL
REMARK 927      BINDING AFFINITY PREDICTED BY RF-SCORE:    0.00 PKD
ROOT
HETATM    1  C   UNL     1      -6.434  18.985  68.959  1.00  0.00    -0.305 C  
HETATM    2  C   UNL     1      -5.190  19.134  68.279  1.00  0.00    -0.180 C  
HETATM    3  C   UNL     1      -6.182  18.458  67.385  1.00  0.00    -0.187 C  
HETATM    4  C   UNL     1      -8.103  18.443  68.094  1.00  0.00    -0.305 C  
HETATM    5  C   UNL     1      -5.804  12.487  67.485  1.00  0.00    -0.145 C  
HETATM    6  C   UNL     1      -7.480  19.458  67.439  1.00  0.00    -0.259 C  
HETATM    7  C   UNL     1      -7.709  20.927  67.229  1.00  0.00    -0.276 C  
HETATM    8  O   UNL     1      -5.777  10.840  69.236  1.00  0.00    -0.041 OA 
HETATM    9  C   UNL     1      -5.666  12.010  68.893  1.00  0.00    -0.051 C  
HETATM   10  C   UNL     1      -7.838  18.122  66.113  1.00  0.00    -0.239 C  
HETATM   11  C   UNL     1      -5.303  13.056  69.862  1.00  0.00    -0.096 C  
HETATM   12  C   UNL     1      -7.862  16.497  66.864  1.00  0.00    -0.263 C  
HETATM   13  C   UNL     1      -6.801  16.077  68.131  1.00  0.00    -0.130 C  
HETATM   14  C   UNL     1      -8.300  14.349  69.323  1.00  0.00     0.151 C  
HETATM   15  C   UNL     1      -6.554  17.186  69.389  1.00  0.00    -0.220 C  
HETATM   16  C   UNL     1      -6.935  14.585  68.651  1.00  0.00    -0.103 C  
HETATM   17  C   UNL     1      -6.822  13.618  67.403  1.00  0.00    -0.051 C  
HETATM   18  C   UNL     1      -5.332  16.729  70.193  1.00  0.00    -0.204 C  
HETATM   19  C   UNL     1      -5.529  15.327  70.762  1.00  0.00    -0.111 C  
HETATM   20  C   UNL     1      -5.864  14.273  69.727  1.00  0.00    -0.112 C  
ENDROOT
BRANCH   4  21
HETATM   21  C   UNL     1      -9.637  19.029  67.774  1.00  0.00    -0.311 C  
HETATM   22  O   UNL     1      -9.970  20.206  67.610  1.00  0.00    -0.391 OA 
BRANCH  21  23
HETATM   23  C   UNL     1     -10.763  18.004  67.691  1.00  0.00    -0.344 C  
BRANCH  23  24
HETATM   24  O   UNL     1     -10.749  17.208  68.868  1.00  0.00    -0.323 OA 
BRANCH  24  25
HETATM   25  C   UNL     1     -11.485  16.071  68.814  1.00  0.00    -0.375 C  
HETATM   26  C   UNL     1     -12.153  15.825  70.129  1.00  0.00    -0.355 C  
HETATM   27  O   UNL     1     -11.595  15.343  67.839  1.00  0.00    -0.332 OA 
ENDBRANCH  24  25
ENDBRANCH  23  24
ENDBRANCH  21  23
ENDBRANCH   4  21
TORSDOF 4
ENDMDL
MODEL       86
REMARK 921   NORMALIZED FREE ENERGY PREDICTED BY IDOCK:   -4.18 KCAL/MOL
REMARK 922        TOTAL FREE ENERGY PREDICTED BY IDOCK:   -4.71 KCAL/MOL
REMARK 923 INTER-LIGAND FREE ENERGY PREDICTED BY IDOCK:   -5.59 KCAL/MOL
REMARK 924 INTRA-LIGAND FREE ENERGY PREDICTED BY IDOCK:    0.88 KCAL/MOL
REMARK 927      BINDING AFFINITY PREDICTED BY RF-SCORE:    0.00 PKD
ROOT
HETATM    1  C   UNL     1     -11.674  11.507  70.544  1.00  0.00    -0.248 C  
HETATM    2  C   UNL     1     -13.035  11.420  70.130  1.00  0.00     0.199 C  
HETATM    3  C   UNL     1     -12.133  11.015  69.006  1.00  0.00    -0.285 C  
HETATM    4  C   UNL     1     -10.165  10.788  69.526  1.00  0.00    -0.146 C  
HETATM    5  C   UNL     1     -10.903  15.470  65.206  1.00  0.00    -0.425 C  
HETATM    6  C   UNL     1     -11.165   9.881  69.691  1.00  0.00    -0.251 C  
HETATM    7  C   UNL     1     -11.382   8.625  70.484  1.00  0.00    -0.241 C  
HETATM    8  O   UNL     1     -10.096  17.719  65.468  1.00  0.00    -0.548 OA 
HETATM    9  C   UNL     1     -10.585  16.714  65.968  1.00  0.00    -0.233 C  
HETATM   10  C   UNL     1     -10.784   9.905  67.813  1.00  0.00    -0.332 C  
HETATM   11  C   UNL     1     -10.977  16.682  67.386  1.00  0.00    -0.103 C  
HETATM   12  C   UNL     1     -10.164  11.514  67.329  1.00  0.00    -0.229 C  
HETATM   13  C   UNL     1     -10.759  12.953  68.024  1.00  0.00    -0.244 C  
HETATM   14  C   UNL     1      -8.628  14.389  67.801  1.00  0.00    -0.171 C  
HETATM   15  C   UNL     1     -10.992  13.010  69.702  1.00  0.00     0.140 C  
HETATM   16  C   UNL     1     -10.124  14.287  67.449  1.00  0.00    -0.247 C  
HETATM   17  C   UNL     1     -10.264  14.259  65.873  1.00  0.00    -0.338 C  
HETATM   18  C   UNL     1     -11.834  14.251  70.023  1.00  0.00    -0.378 C  
HETATM   19  C   UNL     1     -11.152  15.529  69.544  1.00  0.00    -0.286 C  
HETATM   20  C   UNL     1     -10.800  15.536  68.071  1.00  0.00    -0.300 C  
ENDROOT
BRANCH   4  21
HETATM   21  C   UNL     1      -8.954   9.641  69.656  1.00  0.00    -0.203 C  
HETATM   22  O   UNL     1      -8.360   9.072  68.737  1.00  0.00    -0.119 OA 
BRANCH  21  23
HETATM   23  C   UNL     1      -8.542   9.232  71.067  1.00  0.00    -0.101 C  
BRANCH  23  24
HETATM   24  O   UNL     1      -7.869   7.983  71.006  1.00  0.00    -0.083 OA 
BRANCH  24  25
HETATM   25  C   UNL     1      -8.644   6.890  71.213  1.00  0.00    -0.123 C  
HETATM   26  C   UNL     1      -9.150   6.873  72.619  1.00  0.00    -0.150 C  
HETATM   27  O   UNL     1      -8.899   6.034  70.378  1.00  0.00    -0.144 OA 
ENDBRANCH  24  25
ENDBRANCH  23  24
ENDBRANCH  21  23
ENDBRANCH   4  21
TORSDOF 4
ENDMDL
MODEL       87
REMARK 921   NORMALIZED FREE ENERGY PREDICTED BY IDOCK:   -4.16 KCAL/MOL
REMARK 922        TOTAL FREE ENERGY PREDICTED BY IDOCK:   -4.70 KCAL/MOL
REMARK 923 INTER-LIGAND FREE ENERGY PREDICTED BY IDOCK:   -4.94 KCAL/MOL
REMARK 924 INTRA-LIGAND FREE ENERGY PREDICTED BY IDOCK:    0.25 KCAL/MOL
REMARK 927      BINDING AFFINITY PREDICTED BY RF-SCORE:    0.00 PKD
ROOT
HETATM    1  C   UNL     1     -10.521   7.082  68.791  1.00  0.00    -0.222 C  
HETATM    2  C   UNL     1     -10.926   6.070  67.871  1.00  0.00    -0.334 C  
HETATM    3  C   UNL     1      -9.477   5.903  68.210  1.00  0.00    -0.123 C  
HETATM    4  C   UNL     1      -8.816   7.081  69.749  1.00  0.00    -0.142 C  
HETATM    5  C   UNL     1      -5.789   8.493  64.274  1.00  0.00    -0.065 C  
HETATM    6  C   UNL     1      -9.473   5.895  69.850  1.00  0.00    -0.180 C  
HETATM    7  C   UNL     1     -10.210   5.141  70.919  1.00  0.00    -0.299 C  
HETATM    8  O   UNL     1      -5.640  10.693  63.316  1.00  0.00    -0.156 OA 
HETATM    9  C   UNL     1      -6.291   9.856  63.928  1.00  0.00    -0.126 C  
HETATM   10  C   UNL     1      -7.699   5.462  69.268  1.00  0.00    -0.085 C  
HETATM   11  C   UNL     1      -7.688  10.111  64.315  1.00  0.00    -0.131 C  
HETATM   12  C   UNL     1      -7.010   6.819  68.325  1.00  0.00    -0.080 C  
HETATM   13  C   UNL     1      -7.968   7.763  67.277  1.00  0.00    -0.118 C  
HETATM   14  C   UNL     1      -6.656   9.976  67.456  1.00  0.00    -0.068 C  
HETATM   15  C   UNL     1      -9.497   8.270  67.806  1.00  0.00    -0.171 C  
HETATM   16  C   UNL     1      -7.186   8.898  66.493  1.00  0.00    -0.085 C  
HETATM   17  C   UNL     1      -5.949   8.230  65.766  1.00  0.00    -0.041 C  
HETATM   18  C   UNL     1     -10.272   8.791  66.590  1.00  0.00    -0.340 C  
HETATM   19  C   UNL     1      -9.542   9.947  65.913  1.00  0.00    -0.300 C  
HETATM   20  C   UNL     1      -8.120   9.630  65.496  1.00  0.00    -0.122 C  
ENDROOT
BRANCH   4  21
HETATM   21  C   UNL     1      -8.215   7.007  71.309  1.00  0.00    -0.113 C  
HETATM   22  O   UNL     1      -7.617   6.066  71.837  1.00  0.00    -0.094 OA 
BRANCH  21  23
HETATM   23  C   UNL     1      -8.443   8.229  72.193  1.00  0.00    -0.179 C  
BRANCH  23  24
HETATM   24  O   UNL     1      -9.768   8.702  71.993  1.00  0.00    -0.276 OA 
BRANCH  24  25
HETATM   25  C   UNL     1     -10.724   8.095  72.737  1.00  0.00    -0.321 C  
HETATM   26  C   UNL     1     -12.074   8.340  72.144  1.00  0.00    -0.425 C  
HETATM   27  O   UNL     1     -10.525   7.440  73.749  1.00  0.00    -0.346 OA 
ENDBRANCH  24  25
ENDBRANCH  23  24
ENDBRANCH  21  23
ENDBRANCH   4  21
TORSDOF 4
ENDMDL
MODEL       88
REMARK 921   NORMALIZED FREE ENERGY PREDICTED BY IDOCK:   -4.14 KCAL/MOL
REMARK 922        TOTAL FREE ENERGY PREDICTED BY IDOCK:   -4.67 KCAL/MOL
REMARK 923 INTER-LIGAND FREE ENERGY PREDICTED BY IDOCK:   -5.33 KCAL/MOL
REMARK 924 INTRA-LIGAND FREE ENERGY PREDICTED BY IDOCK:    0.66 KCAL/MOL
REMARK 927      BINDING AFFINITY PREDICTED BY RF-SCORE:    0.00 PKD
ROOT
HETATM    1  C   UNL     1     -10.269   5.184  68.331  1.00  0.00    -0.175 C  
HETATM    2  C   UNL     1      -9.328   4.852  67.313  1.00  0.00    -0.142 C  
HETATM    3  C   UNL     1      -8.608   5.274  68.557  1.00  0.00    -0.094 C  
HETATM    4  C   UNL     1      -9.803   5.489  70.206  1.00  0.00    -0.260 C  
HETATM    5  C   UNL     1      -7.065  11.056  68.576  1.00  0.00    -0.078 C  
HETATM    6  C   UNL     1      -9.281   4.332  69.719  1.00  0.00    -0.207 C  
HETATM    7  C   UNL     1      -9.527   2.861  69.895  1.00  0.00    -0.173 C  
HETATM    8  O   UNL     1      -8.255  13.107  68.184  1.00  0.00    -0.145 OA 
HETATM    9  C   UNL     1      -8.207  11.887  68.091  1.00  0.00    -0.158 C  
HETATM   10  C   UNL     1      -7.814   5.272  70.517  1.00  0.00    -0.084 C  
HETATM   11  C   UNL     1      -9.268  11.132  67.405  1.00  0.00    -0.157 C  
HETATM   12  C   UNL     1      -8.099   7.038  70.445  1.00  0.00    -0.119 C  
HETATM   13  C   UNL     1      -8.863   7.771  69.109  1.00  0.00    -0.138 C  
HETATM   14  C   UNL     1      -9.946   9.763  70.340  1.00  0.00    -0.294 C  
HETATM   15  C   UNL     1     -10.240   7.033  68.452  1.00  0.00    -0.196 C  
HETATM   16  C   UNL     1      -9.000   9.349  69.198  1.00  0.00    -0.147 C  
HETATM   17  C   UNL     1      -7.567   9.950  69.497  1.00  0.00    -0.125 C  
HETATM   18  C   UNL     1     -10.522   7.679  67.091  1.00  0.00    -0.412 C  
HETATM   19  C   UNL     1     -10.745   9.183  67.220  1.00  0.00    -0.224 C  
HETATM   20  C   UNL     1      -9.613   9.927  67.897  1.00  0.00    -0.157 C  
ENDROOT
BRANCH   4  21
HETATM   21  C   UNL     1     -10.090   4.849  71.725  1.00  0.00    -0.202 C  
HETATM   22  O   UNL     1      -9.456   3.955  72.293  1.00  0.00    -0.117 OA 
BRANCH  21  23
HETATM   23  C   UNL     1     -11.278   5.414  72.497  1.00  0.00    -0.247 C  
BRANCH  23  24
HETATM   24  O   UNL     1     -12.068   6.199  71.616  1.00  0.00    -0.240 OA 
BRANCH  24  25
HETATM   25  C   UNL     1     -12.403   7.431  72.071  1.00  0.00    -0.266 C  
HETATM   26  C   UNL     1     -11.241   8.056  72.775  1.00  0.00    -0.448 C  
HETATM   27  O   UNL     1     -13.493   7.966  71.933  1.00  0.00    -0.328 OA 
ENDBRANCH  24  25
ENDBRANCH  23  24
ENDBRANCH  21  23
ENDBRANCH   4  21
TORSDOF 4
ENDMDL
MODEL       89
REMARK 921   NORMALIZED FREE ENERGY PREDICTED BY IDOCK:   -4.13 KCAL/MOL
REMARK 922        TOTAL FREE ENERGY PREDICTED BY IDOCK:   -4.65 KCAL/MOL
REMARK 923 INTER-LIGAND FREE ENERGY PREDICTED BY IDOCK:   -5.55 KCAL/MOL
REMARK 924 INTRA-LIGAND FREE ENERGY PREDICTED BY IDOCK:    0.90 KCAL/MOL
REMARK 927      BINDING AFFINITY PREDICTED BY RF-SCORE:    0.00 PKD
ROOT
HETATM    1  C   UNL     1     -11.706  10.095  69.404  1.00  0.00    -0.096 C  
HETATM    2  C   UNL     1     -11.691  11.034  70.476  1.00  0.00    -0.416 C  
HETATM    3  C   UNL     1     -10.296  10.583  70.173  1.00  0.00    -0.001 C  
HETATM    4  C   UNL     1     -10.108   9.472  68.463  1.00  0.00    -0.198 C  
HETATM    5  C   UNL     1      -8.438   6.074  73.641  1.00  0.00    -0.118 C  
HETATM    6  C   UNL     1     -10.165  10.827  68.556  1.00  0.00    -0.192 C  
HETATM    7  C   UNL     1     -10.411  11.978  67.624  1.00  0.00    -0.213 C  
HETATM    8  O   UNL     1      -9.347   3.928  74.225  1.00  0.00    -0.098 OA 
HETATM    9  C   UNL     1      -9.514   5.047  73.756  1.00  0.00    -0.129 C  
HETATM   10  C   UNL     1      -8.432  10.331  69.206  1.00  0.00    -0.172 C  
HETATM   11  C   UNL     1     -10.846   5.502  73.329  1.00  0.00    -0.337 C  
HETATM   12  C   UNL     1      -8.486   8.688  69.916  1.00  0.00    -0.129 C  
HETATM   13  C   UNL     1      -9.838   8.131  70.792  1.00  0.00    -0.201 C  
HETATM   14  C   UNL     1      -9.627   5.617  70.256  1.00  0.00    -0.216 C  
HETATM   15  C   UNL     1     -11.388   8.444  70.183  1.00  0.00    -0.065 C  
HETATM   16  C   UNL     1      -9.698   6.665  71.381  1.00  0.00    -0.181 C  
HETATM   17  C   UNL     1      -8.352   6.596  72.211  1.00  0.00    -0.107 C  
HETATM   18  C   UNL     1     -12.403   8.155  71.295  1.00  0.00    -0.285 C  
HETATM   19  C   UNL     1     -12.311   6.709  71.775  1.00  0.00    -0.385 C  
HETATM   20  C   UNL     1     -10.932   6.292  72.242  1.00  0.00    -0.297 C  
ENDROOT
BRANCH   4  21
HETATM   21  C   UNL     1      -9.420   9.495  66.938  1.00  0.00    -0.158 C  
HETATM   22  O   UNL     1      -8.245   9.261  66.643  1.00  0.00    -0.113 OA 
BRANCH  21  23
HETATM   23  C   UNL     1     -10.336   9.864  65.776  1.00  0.00    -0.084 C  
BRANCH  23  24
HETATM   24  O   UNL     1      -9.553  10.004  64.599  1.00  0.00    -0.289 OA 
BRANCH  24  25
HETATM   25  C   UNL     1      -9.960  10.967  63.736  1.00  0.00    -0.350 C  
HETATM   26  C   UNL     1      -8.918  11.199  62.690  1.00  0.00    -0.347 C  
HETATM   27  O   UNL     1     -11.023  11.568  63.795  1.00  0.00    -0.375 OA 
ENDBRANCH  24  25
ENDBRANCH  23  24
ENDBRANCH  21  23
ENDBRANCH   4  21
TORSDOF 4
ENDMDL
MODEL       90
REMARK 921   NORMALIZED FREE ENERGY PREDICTED BY IDOCK:   -4.12 KCAL/MOL
REMARK 922        TOTAL FREE ENERGY PREDICTED BY IDOCK:   -4.65 KCAL/MOL
REMARK 923 INTER-LIGAND FREE ENERGY PREDICTED BY IDOCK:   -4.85 KCAL/MOL
REMARK 924 INTRA-LIGAND FREE ENERGY PREDICTED BY IDOCK:    0.20 KCAL/MOL
REMARK 927      BINDING AFFINITY PREDICTED BY RF-SCORE:    0.00 PKD
ROOT
HETATM    1  C   UNL     1      -7.227   9.647  67.719  1.00  0.00    -0.085 C  
HETATM    2  C   UNL     1      -6.673   8.425  67.238  1.00  0.00    -0.063 C  
HETATM    3  C   UNL     1      -8.165   8.391  67.120  1.00  0.00    -0.108 C  
HETATM    4  C   UNL     1      -9.094  10.180  67.479  1.00  0.00    -0.143 C  
HETATM    5  C   UNL     1     -10.866   5.742  71.757  1.00  0.00    -0.311 C  
HETATM    6  C   UNL     1      -8.511   9.779  66.318  1.00  0.00    -0.129 C  
HETATM    7  C   UNL     1      -8.038  10.429  65.050  1.00  0.00    -0.136 C  
HETATM    8  O   UNL     1     -10.741   6.008  74.142  1.00  0.00    -0.197 OA 
HETATM    9  C   UNL     1     -10.259   6.215  73.036  1.00  0.00    -0.195 C  
HETATM   10  C   UNL     1     -10.138   8.775  66.461  1.00  0.00    -0.349 C  
HETATM   11  C   UNL     1      -8.966   6.902  72.884  1.00  0.00    -0.144 C  
HETATM   12  C   UNL     1     -10.571   8.542  68.183  1.00  0.00    -0.181 C  
HETATM   13  C   UNL     1      -9.385   8.284  69.380  1.00  0.00    -0.155 C  
HETATM   14  C   UNL     1     -10.634   9.331  71.379  1.00  0.00    -0.417 C  
HETATM   15  C   UNL     1      -7.985   9.239  69.360  1.00  0.00    -0.099 C  
HETATM   16  C   UNL     1      -9.950   8.059  70.845  1.00  0.00    -0.207 C  
HETATM   17  C   UNL     1     -11.029   6.904  70.784  1.00  0.00    -0.297 C  
HETATM   18  C   UNL     1      -6.957   8.596  70.297  1.00  0.00    -0.041 C  
HETATM   19  C   UNL     1      -7.492   8.481  71.721  1.00  0.00    -0.127 C  
HETATM   20  C   UNL     1      -8.805   7.734  71.838  1.00  0.00    -0.155 C  
ENDROOT
BRANCH   4  21
HETATM   21  C   UNL     1     -10.009  11.368  66.737  1.00  0.00    -0.208 C  
HETATM   22  O   UNL     1     -10.788  11.232  65.791  1.00  0.00    -0.261 OA 
BRANCH  21  23
HETATM   23  C   UNL     1      -9.856  12.789  67.272  1.00  0.00    -0.207 C  
BRANCH  23  24
HETATM   24  O   UNL     1      -8.742  12.832  68.152  1.00  0.00    -0.183 OA 
BRANCH  24  25
HETATM   25  C   UNL     1      -7.850  13.826  67.919  1.00  0.00    -0.159 C  
HETATM   26  C   UNL     1      -6.503  13.252  67.616  1.00  0.00    -0.167 C  
HETATM   27  O   UNL     1      -8.099  15.022  67.948  1.00  0.00    -0.124 OA 
ENDBRANCH  24  25
ENDBRANCH  23  24
ENDBRANCH  21  23
ENDBRANCH   4  21
TORSDOF 4
ENDMDL
MODEL       91
REMARK 921   NORMALIZED FREE ENERGY PREDICTED BY IDOCK:   -4.12 KCAL/MOL
REMARK 922        TOTAL FREE ENERGY PREDICTED BY IDOCK:   -4.64 KCAL/MOL
REMARK 923 INTER-LIGAND FREE ENERGY PREDICTED BY IDOCK:   -4.74 KCAL/MOL
REMARK 924 INTRA-LIGAND FREE ENERGY PREDICTED BY IDOCK:    0.10 KCAL/MOL
REMARK 927      BINDING AFFINITY PREDICTED BY RF-SCORE:    0.00 PKD
ROOT
HETATM    1  C   UNL     1      -9.749   8.714  71.280  1.00  0.00    -0.305 C  
HETATM    2  C   UNL     1     -10.872   9.574  71.100  1.00  0.00    -0.425 C  
HETATM    3  C   UNL     1     -10.990   8.384  70.199  1.00  0.00    -0.216 C  
HETATM    4  C   UNL     1      -9.621   6.902  70.553  1.00  0.00    -0.171 C  
HETATM    5  C   UNL     1      -8.917   9.361  64.671  1.00  0.00    -0.233 C  
HETATM    6  C   UNL     1     -10.786   7.117  71.220  1.00  0.00    -0.254 C  
HETATM    7  C   UNL     1     -11.399   6.680  72.519  1.00  0.00    -0.290 C  
HETATM    8  O   UNL     1      -6.858  10.230  63.785  1.00  0.00    -0.126 OA 
HETATM    9  C   UNL     1      -7.611  10.082  64.739  1.00  0.00    -0.143 C  
HETATM   10  C   UNL     1     -11.285   6.406  69.512  1.00  0.00    -0.477 C  
HETATM   11  C   UNL     1      -7.313  10.689  66.046  1.00  0.00    -0.132 C  
HETATM   12  C   UNL     1     -10.059   6.837  68.281  1.00  0.00    -0.173 C  
HETATM   13  C   UNL     1      -9.261   8.344  68.297  1.00  0.00    -0.136 C  
HETATM   14  C   UNL     1      -7.039   7.606  67.215  1.00  0.00    -0.085 C  
HETATM   15  C   UNL     1      -8.694   8.949  69.776  1.00  0.00    -0.139 C  
HETATM   16  C   UNL     1      -8.234   8.572  67.111  1.00  0.00    -0.108 C  
HETATM   17  C   UNL     1      -8.986   8.285  65.748  1.00  0.00    -0.185 C  
HETATM   18  C   UNL     1      -8.337  10.427  69.579  1.00  0.00    -0.126 C  
HETATM   19  C   UNL     1      -7.276  10.607  68.497  1.00  0.00    -0.086 C  
HETATM   20  C   UNL     1      -7.639  10.002  67.157  1.00  0.00    -0.092 C  
ENDROOT
BRANCH   4  21
HETATM   21  C   UNL     1      -9.492   5.315  71.066  1.00  0.00    -0.161 C  
HETATM   22  O   UNL     1     -10.163   4.350  70.691  1.00  0.00    -0.178 OA 
BRANCH  21  23
HETATM   23  C   UNL     1      -8.440   5.019  72.130  1.00  0.00    -0.125 C  
BRANCH  23  24
HETATM   24  O   UNL     1      -7.447   6.034  72.091  1.00  0.00    -0.092 OA 
BRANCH  24  25
HETATM   25  C   UNL     1      -6.957   6.421  73.295  1.00  0.00    -0.078 C  
HETATM   26  C   UNL     1      -8.056   6.971  74.147  1.00  0.00    -0.148 C  
HETATM   27  O   UNL     1      -5.790   6.337  73.645  1.00  0.00    -0.055 OA 
ENDBRANCH  24  25
ENDBRANCH  23  24
ENDBRANCH  21  23
ENDBRANCH   4  21
TORSDOF 4
ENDMDL
MODEL       92
REMARK 921   NORMALIZED FREE ENERGY PREDICTED BY IDOCK:   -4.12 KCAL/MOL
REMARK 922        TOTAL FREE ENERGY PREDICTED BY IDOCK:   -4.64 KCAL/MOL
REMARK 923 INTER-LIGAND FREE ENERGY PREDICTED BY IDOCK:   -4.90 KCAL/MOL
REMARK 924 INTRA-LIGAND FREE ENERGY PREDICTED BY IDOCK:    0.26 KCAL/MOL
REMARK 927      BINDING AFFINITY PREDICTED BY RF-SCORE:    0.00 PKD
ROOT
HETATM    1  C   UNL     1      -8.852   7.204  69.978  1.00  0.00    -0.142 C  
HETATM    2  C   UNL     1      -9.897   7.503  70.901  1.00  0.00    -0.177 C  
HETATM    3  C   UNL     1     -10.470   7.271  69.537  1.00  0.00    -0.238 C  
HETATM    4  C   UNL     1      -9.142   6.530  68.165  1.00  0.00    -0.114 C  
HETATM    5  C   UNL     1     -11.316  12.305  66.415  1.00  0.00    -0.405 C  
HETATM    6  C   UNL     1      -9.831   5.825  69.101  1.00  0.00    -0.211 C  
HETATM    7  C   UNL     1      -9.747   4.461  69.723  1.00  0.00    -0.291 C  
HETATM    8  O   UNL     1      -9.924  14.185  65.861  1.00  0.00    -0.298 OA 
HETATM    9  C   UNL     1     -10.122  13.192  66.550  1.00  0.00    -0.280 C  
HETATM   10  C   UNL     1     -11.115   6.312  67.765  1.00  0.00    -0.361 C  
HETATM   11  C   UNL     1      -9.210  12.832  67.646  1.00  0.00    -0.192 C  
HETATM   12  C   UNL     1     -10.629   7.842  66.970  1.00  0.00    -0.396 C  
HETATM   13  C   UNL     1      -9.884   9.107  67.836  1.00  0.00    -0.204 C  
HETATM   14  C   UNL     1      -8.487  10.108  65.912  1.00  0.00    -0.146 C  
HETATM   15  C   UNL     1      -8.654   8.725  68.939  1.00  0.00    -0.136 C  
HETATM   16  C   UNL     1      -9.556  10.402  66.981  1.00  0.00    -0.197 C  
HETATM   17  C   UNL     1     -10.883  10.854  66.246  1.00  0.00    -0.191 C  
HETATM   18  C   UNL     1      -8.398   9.959  69.811  1.00  0.00    -0.196 C  
HETATM   19  C   UNL     1      -7.990  11.165  68.969  1.00  0.00    -0.087 C  
HETATM   20  C   UNL     1      -8.975  11.526  67.876  1.00  0.00    -0.159 C  
ENDROOT
BRANCH   4  21
HETATM   21  C   UNL     1      -8.823   5.184  67.225  1.00  0.00    -0.105 C  
HETATM   22  O   UNL     1      -9.640   4.384  66.760  1.00  0.00    -0.169 OA 
BRANCH  21  23
HETATM   23  C   UNL     1      -7.359   4.891  66.916  1.00  0.00    -0.085 C  
BRANCH  23  24
HETATM   24  O   UNL     1      -6.558   5.360  67.992  1.00  0.00    -0.046 OA 
BRANCH  24  25
HETATM   25  C   UNL     1      -6.250   4.438  68.937  1.00  0.00    -0.031 C  
HETATM   26  C   UNL     1      -5.977   3.114  68.298  1.00  0.00    -0.024 C  
HETATM   27  O   UNL     1      -6.198   4.647  70.140  1.00  0.00    -0.023 OA 
ENDBRANCH  24  25
ENDBRANCH  23  24
ENDBRANCH  21  23
ENDBRANCH   4  21
TORSDOF 4
ENDMDL
MODEL       93
REMARK 921   NORMALIZED FREE ENERGY PREDICTED BY IDOCK:   -4.11 KCAL/MOL
REMARK 922        TOTAL FREE ENERGY PREDICTED BY IDOCK:   -4.64 KCAL/MOL
REMARK 923 INTER-LIGAND FREE ENERGY PREDICTED BY IDOCK:   -5.08 KCAL/MOL
REMARK 924 INTRA-LIGAND FREE ENERGY PREDICTED BY IDOCK:    0.44 KCAL/MOL
REMARK 927      BINDING AFFINITY PREDICTED BY RF-SCORE:    0.00 PKD
ROOT
HETATM    1  C   UNL     1      -8.898   7.310  69.902  1.00  0.00    -0.142 C  
HETATM    2  C   UNL     1      -9.976   7.599  70.790  1.00  0.00    -0.181 C  
HETATM    3  C   UNL     1     -10.504   7.332  69.414  1.00  0.00    -0.223 C  
HETATM    4  C   UNL     1      -9.121   6.601  68.093  1.00  0.00    -0.119 C  
HETATM    5  C   UNL     1     -11.377  12.295  66.187  1.00  0.00    -0.402 C  
HETATM    6  C   UNL     1      -9.819   5.895  69.021  1.00  0.00    -0.193 C  
HETATM    7  C   UNL     1      -9.721   4.543  69.667  1.00  0.00    -0.288 C  
HETATM    8  O   UNL     1     -10.014  14.198  65.641  1.00  0.00    -0.322 OA 
HETATM    9  C   UNL     1     -10.209  13.212  66.341  1.00  0.00    -0.286 C  
HETATM   10  C   UNL     1     -11.075   6.330  67.641  1.00  0.00    -0.368 C  
HETATM   11  C   UNL     1      -9.320  12.891  67.469  1.00  0.00    -0.190 C  
HETATM   12  C   UNL     1     -10.603   7.858  66.835  1.00  0.00    -0.333 C  
HETATM   13  C   UNL     1      -9.912   9.154  67.700  1.00  0.00    -0.245 C  
HETATM   14  C   UNL     1      -8.485  10.158  65.801  1.00  0.00    -0.153 C  
HETATM   15  C   UNL     1      -8.706   8.819  68.844  1.00  0.00    -0.134 C  
HETATM   16  C   UNL     1      -9.590  10.443  66.834  1.00  0.00    -0.207 C  
HETATM   17  C   UNL     1     -10.905  10.851  66.055  1.00  0.00    -0.155 C  
HETATM   18  C   UNL     1      -8.503  10.073  69.703  1.00  0.00    -0.193 C  
HETATM   19  C   UNL     1      -8.101  11.274  68.853  1.00  0.00    -0.090 C  
HETATM   20  C   UNL     1      -9.061  11.594  67.727  1.00  0.00    -0.175 C  
ENDROOT
BRANCH   4  21
HETATM   21  C   UNL     1      -8.744   5.248  67.184  1.00  0.00    -0.107 C  
HETATM   22  O   UNL     1      -9.460   4.267  66.969  1.00  0.00    -0.157 OA 
BRANCH  21  23
HETATM   23  C   UNL     1      -7.352   5.203  66.562  1.00  0.00    -0.086 C  
BRANCH  23  24
HETATM   24  O   UNL     1      -7.220   6.283  65.649  1.00  0.00    -0.070 OA 
BRANCH  24  25
HETATM   25  C   UNL     1      -7.566   6.011  64.367  1.00  0.00    -0.093 C  
HETATM   26  C   UNL     1      -7.882   7.278  63.638  1.00  0.00    -0.108 C  
HETATM   27  O   UNL     1      -7.616   4.897  63.867  1.00  0.00    -0.062 OA 
ENDBRANCH  24  25
ENDBRANCH  23  24
ENDBRANCH  21  23
ENDBRANCH   4  21
TORSDOF 4
ENDMDL
MODEL       94
REMARK 921   NORMALIZED FREE ENERGY PREDICTED BY IDOCK:   -4.11 KCAL/MOL
REMARK 922        TOTAL FREE ENERGY PREDICTED BY IDOCK:   -4.63 KCAL/MOL
REMARK 923 INTER-LIGAND FREE ENERGY PREDICTED BY IDOCK:   -5.82 KCAL/MOL
REMARK 924 INTRA-LIGAND FREE ENERGY PREDICTED BY IDOCK:    1.20 KCAL/MOL
REMARK 927      BINDING AFFINITY PREDICTED BY RF-SCORE:    0.00 PKD
ROOT
HETATM    1  C   UNL     1      -9.578  16.772  65.774  1.00  0.00    -0.114 C  
HETATM    2  C   UNL     1     -10.885  17.143  66.205  1.00  0.00     0.026 C  
HETATM    3  C   UNL     1     -10.061  16.719  67.381  1.00  0.00    -0.276 C  
HETATM    4  C   UNL     1      -8.071  16.450  66.980  1.00  0.00    -0.235 C  
HETATM    5  C   UNL     1     -10.821  10.977  68.884  1.00  0.00    -0.262 C  
HETATM    6  C   UNL     1      -8.703  17.627  67.235  1.00  0.00    -0.241 C  
HETATM    7  C   UNL     1      -8.405  19.088  67.060  1.00  0.00    -0.291 C  
HETATM    8  O   UNL     1     -10.736   8.904  67.671  1.00  0.00    -0.244 OA 
HETATM    9  C   UNL     1     -10.811  10.126  67.658  1.00  0.00    -0.290 C  
HETATM   10  C   UNL     1      -8.605  16.711  68.915  1.00  0.00    -0.235 C  
HETATM   11  C   UNL     1     -10.978  10.865  66.396  1.00  0.00    -0.156 C  
HETATM   12  C   UNL     1      -8.595  14.939  68.654  1.00  0.00    -0.168 C  
HETATM   13  C   UNL     1      -9.513  14.208  67.417  1.00  0.00    -0.220 C  
HETATM   14  C   UNL     1      -7.994  12.172  66.972  1.00  0.00    -0.138 C  
HETATM   15  C   UNL     1      -9.524  14.923  65.880  1.00  0.00    -0.290 C  
HETATM   16  C   UNL     1      -9.415  12.627  67.354  1.00  0.00    -0.189 C  
HETATM   17  C   UNL     1      -9.749  12.056  68.792  1.00  0.00    -0.029 C  
HETATM   18  C   UNL     1     -10.662  14.291  65.070  1.00  0.00    -0.435 C  
HETATM   19  C   UNL     1     -10.489  12.781  64.945  1.00  0.00    -0.342 C  
HETATM   20  C   UNL     1     -10.359  12.054  66.267  1.00  0.00    -0.253 C  
ENDROOT
BRANCH   4  21
HETATM   21  C   UNL     1      -6.554  17.059  67.337  1.00  0.00    -0.151 C  
HETATM   22  O   UNL     1      -5.788  17.655  66.576  1.00  0.00    -0.158 OA 
BRANCH  21  23
HETATM   23  C   UNL     1      -6.043  16.844  68.758  1.00  0.00    -0.153 C  
BRANCH  23  24
HETATM   24  O   UNL     1      -5.277  17.974  69.149  1.00  0.00    -0.179 OA 
BRANCH  24  25
HETATM   25  C   UNL     1      -5.671  18.580  70.296  1.00  0.00    -0.201 C  
HETATM   26  C   UNL     1      -6.705  19.619  70.004  1.00  0.00    -0.185 C  
HETATM   27  O   UNL     1      -5.249  18.323  71.414  1.00  0.00    -0.415 OA 
ENDBRANCH  24  25
ENDBRANCH  23  24
ENDBRANCH  21  23
ENDBRANCH   4  21
TORSDOF 4
ENDMDL
MODEL       95
REMARK 921   NORMALIZED FREE ENERGY PREDICTED BY IDOCK:   -4.06 KCAL/MOL
REMARK 922        TOTAL FREE ENERGY PREDICTED BY IDOCK:   -4.57 KCAL/MOL
REMARK 923 INTER-LIGAND FREE ENERGY PREDICTED BY IDOCK:   -5.02 KCAL/MOL
REMARK 924 INTRA-LIGAND FREE ENERGY PREDICTED BY IDOCK:    0.44 KCAL/MOL
REMARK 927      BINDING AFFINITY PREDICTED BY RF-SCORE:    0.00 PKD
ROOT
HETATM    1  C   UNL     1      -8.562   6.736  69.496  1.00  0.00    -0.133 C  
HETATM    2  C   UNL     1      -7.416   6.466  68.692  1.00  0.00    -0.088 C  
HETATM    3  C   UNL     1      -7.203   7.720  69.481  1.00  0.00    -0.079 C  
HETATM    4  C   UNL     1      -8.621   8.083  70.913  1.00  0.00    -0.136 C  
HETATM    5  C   UNL     1      -8.574  12.702  66.463  1.00  0.00     0.051 C  
HETATM    6  C   UNL     1      -7.544   7.260  71.018  1.00  0.00    -0.084 C  
HETATM    7  C   UNL     1      -7.100   6.152  71.927  1.00  0.00    -0.086 C  
HETATM    8  O   UNL     1     -10.499  13.430  65.220  1.00  0.00    -0.300 OA 
HETATM    9  C   UNL     1      -9.870  12.519  65.744  1.00  0.00    -0.234 C  
HETATM   10  C   UNL     1      -6.849   9.045  71.092  1.00  0.00    -0.092 C  
HETATM   11  C   UNL     1     -10.319  11.122  65.634  1.00  0.00    -0.311 C  
HETATM   12  C   UNL     1      -7.911  10.160  70.178  1.00  0.00    -0.065 C  
HETATM   13  C   UNL     1      -8.687   9.683  68.737  1.00  0.00    -0.126 C  
HETATM   14  C   UNL     1     -10.769  11.195  68.911  1.00  0.00    -0.246 C  
HETATM   15  C   UNL     1      -9.423   8.157  68.675  1.00  0.00    -0.147 C  
HETATM   16  C   UNL     1      -9.559  10.809  68.040  1.00  0.00    -0.172 C  
HETATM   17  C   UNL     1      -8.649  12.091  67.857  1.00  0.00    -0.165 C  
HETATM   18  C   UNL     1      -9.736   7.839  67.209  1.00  0.00    -0.224 C  
HETATM   19  C   UNL     1     -10.655   8.889  66.592  1.00  0.00    -0.150 C  
HETATM   20  C   UNL     1     -10.138  10.309  66.692  1.00  0.00    -0.281 C  
ENDROOT
BRANCH   4  21
HETATM   21  C   UNL     1      -8.831   8.203  72.568  1.00  0.00    -0.208 C  
HETATM   22  O   UNL     1      -8.038   8.666  73.392  1.00  0.00    -0.411 OA 
BRANCH  21  23
HETATM   23  C   UNL     1     -10.140   7.664  73.137  1.00  0.00    -0.323 C  
BRANCH  23  24
HETATM   24  O   UNL     1     -10.427   6.413  72.528  1.00  0.00    -0.192 OA 
BRANCH  24  25
HETATM   25  C   UNL     1     -10.871   5.443  73.364  1.00  0.00    -0.297 C  
HETATM   26  C   UNL     1      -9.926   5.276  74.511  1.00  0.00    -0.258 C  
HETATM   27  O   UNL     1     -11.894   4.792  73.214  1.00  0.00    -0.261 OA 
ENDBRANCH  24  25
ENDBRANCH  23  24
ENDBRANCH  21  23
ENDBRANCH   4  21
TORSDOF 4
ENDMDL
MODEL       96
REMARK 921   NORMALIZED FREE ENERGY PREDICTED BY IDOCK:   -4.05 KCAL/MOL
REMARK 922        TOTAL FREE ENERGY PREDICTED BY IDOCK:   -4.56 KCAL/MOL
REMARK 923 INTER-LIGAND FREE ENERGY PREDICTED BY IDOCK:   -5.94 KCAL/MOL
REMARK 924 INTRA-LIGAND FREE ENERGY PREDICTED BY IDOCK:    1.38 KCAL/MOL
REMARK 927      BINDING AFFINITY PREDICTED BY RF-SCORE:    0.00 PKD
ROOT
HETATM    1  C   UNL     1      -9.079   7.965  66.607  1.00  0.00    -0.199 C  
HETATM    2  C   UNL     1     -10.233   7.218  66.229  1.00  0.00     0.176 C  
HETATM    3  C   UNL     1     -10.642   8.444  66.985  1.00  0.00    -0.316 C  
HETATM    4  C   UNL     1      -9.130   9.781  67.333  1.00  0.00    -0.148 C  
HETATM    5  C   UNL     1     -11.501   7.469  72.826  1.00  0.00    -0.352 C  
HETATM    6  C   UNL     1      -9.863   9.651  66.195  1.00  0.00    -0.334 C  
HETATM    7  C   UNL     1      -9.751  10.098  64.766  1.00  0.00    -0.389 C  
HETATM    8  O   UNL     1     -10.192   6.446  74.563  1.00  0.00    -0.342 OA 
HETATM    9  C   UNL     1     -10.393   6.629  73.369  1.00  0.00    -0.275 C  
HETATM   10  C   UNL     1     -11.031  10.463  67.479  1.00  0.00    -0.358 C  
HETATM   11  C   UNL     1      -9.578   5.954  72.347  1.00  0.00    -0.168 C  
HETATM   12  C   UNL     1     -10.571   9.963  69.135  1.00  0.00    -0.240 C  
HETATM   13  C   UNL     1     -10.009   8.390  69.476  1.00  0.00    -0.190 C  
HETATM   14  C   UNL     1      -8.491   8.957  71.482  1.00  0.00    -0.182 C  
HETATM   15  C   UNL     1      -8.878   7.685  68.427  1.00  0.00    -0.130 C  
HETATM   16  C   UNL     1      -9.684   8.109  71.002  1.00  0.00    -0.193 C  
HETATM   17  C   UNL     1     -10.954   8.510  71.856  1.00  0.00    -0.394 C  
HETATM   18  C   UNL     1      -8.800   6.188  68.749  1.00  0.00    -0.121 C  
HETATM   19  C   UNL     1      -8.391   5.948  70.200  1.00  0.00    -0.118 C  
HETATM   20  C   UNL     1      -9.278   6.630  71.221  1.00  0.00    -0.155 C  
ENDROOT
BRANCH   4  21
HETATM   21  C   UNL     1      -8.623  11.331  66.962  1.00  0.00    -0.148 C  
HETATM   22  O   UNL     1      -7.643  11.656  66.287  1.00  0.00     0.002 OA 
BRANCH  21  23
HETATM   23  C   UNL     1      -9.447  12.480  67.532  1.00  0.00    -0.185 C  
BRANCH  23  24
HETATM   24  O   UNL     1      -9.016  13.696  66.939  1.00  0.00    -0.237 OA 
BRANCH  24  25
HETATM   25  C   UNL     1      -9.982  14.626  66.739  1.00  0.00    -0.261 C  
HETATM   26  C   UNL     1      -9.464  15.734  65.880  1.00  0.00    -0.377 C  
HETATM   27  O   UNL     1     -11.117  14.577  67.191  1.00  0.00    -0.302 OA 
ENDBRANCH  24  25
ENDBRANCH  23  24
ENDBRANCH  21  23
ENDBRANCH   4  21
TORSDOF 4
ENDMDL
MODEL       97
REMARK 921   NORMALIZED FREE ENERGY PREDICTED BY IDOCK:   -4.04 KCAL/MOL
REMARK 922        TOTAL FREE ENERGY PREDICTED BY IDOCK:   -4.55 KCAL/MOL
REMARK 923 INTER-LIGAND FREE ENERGY PREDICTED BY IDOCK:   -4.99 KCAL/MOL
REMARK 924 INTRA-LIGAND FREE ENERGY PREDICTED BY IDOCK:    0.44 KCAL/MOL
REMARK 927      BINDING AFFINITY PREDICTED BY RF-SCORE:    0.00 PKD
ROOT
HETATM    1  C   UNL     1      -7.474   9.221  67.422  1.00  0.00    -0.087 C  
HETATM    2  C   UNL     1      -7.392   9.738  66.096  1.00  0.00    -0.101 C  
HETATM    3  C   UNL     1      -8.811   9.388  66.421  1.00  0.00    -0.167 C  
HETATM    4  C   UNL     1      -9.150   8.922  68.386  1.00  0.00    -0.137 C  
HETATM    5  C   UNL     1     -10.408   3.929  64.561  1.00  0.00    -0.231 C  
HETATM    6  C   UNL     1      -9.075  10.165  67.841  1.00  0.00    -0.133 C  
HETATM    7  C   UNL     1      -8.899  11.570  68.341  1.00  0.00    -0.163 C  
HETATM    8  O   UNL     1      -9.469   1.731  64.820  1.00  0.00    -0.127 OA 
HETATM    9  C   UNL     1      -9.333   2.947  64.891  1.00  0.00    -0.142 C  
HETATM   10  C   UNL     1     -10.751   9.440  67.261  1.00  0.00    -0.258 C  
HETATM   11  C   UNL     1      -8.038   3.549  65.244  1.00  0.00    -0.097 C  
HETATM   12  C   UNL     1     -10.651   7.655  67.161  1.00  0.00    -0.410 C  
HETATM   13  C   UNL     1      -9.235   6.862  66.640  1.00  0.00    -0.185 C  
HETATM   14  C   UNL     1      -9.510   4.678  67.984  1.00  0.00    -0.191 C  
HETATM   15  C   UNL     1      -7.738   7.397  67.230  1.00  0.00    -0.116 C  
HETATM   16  C   UNL     1      -9.336   5.281  66.577  1.00  0.00    -0.146 C  
HETATM   17  C   UNL     1     -10.609   4.904  65.715  1.00  0.00    -0.229 C  
HETATM   18  C   UNL     1      -6.636   6.768  66.370  1.00  0.00    -0.048 C  
HETATM   19  C   UNL     1      -6.699   5.244  66.406  1.00  0.00    -0.057 C  
HETATM   20  C   UNL     1      -8.038   4.664  65.999  1.00  0.00    -0.103 C  
ENDROOT
BRANCH   4  21
HETATM   21  C   UNL     1      -9.963   9.448  69.750  1.00  0.00    -0.200 C  
HETATM   22  O   UNL     1     -10.942  10.197  69.796  1.00  0.00    -0.243 OA 
BRANCH  21  23
HETATM   23  C   UNL     1      -9.430   8.969  71.096  1.00  0.00    -0.278 C  
BRANCH  23  24
HETATM   24  O   UNL     1      -9.552   7.556  71.164  1.00  0.00    -0.159 OA 
BRANCH  24  25
HETATM   25  C   UNL     1     -10.807   7.085  71.362  1.00  0.00    -0.229 C  
HETATM   26  C   UNL     1     -11.413   7.722  72.571  1.00  0.00    -0.428 C  
HETATM   27  O   UNL     1     -11.374   6.259  70.662  1.00  0.00    -0.323 OA 
ENDBRANCH  24  25
ENDBRANCH  23  24
ENDBRANCH  21  23
ENDBRANCH   4  21
TORSDOF 4
ENDMDL
MODEL       98
REMARK 921   NORMALIZED FREE ENERGY PREDICTED BY IDOCK:   -4.03 KCAL/MOL
REMARK 922        TOTAL FREE ENERGY PREDICTED BY IDOCK:   -4.53 KCAL/MOL
REMARK 923 INTER-LIGAND FREE ENERGY PREDICTED BY IDOCK:   -4.70 KCAL/MOL
REMARK 924 INTRA-LIGAND FREE ENERGY PREDICTED BY IDOCK:    0.17 KCAL/MOL
REMARK 927      BINDING AFFINITY PREDICTED BY RF-SCORE:    0.00 PKD
ROOT
HETATM    1  C   UNL     1      -9.505   8.672  66.998  1.00  0.00    -0.221 C  
HETATM    2  C   UNL     1     -10.708   9.434  67.068  1.00  0.00    -0.207 C  
HETATM    3  C   UNL     1      -9.742   9.908  68.108  1.00  0.00    -0.161 C  
HETATM    4  C   UNL     1      -7.855   9.130  67.944  1.00  0.00    -0.100 C  
HETATM    5  C   UNL     1     -10.603   7.415  73.480  1.00  0.00    -0.388 C  
HETATM    6  C   UNL     1      -8.370  10.181  67.252  1.00  0.00    -0.121 C  
HETATM    7  C   UNL     1      -8.017  10.954  66.015  1.00  0.00    -0.132 C  
HETATM    8  O   UNL     1     -10.824   5.152  74.258  1.00  0.00    -0.309 OA 
HETATM    9  C   UNL     1     -10.828   5.947  73.327  1.00  0.00    -0.261 C  
HETATM   10  C   UNL     1      -8.074  10.822  69.033  1.00  0.00    -0.140 C  
HETATM   11  C   UNL     1     -11.141   5.513  71.956  1.00  0.00    -0.249 C  
HETATM   12  C   UNL     1      -8.208   9.475  70.205  1.00  0.00    -0.209 C  
HETATM   13  C   UNL     1      -9.344   8.220  70.006  1.00  0.00    -0.162 C  
HETATM   14  C   UNL     1      -8.032   6.334  71.177  1.00  0.00    -0.116 C  
HETATM   15  C   UNL     1      -9.545   7.541  68.466  1.00  0.00    -0.150 C  
HETATM   16  C   UNL     1      -9.349   7.131  71.158  1.00  0.00    -0.157 C  
HETATM   17  C   UNL     1      -9.495   7.882  72.543  1.00  0.00    -0.262 C  
HETATM   18  C   UNL     1     -10.828   6.702  68.480  1.00  0.00    -0.319 C  
HETATM   19  C   UNL     1     -10.765   5.601  69.534  1.00  0.00    -0.380 C  
HETATM   20  C   UNL     1     -10.479   6.094  70.937  1.00  0.00    -0.282 C  
ENDROOT
BRANCH   4  21
HETATM   21  C   UNL     1      -6.268   9.560  67.632  1.00  0.00    -0.053 C  
HETATM   22  O   UNL     1      -5.681  10.579  68.004  1.00  0.00    -0.040 OA 
BRANCH  21  23
HETATM   23  C   UNL     1      -5.451   8.599  66.775  1.00  0.00    -0.040 C  
BRANCH  23  24
HETATM   24  O   UNL     1      -6.219   7.427  66.536  1.00  0.00    -0.041 OA 
BRANCH  24  25
HETATM   25  C   UNL     1      -6.637   7.253  65.258  1.00  0.00    -0.047 C  
HETATM   26  C   UNL     1      -7.640   6.146  65.190  1.00  0.00    -0.090 C  
HETATM   27  O   UNL     1      -6.257   7.899  64.293  1.00  0.00    -0.055 OA 
ENDBRANCH  24  25
ENDBRANCH  23  24
ENDBRANCH  21  23
ENDBRANCH   4  21
TORSDOF 4
ENDMDL
MODEL       99
REMARK 921   NORMALIZED FREE ENERGY PREDICTED BY IDOCK:   -4.01 KCAL/MOL
REMARK 922        TOTAL FREE ENERGY PREDICTED BY IDOCK:   -4.51 KCAL/MOL
REMARK 923 INTER-LIGAND FREE ENERGY PREDICTED BY IDOCK:   -4.80 KCAL/MOL
REMARK 924 INTRA-LIGAND FREE ENERGY PREDICTED BY IDOCK:    0.29 KCAL/MOL
REMARK 927      BINDING AFFINITY PREDICTED BY RF-SCORE:    0.00 PKD
ROOT
HETATM    1  C   UNL     1      -6.621   4.749  69.177  1.00  0.00    -0.044 C  
HETATM    2  C   UNL     1      -5.937   4.759  70.427  1.00  0.00    -0.018 C  
HETATM    3  C   UNL     1      -7.278   4.112  70.584  1.00  0.00    -0.041 C  
HETATM    4  C   UNL     1      -8.261   3.740  68.826  1.00  0.00    -0.084 C  
HETATM    5  C   UNL     1     -11.530   7.866  72.490  1.00  0.00    -0.455 C  
HETATM    6  C   UNL     1      -7.290   2.979  69.398  1.00  0.00    -0.044 C  
HETATM    7  C   UNL     1      -6.374   1.870  68.968  1.00  0.00    -0.025 C  
HETATM    8  O   UNL     1     -12.300  10.026  71.772  1.00  0.00    -0.390 OA 
HETATM    9  C   UNL     1     -11.439   9.156  71.745  1.00  0.00    -0.381 C  
HETATM   10  C   UNL     1      -8.860   2.713  70.464  1.00  0.00    -0.144 C  
HETATM   11  C   UNL     1     -10.178   9.354  71.013  1.00  0.00    -0.369 C  
HETATM   12  C   UNL     1      -9.905   4.166  70.399  1.00  0.00    -0.237 C  
HETATM   13  C   UNL     1      -9.253   5.740  70.346  1.00  0.00    -0.175 C  
HETATM   14  C   UNL     1     -11.148   6.890  69.028  1.00  0.00    -0.188 C  
HETATM   15  C   UNL     1      -7.939   6.044  69.319  1.00  0.00    -0.103 C  
HETATM   16  C   UNL     1     -10.323   6.909  70.329  1.00  0.00    -0.218 C  
HETATM   17  C   UNL     1     -11.311   6.689  71.546  1.00  0.00    -0.326 C  
HETATM   18  C   UNL     1      -7.338   7.401  69.704  1.00  0.00    -0.091 C  
HETATM   19  C   UNL     1      -8.366   8.522  69.585  1.00  0.00    -0.121 C  
HETATM   20  C   UNL     1      -9.633   8.296  70.383  1.00  0.00    -0.174 C  
ENDROOT
BRANCH   4  21
HETATM   21  C   UNL     1      -8.825   2.494  67.863  1.00  0.00    -0.130 C  
HETATM   22  O   UNL     1      -9.528   1.541  68.207  1.00  0.00    -0.173 OA 
BRANCH  21  23
HETATM   23  C   UNL     1      -8.414   2.519  66.394  1.00  0.00    -0.099 C  
BRANCH  23  24
HETATM   24  O   UNL     1      -9.534   2.901  65.609  1.00  0.00    -0.110 OA 
BRANCH  24  25
HETATM   25  C   UNL     1      -9.827   4.224  65.611  1.00  0.00    -0.218 C  
HETATM   26  C   UNL     1      -8.683   5.007  65.049  1.00  0.00    -0.151 C  
HETATM   27  O   UNL     1     -10.870   4.719  66.011  1.00  0.00    -0.287 OA 
ENDBRANCH  24  25
ENDBRANCH  23  24
ENDBRANCH  21  23
ENDBRANCH   4  21
TORSDOF 4
ENDMDL
MODEL      100
REMARK 921   NORMALIZED FREE ENERGY PREDICTED BY IDOCK:   -4.01 KCAL/MOL
REMARK 922        TOTAL FREE ENERGY PREDICTED BY IDOCK:   -4.51 KCAL/MOL
REMARK 923 INTER-LIGAND FREE ENERGY PREDICTED BY IDOCK:   -5.27 KCAL/MOL
REMARK 924 INTRA-LIGAND FREE ENERGY PREDICTED BY IDOCK:    0.76 KCAL/MOL
REMARK 927      BINDING AFFINITY PREDICTED BY RF-SCORE:    0.00 PKD
ROOT
HETATM    1  C   UNL     1     -11.683   8.268  70.964  1.00  0.00    -0.293 C  
HETATM    2  C   UNL     1     -11.411   8.581  72.329  1.00  0.00    -0.445 C  
HETATM    3  C   UNL     1     -10.282   9.048  71.463  1.00  0.00    -0.414 C  
HETATM    4  C   UNL     1     -10.650   8.953  69.451  1.00  0.00    -0.226 C  
HETATM    5  C   UNL     1      -5.771   5.133  71.105  1.00  0.00    -0.012 C  
HETATM    6  C   UNL     1     -11.036   9.935  70.308  1.00  0.00    -0.368 C  
HETATM    7  C   UNL     1     -12.022  11.068  70.301  1.00  0.00    -0.452 C  
HETATM    8  O   UNL     1      -5.625   2.791  70.585  1.00  0.00    -0.012 OA 
HETATM    9  C   UNL     1      -6.310   3.756  70.900  1.00  0.00    -0.019 C  
HETATM   10  C   UNL     1      -9.149  10.163  70.068  1.00  0.00    -0.031 C  
HETATM   11  C   UNL     1      -7.746   3.610  71.182  1.00  0.00    -0.051 C  
HETATM   12  C   UNL     1      -8.378   8.588  69.702  1.00  0.00    -0.121 C  
HETATM   13  C   UNL     1      -8.905   7.139  70.430  1.00  0.00    -0.151 C  
HETATM   14  C   UNL     1      -8.281   5.513  68.529  1.00  0.00    -0.098 C  
HETATM   15  C   UNL     1     -10.570   6.846  70.549  1.00  0.00    -0.247 C  
HETATM   16  C   UNL     1      -8.085   5.846  70.019  1.00  0.00    -0.109 C  
HETATM   17  C   UNL     1      -6.549   6.139  70.265  1.00  0.00    -0.045 C  
HETATM   18  C   UNL     1     -10.779   5.680  71.522  1.00  0.00    -0.306 C  
HETATM   19  C   UNL     1     -10.058   4.421  71.050  1.00  0.00    -0.195 C  
HETATM   20  C   UNL     1      -8.574   4.604  70.808  1.00  0.00    -0.117 C  
ENDROOT
BRANCH   4  21
HETATM   21  C   UNL     1     -10.838   9.912  68.093  1.00  0.00    -0.234 C  
HETATM   22  O   UNL     1     -11.765  10.687  67.845  1.00  0.00    -0.506 OA 
BRANCH  21  23
HETATM   23  C   UNL     1      -9.754   9.812  67.024  1.00  0.00    -0.183 C  
BRANCH  23  24
HETATM   24  O   UNL     1      -9.894   8.575  66.340  1.00  0.00    -0.253 OA 
BRANCH  24  25
HETATM   25  C   UNL     1      -8.741   8.017  65.898  1.00  0.00    -0.157 C  
HETATM   26  C   UNL     1      -7.585   8.919  66.188  1.00  0.00    -0.091 C  
HETATM   27  O   UNL     1      -8.646   6.933  65.341  1.00  0.00    -0.131 OA 
ENDBRANCH  24  25
ENDBRANCH  23  24
ENDBRANCH  21  23
ENDBRANCH   4  21
TORSDOF 4
ENDMDL
MODEL      101
REMARK 921   NORMALIZED FREE ENERGY PREDICTED BY IDOCK:   -3.97 KCAL/MOL
REMARK 922        TOTAL FREE ENERGY PREDICTED BY IDOCK:   -4.45 KCAL/MOL
REMARK 923 INTER-LIGAND FREE ENERGY PREDICTED BY IDOCK:   -4.74 KCAL/MOL
REMARK 924 INTRA-LIGAND FREE ENERGY PREDICTED BY IDOCK:    0.28 KCAL/MOL
REMARK 927      BINDING AFFINITY PREDICTED BY RF-SCORE:    0.00 PKD
ROOT
HETATM    1  C   UNL     1      -6.832   5.676  68.566  1.00  0.00    -0.059 C  
HETATM    2  C   UNL     1      -6.763   4.534  69.417  1.00  0.00    -0.045 C  
HETATM    3  C   UNL     1      -8.042   4.515  68.639  1.00  0.00    -0.081 C  
HETATM    4  C   UNL     1      -8.160   5.916  67.150  1.00  0.00    -0.102 C  
HETATM    5  C   UNL     1     -12.674   6.874  71.604  1.00  0.00    -0.396 C  
HETATM    6  C   UNL     1      -7.543   4.706  67.089  1.00  0.00    -0.086 C  
HETATM    7  C   UNL     1      -6.538   4.034  66.198  1.00  0.00    -0.041 C  
HETATM    8  O   UNL     1     -13.038   8.947  72.766  1.00  0.00    -0.377 OA 
HETATM    9  C   UNL     1     -12.258   8.145  72.268  1.00  0.00    -0.346 C  
HETATM   10  C   UNL     1      -9.423   4.336  67.047  1.00  0.00    -0.205 C  
HETATM   11  C   UNL     1     -10.802   8.343  72.357  1.00  0.00    -0.416 C  
HETATM   12  C   UNL     1     -10.323   5.616  67.917  1.00  0.00    -0.260 C  
HETATM   13  C   UNL     1      -9.703   6.354  69.323  1.00  0.00    -0.150 C  
HETATM   14  C   UNL     1     -10.824   8.663  69.063  1.00  0.00    -0.043 C  
HETATM   15  C   UNL     1      -8.070   6.809  69.351  1.00  0.00    -0.123 C  
HETATM   16  C   UNL     1     -10.651   7.440  69.984  1.00  0.00    -0.241 C  
HETATM   17  C   UNL     1     -12.072   6.782  70.207  1.00  0.00    -0.211 C  
HETATM   18  C   UNL     1      -7.689   7.121  70.803  1.00  0.00    -0.094 C  
HETATM   19  C   UNL     1      -8.554   8.237  71.382  1.00  0.00    -0.186 C  
HETATM   20  C   UNL     1     -10.044   7.977  71.305  1.00  0.00    -0.222 C  
ENDROOT
BRANCH   4  21
HETATM   21  C   UNL     1      -8.255   6.075  65.487  1.00  0.00    -0.142 C  
HETATM   22  O   UNL     1      -8.786   5.297  64.690  1.00  0.00    -0.149 OA 
BRANCH  21  23
HETATM   23  C   UNL     1      -7.599   7.308  64.875  1.00  0.00    -0.102 C  
BRANCH  23  24
HETATM   24  O   UNL     1      -7.442   8.295  65.884  1.00  0.00    -0.078 OA 
BRANCH  24  25
HETATM   25  C   UNL     1      -7.967   9.512  65.599  1.00  0.00    -0.108 C  
HETATM   26  C   UNL     1      -9.460   9.455  65.650  1.00  0.00    -0.328 C  
HETATM   27  O   UNL     1      -7.324  10.517  65.336  1.00  0.00    -0.142 OA 
ENDBRANCH  24  25
ENDBRANCH  23  24
ENDBRANCH  21  23
ENDBRANCH   4  21
TORSDOF 4
ENDMDL
MODEL      102
REMARK 921   NORMALIZED FREE ENERGY PREDICTED BY IDOCK:   -3.93 KCAL/MOL
REMARK 922        TOTAL FREE ENERGY PREDICTED BY IDOCK:   -4.41 KCAL/MOL
REMARK 923 INTER-LIGAND FREE ENERGY PREDICTED BY IDOCK:   -4.89 KCAL/MOL
REMARK 924 INTRA-LIGAND FREE ENERGY PREDICTED BY IDOCK:    0.48 KCAL/MOL
REMARK 927      BINDING AFFINITY PREDICTED BY RF-SCORE:    0.00 PKD
ROOT
HETATM    1  C   UNL     1     -10.728   9.209  68.951  1.00  0.00    -0.167 C  
HETATM    2  C   UNL     1     -10.555  10.237  69.924  1.00  0.00    -0.324 C  
HETATM    3  C   UNL     1      -9.302   9.426  69.809  1.00  0.00    -0.217 C  
HETATM    4  C   UNL     1      -9.275   8.106  68.244  1.00  0.00    -0.134 C  
HETATM    5  C   UNL     1      -8.916   5.047  73.870  1.00  0.00    -0.113 C  
HETATM    6  C   UNL     1      -8.992   9.435  68.199  1.00  0.00    -0.128 C  
HETATM    7  C   UNL     1      -8.867  10.491  67.139  1.00  0.00    -0.140 C  
HETATM    8  O   UNL     1     -10.382   3.273  74.563  1.00  0.00    -0.166 OA 
HETATM    9  C   UNL     1     -10.224   4.335  73.974  1.00  0.00    -0.193 C  
HETATM   10  C   UNL     1      -7.496   8.611  69.068  1.00  0.00    -0.089 C  
HETATM   11  C   UNL     1     -11.361   5.048  73.370  1.00  0.00    -0.345 C  
HETATM   12  C   UNL     1      -8.019   7.128  69.924  1.00  0.00    -0.122 C  
HETATM   13  C   UNL     1      -9.529   7.028  70.707  1.00  0.00    -0.161 C  
HETATM   14  C   UNL     1      -9.925   4.493  70.441  1.00  0.00    -0.284 C  
HETATM   15  C   UNL     1     -10.899   7.636  69.915  1.00  0.00    -0.241 C  
HETATM   16  C   UNL     1      -9.812   5.654  71.447  1.00  0.00    -0.221 C  
HETATM   17  C   UNL     1      -8.594   5.357  72.412  1.00  0.00    -0.122 C  
HETATM   18  C   UNL     1     -12.035   7.739  70.940  1.00  0.00    -0.229 C  
HETATM   19  C   UNL     1     -12.349   6.382  71.565  1.00  0.00    -0.164 C  
HETATM   20  C   UNL     1     -11.160   5.699  72.209  1.00  0.00    -0.318 C  
ENDROOT
BRANCH   4  21
HETATM   21  C   UNL     1      -8.492   7.778  66.802  1.00  0.00    -0.126 C  
HETATM   22  O   UNL     1      -7.408   8.227  66.420  1.00  0.00    -0.078 OA 
BRANCH  21  23
HETATM   23  C   UNL     1      -9.197   6.833  65.835  1.00  0.00     0.040 C  
BRANCH  23  24
HETATM   24  O   UNL     1     -10.109   6.024  66.564  1.00  0.00    -0.170 OA 
BRANCH  24  25
HETATM   25  C   UNL     1     -10.353   4.798  66.039  1.00  0.00    -0.293 C  
HETATM   26  C   UNL     1      -9.468   3.776  66.679  1.00  0.00    -0.212 C  
HETATM   27  O   UNL     1     -11.173   4.550  65.169  1.00  0.00    -0.174 OA 
ENDBRANCH  24  25
ENDBRANCH  23  24
ENDBRANCH  21  23
ENDBRANCH   4  21
TORSDOF 4
ENDMDL
MODEL      103
REMARK 921   NORMALIZED FREE ENERGY PREDICTED BY IDOCK:   -3.93 KCAL/MOL
REMARK 922        TOTAL FREE ENERGY PREDICTED BY IDOCK:   -4.41 KCAL/MOL
REMARK 923 INTER-LIGAND FREE ENERGY PREDICTED BY IDOCK:   -5.77 KCAL/MOL
REMARK 924 INTRA-LIGAND FREE ENERGY PREDICTED BY IDOCK:    1.36 KCAL/MOL
REMARK 927      BINDING AFFINITY PREDICTED BY RF-SCORE:    0.00 PKD
ROOT
HETATM    1  C   UNL     1      -7.056  13.483  67.407  1.00  0.00    -0.098 C  
HETATM    2  C   UNL     1      -6.421  13.685  68.668  1.00  0.00    -0.094 C  
HETATM    3  C   UNL     1      -7.908  13.759  68.826  1.00  0.00    -0.059 C  
HETATM    4  C   UNL     1      -8.976  13.187  67.175  1.00  0.00    -0.228 C  
HETATM    5  C   UNL     1     -10.054  19.342  68.623  1.00  0.00    -0.499 C  
HETATM    6  C   UNL     1      -8.431  12.375  68.120  1.00  0.00    -0.180 C  
HETATM    7  C   UNL     1      -8.102  10.916  68.249  1.00  0.00    -0.124 C  
HETATM    8  O   UNL     1      -9.805  21.176  67.091  1.00  0.00    -0.248 OA 
HETATM    9  C   UNL     1      -9.415  20.090  67.501  1.00  0.00    -0.374 C  
HETATM   10  C   UNL     1      -9.945  13.205  68.952  1.00  0.00     0.066 C  
HETATM   11  C   UNL     1      -8.204  19.459  66.954  1.00  0.00    -0.302 C  
HETATM   12  C   UNL     1     -10.246  14.813  68.224  1.00  0.00    -0.227 C  
HETATM   13  C   UNL     1      -8.969  15.830  67.733  1.00  0.00    -0.176 C  
HETATM   14  C   UNL     1     -10.181  17.061  65.819  1.00  0.00    -0.262 C  
HETATM   15  C   UNL     1      -7.668  15.152  66.884  1.00  0.00    -0.051 C  
HETATM   16  C   UNL     1      -9.417  17.233  67.145  1.00  0.00    -0.256 C  
HETATM   17  C   UNL     1     -10.386  17.918  68.192  1.00  0.00    -0.395 C  
HETATM   18  C   UNL     1      -6.527  16.176  66.864  1.00  0.00    -0.006 C  
HETATM   19  C   UNL     1      -6.959  17.482  66.205  1.00  0.00    -0.332 C  
HETATM   20  C   UNL     1      -8.187  18.119  66.823  1.00  0.00    -0.270 C  
ENDROOT
BRANCH   4  21
HETATM   21  C   UNL     1     -10.042  12.020  66.627  1.00  0.00    -0.198 C  
HETATM   22  O   UNL     1      -9.928  11.315  65.621  1.00  0.00    -0.225 OA 
BRANCH  21  23
HETATM   23  C   UNL     1     -11.311  11.808  67.446  1.00  0.00    -0.311 C  
BRANCH  23  24
HETATM   24  O   UNL     1     -11.457  10.422  67.719  1.00  0.00    -0.406 OA 
BRANCH  24  25
HETATM   25  C   UNL     1     -11.594  10.095  69.028  1.00  0.00    -0.011 C  
HETATM   26  C   UNL     1     -10.748   8.906  69.355  1.00  0.00    -0.192 C  
HETATM   27  O   UNL     1     -12.303  10.679  69.834  1.00  0.00    -0.309 OA 
ENDBRANCH  24  25
ENDBRANCH  23  24
ENDBRANCH  21  23
ENDBRANCH   4  21
TORSDOF 4
ENDMDL
MODEL      104
REMARK 921   NORMALIZED FREE ENERGY PREDICTED BY IDOCK:   -3.92 KCAL/MOL
REMARK 922        TOTAL FREE ENERGY PREDICTED BY IDOCK:   -4.40 KCAL/MOL
REMARK 923 INTER-LIGAND FREE ENERGY PREDICTED BY IDOCK:   -4.73 KCAL/MOL
REMARK 924 INTRA-LIGAND FREE ENERGY PREDICTED BY IDOCK:    0.33 KCAL/MOL
REMARK 927      BINDING AFFINITY PREDICTED BY RF-SCORE:    0.00 PKD
ROOT
HETATM    1  C   UNL     1      -7.841   9.321  65.339  1.00  0.00    -0.100 C  
HETATM    2  C   UNL     1      -6.957  10.331  65.820  1.00  0.00    -0.128 C  
HETATM    3  C   UNL     1      -6.750   9.063  66.589  1.00  0.00    -0.075 C  
HETATM    4  C   UNL     1      -7.718   7.429  65.823  1.00  0.00    -0.102 C  
HETATM    5  C   UNL     1      -9.841   8.843  71.708  1.00  0.00    -0.386 C  
HETATM    6  C   UNL     1      -6.528   7.942  65.412  1.00  0.00    -0.041 C  
HETATM    7  C   UNL     1      -5.639   7.814  64.210  1.00  0.00    -0.037 C  
HETATM    8  O   UNL     1     -12.147   9.194  72.287  1.00  0.00    -0.330 OA 
HETATM    9  C   UNL     1     -11.236   9.323  71.479  1.00  0.00    -0.386 C  
HETATM   10  C   UNL     1      -6.179   7.090  67.093  1.00  0.00    -0.044 C  
HETATM   11  C   UNL     1     -11.436  10.050  70.216  1.00  0.00    -0.372 C  
HETATM   12  C   UNL     1      -7.649   7.114  68.115  1.00  0.00    -0.115 C  
HETATM   13  C   UNL     1      -8.719   8.440  68.119  1.00  0.00    -0.143 C  
HETATM   14  C   UNL     1     -10.893   7.170  68.679  1.00  0.00    -0.149 C  
HETATM   15  C   UNL     1      -9.150   9.144  66.638  1.00  0.00    -0.182 C  
HETATM   16  C   UNL     1      -9.949   8.307  69.112  1.00  0.00    -0.196 C  
HETATM   17  C   UNL     1      -9.384   7.964  70.550  1.00  0.00    -0.162 C  
HETATM   18  C   UNL     1      -9.823  10.490  66.929  1.00  0.00    -0.235 C  
HETATM   19  C   UNL     1     -11.059  10.320  67.807  1.00  0.00    -0.335 C  
HETATM   20  C   UNL     1     -10.803   9.600  69.115  1.00  0.00    -0.212 C  
ENDROOT
BRANCH   4  21
HETATM   21  C   UNL     1      -7.442   5.936  65.122  1.00  0.00    -0.079 C  
HETATM   22  O   UNL     1      -6.422   5.248  65.202  1.00  0.00    -0.037 OA 
BRANCH  21  23
HETATM   23  C   UNL     1      -8.567   5.358  64.269  1.00  0.00    -0.044 C  
BRANCH  23  24
HETATM   24  O   UNL     1      -8.970   4.112  64.819  1.00  0.00    -0.127 OA 
BRANCH  24  25
HETATM   25  C   UNL     1      -9.799   4.185  65.889  1.00  0.00    -0.199 C  
HETATM   26  C   UNL     1      -9.220   3.433  67.044  1.00  0.00    -0.208 C  
HETATM   27  O   UNL     1     -10.868   4.776  65.917  1.00  0.00    -0.304 OA 
ENDBRANCH  24  25
ENDBRANCH  23  24
ENDBRANCH  21  23
ENDBRANCH   4  21
TORSDOF 4
ENDMDL
MODEL      105
REMARK 921   NORMALIZED FREE ENERGY PREDICTED BY IDOCK:   -3.91 KCAL/MOL
REMARK 922        TOTAL FREE ENERGY PREDICTED BY IDOCK:   -4.39 KCAL/MOL
REMARK 923 INTER-LIGAND FREE ENERGY PREDICTED BY IDOCK:   -5.36 KCAL/MOL
REMARK 924 INTRA-LIGAND FREE ENERGY PREDICTED BY IDOCK:    0.97 KCAL/MOL
REMARK 927      BINDING AFFINITY PREDICTED BY RF-SCORE:    0.00 PKD
ROOT
HETATM    1  C   UNL     1      -9.363  12.633  68.005  1.00  0.00    -0.209 C  
HETATM    2  C   UNL     1      -9.407  12.294  66.621  1.00  0.00    -0.228 C  
HETATM    3  C   UNL     1     -10.476  11.554  67.363  1.00  0.00    -0.240 C  
HETATM    4  C   UNL     1     -10.750  12.157  69.301  1.00  0.00    -0.031 C  
HETATM    5  C   UNL     1      -8.851   6.037  69.016  1.00  0.00    -0.121 C  
HETATM    6  C   UNL     1     -11.257  12.741  68.182  1.00  0.00    -0.310 C  
HETATM    7  C   UNL     1     -11.879  14.059  67.823  1.00  0.00    -0.419 C  
HETATM    8  O   UNL     1      -6.961   5.131  70.193  1.00  0.00    -0.049 OA 
HETATM    9  C   UNL     1      -7.471   6.064  69.586  1.00  0.00    -0.080 C  
HETATM   10  C   UNL     1     -12.254  11.122  68.425  1.00  0.00     0.143 C  
HETATM   11  C   UNL     1      -6.712   7.291  69.297  1.00  0.00    -0.049 C  
HETATM   12  C   UNL     1     -11.249   9.897  69.259  1.00  0.00    -0.174 C  
HETATM   13  C   UNL     1      -9.578   9.748  68.956  1.00  0.00    -0.177 C  
HETATM   14  C   UNL     1      -8.851   8.867  71.269  1.00  0.00    -0.298 C  
HETATM   15  C   UNL     1      -8.639  11.156  68.858  1.00  0.00    -0.092 C  
HETATM   16  C   UNL     1      -8.852   8.586  69.755  1.00  0.00    -0.137 C  
HETATM   17  C   UNL     1      -9.649   7.243  69.499  1.00  0.00    -0.155 C  
HETATM   18  C   UNL     1      -7.281  10.781  68.252  1.00  0.00    -0.084 C  
HETATM   19  C   UNL     1      -6.564   9.731  69.095  1.00  0.00    -0.052 C  
HETATM   20  C   UNL     1      -7.365   8.468  69.336  1.00  0.00    -0.069 C  
ENDROOT
BRANCH   4  21
HETATM   21  C   UNL     1     -11.865  12.879  70.317  1.00  0.00    -0.213 C  
HETATM   22  O   UNL     1     -12.836  12.347  70.863  1.00  0.00    -0.218 OA 
BRANCH  21  23
HETATM   23  C   UNL     1     -11.682  14.368  70.594  1.00  0.00    -0.252 C  
BRANCH  23  24
HETATM   24  O   UNL     1     -12.568  14.756  71.634  1.00  0.00    -0.299 OA 
BRANCH  24  25
HETATM   25  C   UNL     1     -12.160  15.804  72.390  1.00  0.00    -0.489 C  
HETATM   26  C   UNL     1     -12.397  15.521  73.838  1.00  0.00    -0.757 C  
HETATM   27  O   UNL     1     -11.667  16.837  71.962  1.00  0.00    -0.302 OA 
ENDBRANCH  24  25
ENDBRANCH  23  24
ENDBRANCH  21  23
ENDBRANCH   4  21
TORSDOF 4
ENDMDL
MODEL      106
REMARK 921   NORMALIZED FREE ENERGY PREDICTED BY IDOCK:   -3.88 KCAL/MOL
REMARK 922        TOTAL FREE ENERGY PREDICTED BY IDOCK:   -4.35 KCAL/MOL
REMARK 923 INTER-LIGAND FREE ENERGY PREDICTED BY IDOCK:   -4.55 KCAL/MOL
REMARK 924 INTRA-LIGAND FREE ENERGY PREDICTED BY IDOCK:    0.20 KCAL/MOL
REMARK 927      BINDING AFFINITY PREDICTED BY RF-SCORE:    0.00 PKD
ROOT
HETATM    1  C   UNL     1     -10.046   6.845  69.260  1.00  0.00    -0.178 C  
HETATM    2  C   UNL     1     -11.040   6.031  68.642  1.00  0.00    -0.293 C  
HETATM    3  C   UNL     1      -9.699   5.747  68.038  1.00  0.00    -0.142 C  
HETATM    4  C   UNL     1      -8.119   6.604  69.020  1.00  0.00    -0.116 C  
HETATM    5  C   UNL     1      -8.631   8.847  63.033  1.00  0.00    -0.136 C  
HETATM    6  C   UNL     1      -8.755   5.446  69.345  1.00  0.00    -0.110 C  
HETATM    7  C   UNL     1      -8.838   4.544  70.542  1.00  0.00    -0.140 C  
HETATM    8  O   UNL     1      -8.759  11.174  62.445  1.00  0.00    -0.305 OA 
HETATM    9  C   UNL     1      -9.047  10.268  63.218  1.00  0.00    -0.265 C  
HETATM   10  C   UNL     1      -7.718   5.053  67.782  1.00  0.00    -0.087 C  
HETATM   11  C   UNL     1      -9.916  10.507  64.381  1.00  0.00    -0.410 C  
HETATM   12  C   UNL     1      -7.518   6.528  66.786  1.00  0.00    -0.079 C  
HETATM   13  C   UNL     1      -8.763   7.681  66.628  1.00  0.00    -0.150 C  
HETATM   14  C   UNL     1      -7.297   9.772  66.265  1.00  0.00    -0.099 C  
HETATM   15  C   UNL     1      -9.622   8.148  68.013  1.00  0.00    -0.174 C  
HETATM   16  C   UNL     1      -8.426   8.905  65.677  1.00  0.00    -0.171 C  
HETATM   17  C   UNL     1      -7.938   8.328  64.287  1.00  0.00    -0.148 C  
HETATM   18  C   UNL     1     -10.875   8.907  67.562  1.00  0.00    -0.108 C  
HETATM   19  C   UNL     1     -10.516  10.135  66.730  1.00  0.00    -0.270 C  
HETATM   20  C   UNL     1      -9.652   9.841  65.521  1.00  0.00    -0.348 C  
ENDROOT
BRANCH   4  21
HETATM   21  C   UNL     1      -6.748   6.228  69.902  1.00  0.00    -0.056 C  
HETATM   22  O   UNL     1      -5.903   5.368  69.643  1.00  0.00    -0.015 OA 
BRANCH  21  23
HETATM   23  C   UNL     1      -6.516   7.022  71.184  1.00  0.00    -0.041 C  
BRANCH  23  24
HETATM   24  O   UNL     1      -7.411   8.124  71.212  1.00  0.00    -0.063 OA 
BRANCH  24  25
HETATM   25  C   UNL     1      -8.312   8.121  72.225  1.00  0.00    -0.158 C  
HETATM   26  C   UNL     1      -7.974   7.053  73.214  1.00  0.00    -0.110 C  
HETATM   27  O   UNL     1      -9.267   8.877  72.326  1.00  0.00    -0.376 OA 
ENDBRANCH  24  25
ENDBRANCH  23  24
ENDBRANCH  21  23
ENDBRANCH   4  21
TORSDOF 4
ENDMDL
MODEL      107
REMARK 921   NORMALIZED FREE ENERGY PREDICTED BY IDOCK:   -3.86 KCAL/MOL
REMARK 922        TOTAL FREE ENERGY PREDICTED BY IDOCK:   -4.33 KCAL/MOL
REMARK 923 INTER-LIGAND FREE ENERGY PREDICTED BY IDOCK:   -5.05 KCAL/MOL
REMARK 924 INTRA-LIGAND FREE ENERGY PREDICTED BY IDOCK:    0.72 KCAL/MOL
REMARK 927      BINDING AFFINITY PREDICTED BY RF-SCORE:    0.00 PKD
ROOT
HETATM    1  C   UNL     1      -9.718   8.247  71.610  1.00  0.00    -0.261 C  
HETATM    2  C   UNL     1     -10.779   9.199  71.595  1.00  0.00    -0.441 C  
HETATM    3  C   UNL     1     -11.038   8.129  70.580  1.00  0.00    -0.264 C  
HETATM    4  C   UNL     1      -9.771   6.524  70.685  1.00  0.00    -0.194 C  
HETATM    5  C   UNL     1      -9.203   9.570  65.070  1.00  0.00    -0.297 C  
HETATM    6  C   UNL     1     -10.877   6.745  71.444  1.00  0.00    -0.269 C  
HETATM    7  C   UNL     1     -11.449   6.209  72.725  1.00  0.00    -0.220 C  
HETATM    8  O   UNL     1      -7.136  10.385  64.153  1.00  0.00    -0.089 OA 
HETATM    9  C   UNL     1      -7.844  10.185  65.132  1.00  0.00    -0.140 C  
HETATM   10  C   UNL     1     -11.523   6.266  69.705  1.00  0.00    -0.425 C  
HETATM   11  C   UNL     1      -7.428  10.618  66.475  1.00  0.00    -0.134 C  
HETATM   12  C   UNL     1     -10.337   6.745  68.452  1.00  0.00    -0.214 C  
HETATM   13  C   UNL     1      -9.425   8.180  68.580  1.00  0.00    -0.144 C  
HETATM   14  C   UNL     1      -7.330   7.412  67.286  1.00  0.00    -0.098 C  
HETATM   15  C   UNL     1      -8.732   8.574  70.076  1.00  0.00    -0.136 C  
HETATM   16  C   UNL     1      -8.450   8.465  67.362  1.00  0.00    -0.124 C  
HETATM   17  C   UNL     1      -9.296   8.387  66.027  1.00  0.00    -0.244 C  
HETATM   18  C   UNL     1      -8.273  10.036  70.017  1.00  0.00    -0.139 C  
HETATM   19  C   UNL     1      -7.263  10.260  68.896  1.00  0.00    -0.086 C  
HETATM   20  C   UNL     1      -7.745   9.836  67.524  1.00  0.00    -0.095 C  
ENDROOT
BRANCH   4  21
HETATM   21  C   UNL     1      -9.737   4.884  71.015  1.00  0.00    -0.185 C  
HETATM   22  O   UNL     1     -10.411   4.273  71.848  1.00  0.00    -0.160 OA 
BRANCH  21  23
HETATM   23  C   UNL     1      -8.751   4.041  70.212  1.00  0.00    -0.074 C  
BRANCH  23  24
HETATM   24  O   UNL     1      -9.430   2.907  69.693  1.00  0.00    -0.149 OA 
BRANCH  24  25
HETATM   25  C   UNL     1      -9.171   2.613  68.395  1.00  0.00    -0.197 C  
HETATM   26  C   UNL     1      -8.486   3.765  67.731  1.00  0.00    -0.105 C  
HETATM   27  O   UNL     1      -9.451   1.563  67.837  1.00  0.00    -0.165 OA 
ENDBRANCH  24  25
ENDBRANCH  23  24
ENDBRANCH  21  23
ENDBRANCH   4  21
TORSDOF 4
ENDMDL
MODEL      108
REMARK 921   NORMALIZED FREE ENERGY PREDICTED BY IDOCK:   -3.85 KCAL/MOL
REMARK 922        TOTAL FREE ENERGY PREDICTED BY IDOCK:   -4.31 KCAL/MOL
REMARK 923 INTER-LIGAND FREE ENERGY PREDICTED BY IDOCK:   -5.67 KCAL/MOL
REMARK 924 INTRA-LIGAND FREE ENERGY PREDICTED BY IDOCK:    1.36 KCAL/MOL
REMARK 927      BINDING AFFINITY PREDICTED BY RF-SCORE:    0.00 PKD
ROOT
HETATM    1  C   UNL     1     -11.007  11.046  69.665  1.00  0.00    -0.286 C  
HETATM    2  C   UNL     1     -12.390  10.939  69.334  1.00  0.00    -0.188 C  
HETATM    3  C   UNL     1     -11.557  10.805  68.097  1.00  0.00    -0.276 C  
HETATM    4  C   UNL     1      -9.545  10.628  68.434  1.00  0.00    -0.170 C  
HETATM    5  C   UNL     1     -10.886  15.942  65.103  1.00  0.00    -0.438 C  
HETATM    6  C   UNL     1     -10.475   9.639  68.496  1.00  0.00    -0.241 C  
HETATM    7  C   UNL     1     -10.558   8.249  69.059  1.00  0.00    -0.167 C  
HETATM    8  O   UNL     1     -10.190  18.159  65.717  1.00  0.00    -0.580 OA 
HETATM    9  C   UNL     1     -10.579  17.049  66.057  1.00  0.00    -0.206 C  
HETATM   10  C   UNL     1     -10.246  10.024  66.633  1.00  0.00    -0.288 C  
HETATM   11  C   UNL     1     -10.856  16.738  67.468  1.00  0.00    -0.216 C  
HETATM   12  C   UNL     1      -9.759  11.733  66.411  1.00  0.00    -0.234 C  
HETATM   13  C   UNL     1     -10.377  12.979  67.396  1.00  0.00    -0.234 C  
HETATM   14  C   UNL     1      -8.356  14.577  67.297  1.00  0.00    -0.232 C  
HETATM   15  C   UNL     1     -10.480  12.720  69.068  1.00  0.00    -0.019 C  
HETATM   16  C   UNL     1      -9.867  14.436  67.035  1.00  0.00    -0.252 C  
HETATM   17  C   UNL     1     -10.128  14.679  65.493  1.00  0.00    -0.405 C  
HETATM   18  C   UNL     1     -11.363  13.821  69.667  1.00  0.00    -0.241 C  
HETATM   19  C   UNL     1     -10.795  15.209  69.385  1.00  0.00    -0.265 C  
HETATM   20  C   UNL     1     -10.561  15.503  67.918  1.00  0.00    -0.274 C  
ENDROOT
BRANCH   4  21
HETATM   21  C   UNL     1      -8.264   9.564  68.270  1.00  0.00    -0.113 C  
HETATM   22  O   UNL     1      -7.559   9.097  69.168  1.00  0.00    -0.071 OA 
BRANCH  21  23
HETATM   23  C   UNL     1      -7.907   9.129  66.852  1.00  0.00    -0.098 C  
BRANCH  23  24
HETATM   24  O   UNL     1      -6.494   9.130  66.711  1.00  0.00    -0.065 OA 
BRANCH  24  25
HETATM   25  C   UNL     1      -5.980   8.126  65.959  1.00  0.00    -0.041 C  
HETATM   26  C   UNL     1      -5.790   6.901  66.794  1.00  0.00    -0.022 C  
HETATM   27  O   UNL     1      -5.707   8.200  64.771  1.00  0.00    -0.044 OA 
ENDBRANCH  24  25
ENDBRANCH  23  24
ENDBRANCH  21  23
ENDBRANCH   4  21
TORSDOF 4
ENDMDL
MODEL      109
REMARK 921   NORMALIZED FREE ENERGY PREDICTED BY IDOCK:   -3.84 KCAL/MOL
REMARK 922        TOTAL FREE ENERGY PREDICTED BY IDOCK:   -4.30 KCAL/MOL
REMARK 923 INTER-LIGAND FREE ENERGY PREDICTED BY IDOCK:   -4.71 KCAL/MOL
REMARK 924 INTRA-LIGAND FREE ENERGY PREDICTED BY IDOCK:    0.42 KCAL/MOL
REMARK 927      BINDING AFFINITY PREDICTED BY RF-SCORE:    0.00 PKD
ROOT
HETATM    1  C   UNL     1      -7.948  11.458  66.596  1.00  0.00    -0.148 C  
HETATM    2  C   UNL     1      -7.467  12.517  67.421  1.00  0.00    -0.153 C  
HETATM    3  C   UNL     1      -6.950  11.204  67.921  1.00  0.00    -0.069 C  
HETATM    4  C   UNL     1      -7.292   9.616  66.674  1.00  0.00    -0.090 C  
HETATM    5  C   UNL     1     -10.275   8.841  72.299  1.00  0.00    -0.310 C  
HETATM    6  C   UNL     1      -6.286  10.526  66.583  1.00  0.00    -0.084 C  
HETATM    7  C   UNL     1      -5.295  10.960  65.542  1.00  0.00    -0.126 C  
HETATM    8  O   UNL     1     -12.619   8.379  72.557  1.00  0.00    -0.345 OA 
HETATM    9  C   UNL     1     -11.723   8.956  71.955  1.00  0.00    -0.367 C  
HETATM   10  C   UNL     1      -5.846   9.406  68.075  1.00  0.00    -0.041 C  
HETATM   11  C   UNL     1     -12.021   9.896  70.863  1.00  0.00    -0.434 C  
HETATM   12  C   UNL     1      -7.338   8.760  68.824  1.00  0.00    -0.083 C  
HETATM   13  C   UNL     1      -8.762   9.691  68.939  1.00  0.00    -0.132 C  
HETATM   14  C   UNL     1     -10.479   7.769  68.851  1.00  0.00    -0.208 C  
HETATM   15  C   UNL     1      -9.251  10.600  67.595  1.00  0.00    -0.153 C  
HETATM   16  C   UNL     1      -9.975   8.974  69.666  1.00  0.00    -0.196 C  
HETATM   17  C   UNL     1      -9.466   8.448  71.069  1.00  0.00    -0.212 C  
HETATM   18  C   UNL     1     -10.331  11.587  68.055  1.00  0.00    -0.208 C  
HETATM   19  C   UNL     1     -11.529  10.863  68.663  1.00  0.00    -0.380 C  
HETATM   20  C   UNL     1     -11.183   9.935  69.809  1.00  0.00    -0.279 C  
ENDROOT
BRANCH   4  21
HETATM   21  C   UNL     1      -6.507   8.487  65.722  1.00  0.00    -0.053 C  
HETATM   22  O   UNL     1      -5.291   8.368  65.551  1.00  0.00    -0.034 OA 
BRANCH  21  23
HETATM   23  C   UNL     1      -7.384   7.500  64.959  1.00  0.00    -0.078 C  
BRANCH  23  24
HETATM   24  O   UNL     1      -8.555   7.240  65.720  1.00  0.00    -0.145 OA 
BRANCH  24  25
HETATM   25  C   UNL     1      -8.758   5.943  66.057  1.00  0.00    -0.148 C  
HETATM   26  C   UNL     1      -7.863   5.557  67.191  1.00  0.00    -0.101 C  
HETATM   27  O   UNL     1      -9.555   5.188  65.520  1.00  0.00    -0.136 OA 
ENDBRANCH  24  25
ENDBRANCH  23  24
ENDBRANCH  21  23
ENDBRANCH   4  21
TORSDOF 4
ENDMDL
MODEL      110
REMARK 921   NORMALIZED FREE ENERGY PREDICTED BY IDOCK:   -3.80 KCAL/MOL
REMARK 922        TOTAL FREE ENERGY PREDICTED BY IDOCK:   -4.25 KCAL/MOL
REMARK 923 INTER-LIGAND FREE ENERGY PREDICTED BY IDOCK:   -6.45 KCAL/MOL
REMARK 924 INTRA-LIGAND FREE ENERGY PREDICTED BY IDOCK:    2.20 KCAL/MOL
REMARK 927      BINDING AFFINITY PREDICTED BY RF-SCORE:    0.00 PKD
ROOT
HETATM    1  C   UNL     1      -6.912  15.093  68.819  1.00  0.00    -0.111 C  
HETATM    2  C   UNL     1      -5.873  14.999  67.847  1.00  0.00    -0.154 C  
HETATM    3  C   UNL     1      -7.188  15.231  67.169  1.00  0.00    -0.139 C  
HETATM    4  C   UNL     1      -8.733  15.695  68.430  1.00  0.00    -0.178 C  
HETATM    5  C   UNL     1      -9.841  10.195  65.323  1.00  0.00    -0.388 C  
HETATM    6  C   UNL     1      -7.787  16.544  67.947  1.00  0.00    -0.162 C  
HETATM    7  C   UNL     1      -7.277  17.916  68.280  1.00  0.00    -0.236 C  
HETATM    8  O   UNL     1     -10.391   8.108  66.381  1.00  0.00    -0.210 OA 
HETATM    9  C   UNL     1      -9.760   9.157  66.393  1.00  0.00    -0.262 C  
HETATM   10  C   UNL     1      -8.953  16.167  66.474  1.00  0.00    -0.322 C  
HETATM   11  C   UNL     1      -8.786   9.447  67.457  1.00  0.00    -0.123 C  
HETATM   12  C   UNL     1      -9.679  14.541  66.661  1.00  0.00    -0.285 C  
HETATM   13  C   UNL     1      -8.801  13.235  67.317  1.00  0.00    -0.216 C  
HETATM   14  C   UNL     1     -10.774  11.936  68.353  1.00  0.00    -0.248 C  
HETATM   15  C   UNL     1      -7.854  13.502  68.698  1.00  0.00    -0.084 C  
HETATM   16  C   UNL     1      -9.588  11.859  67.374  1.00  0.00    -0.176 C  
HETATM   17  C   UNL     1     -10.155  11.558  65.928  1.00  0.00    -0.271 C  
HETATM   18  C   UNL     1      -6.924  12.297  68.877  1.00  0.00    -0.098 C  
HETATM   19  C   UNL     1      -7.712  10.999  69.025  1.00  0.00    -0.132 C  
HETATM   20  C   UNL     1      -8.675  10.718  67.890  1.00  0.00    -0.129 C  
ENDROOT
BRANCH   4  21
HETATM   21  C   UNL     1      -9.794  16.926  68.826  1.00  0.00    -0.269 C  
HETATM   22  O   UNL     1     -10.893  16.820  69.375  1.00  0.00    -0.318 OA 
BRANCH  21  23
HETATM   23  C   UNL     1      -9.373  18.344  68.453  1.00  0.00    -0.329 C  
BRANCH  23  24
HETATM   24  O   UNL     1     -10.445  18.979  67.771  1.00  0.00    -0.392 OA 
BRANCH  24  25
HETATM   25  C   UNL     1     -10.090  19.967  66.914  1.00  0.00    -0.467 C  
HETATM   26  C   UNL     1     -10.764  19.774  65.594  1.00  0.00    -0.418 C  
HETATM   27  O   UNL     1      -9.329  20.889  67.170  1.00  0.00    -0.341 OA 
ENDBRANCH  24  25
ENDBRANCH  23  24
ENDBRANCH  21  23
ENDBRANCH   4  21
TORSDOF 4
ENDMDL
MODEL      111
REMARK 921   NORMALIZED FREE ENERGY PREDICTED BY IDOCK:   -3.74 KCAL/MOL
REMARK 922        TOTAL FREE ENERGY PREDICTED BY IDOCK:   -4.18 KCAL/MOL
REMARK 923 INTER-LIGAND FREE ENERGY PREDICTED BY IDOCK:   -4.40 KCAL/MOL
REMARK 924 INTRA-LIGAND FREE ENERGY PREDICTED BY IDOCK:    0.23 KCAL/MOL
REMARK 927      BINDING AFFINITY PREDICTED BY RF-SCORE:    0.00 PKD
ROOT
HETATM    1  C   UNL     1     -10.484   6.426  69.483  1.00  0.00    -0.279 C  
HETATM    2  C   UNL     1     -10.993   6.195  68.172  1.00  0.00    -0.398 C  
HETATM    3  C   UNL     1      -9.497   6.146  68.155  1.00  0.00    -0.113 C  
HETATM    4  C   UNL     1      -8.619   6.151  70.005  1.00  0.00    -0.136 C  
HETATM    5  C   UNL     1      -6.954  11.341  66.624  1.00  0.00    -0.129 C  
HETATM    6  C   UNL     1      -9.142   5.081  69.351  1.00  0.00    -0.143 C  
HETATM    7  C   UNL     1      -9.571   3.686  69.705  1.00  0.00    -0.211 C  
HETATM    8  O   UNL     1      -7.190  13.609  67.386  1.00  0.00    -0.165 OA 
HETATM    9  C   UNL     1      -7.626  12.466  67.341  1.00  0.00    -0.160 C  
HETATM   10  C   UNL     1      -7.505   5.497  68.447  1.00  0.00    -0.077 C  
HETATM   11  C   UNL     1      -8.923  12.121  67.943  1.00  0.00    -0.184 C  
HETATM   12  C   UNL     1      -7.144   7.245  68.595  1.00  0.00    -0.084 C  
HETATM   13  C   UNL     1      -8.376   8.422  68.563  1.00  0.00    -0.131 C  
HETATM   14  C   UNL     1      -7.237  10.200  70.045  1.00  0.00    -0.166 C  
HETATM   15  C   UNL     1      -9.792   8.145  69.453  1.00  0.00    -0.182 C  
HETATM   16  C   UNL     1      -7.873   9.922  68.670  1.00  0.00    -0.086 C  
HETATM   17  C   UNL     1      -6.770  10.151  67.558  1.00  0.00    -0.072 C  
HETATM   18  C   UNL     1     -10.848   9.156  68.994  1.00  0.00    -0.115 C  
HETATM   19  C   UNL     1     -10.374  10.592  69.198  1.00  0.00    -0.242 C  
HETATM   20  C   UNL     1      -9.054  10.916  68.530  1.00  0.00    -0.173 C  
ENDROOT
BRANCH   4  21
HETATM   21  C   UNL     1      -7.695   5.211  71.035  1.00  0.00    -0.095 C  
HETATM   22  O   UNL     1      -6.768   4.456  70.730  1.00  0.00    -0.033 OA 
BRANCH  21  23
HETATM   23  C   UNL     1      -8.041   5.271  72.519  1.00  0.00    -0.103 C  
BRANCH  23  24
HETATM   24  O   UNL     1      -9.364   5.767  72.664  1.00  0.00    -0.141 OA 
BRANCH  24  25
HETATM   25  C   UNL     1      -9.474   6.975  73.268  1.00  0.00    -0.166 C  
HETATM   26  C   UNL     1     -10.833   7.551  73.029  1.00  0.00    -0.445 C  
HETATM   27  O   UNL     1      -8.596   7.526  73.916  1.00  0.00    -0.174 OA 
ENDBRANCH  24  25
ENDBRANCH  23  24
ENDBRANCH  21  23
ENDBRANCH   4  21
TORSDOF 4
ENDMDL
MODEL      112
REMARK 921   NORMALIZED FREE ENERGY PREDICTED BY IDOCK:   -3.72 KCAL/MOL
REMARK 922        TOTAL FREE ENERGY PREDICTED BY IDOCK:   -4.14 KCAL/MOL
REMARK 923 INTER-LIGAND FREE ENERGY PREDICTED BY IDOCK:   -5.30 KCAL/MOL
REMARK 924 INTRA-LIGAND FREE ENERGY PREDICTED BY IDOCK:    1.15 KCAL/MOL
REMARK 927      BINDING AFFINITY PREDICTED BY RF-SCORE:    0.00 PKD
ROOT
HETATM    1  C   UNL     1      -8.563   7.912  67.430  1.00  0.00    -0.125 C  
HETATM    2  C   UNL     1      -7.466   7.996  66.522  1.00  0.00    -0.088 C  
HETATM    3  C   UNL     1      -7.178   8.805  67.749  1.00  0.00    -0.084 C  
HETATM    4  C   UNL     1      -8.513   8.545  69.280  1.00  0.00    -0.128 C  
HETATM    5  C   UNL     1      -8.554  14.600  67.164  1.00  0.00    -0.244 C  
HETATM    6  C   UNL     1      -7.456   7.748  68.971  1.00  0.00    -0.095 C  
HETATM    7  C   UNL     1      -6.999   6.358  69.309  1.00  0.00    -0.067 C  
HETATM    8  O   UNL     1     -10.516  15.791  66.450  1.00  0.00    -0.290 OA 
HETATM    9  C   UNL     1      -9.888  14.741  66.509  1.00  0.00    -0.272 C  
HETATM   10  C   UNL     1      -6.706   9.334  69.741  1.00  0.00    -0.051 C  
HETATM   11  C   UNL     1     -10.382  13.520  65.854  1.00  0.00    -0.301 C  
HETATM   12  C   UNL     1      -7.780  10.735  69.438  1.00  0.00    -0.107 C  
HETATM   13  C   UNL     1      -8.640  10.907  67.976  1.00  0.00    -0.131 C  
HETATM   14  C   UNL     1     -10.666  12.220  68.883  1.00  0.00    -0.210 C  
HETATM   15  C   UNL     1      -9.422   9.550  67.327  1.00  0.00    -0.170 C  
HETATM   16  C   UNL     1      -9.513  12.227  67.863  1.00  0.00    -0.200 C  
HETATM   17  C   UNL     1      -8.577  13.463  68.179  1.00  0.00    -0.174 C  
HETATM   18  C   UNL     1      -9.817   9.876  65.881  1.00  0.00    -0.342 C  
HETATM   19  C   UNL     1     -10.735  11.093  65.812  1.00  0.00    -0.252 C  
HETATM   20  C   UNL     1     -10.173  12.338  66.465  1.00  0.00    -0.235 C  
ENDROOT
BRANCH   4  21
HETATM   21  C   UNL     1      -8.636   7.964  70.844  1.00  0.00    -0.128 C  
HETATM   22  O   UNL     1      -7.981   7.054  71.358  1.00  0.00    -0.102 OA 
BRANCH  21  23
HETATM   23  C   UNL     1      -9.687   8.612  71.739  1.00  0.00    -0.291 C  
BRANCH  23  24
HETATM   24  O   UNL     1     -10.962   8.075  71.416  1.00  0.00    -0.228 OA 
BRANCH  24  25
HETATM   25  C   UNL     1     -11.931   8.985  71.153  1.00  0.00    -0.298 C  
HETATM   26  C   UNL     1     -13.139   8.710  71.990  1.00  0.00    -0.417 C  
HETATM   27  O   UNL     1     -11.843   9.902  70.350  1.00  0.00    -0.267 OA 
ENDBRANCH  24  25
ENDBRANCH  23  24
ENDBRANCH  21  23
ENDBRANCH   4  21
TORSDOF 4
ENDMDL
MODEL      113
REMARK 921   NORMALIZED FREE ENERGY PREDICTED BY IDOCK:   -3.69 KCAL/MOL
REMARK 922        TOTAL FREE ENERGY PREDICTED BY IDOCK:   -4.12 KCAL/MOL
REMARK 923 INTER-LIGAND FREE ENERGY PREDICTED BY IDOCK:   -5.27 KCAL/MOL
REMARK 924 INTRA-LIGAND FREE ENERGY PREDICTED BY IDOCK:    1.16 KCAL/MOL
REMARK 927      BINDING AFFINITY PREDICTED BY RF-SCORE:    0.00 PKD
ROOT
HETATM    1  C   UNL     1     -11.683   8.825  70.396  1.00  0.00    -0.034 C  
HETATM    2  C   UNL     1     -11.206   8.862  71.740  1.00  0.00    -0.432 C  
HETATM    3  C   UNL     1     -10.170   9.421  70.815  1.00  0.00    -0.368 C  
HETATM    4  C   UNL     1     -10.811   9.726  68.894  1.00  0.00    -0.220 C  
HETATM    5  C   UNL     1      -6.075   5.406  69.108  1.00  0.00    -0.025 C  
HETATM    6  C   UNL     1     -10.999  10.549  69.960  1.00  0.00    -0.351 C  
HETATM    7  C   UNL     1     -11.884  11.714  70.299  1.00  0.00    -0.414 C  
HETATM    8  O   UNL     1      -6.187   3.199  68.163  1.00  0.00    -0.030 OA 
HETATM    9  C   UNL     1      -6.744   4.123  68.742  1.00  0.00    -0.046 C  
HETATM   10  C   UNL     1      -9.149  10.715  69.490  1.00  0.00     0.016 C  
HETATM   11  C   UNL     1      -8.137   4.004  69.202  1.00  0.00    -0.068 C  
HETATM   12  C   UNL     1      -8.563   9.198  68.740  1.00  0.00    -0.131 C  
HETATM   13  C   UNL     1      -9.100   7.669  69.268  1.00  0.00    -0.145 C  
HETATM   14  C   UNL     1      -8.869   6.397  67.036  1.00  0.00    -0.115 C  
HETATM   15  C   UNL     1     -10.753   7.449  69.575  1.00  0.00    -0.233 C  
HETATM   16  C   UNL     1      -8.449   6.434  68.518  1.00  0.00    -0.119 C  
HETATM   17  C   UNL     1      -6.876   6.592  68.584  1.00  0.00    -0.070 C  
HETATM   18  C   UNL     1     -10.922   6.134  70.345  1.00  0.00    -0.404 C  
HETATM   19  C   UNL     1     -10.373   4.949  69.556  1.00  0.00    -0.154 C  
HETATM   20  C   UNL     1      -8.925   5.094  69.135  1.00  0.00    -0.125 C  
ENDROOT
BRANCH   4  21
HETATM   21  C   UNL     1     -11.102  10.931  67.771  1.00  0.00    -0.309 C  
HETATM   22  O   UNL     1     -12.189  11.435  67.478  1.00  0.00    -0.412 OA 
BRANCH  21  23
HETATM   23  C   UNL     1      -9.896  11.462  67.003  1.00  0.00    -0.191 C  
BRANCH  23  24
HETATM   24  O   UNL     1     -10.179  12.780  66.554  1.00  0.00    -0.244 OA 
BRANCH  24  25
HETATM   25  C   UNL     1      -9.560  13.776  67.235  1.00  0.00    -0.237 C  
HETATM   26  C   UNL     1      -8.123  13.432  67.459  1.00  0.00    -0.183 C  
HETATM   27  O   UNL     1     -10.089  14.809  67.616  1.00  0.00    -0.226 OA 
ENDBRANCH  24  25
ENDBRANCH  23  24
ENDBRANCH  21  23
ENDBRANCH   4  21
TORSDOF 4
ENDMDL
MODEL      114
REMARK 921   NORMALIZED FREE ENERGY PREDICTED BY IDOCK:   -3.69 KCAL/MOL
REMARK 922        TOTAL FREE ENERGY PREDICTED BY IDOCK:   -4.11 KCAL/MOL
REMARK 923 INTER-LIGAND FREE ENERGY PREDICTED BY IDOCK:   -4.30 KCAL/MOL
REMARK 924 INTRA-LIGAND FREE ENERGY PREDICTED BY IDOCK:    0.19 KCAL/MOL
REMARK 927      BINDING AFFINITY PREDICTED BY RF-SCORE:    0.00 PKD
ROOT
HETATM    1  C   UNL     1     -10.353   8.191  67.079  1.00  0.00    -0.403 C  
HETATM    2  C   UNL     1     -10.810   9.445  67.581  1.00  0.00    -0.222 C  
HETATM    3  C   UNL     1      -9.325   9.340  67.742  1.00  0.00    -0.145 C  
HETATM    4  C   UNL     1      -8.471   7.738  66.795  1.00  0.00    -0.126 C  
HETATM    5  C   UNL     1      -7.640   7.399  73.146  1.00  0.00    -0.107 C  
HETATM    6  C   UNL     1      -8.812   8.931  66.239  1.00  0.00    -0.187 C  
HETATM    7  C   UNL     1      -9.013   9.474  64.854  1.00  0.00    -0.264 C  
HETATM    8  O   UNL     1      -8.242   5.514  74.510  1.00  0.00    -0.106 OA 
HETATM    9  C   UNL     1      -8.489   6.242  73.557  1.00  0.00    -0.121 C  
HETATM   10  C   UNL     1      -7.257   9.275  67.305  1.00  0.00    -0.087 C  
HETATM   11  C   UNL     1      -9.718   6.071  72.766  1.00  0.00    -0.164 C  
HETATM   12  C   UNL     1      -7.182   8.127  68.678  1.00  0.00    -0.084 C  
HETATM   13  C   UNL     1      -8.587   7.607  69.491  1.00  0.00    -0.132 C  
HETATM   14  C   UNL     1      -7.759   5.276  70.221  1.00  0.00    -0.072 C  
HETATM   15  C   UNL     1      -9.946   7.174  68.573  1.00  0.00    -0.163 C  
HETATM   16  C   UNL     1      -8.332   6.620  70.706  1.00  0.00    -0.129 C  
HETATM   17  C   UNL     1      -7.273   7.293  71.671  1.00  0.00    -0.075 C  
HETATM   18  C   UNL     1     -11.148   7.079  69.520  1.00  0.00    -0.221 C  
HETATM   19  C   UNL     1     -10.912   6.052  70.624  1.00  0.00    -0.376 C  
HETATM   20  C   UNL     1      -9.657   6.286  71.438  1.00  0.00    -0.170 C  
ENDROOT
BRANCH   4  21
HETATM   21  C   UNL     1      -7.415   7.338  65.561  1.00  0.00    -0.085 C  
HETATM   22  O   UNL     1      -6.346   7.888  65.283  1.00  0.00    -0.041 OA 
BRANCH  21  23
HETATM   23  C   UNL     1      -7.818   6.176  64.659  1.00  0.00    -0.113 C  
BRANCH  23  24
HETATM   24  O   UNL     1      -8.206   5.076  65.470  1.00  0.00    -0.111 OA 
BRANCH  24  25
HETATM   25  C   UNL     1      -9.302   4.397  65.051  1.00  0.00    -0.164 C  
HETATM   26  C   UNL     1     -10.473   4.716  65.924  1.00  0.00    -0.305 C  
HETATM   27  O   UNL     1      -9.340   3.633  64.099  1.00  0.00    -0.126 OA 
ENDBRANCH  24  25
ENDBRANCH  23  24
ENDBRANCH  21  23
ENDBRANCH   4  21
TORSDOF 4
ENDMDL
MODEL      115
REMARK 921   NORMALIZED FREE ENERGY PREDICTED BY IDOCK:   -3.69 KCAL/MOL
REMARK 922        TOTAL FREE ENERGY PREDICTED BY IDOCK:   -4.11 KCAL/MOL
REMARK 923 INTER-LIGAND FREE ENERGY PREDICTED BY IDOCK:   -5.43 KCAL/MOL
REMARK 924 INTRA-LIGAND FREE ENERGY PREDICTED BY IDOCK:    1.32 KCAL/MOL
REMARK 927      BINDING AFFINITY PREDICTED BY RF-SCORE:    0.00 PKD
ROOT
HETATM    1  C   UNL     1      -6.332  12.130  67.870  1.00  0.00    -0.078 C  
HETATM    2  C   UNL     1      -6.127  12.265  69.274  1.00  0.00    -0.094 C  
HETATM    3  C   UNL     1      -7.574  12.001  68.991  1.00  0.00     0.056 C  
HETATM    4  C   UNL     1      -7.987  11.478  67.055  1.00  0.00    -0.161 C  
HETATM    5  C   UNL     1     -10.884  16.974  68.648  1.00  0.00    -0.284 C  
HETATM    6  C   UNL     1      -7.534  10.663  68.045  1.00  0.00    -0.090 C  
HETATM    7  C   UNL     1      -6.904   9.303  68.139  1.00  0.00    -0.064 C  
HETATM    8  O   UNL     1     -10.690  19.033  67.423  1.00  0.00    -0.461 OA 
HETATM    9  C   UNL     1     -10.171  18.003  67.835  1.00  0.00    -0.378 C  
HETATM   10  C   UNL     1      -9.370  11.020  68.460  1.00  0.00    -0.188 C  
HETATM   11  C   UNL     1      -8.742  17.731  67.617  1.00  0.00    -0.244 C  
HETATM   12  C   UNL     1      -9.849  12.622  67.818  1.00  0.00    -0.212 C  
HETATM   13  C   UNL     1      -8.776  13.946  67.818  1.00  0.00    -0.187 C  
HETATM   14  C   UNL     1      -9.695  15.175  65.744  1.00  0.00    -0.379 C  
HETATM   15  C   UNL     1      -7.170  13.694  67.336  1.00  0.00    -0.108 C  
HETATM   16  C   UNL     1      -9.379  15.297  67.247  1.00  0.00    -0.212 C  
HETATM   17  C   UNL     1     -10.729  15.596  68.015  1.00  0.00    -0.287 C  
HETATM   18  C   UNL     1      -6.352  14.925  67.744  1.00  0.00    -0.174 C  
HETATM   19  C   UNL     1      -6.898  16.197  67.102  1.00  0.00    -0.240 C  
HETATM   20  C   UNL     1      -8.363  16.460  67.382  1.00  0.00    -0.183 C  
ENDROOT
BRANCH   4  21
HETATM   21  C   UNL     1      -8.548  10.212  66.117  1.00  0.00    -0.139 C  
HETATM   22  O   UNL     1      -7.949   9.629  65.209  1.00  0.00    -0.108 OA 
BRANCH  21  23
HETATM   23  C   UNL     1      -9.967   9.726  66.395  1.00  0.00    -0.247 C  
BRANCH  23  24
HETATM   24  O   UNL     1     -10.026   8.324  66.174  1.00  0.00    -0.178 OA 
BRANCH  24  25
HETATM   25  C   UNL     1     -10.355   7.575  67.255  1.00  0.00    -0.296 C  
HETATM   26  C   UNL     1     -10.374   6.125  66.892  1.00  0.00    -0.307 C  
HETATM   27  O   UNL     1     -10.603   8.010  68.370  1.00  0.00    -0.186 OA 
ENDBRANCH  24  25
ENDBRANCH  23  24
ENDBRANCH  21  23
ENDBRANCH   4  21
TORSDOF 4
ENDMDL
MODEL      116
REMARK 921   NORMALIZED FREE ENERGY PREDICTED BY IDOCK:   -3.68 KCAL/MOL
REMARK 922        TOTAL FREE ENERGY PREDICTED BY IDOCK:   -4.10 KCAL/MOL
REMARK 923 INTER-LIGAND FREE ENERGY PREDICTED BY IDOCK:   -5.57 KCAL/MOL
REMARK 924 INTRA-LIGAND FREE ENERGY PREDICTED BY IDOCK:    1.47 KCAL/MOL
REMARK 927      BINDING AFFINITY PREDICTED BY RF-SCORE:    0.00 PKD
ROOT
HETATM    1  C   UNL     1      -8.563   8.621  64.299  1.00  0.00    -0.048 C  
HETATM    2  C   UNL     1      -7.302   9.054  63.795  1.00  0.00    -0.101 C  
HETATM    3  C   UNL     1      -7.378   9.309  65.269  1.00  0.00    -0.094 C  
HETATM    4  C   UNL     1      -8.996   8.469  66.202  1.00  0.00    -0.220 C  
HETATM    5  C   UNL     1      -9.124  14.866  66.640  1.00  0.00    -0.309 C  
HETATM    6  C   UNL     1      -7.826   7.855  65.880  1.00  0.00    -0.101 C  
HETATM    7  C   UNL     1      -7.329   6.444  65.758  1.00  0.00    -0.080 C  
HETATM    8  O   UNL     1     -10.975  16.250  65.979  1.00  0.00    -0.172 OA 
HETATM    9  C   UNL     1     -10.282  15.260  65.783  1.00  0.00    -0.349 C  
HETATM   10  C   UNL     1      -7.425   9.004  67.361  1.00  0.00    -0.085 C  
HETATM   11  C   UNL     1     -10.496  14.401  64.608  1.00  0.00    -0.286 C  
HETATM   12  C   UNL     1      -8.528  10.414  67.365  1.00  0.00    -0.121 C  
HETATM   13  C   UNL     1      -9.045  11.155  65.919  1.00  0.00    -0.218 C  
HETATM   14  C   UNL     1     -11.339  12.008  66.732  1.00  0.00    -0.398 C  
HETATM   15  C   UNL     1      -9.527  10.169  64.627  1.00  0.00    -0.357 C  
HETATM   16  C   UNL     1      -9.989  12.414  66.112  1.00  0.00    -0.267 C  
HETATM   17  C   UNL     1      -9.271  13.421  67.099  1.00  0.00    -0.240 C  
HETATM   18  C   UNL     1      -9.611  11.042  63.369  1.00  0.00    -0.361 C  
HETATM   19  C   UNL     1     -10.600  12.190  63.550  1.00  0.00    -0.501 C  
HETATM   20  C   UNL     1     -10.321  13.073  64.749  1.00  0.00    -0.356 C  
ENDROOT
BRANCH   4  21
HETATM   21  C   UNL     1      -9.417   7.316  67.338  1.00  0.00    -0.132 C  
HETATM   22  O   UNL     1     -10.405   6.577  67.325  1.00  0.00    -0.166 OA 
BRANCH  21  23
HETATM   23  C   UNL     1      -8.490   7.164  68.540  1.00  0.00    -0.125 C  
BRANCH  23  24
HETATM   24  O   UNL     1      -8.844   5.984  69.248  1.00  0.00    -0.122 OA 
BRANCH  24  25
HETATM   25  C   UNL     1      -8.651   6.027  70.589  1.00  0.00    -0.134 C  
HETATM   26  C   UNL     1      -7.579   7.013  70.927  1.00  0.00    -0.086 C  
HETATM   27  O   UNL     1      -9.259   5.361  71.414  1.00  0.00    -0.143 OA 
ENDBRANCH  24  25
ENDBRANCH  23  24
ENDBRANCH  21  23
ENDBRANCH   4  21
TORSDOF 4
ENDMDL
MODEL      117
REMARK 921   NORMALIZED FREE ENERGY PREDICTED BY IDOCK:   -3.66 KCAL/MOL
REMARK 922        TOTAL FREE ENERGY PREDICTED BY IDOCK:   -4.08 KCAL/MOL
REMARK 923 INTER-LIGAND FREE ENERGY PREDICTED BY IDOCK:   -4.47 KCAL/MOL
REMARK 924 INTRA-LIGAND FREE ENERGY PREDICTED BY IDOCK:    0.38 KCAL/MOL
REMARK 927      BINDING AFFINITY PREDICTED BY RF-SCORE:    0.00 PKD
ROOT
HETATM    1  C   UNL     1      -7.759   7.439  72.038  1.00  0.00    -0.090 C  
HETATM    2  C   UNL     1      -7.481   8.703  72.636  1.00  0.00     0.010 C  
HETATM    3  C   UNL     1      -8.948   8.579  72.361  1.00  0.00    -0.284 C  
HETATM    4  C   UNL     1      -9.558   6.710  71.790  1.00  0.00    -0.161 C  
HETATM    5  C   UNL     1     -10.616  11.018  67.158  1.00  0.00    -0.294 C  
HETATM    6  C   UNL     1      -9.342   7.148  73.059  1.00  0.00    -0.187 C  
HETATM    7  C   UNL     1      -9.148   6.527  74.412  1.00  0.00    -0.206 C  
HETATM    8  O   UNL     1      -9.848  10.811  64.889  1.00  0.00    -0.243 OA 
HETATM    9  C   UNL     1      -9.651  10.634  66.085  1.00  0.00    -0.188 C  
HETATM   10  C   UNL     1     -10.972   7.979  72.488  1.00  0.00    -0.430 C  
HETATM   11  C   UNL     1      -8.377  10.084  66.574  1.00  0.00    -0.126 C  
HETATM   12  C   UNL     1     -10.965   8.198  70.711  1.00  0.00    -0.261 C  
HETATM   13  C   UNL     1      -9.544   8.601  69.861  1.00  0.00    -0.174 C  
HETATM   14  C   UNL     1     -10.112   7.466  67.616  1.00  0.00    -0.240 C  
HETATM   15  C   UNL     1      -8.104   7.796  70.253  1.00  0.00    -0.113 C  
HETATM   16  C   UNL     1      -9.729   8.792  68.298  1.00  0.00    -0.175 C  
HETATM   17  C   UNL     1     -10.903   9.828  68.066  1.00  0.00    -0.276 C  
HETATM   18  C   UNL     1      -6.941   8.561  69.610  1.00  0.00    -0.047 C  
HETATM   19  C   UNL     1      -7.098   8.646  68.094  1.00  0.00    -0.082 C  
HETATM   20  C   UNL     1      -8.407   9.253  67.634  1.00  0.00    -0.116 C  
ENDROOT
BRANCH   4  21
HETATM   21  C   UNL     1     -10.503   5.419  72.279  1.00  0.00    -0.219 C  
HETATM   22  O   UNL     1     -11.272   5.377  73.242  1.00  0.00    -0.296 OA 
BRANCH  21  23
HETATM   23  C   UNL     1     -10.395   4.137  71.458  1.00  0.00     0.050 C  
BRANCH  23  24
HETATM   24  O   UNL     1      -9.550   4.375  70.342  1.00  0.00    -0.160 OA 
BRANCH  24  25
HETATM   25  C   UNL     1      -8.514   3.513  70.198  1.00  0.00    -0.059 C  
HETATM   26  C   UNL     1      -7.384   4.177  69.479  1.00  0.00    -0.050 C  
HETATM   27  O   UNL     1      -8.493   2.357  70.595  1.00  0.00    -0.048 OA 
ENDBRANCH  24  25
ENDBRANCH  23  24
ENDBRANCH  21  23
ENDBRANCH   4  21
TORSDOF 4
ENDMDL
MODEL      118
REMARK 921   NORMALIZED FREE ENERGY PREDICTED BY IDOCK:   -3.59 KCAL/MOL
REMARK 922        TOTAL FREE ENERGY PREDICTED BY IDOCK:   -3.98 KCAL/MOL
REMARK 923 INTER-LIGAND FREE ENERGY PREDICTED BY IDOCK:   -4.56 KCAL/MOL
REMARK 924 INTRA-LIGAND FREE ENERGY PREDICTED BY IDOCK:    0.58 KCAL/MOL
REMARK 927      BINDING AFFINITY PREDICTED BY RF-SCORE:    0.00 PKD
ROOT
HETATM    1  C   UNL     1      -7.710   6.673  68.322  1.00  0.00    -0.105 C  
HETATM    2  C   UNL     1      -7.933   6.907  69.711  1.00  0.00    -0.124 C  
HETATM    3  C   UNL     1      -9.226   7.005  68.963  1.00  0.00    -0.137 C  
HETATM    4  C   UNL     1      -9.135   6.395  67.010  1.00  0.00    -0.130 C  
HETATM    5  C   UNL     1     -10.680  12.605  67.436  1.00  0.00    -0.251 C  
HETATM    6  C   UNL     1      -9.274   5.606  68.109  1.00  0.00    -0.114 C  
HETATM    7  C   UNL     1      -9.126   4.148  68.434  1.00  0.00    -0.179 C  
HETATM    8  O   UNL     1      -9.524  14.387  66.311  1.00  0.00    -0.290 OA 
HETATM    9  C   UNL     1      -9.481  13.310  66.892  1.00  0.00    -0.249 C  
HETATM   10  C   UNL     1     -10.963   6.481  67.876  1.00  0.00    -0.382 C  
HETATM   11  C   UNL     1      -8.199  12.646  67.173  1.00  0.00    -0.159 C  
HETATM   12  C   UNL     1     -10.732   8.069  67.082  1.00  0.00    -0.285 C  
HETATM   13  C   UNL     1      -9.381   9.054  67.418  1.00  0.00    -0.167 C  
HETATM   14  C   UNL     1      -9.201  10.240  65.135  1.00  0.00    -0.252 C  
HETATM   15  C   UNL     1      -7.850   8.332  67.509  1.00  0.00    -0.106 C  
HETATM   16  C   UNL     1      -9.357  10.443  66.653  1.00  0.00    -0.185 C  
HETATM   17  C   UNL     1     -10.735  11.173  66.918  1.00  0.00    -0.322 C  
HETATM   18  C   UNL     1      -6.886   9.340  68.146  1.00  0.00    -0.064 C  
HETATM   19  C   UNL     1      -6.810  10.631  67.335  1.00  0.00    -0.077 C  
HETATM   20  C   UNL     1      -8.147  11.302  67.101  1.00  0.00    -0.150 C  
ENDROOT
BRANCH   4  21
HETATM   21  C   UNL     1      -9.709   5.225  65.961  1.00  0.00    -0.139 C  
HETATM   22  O   UNL     1     -10.826   4.701  65.962  1.00  0.00    -0.240 OA 
BRANCH  21  23
HETATM   23  C   UNL     1      -8.744   4.729  64.889  1.00  0.00    -0.148 C  
BRANCH  23  24
HETATM   24  O   UNL     1      -7.887   3.749  65.458  1.00  0.00    -0.091 OA 
BRANCH  24  25
HETATM   25  C   UNL     1      -7.990   2.505  64.930  1.00  0.00    -0.081 C  
HETATM   26  C   UNL     1      -6.633   1.973  64.593  1.00  0.00    -0.023 C  
HETATM   27  O   UNL     1      -9.033   1.895  64.749  1.00  0.00    -0.111 OA 
ENDBRANCH  24  25
ENDBRANCH  23  24
ENDBRANCH  21  23
ENDBRANCH   4  21
TORSDOF 4
ENDMDL
MODEL      119
REMARK 921   NORMALIZED FREE ENERGY PREDICTED BY IDOCK:   -3.56 KCAL/MOL
REMARK 922        TOTAL FREE ENERGY PREDICTED BY IDOCK:   -3.95 KCAL/MOL
REMARK 923 INTER-LIGAND FREE ENERGY PREDICTED BY IDOCK:   -4.74 KCAL/MOL
REMARK 924 INTRA-LIGAND FREE ENERGY PREDICTED BY IDOCK:    0.79 KCAL/MOL
REMARK 927      BINDING AFFINITY PREDICTED BY RF-SCORE:    0.00 PKD
ROOT
HETATM    1  C   UNL     1      -8.010   7.277  64.998  1.00  0.00    -0.129 C  
HETATM    2  C   UNL     1      -6.973   8.245  65.141  1.00  0.00    -0.074 C  
HETATM    3  C   UNL     1      -6.868   7.219  66.226  1.00  0.00    -0.058 C  
HETATM    4  C   UNL     1      -8.089   5.593  65.990  1.00  0.00    -0.109 C  
HETATM    5  C   UNL     1      -9.558   8.849  71.317  1.00  0.00    -0.348 C  
HETATM    6  C   UNL     1      -6.879   5.799  65.405  1.00  0.00    -0.055 C  
HETATM    7  C   UNL     1      -6.108   5.223  64.253  1.00  0.00    -0.022 C  
HETATM    8  O   UNL     1     -11.750   9.669  71.864  1.00  0.00    -0.357 OA 
HETATM    9  C   UNL     1     -10.895   9.441  71.017  1.00  0.00    -0.336 C  
HETATM   10  C   UNL     1      -6.511   5.399  67.243  1.00  0.00    -0.051 C  
HETATM   11  C   UNL     1     -11.099   9.815  69.609  1.00  0.00    -0.251 C  
HETATM   12  C   UNL     1      -7.884   5.910  68.274  1.00  0.00    -0.105 C  
HETATM   13  C   UNL     1      -8.776   7.325  67.946  1.00  0.00    -0.123 C  
HETATM   14  C   UNL     1     -11.042   6.578  68.925  1.00  0.00    -0.371 C  
HETATM   15  C   UNL     1      -9.228   7.650  66.344  1.00  0.00    -0.223 C  
HETATM   16  C   UNL     1      -9.932   7.644  68.983  1.00  0.00    -0.181 C  
HETATM   17  C   UNL     1      -9.306   7.631  70.436  1.00  0.00    -0.160 C  
HETATM   18  C   UNL     1      -9.702   9.106  66.270  1.00  0.00    -0.344 C  
HETATM   19  C   UNL     1     -10.878   9.360  67.209  1.00  0.00    -0.165 C  
HETATM   20  C   UNL     1     -10.614   8.997  68.655  1.00  0.00    -0.194 C  
ENDROOT
BRANCH   4  21
HETATM   21  C   UNL     1      -8.058   3.941  65.727  1.00  0.00    -0.097 C  
HETATM   22  O   UNL     1      -7.731   3.061  66.527  1.00  0.00    -0.075 OA 
BRANCH  21  23
HETATM   23  C   UNL     1      -8.460   3.457  64.337  1.00  0.00    -0.093 C  
BRANCH  23  24
HETATM   24  O   UNL     1      -9.675   2.728  64.437  1.00  0.00    -0.152 OA 
BRANCH  24  25
HETATM   25  C   UNL     1     -10.592   2.983  63.472  1.00  0.00    -0.237 C  
HETATM   26  C   UNL     1     -11.279   1.720  63.064  1.00  0.00    -0.263 C  
HETATM   27  O   UNL     1     -10.832   4.082  62.995  1.00  0.00    -0.167 OA 
ENDBRANCH  24  25
ENDBRANCH  23  24
ENDBRANCH  21  23
ENDBRANCH   4  21
TORSDOF 4
ENDMDL
MODEL      120
REMARK 921   NORMALIZED FREE ENERGY PREDICTED BY IDOCK:   -3.52 KCAL/MOL
REMARK 922        TOTAL FREE ENERGY PREDICTED BY IDOCK:   -3.90 KCAL/MOL
REMARK 923 INTER-LIGAND FREE ENERGY PREDICTED BY IDOCK:   -5.46 KCAL/MOL
REMARK 924 INTRA-LIGAND FREE ENERGY PREDICTED BY IDOCK:    1.55 KCAL/MOL
REMARK 927      BINDING AFFINITY PREDICTED BY RF-SCORE:    0.00 PKD
ROOT
HETATM    1  C   UNL     1     -11.057  12.856  70.010  1.00  0.00     0.396 C  
HETATM    2  C   UNL     1     -12.475  12.965  69.914  1.00  0.00    -0.034 C  
HETATM    3  C   UNL     1     -11.893  12.674  68.566  1.00  0.00    -0.342 C  
HETATM    4  C   UNL     1      -9.905  12.182  68.579  1.00  0.00    -0.167 C  
HETATM    5  C   UNL     1     -10.945  17.573  65.264  1.00  0.00     0.232 C  
HETATM    6  C   UNL     1     -10.954  11.357  68.839  1.00  0.00    -0.276 C  
HETATM    7  C   UNL     1     -11.155  10.011  69.472  1.00  0.00    -0.279 C  
HETATM    8  O   UNL     1      -9.820  19.662  65.652  1.00  0.00    -0.374 OA 
HETATM    9  C   UNL     1     -10.315  18.636  66.102  1.00  0.00    -0.443 C  
HETATM   10  C   UNL     1     -10.983  11.662  66.947  1.00  0.00    -0.342 C  
HETATM   11  C   UNL     1     -10.396  18.402  67.552  1.00  0.00    -0.416 C  
HETATM   12  C   UNL     1     -10.281  13.265  66.569  1.00  0.00    -0.283 C  
HETATM   13  C   UNL     1     -10.525  14.615  67.581  1.00  0.00    -0.243 C  
HETATM   14  C   UNL     1      -8.325  15.865  67.080  1.00  0.00    -0.231 C  
HETATM   15  C   UNL     1     -10.385  14.410  69.258  1.00  0.00    -0.116 C  
HETATM   16  C   UNL     1      -9.862  15.963  67.073  1.00  0.00    -0.236 C  
HETATM   17  C   UNL     1     -10.337  16.213  65.585  1.00  0.00    -0.405 C  
HETATM   18  C   UNL     1     -10.974  15.651  69.939  1.00  0.00    -0.323 C  
HETATM   19  C   UNL     1     -10.252  16.924  69.504  1.00  0.00    -0.139 C  
HETATM   20  C   UNL     1     -10.225  17.146  68.006  1.00  0.00    -0.332 C  
ENDROOT
BRANCH   4  21
HETATM   21  C   UNL     1      -8.850  10.924  68.260  1.00  0.00    -0.140 C  
HETATM   22  O   UNL     1      -7.728  10.746  68.742  1.00  0.00    -0.104 OA 
BRANCH  21  23
HETATM   23  C   UNL     1      -9.310   9.880  67.247  1.00  0.00    -0.145 C  
BRANCH  23  24
HETATM   24  O   UNL     1      -8.395   8.794  67.256  1.00  0.00    -0.104 OA 
BRANCH  24  25
HETATM   25  C   UNL     1      -8.813   7.672  66.622  1.00  0.00    -0.142 C  
HETATM   26  C   UNL     1     -10.197   7.315  67.060  1.00  0.00    -0.348 C  
HETATM   27  O   UNL     1      -8.162   7.034  65.807  1.00  0.00    -0.119 OA 
ENDBRANCH  24  25
ENDBRANCH  23  24
ENDBRANCH  21  23
ENDBRANCH   4  21
TORSDOF 4
ENDMDL
MODEL      121
REMARK 921   NORMALIZED FREE ENERGY PREDICTED BY IDOCK:   -3.41 KCAL/MOL
REMARK 922        TOTAL FREE ENERGY PREDICTED BY IDOCK:   -3.77 KCAL/MOL
REMARK 923 INTER-LIGAND FREE ENERGY PREDICTED BY IDOCK:   -4.78 KCAL/MOL
REMARK 924 INTRA-LIGAND FREE ENERGY PREDICTED BY IDOCK:    1.01 KCAL/MOL
REMARK 927      BINDING AFFINITY PREDICTED BY RF-SCORE:    0.00 PKD
ROOT
HETATM    1  C   UNL     1     -10.961   7.289  70.075  1.00  0.00    -0.273 C  
HETATM    2  C   UNL     1     -11.056   6.255  69.098  1.00  0.00    -0.457 C  
HETATM    3  C   UNL     1      -9.714   6.211  69.760  1.00  0.00    -0.187 C  
HETATM    4  C   UNL     1      -9.525   7.428  71.396  1.00  0.00    -0.160 C  
HETATM    5  C   UNL     1      -5.466   9.149  66.737  1.00  0.00    -0.039 C  
HETATM    6  C   UNL     1     -10.082   6.189  71.358  1.00  0.00    -0.230 C  
HETATM    7  C   UNL     1     -10.975   5.363  72.239  1.00  0.00    -0.277 C  
HETATM    8  O   UNL     1      -5.296  11.362  65.814  1.00  0.00    -0.267 OA 
HETATM    9  C   UNL     1      -5.994  10.466  66.272  1.00  0.00    -0.084 C  
HETATM   10  C   UNL     1      -8.192   5.917  71.199  1.00  0.00    -0.123 C  
HETATM   11  C   UNL     1      -7.458  10.595  66.328  1.00  0.00    -0.137 C  
HETATM   12  C   UNL     1      -7.427   7.338  70.422  1.00  0.00    -0.083 C  
HETATM   13  C   UNL     1      -8.200   8.204  69.174  1.00  0.00    -0.123 C  
HETATM   14  C   UNL     1      -7.160  10.521  69.623  1.00  0.00    -0.141 C  
HETATM   15  C   UNL     1      -9.847   8.572  69.336  1.00  0.00    -0.185 C  
HETATM   16  C   UNL     1      -7.362   9.410  68.576  1.00  0.00    -0.079 C  
HETATM   17  C   UNL     1      -5.938   8.859  68.157  1.00  0.00    -0.046 C  
HETATM   18  C   UNL     1     -10.368   9.033  67.970  1.00  0.00    -0.275 C  
HETATM   19  C   UNL     1      -9.606  10.255  67.464  1.00  0.00    -0.180 C  
HETATM   20  C   UNL     1      -8.105  10.067  67.385  1.00  0.00    -0.114 C  
ENDROOT
BRANCH   4  21
HETATM   21  C   UNL     1      -9.291   7.393  73.052  1.00  0.00    -0.178 C  
HETATM   22  O   UNL     1     -10.155   7.432  73.931  1.00  0.00    -0.313 OA 
BRANCH  21  23
HETATM   23  C   UNL     1      -7.848   7.322  73.542  1.00  0.00    -0.102 C  
BRANCH  23  24
HETATM   24  O   UNL     1      -7.381   8.640  73.794  1.00  0.00    -0.349 OA 
BRANCH  24  25
HETATM   25  C   UNL     1      -6.084   8.872  73.479  1.00  0.00    -0.012 C  
HETATM   26  C   UNL     1      -5.251   7.673  73.803  1.00  0.00    -0.045 C  
HETATM   27  O   UNL     1      -5.644   9.906  72.999  1.00  0.00    -0.317 OA 
ENDBRANCH  24  25
ENDBRANCH  23  24
ENDBRANCH  21  23
ENDBRANCH   4  21
TORSDOF 4
ENDMDL
MODEL      122
REMARK 921   NORMALIZED FREE ENERGY PREDICTED BY IDOCK:   -3.40 KCAL/MOL
REMARK 922        TOTAL FREE ENERGY PREDICTED BY IDOCK:   -3.75 KCAL/MOL
REMARK 923 INTER-LIGAND FREE ENERGY PREDICTED BY IDOCK:   -4.85 KCAL/MOL
REMARK 924 INTRA-LIGAND FREE ENERGY PREDICTED BY IDOCK:    1.10 KCAL/MOL
REMARK 927      BINDING AFFINITY PREDICTED BY RF-SCORE:    0.00 PKD
ROOT
HETATM    1  C   UNL     1      -7.829   8.011  67.809  1.00  0.00    -0.126 C  
HETATM    2  C   UNL     1      -8.053   8.978  66.786  1.00  0.00    -0.111 C  
HETATM    3  C   UNL     1      -9.335   8.279  67.118  1.00  0.00    -0.189 C  
HETATM    4  C   UNL     1      -9.253   7.081  68.776  1.00  0.00    -0.132 C  
HETATM    5  C   UNL     1     -10.544   3.668  63.501  1.00  0.00    -0.266 C  
HETATM    6  C   UNL     1      -9.433   8.428  68.748  1.00  0.00    -0.147 C  
HETATM    7  C   UNL     1      -9.348   9.563  69.727  1.00  0.00    -0.227 C  
HETATM    8  O   UNL     1      -9.307   1.739  62.777  1.00  0.00    -0.089 OA 
HETATM    9  C   UNL     1      -9.314   2.849  63.295  1.00  0.00    -0.094 C  
HETATM   10  C   UNL     1     -11.083   7.667  68.138  1.00  0.00     0.214 C  
HETATM   11  C   UNL     1      -8.062   3.510  63.695  1.00  0.00    -0.088 C  
HETATM   12  C   UNL     1     -10.780   6.089  67.346  1.00  0.00    -0.393 C  
HETATM   13  C   UNL     1      -9.393   5.814  66.394  1.00  0.00    -0.168 C  
HETATM   14  C   UNL     1      -9.145   3.281  66.813  1.00  0.00    -0.186 C  
HETATM   15  C   UNL     1      -7.893   6.365  66.961  1.00  0.00    -0.104 C  
HETATM   16  C   UNL     1      -9.305   4.372  65.739  1.00  0.00    -0.162 C  
HETATM   17  C   UNL     1     -10.655   4.106  64.957  1.00  0.00    -0.158 C  
HETATM   18  C   UNL     1      -6.894   6.304  65.800  1.00  0.00    -0.053 C  
HETATM   19  C   UNL     1      -6.759   4.886  65.252  1.00  0.00    -0.052 C  
HETATM   20  C   UNL     1      -8.065   4.256  64.816  1.00  0.00    -0.094 C  
ENDROOT
BRANCH   4  21
HETATM   21  C   UNL     1      -9.866   6.919  70.324  1.00  0.00    -0.178 C  
HETATM   22  O   UNL     1      -9.278   7.129  71.388  1.00  0.00    -0.150 OA 
BRANCH  21  23
HETATM   23  C   UNL     1     -11.309   6.442  70.447  1.00  0.00    -0.389 C  
BRANCH  23  24
HETATM   24  O   UNL     1     -11.830   6.863  71.699  1.00  0.00    -0.287 OA 
BRANCH  24  25
HETATM   25  C   UNL     1     -12.909   7.681  71.640  1.00  0.00    -0.349 C  
HETATM   26  C   UNL     1     -12.480   9.110  71.733  1.00  0.00    -0.447 C  
HETATM   27  O   UNL     1     -14.069   7.316  71.526  1.00  0.00    -0.419 OA 
ENDBRANCH  24  25
ENDBRANCH  23  24
ENDBRANCH  21  23
ENDBRANCH   4  21
TORSDOF 4
ENDMDL
MODEL      123
REMARK 921   NORMALIZED FREE ENERGY PREDICTED BY IDOCK:   -3.39 KCAL/MOL
REMARK 922        TOTAL FREE ENERGY PREDICTED BY IDOCK:   -3.75 KCAL/MOL
REMARK 923 INTER-LIGAND FREE ENERGY PREDICTED BY IDOCK:   -5.50 KCAL/MOL
REMARK 924 INTRA-LIGAND FREE ENERGY PREDICTED BY IDOCK:    1.76 KCAL/MOL
REMARK 927      BINDING AFFINITY PREDICTED BY RF-SCORE:    0.00 PKD
ROOT
HETATM    1  C   UNL     1     -11.351  13.528  65.151  1.00  0.00    -0.315 C  
HETATM    2  C   UNL     1     -10.542  13.380  63.987  1.00  0.00    -0.122 C  
HETATM    3  C   UNL     1      -9.722  13.132  65.215  1.00  0.00     0.009 C  
HETATM    4  C   UNL     1     -10.798  13.003  66.952  1.00  0.00    -0.282 C  
HETATM    5  C   UNL     1      -6.728  17.958  67.101  1.00  0.00    -0.200 C  
HETATM    6  C   UNL     1     -10.601  12.018  66.036  1.00  0.00    -0.303 C  
HETATM    7  C   UNL     1     -11.219  10.689  65.710  1.00  0.00     0.397 C  
HETATM    8  O   UNL     1      -7.349  20.229  67.584  1.00  0.00    -0.282 OA 
HETATM    9  C   UNL     1      -7.620  19.155  67.064  1.00  0.00    -0.227 C  
HETATM   10  C   UNL     1      -8.930  12.221  66.952  1.00  0.00    -0.207 C  
HETATM   11  C   UNL     1      -8.849  18.980  66.274  1.00  0.00    -0.285 C  
HETATM   12  C   UNL     1      -8.748  13.904  67.537  1.00  0.00    -0.194 C  
HETATM   13  C   UNL     1      -9.311  15.235  66.634  1.00  0.00    -0.285 C  
HETATM   14  C   UNL     1      -9.823  16.831  68.594  1.00  0.00    -0.261 C  
HETATM   15  C   UNL     1     -10.841  15.140  65.911  1.00  0.00    -0.342 C  
HETATM   16  C   UNL     1      -9.032  16.654  67.285  1.00  0.00    -0.211 C  
HETATM   17  C   UNL     1      -7.488  16.744  67.622  1.00  0.00    -0.170 C  
HETATM   18  C   UNL     1     -10.963  16.287  64.901  1.00  0.00    -0.321 C  
HETATM   19  C   UNL     1     -10.785  17.645  65.574  1.00  0.00    -0.037 C  
HETATM   20  C   UNL     1      -9.490  17.797  66.345  1.00  0.00    -0.277 C  
ENDROOT
BRANCH   4  21
HETATM   21  C   UNL     1     -11.222  11.937  68.171  1.00  0.00    -0.258 C  
HETATM   22  O   UNL     1     -12.087  12.095  69.035  1.00  0.00    -0.267 OA 
BRANCH  21  23
HETATM   23  C   UNL     1     -10.445  10.627  68.240  1.00  0.00    -0.187 C  
BRANCH  23  24
HETATM   24  O   UNL     1     -10.792   9.948  69.439  1.00  0.00    -0.221 OA 
BRANCH  24  25
HETATM   25  C   UNL     1      -9.759   9.391  70.116  1.00  0.00    -0.235 C  
HETATM   26  C   UNL     1      -8.730   8.879  69.160  1.00  0.00    -0.132 C  
HETATM   27  O   UNL     1      -9.669   9.312  71.332  1.00  0.00    -0.284 OA 
ENDBRANCH  24  25
ENDBRANCH  23  24
ENDBRANCH  21  23
ENDBRANCH   4  21
TORSDOF 4
ENDMDL
MODEL      124
REMARK 921   NORMALIZED FREE ENERGY PREDICTED BY IDOCK:   -3.39 KCAL/MOL
REMARK 922        TOTAL FREE ENERGY PREDICTED BY IDOCK:   -3.74 KCAL/MOL
REMARK 923 INTER-LIGAND FREE ENERGY PREDICTED BY IDOCK:   -4.25 KCAL/MOL
REMARK 924 INTRA-LIGAND FREE ENERGY PREDICTED BY IDOCK:    0.51 KCAL/MOL
REMARK 927      BINDING AFFINITY PREDICTED BY RF-SCORE:    0.00 PKD
ROOT
HETATM    1  C   UNL     1      -9.356  16.399  69.053  1.00  0.00    -0.248 C  
HETATM    2  C   UNL     1      -8.214  16.006  69.810  1.00  0.00     0.325 C  
HETATM    3  C   UNL     1      -8.439  15.042  68.687  1.00  0.00    -0.168 C  
HETATM    4  C   UNL     1      -9.850  15.629  67.323  1.00  0.00    -0.225 C  
HETATM    5  C   UNL     1     -11.587  10.209  70.281  1.00  0.00    -0.379 C  
HETATM    6  C   UNL     1      -8.547  16.016  67.372  1.00  0.00    -0.194 C  
HETATM    7  C   UNL     1      -7.709  17.112  66.779  1.00  0.00    -0.279 C  
HETATM    8  O   UNL     1     -13.681   9.874  71.412  1.00  0.00    -0.271 OA 
HETATM    9  C   UNL     1     -12.753  10.617  71.119  1.00  0.00    -0.422 C  
HETATM   10  C   UNL     1      -8.532  14.204  66.747  1.00  0.00    -0.029 C  
HETATM   11  C   UNL     1     -12.678  11.987  71.650  1.00  0.00    -0.326 C  
HETATM   12  C   UNL     1      -9.949  13.317  67.389  1.00  0.00    -0.233 C  
HETATM   13  C   UNL     1     -10.547  13.597  68.961  1.00  0.00    -0.147 C  
HETATM   14  C   UNL     1     -13.025  13.028  68.528  1.00  0.00     2.136 C  
HETATM   15  C   UNL     1     -10.692  15.196  69.504  1.00  0.00    -0.273 C  
HETATM   16  C   UNL     1     -11.784  12.697  69.378  1.00  0.00    -0.387 C  
HETATM   17  C   UNL     1     -11.397  11.183  69.124  1.00  0.00    -0.340 C  
HETATM   18  C   UNL     1     -10.915  15.165  71.021  1.00  0.00    -0.216 C  
HETATM   19  C   UNL     1     -12.167  14.372  71.386  1.00  0.00    -0.424 C  
HETATM   20  C   UNL     1     -12.187  12.955  70.852  1.00  0.00    -0.290 C  
ENDROOT
BRANCH   4  21
HETATM   21  C   UNL     1     -10.038  16.075  65.722  1.00  0.00    -0.366 C  
HETATM   22  O   UNL     1      -9.886  15.365  64.724  1.00  0.00    -0.153 OA 
BRANCH  21  23
HETATM   23  C   UNL     1     -10.422  17.526  65.452  1.00  0.00     0.052 C  
BRANCH  23  24
HETATM   24  O   UNL     1     -11.022  18.068  66.620  1.00  0.00    -0.088 OA 
BRANCH  24  25
HETATM   25  C   UNL     1     -10.582  19.297  66.987  1.00  0.00    -0.470 C  
HETATM   26  C   UNL     1     -10.130  20.064  65.786  1.00  0.00    -0.422 C  
HETATM   27  O   UNL     1     -10.555  19.727  68.130  1.00  0.00    -0.413 OA 
ENDBRANCH  24  25
ENDBRANCH  23  24
ENDBRANCH  21  23
ENDBRANCH   4  21
TORSDOF 4
ENDMDL
MODEL      125
REMARK 921   NORMALIZED FREE ENERGY PREDICTED BY IDOCK:   -3.35 KCAL/MOL
REMARK 922        TOTAL FREE ENERGY PREDICTED BY IDOCK:   -3.69 KCAL/MOL
REMARK 923 INTER-LIGAND FREE ENERGY PREDICTED BY IDOCK:   -4.69 KCAL/MOL
REMARK 924 INTRA-LIGAND FREE ENERGY PREDICTED BY IDOCK:    1.00 KCAL/MOL
REMARK 927      BINDING AFFINITY PREDICTED BY RF-SCORE:    0.00 PKD
ROOT
HETATM    1  C   UNL     1     -10.758   6.004  73.318  1.00  0.00    -0.284 C  
HETATM    2  C   UNL     1     -11.845   5.329  72.689  1.00  0.00    -0.107 C  
HETATM    3  C   UNL     1     -10.602   5.166  71.872  1.00  0.00    -0.256 C  
HETATM    4  C   UNL     1      -8.886   5.811  72.784  1.00  0.00    -0.121 C  
HETATM    5  C   UNL     1     -10.099   9.183  67.465  1.00  0.00    -0.284 C  
HETATM    6  C   UNL     1      -9.506   4.614  72.960  1.00  0.00    -0.148 C  
HETATM    7  C   UNL     1      -9.460   3.495  73.960  1.00  0.00    -0.115 C  
HETATM    8  O   UNL     1     -10.237  11.581  67.362  1.00  0.00    -0.198 OA 
HETATM    9  C   UNL     1     -10.449  10.542  67.975  1.00  0.00    -0.197 C  
HETATM   10  C   UNL     1      -8.690   4.532  71.228  1.00  0.00    -0.137 C  
HETATM   11  C   UNL     1     -11.154  10.550  69.266  1.00  0.00    -0.298 C  
HETATM   12  C   UNL     1      -8.578   6.172  70.519  1.00  0.00    -0.138 C  
HETATM   13  C   UNL     1      -9.801   7.337  70.752  1.00  0.00    -0.178 C  
HETATM   14  C   UNL     1      -8.337   9.455  70.611  1.00  0.00    -0.217 C  
HETATM   15  C   UNL     1     -10.462   7.525  72.302  1.00  0.00    -0.275 C  
HETATM   16  C   UNL     1      -9.556   8.723  70.021  1.00  0.00    -0.177 C  
HETATM   17  C   UNL     1      -9.266   8.428  68.493  1.00  0.00    -0.135 C  
HETATM   18  C   UNL     1     -11.741   8.361  72.175  1.00  0.00    -0.442 C  
HETATM   19  C   UNL     1     -11.458   9.727  71.557  1.00  0.00    -0.393 C  
HETATM   20  C   UNL     1     -10.765   9.673  70.211  1.00  0.00    -0.335 C  
ENDROOT
BRANCH   4  21
HETATM   21  C   UNL     1      -7.424   5.268  73.390  1.00  0.00    -0.095 C  
HETATM   22  O   UNL     1      -7.245   4.409  74.257  1.00  0.00    -0.069 OA 
BRANCH  21  23
HETATM   23  C   UNL     1      -6.162   5.914  72.825  1.00  0.00    -0.053 C  
BRANCH  23  24
HETATM   24  O   UNL     1      -5.501   4.978  71.987  1.00  0.00    -0.007 OA 
BRANCH  24  25
HETATM   25  C   UNL     1      -5.298   5.379  70.708  1.00  0.00    -0.005 C  
HETATM   26  C   UNL     1      -5.175   6.867  70.646  1.00  0.00    -0.023 C  
HETATM   27  O   UNL     1      -5.225   4.640  69.737  1.00  0.00     0.000 OA 
ENDBRANCH  24  25
ENDBRANCH  23  24
ENDBRANCH  21  23
ENDBRANCH   4  21
TORSDOF 4
ENDMDL
MODEL      126
REMARK 921   NORMALIZED FREE ENERGY PREDICTED BY IDOCK:   -3.30 KCAL/MOL
REMARK 922        TOTAL FREE ENERGY PREDICTED BY IDOCK:   -3.63 KCAL/MOL
REMARK 923 INTER-LIGAND FREE ENERGY PREDICTED BY IDOCK:   -4.15 KCAL/MOL
REMARK 924 INTRA-LIGAND FREE ENERGY PREDICTED BY IDOCK:    0.52 KCAL/MOL
REMARK 927      BINDING AFFINITY PREDICTED BY RF-SCORE:    0.00 PKD
ROOT
HETATM    1  C   UNL     1      -9.547   4.311  69.567  1.00  0.00    -0.274 C  
HETATM    2  C   UNL     1      -9.341   3.458  68.443  1.00  0.00    -0.238 C  
HETATM    3  C   UNL     1      -8.083   4.209  68.753  1.00  0.00    -0.074 C  
HETATM    4  C   UNL     1      -8.115   5.243  70.520  1.00  0.00    -0.104 C  
HETATM    5  C   UNL     1      -7.427   9.203  65.522  1.00  0.00    -0.089 C  
HETATM    6  C   UNL     1      -7.855   3.919  70.351  1.00  0.00    -0.051 C  
HETATM    7  C   UNL     1      -7.799   2.696  71.219  1.00  0.00    -0.044 C  
HETATM    8  O   UNL     1      -8.830  11.103  65.073  1.00  0.00    -0.135 OA 
HETATM    9  C   UNL     1      -8.718   9.953  65.480  1.00  0.00    -0.151 C  
HETATM   10  C   UNL     1      -6.305   4.843  69.706  1.00  0.00    -0.030 C  
HETATM   11  C   UNL     1      -9.894   9.175  65.899  1.00  0.00    -0.305 C  
HETATM   12  C   UNL     1      -6.761   6.462  69.092  1.00  0.00    -0.053 C  
HETATM   13  C   UNL     1      -8.229   6.729  68.267  1.00  0.00    -0.115 C  
HETATM   14  C   UNL     1      -8.599   9.190  68.944  1.00  0.00    -0.131 C  
HETATM   15  C   UNL     1      -9.646   6.028  68.879  1.00  0.00    -0.147 C  
HETATM   16  C   UNL     1      -8.453   8.215  67.761  1.00  0.00    -0.132 C  
HETATM   17  C   UNL     1      -7.183   8.643  66.918  1.00  0.00    -0.075 C  
HETATM   18  C   UNL     1     -10.730   6.128  67.800  1.00  0.00    -0.382 C  
HETATM   19  C   UNL     1     -10.992   7.577  67.401  1.00  0.00    -0.165 C  
HETATM   20  C   UNL     1      -9.762   8.331  66.940  1.00  0.00    -0.291 C  
ENDROOT
BRANCH   4  21
HETATM   21  C   UNL     1      -7.400   5.303  72.032  1.00  0.00    -0.088 C  
HETATM   22  O   UNL     1      -6.414   4.671  72.419  1.00  0.00    -0.030 OA 
BRANCH  21  23
HETATM   23  C   UNL     1      -8.044   6.226  73.061  1.00  0.00    -0.107 C  
BRANCH  23  24
HETATM   24  O   UNL     1      -9.109   5.534  73.698  1.00  0.00    -0.125 OA 
BRANCH  24  25
HETATM   25  C   UNL     1     -10.354   5.856  73.271  1.00  0.00    -0.217 C  
HETATM   26  C   UNL     1     -10.395   7.283  72.826  1.00  0.00    -0.282 C  
HETATM   27  O   UNL     1     -11.313   5.099  73.248  1.00  0.00    -0.321 OA 
ENDBRANCH  24  25
ENDBRANCH  23  24
ENDBRANCH  21  23
ENDBRANCH   4  21
TORSDOF 4
ENDMDL
MODEL      127
REMARK 921   NORMALIZED FREE ENERGY PREDICTED BY IDOCK:   -3.28 KCAL/MOL
REMARK 922        TOTAL FREE ENERGY PREDICTED BY IDOCK:   -3.60 KCAL/MOL
REMARK 923 INTER-LIGAND FREE ENERGY PREDICTED BY IDOCK:   -4.99 KCAL/MOL
REMARK 924 INTRA-LIGAND FREE ENERGY PREDICTED BY IDOCK:    1.39 KCAL/MOL
REMARK 927      BINDING AFFINITY PREDICTED BY RF-SCORE:    0.00 PKD
ROOT
HETATM    1  C   UNL     1      -7.300   9.113  67.526  1.00  0.00    -0.084 C  
HETATM    2  C   UNL     1      -7.103   9.584  66.194  1.00  0.00    -0.092 C  
HETATM    3  C   UNL     1      -8.557   9.319  66.433  1.00  0.00    -0.141 C  
HETATM    4  C   UNL     1      -9.049   8.934  68.383  1.00  0.00    -0.137 C  
HETATM    5  C   UNL     1     -10.326   3.896  64.624  1.00  0.00    -0.213 C  
HETATM    6  C   UNL     1      -8.871  10.153  67.810  1.00  0.00    -0.125 C  
HETATM    7  C   UNL     1      -8.652  11.562  68.282  1.00  0.00    -0.161 C  
HETATM    8  O   UNL     1      -9.528   1.661  65.007  1.00  0.00    -0.096 OA 
HETATM    9  C   UNL     1      -9.330   2.869  65.052  1.00  0.00    -0.133 C  
HETATM   10  C   UNL     1     -10.543   9.500  67.140  1.00  0.00    -0.295 C  
HETATM   11  C   UNL     1      -8.030   3.413  65.474  1.00  0.00    -0.089 C  
HETATM   12  C   UNL     1     -10.534   7.710  67.097  1.00  0.00    -0.412 C  
HETATM   13  C   UNL     1      -9.133   6.827  66.694  1.00  0.00    -0.164 C  
HETATM   14  C   UNL     1      -9.614   4.704  68.077  1.00  0.00    -0.207 C  
HETATM   15  C   UNL     1      -7.651   7.301  67.368  1.00  0.00    -0.105 C  
HETATM   16  C   UNL     1      -9.316   5.253  66.669  1.00  0.00    -0.139 C  
HETATM   17  C   UNL     1     -10.548   4.916  65.734  1.00  0.00    -0.229 C  
HETATM   18  C   UNL     1      -6.531   6.588  66.601  1.00  0.00    -0.043 C  
HETATM   19  C   UNL     1      -6.679   5.071  66.675  1.00  0.00    -0.057 C  
HETATM   20  C   UNL     1      -8.018   4.550  66.196  1.00  0.00    -0.099 C  
ENDROOT
BRANCH   4  21
HETATM   21  C   UNL     1      -9.919   9.545  69.675  1.00  0.00    -0.205 C  
HETATM   22  O   UNL     1      -9.626   9.484  70.871  1.00  0.00    -0.251 OA 
BRANCH  21  23
HETATM   23  C   UNL     1     -11.235  10.244  69.349  1.00  0.00    -0.239 C  
BRANCH  23  24
HETATM   24  O   UNL     1     -11.699  10.919  70.509  1.00  0.00    -0.318 OA 
BRANCH  24  25
HETATM   25  C   UNL     1     -12.145  12.184  70.312  1.00  0.00    -0.302 C  
HETATM   26  C   UNL     1     -12.024  12.556  68.869  1.00  0.00    -0.282 C  
HETATM   27  O   UNL     1     -12.586  12.923  71.179  1.00  0.00    -0.370 OA 
ENDBRANCH  24  25
ENDBRANCH  23  24
ENDBRANCH  21  23
ENDBRANCH   4  21
TORSDOF 4
ENDMDL
MODEL      128
REMARK 921   NORMALIZED FREE ENERGY PREDICTED BY IDOCK:   -3.21 KCAL/MOL
REMARK 922        TOTAL FREE ENERGY PREDICTED BY IDOCK:   -3.52 KCAL/MOL
REMARK 923 INTER-LIGAND FREE ENERGY PREDICTED BY IDOCK:   -3.98 KCAL/MOL
REMARK 924 INTRA-LIGAND FREE ENERGY PREDICTED BY IDOCK:    0.46 KCAL/MOL
REMARK 927      BINDING AFFINITY PREDICTED BY RF-SCORE:    0.00 PKD
ROOT
HETATM    1  C   UNL     1      -6.771   9.492  68.212  1.00  0.00    -0.058 C  
HETATM    2  C   UNL     1      -5.496   8.867  68.344  1.00  0.00    -0.038 C  
HETATM    3  C   UNL     1      -6.370   8.059  67.435  1.00  0.00    -0.056 C  
HETATM    4  C   UNL     1      -8.122   8.971  66.896  1.00  0.00    -0.112 C  
HETATM    5  C   UNL     1      -9.227   3.598  70.219  1.00  0.00    -0.222 C  
HETATM    6  C   UNL     1      -6.895   9.160  66.340  1.00  0.00    -0.079 C  
HETATM    7  C   UNL     1      -6.244  10.176  65.446  1.00  0.00    -0.115 C  
HETATM    8  O   UNL     1     -10.599   3.460  72.188  1.00  0.00     0.002 OA 
HETATM    9  C   UNL     1      -9.793   4.087  71.511  1.00  0.00    -0.181 C  
HETATM   10  C   UNL     1      -7.478   7.434  65.746  1.00  0.00    -0.080 C  
HETATM   11  C   UNL     1      -9.250   5.374  71.972  1.00  0.00    -0.152 C  
HETATM   12  C   UNL     1      -8.576   6.702  66.957  1.00  0.00    -0.113 C  
HETATM   13  C   UNL     1      -8.335   6.912  68.631  1.00  0.00    -0.121 C  
HETATM   14  C   UNL     1     -10.795   6.750  69.390  1.00  0.00    -0.312 C  
HETATM   15  C   UNL     1      -7.939   8.456  69.210  1.00  0.00    -0.113 C  
HETATM   16  C   UNL     1      -9.381   6.163  69.558  1.00  0.00    -0.147 C  
HETATM   17  C   UNL     1      -9.420   4.642  69.125  1.00  0.00    -0.224 C  
HETATM   18  C   UNL     1      -7.449   8.310  70.655  1.00  0.00    -0.062 C  
HETATM   19  C   UNL     1      -8.513   7.674  71.545  1.00  0.00    -0.124 C  
HETATM   20  C   UNL     1      -9.018   6.333  71.055  1.00  0.00    -0.143 C  
ENDROOT
BRANCH   4  21
HETATM   21  C   UNL     1      -8.938   9.592  65.574  1.00  0.00    -0.194 C  
HETATM   22  O   UNL     1      -8.663   9.435  64.382  1.00  0.00    -0.188 OA 
BRANCH  21  23
HETATM   23  C   UNL     1     -10.152  10.468  65.865  1.00  0.00    -0.260 C  
BRANCH  23  24
HETATM   24  O   UNL     1      -9.926  11.186  67.069  1.00  0.00    -0.186 OA 
BRANCH  24  25
HETATM   25  C   UNL     1      -9.828  12.531  66.940  1.00  0.00    -0.227 C  
HETATM   26  C   UNL     1      -8.701  13.050  67.774  1.00  0.00    -0.188 C  
HETATM   27  O   UNL     1     -10.550  13.231  66.246  1.00  0.00    -0.283 OA 
ENDBRANCH  24  25
ENDBRANCH  23  24
ENDBRANCH  21  23
ENDBRANCH   4  21
TORSDOF 4
ENDMDL
MODEL      129
REMARK 921   NORMALIZED FREE ENERGY PREDICTED BY IDOCK:   -3.21 KCAL/MOL
REMARK 922        TOTAL FREE ENERGY PREDICTED BY IDOCK:   -3.52 KCAL/MOL
REMARK 923 INTER-LIGAND FREE ENERGY PREDICTED BY IDOCK:   -4.30 KCAL/MOL
REMARK 924 INTRA-LIGAND FREE ENERGY PREDICTED BY IDOCK:    0.78 KCAL/MOL
REMARK 927      BINDING AFFINITY PREDICTED BY RF-SCORE:    0.00 PKD
ROOT
HETATM    1  C   UNL     1      -8.235  14.618  68.156  1.00  0.00    -0.142 C  
HETATM    2  C   UNL     1      -7.307  14.935  67.120  1.00  0.00    -0.060 C  
HETATM    3  C   UNL     1      -8.307  13.936  66.623  1.00  0.00     0.231 C  
HETATM    4  C   UNL     1      -9.888  13.607  67.882  1.00  0.00    -0.237 C  
HETATM    5  C   UNL     1      -6.431   8.270  67.043  1.00  0.00    -0.057 C  
HETATM    6  C   UNL     1      -9.746  14.628  66.996  1.00  0.00    -0.247 C  
HETATM    7  C   UNL     1     -10.385  15.965  66.758  1.00  0.00    -0.298 C  
HETATM    8  O   UNL     1      -5.507   6.939  68.820  1.00  0.00    -0.016 OA 
HETATM    9  C   UNL     1      -5.793   8.044  68.374  1.00  0.00    -0.036 C  
HETATM   10  C   UNL     1     -10.111  13.068  65.944  1.00  0.00    -0.291 C  
HETATM   11  C   UNL     1      -5.449   9.273  69.107  1.00  0.00    -0.036 C  
HETATM   12  C   UNL     1      -9.517  11.603  66.784  1.00  0.00    -0.197 C  
HETATM   13  C   UNL     1      -8.076  11.612  67.695  1.00  0.00    -0.140 C  
HETATM   14  C   UNL     1      -8.703   9.790  69.411  1.00  0.00    -0.178 C  
HETATM   15  C   UNL     1      -7.777  12.918  68.733  1.00  0.00     0.007 C  
HETATM   16  C   UNL     1      -7.682  10.218  68.340  1.00  0.00    -0.093 C  
HETATM   17  C   UNL     1      -7.681   9.128  67.192  1.00  0.00    -0.098 C  
HETATM   18  C   UNL     1      -6.305  12.859  69.159  1.00  0.00    -0.105 C  
HETATM   19  C   UNL     1      -5.978  11.545  69.863  1.00  0.00    -0.130 C  
HETATM   20  C   UNL     1      -6.312  10.306  69.060  1.00  0.00    -0.044 C  
ENDROOT
BRANCH   4  21
HETATM   21  C   UNL     1     -11.546  13.793  68.001  1.00  0.00    -0.333 C  
HETATM   22  O   UNL     1     -12.305  14.296  67.169  1.00  0.00    -0.360 OA 
BRANCH  21  23
HETATM   23  C   UNL     1     -12.202  13.305  69.289  1.00  0.00    -0.147 C  
BRANCH  23  24
HETATM   24  O   UNL     1     -11.482  13.823  70.398  1.00  0.00    -0.133 OA 
BRANCH  24  25
HETATM   25  C   UNL     1     -11.580  15.162  70.586  1.00  0.00    -0.309 C  
HETATM   26  C   UNL     1     -12.831  15.490  71.336  1.00  0.00    -0.531 C  
HETATM   27  O   UNL     1     -10.769  15.992  70.202  1.00  0.00    -0.317 OA 
ENDBRANCH  24  25
ENDBRANCH  23  24
ENDBRANCH  21  23
ENDBRANCH   4  21
TORSDOF 4
ENDMDL
MODEL      130
REMARK 921   NORMALIZED FREE ENERGY PREDICTED BY IDOCK:   -3.13 KCAL/MOL
REMARK 922        TOTAL FREE ENERGY PREDICTED BY IDOCK:   -3.42 KCAL/MOL
REMARK 923 INTER-LIGAND FREE ENERGY PREDICTED BY IDOCK:   -3.84 KCAL/MOL
REMARK 924 INTRA-LIGAND FREE ENERGY PREDICTED BY IDOCK:    0.43 KCAL/MOL
REMARK 927      BINDING AFFINITY PREDICTED BY RF-SCORE:    0.00 PKD
ROOT
HETATM    1  C   UNL     1      -8.545   7.294  72.409  1.00  0.00    -0.133 C  
HETATM    2  C   UNL     1      -9.193   8.488  72.841  1.00  0.00    -0.189 C  
HETATM    3  C   UNL     1     -10.151   7.639  72.064  1.00  0.00    -0.233 C  
HETATM    4  C   UNL     1      -9.473   5.755  71.635  1.00  0.00    -0.172 C  
HETATM    5  C   UNL     1     -10.510   9.128  66.280  1.00  0.00    -0.035 C  
HETATM    6  C   UNL     1     -10.038   6.177  72.798  1.00  0.00    -0.195 C  
HETATM    7  C   UNL     1     -10.137   5.677  74.210  1.00  0.00    -0.276 C  
HETATM    8  O   UNL     1      -8.893   9.463  64.534  1.00  0.00    -0.201 OA 
HETATM    9  C   UNL     1      -9.142   9.353  65.728  1.00  0.00    -0.200 C  
HETATM   10  C   UNL     1     -11.469   6.074  71.527  1.00  0.00    -0.280 C  
HETATM   11  C   UNL     1      -8.089   9.514  66.743  1.00  0.00    -0.109 C  
HETATM   12  C   UNL     1     -10.847   6.355  69.872  1.00  0.00    -0.370 C  
HETATM   13  C   UNL     1      -9.602   7.477  69.558  1.00  0.00    -0.156 C  
HETATM   14  C   UNL     1      -8.570   6.328  67.493  1.00  0.00    -0.107 C  
HETATM   15  C   UNL     1      -8.258   7.512  70.591  1.00  0.00    -0.111 C  
HETATM   16  C   UNL     1      -9.201   7.625  68.031  1.00  0.00    -0.138 C  
HETATM   17  C   UNL     1     -10.519   7.916  67.204  1.00  0.00    -0.414 C  
HETATM   18  C   UNL     1      -7.474   8.799  70.308  1.00  0.00    -0.067 C  
HETATM   19  C   UNL     1      -7.019   8.868  68.853  1.00  0.00    -0.065 C  
HETATM   20  C   UNL     1      -8.137   8.735  67.841  1.00  0.00    -0.107 C  
ENDROOT
BRANCH   4  21
HETATM   21  C   UNL     1      -9.769   4.138  71.949  1.00  0.00    -0.168 C  
HETATM   22  O   UNL     1     -10.830   3.629  72.319  1.00  0.00     0.099 OA 
BRANCH  21  23
HETATM   23  C   UNL     1      -8.595   3.179  71.780  1.00  0.00    -0.073 C  
BRANCH  23  24
HETATM   24  O   UNL     1      -7.454   3.727  72.424  1.00  0.00    -0.052 OA 
BRANCH  24  25
HETATM   25  C   UNL     1      -7.019   3.054  73.517  1.00  0.00    -0.039 C  
HETATM   26  C   UNL     1      -6.149   3.936  74.354  1.00  0.00    -0.024 C  
HETATM   27  O   UNL     1      -7.291   1.894  73.790  1.00  0.00    -0.031 OA 
ENDBRANCH  24  25
ENDBRANCH  23  24
ENDBRANCH  21  23
ENDBRANCH   4  21
TORSDOF 4
ENDMDL
MODEL      131
REMARK 921   NORMALIZED FREE ENERGY PREDICTED BY IDOCK:   -3.08 KCAL/MOL
REMARK 922        TOTAL FREE ENERGY PREDICTED BY IDOCK:   -3.36 KCAL/MOL
REMARK 923 INTER-LIGAND FREE ENERGY PREDICTED BY IDOCK:   -3.92 KCAL/MOL
REMARK 924 INTRA-LIGAND FREE ENERGY PREDICTED BY IDOCK:    0.57 KCAL/MOL
REMARK 927      BINDING AFFINITY PREDICTED BY RF-SCORE:    0.00 PKD
ROOT
HETATM    1  C   UNL     1      -7.660   8.495  67.311  1.00  0.00    -0.097 C  
HETATM    2  C   UNL     1      -7.633   9.214  66.080  1.00  0.00    -0.095 C  
HETATM    3  C   UNL     1      -9.037   8.802  66.401  1.00  0.00    -0.221 C  
HETATM    4  C   UNL     1      -9.294   8.032  68.281  1.00  0.00    -0.143 C  
HETATM    5  C   UNL     1     -10.684   3.683  63.776  1.00  0.00    -0.271 C  
HETATM    6  C   UNL     1      -9.246   9.346  67.934  1.00  0.00    -0.139 C  
HETATM    7  C   UNL     1      -9.056  10.657  68.641  1.00  0.00    -0.170 C  
HETATM    8  O   UNL     1      -9.727   1.482  63.652  1.00  0.00    -0.111 OA 
HETATM    9  C   UNL     1      -9.593   2.673  63.906  1.00  0.00    -0.132 C  
HETATM   10  C   UNL     1     -10.942   8.703  67.314  1.00  0.00     0.117 C  
HETATM   11  C   UNL     1      -8.287   3.226  64.298  1.00  0.00    -0.089 C  
HETATM   12  C   UNL     1     -10.838   6.956  66.934  1.00  0.00    -0.380 C  
HETATM   13  C   UNL     1      -9.441   6.269  66.240  1.00  0.00    -0.135 C  
HETATM   14  C   UNL     1      -9.652   3.899  67.236  1.00  0.00    -0.222 C  
HETATM   15  C   UNL     1      -7.924   6.721  66.847  1.00  0.00    -0.109 C  
HETATM   16  C   UNL     1      -9.538   4.716  65.935  1.00  0.00    -0.190 C  
HETATM   17  C   UNL     1     -10.843   4.465  65.075  1.00  0.00    -0.097 C  
HETATM   18  C   UNL     1      -6.855   6.245  65.857  1.00  0.00    -0.057 C  
HETATM   19  C   UNL     1      -6.910   4.733  65.657  1.00  0.00    -0.061 C  
HETATM   20  C   UNL     1      -8.261   4.210  65.217  1.00  0.00    -0.102 C  
ENDROOT
BRANCH   4  21
HETATM   21  C   UNL     1     -10.054   8.332  69.742  1.00  0.00    -0.197 C  
HETATM   22  O   UNL     1     -10.023   9.373  70.402  1.00  0.00    -0.216 OA 
BRANCH  21  23
HETATM   23  C   UNL     1     -10.863   7.188  70.344  1.00  0.00    -0.246 C  
BRANCH  23  24
HETATM   24  O   UNL     1     -10.103   5.991  70.261  1.00  0.00    -0.179 OA 
BRANCH  24  25
HETATM   25  C   UNL     1      -9.124   5.854  71.188  1.00  0.00    -0.143 C  
HETATM   26  C   UNL     1      -7.834   5.486  70.527  1.00  0.00    -0.098 C  
HETATM   27  O   UNL     1      -9.262   6.007  72.392  1.00  0.00    -0.143 OA 
ENDBRANCH  24  25
ENDBRANCH  23  24
ENDBRANCH  21  23
ENDBRANCH   4  21
TORSDOF 4
ENDMDL
MODEL      132
REMARK 921   NORMALIZED FREE ENERGY PREDICTED BY IDOCK:   -3.00 KCAL/MOL
REMARK 922        TOTAL FREE ENERGY PREDICTED BY IDOCK:   -3.26 KCAL/MOL
REMARK 923 INTER-LIGAND FREE ENERGY PREDICTED BY IDOCK:   -3.82 KCAL/MOL
REMARK 924 INTRA-LIGAND FREE ENERGY PREDICTED BY IDOCK:    0.55 KCAL/MOL
REMARK 927      BINDING AFFINITY PREDICTED BY RF-SCORE:    0.00 PKD
ROOT
HETATM    1  C   UNL     1      -8.011   8.435  67.167  1.00  0.00    -0.104 C  
HETATM    2  C   UNL     1      -8.337   9.277  66.063  1.00  0.00    -0.117 C  
HETATM    3  C   UNL     1      -9.416   8.258  66.266  1.00  0.00    -0.271 C  
HETATM    4  C   UNL     1      -9.254   7.170  67.993  1.00  0.00    -0.130 C  
HETATM    5  C   UNL     1      -8.794   3.406  62.819  1.00  0.00    -0.092 C  
HETATM    6  C   UNL     1      -9.786   8.413  67.856  1.00  0.00    -0.208 C  
HETATM    7  C   UNL     1     -10.154   9.551  68.764  1.00  0.00    -0.202 C  
HETATM    8  O   UNL     1      -6.989   1.878  62.390  1.00  0.00    -0.021 OA 
HETATM    9  C   UNL     1      -7.371   2.955  62.831  1.00  0.00    -0.052 C  
HETATM   10  C   UNL     1     -11.061   7.210  67.082  1.00  0.00    -0.220 C  
HETATM   11  C   UNL     1      -6.417   3.947  63.351  1.00  0.00    -0.026 C  
HETATM   12  C   UNL     1     -10.231   5.760  66.439  1.00  0.00    -0.192 C  
HETATM   13  C   UNL     1      -8.699   5.856  65.698  1.00  0.00    -0.149 C  
HETATM   14  C   UNL     1      -7.837   3.502  66.306  1.00  0.00    -0.088 C  
HETATM   15  C   UNL     1      -7.503   6.815  66.424  1.00  0.00    -0.074 C  
HETATM   16  C   UNL     1      -8.130   4.480  65.153  1.00  0.00    -0.103 C  
HETATM   17  C   UNL     1      -9.228   3.831  64.217  1.00  0.00    -0.141 C  
HETATM   18  C   UNL     1      -6.367   7.005  65.411  1.00  0.00    -0.040 C  
HETATM   19  C   UNL     1      -5.775   5.667  64.977  1.00  0.00    -0.017 C  
HETATM   20  C   UNL     1      -6.784   4.690  64.412  1.00  0.00    -0.044 C  
ENDROOT
BRANCH   4  21
HETATM   21  C   UNL     1     -10.018   6.883  69.453  1.00  0.00    -0.160 C  
HETATM   22  O   UNL     1     -11.225   6.957  69.694  1.00  0.00    -0.273 OA 
BRANCH  21  23
HETATM   23  C   UNL     1      -9.128   6.503  70.632  1.00  0.00    -0.148 C  
BRANCH  23  24
HETATM   24  O   UNL     1      -9.690   7.034  71.824  1.00  0.00    -0.160 OA 
BRANCH  24  25
HETATM   25  C   UNL     1      -8.985   8.033  72.408  1.00  0.00    -0.176 C  
HETATM   26  C   UNL     1      -9.022   7.890  73.896  1.00  0.00    -0.287 C  
HETATM   27  O   UNL     1      -8.400   8.928  71.817  1.00  0.00    -0.321 OA 
ENDBRANCH  24  25
ENDBRANCH  23  24
ENDBRANCH  21  23
ENDBRANCH   4  21
TORSDOF 4
ENDMDL
MODEL      133
REMARK 921   NORMALIZED FREE ENERGY PREDICTED BY IDOCK:   -2.96 KCAL/MOL
REMARK 922        TOTAL FREE ENERGY PREDICTED BY IDOCK:   -3.21 KCAL/MOL
REMARK 923 INTER-LIGAND FREE ENERGY PREDICTED BY IDOCK:   -4.25 KCAL/MOL
REMARK 924 INTRA-LIGAND FREE ENERGY PREDICTED BY IDOCK:    1.04 KCAL/MOL
REMARK 927      BINDING AFFINITY PREDICTED BY RF-SCORE:    0.00 PKD
ROOT
HETATM    1  C   UNL     1      -7.984  13.795  67.760  1.00  0.00    -0.170 C  
HETATM    2  C   UNL     1      -7.761  14.533  68.959  1.00  0.00    -0.113 C  
HETATM    3  C   UNL     1      -7.288  13.123  69.131  1.00  0.00     0.131 C  
HETATM    4  C   UNL     1      -7.252  12.014  67.410  1.00  0.00    -0.144 C  
HETATM    5  C   UNL     1     -11.347   9.541  71.682  1.00  0.00    -0.411 C  
HETATM    6  C   UNL     1      -6.307  12.894  67.837  1.00  0.00    -0.125 C  
HETATM    7  C   UNL     1      -5.139  13.622  67.237  1.00  0.00     0.464 C  
HETATM    8  O   UNL     1     -13.659   9.051  71.243  1.00  0.00    -0.309 OA 
HETATM    9  C   UNL     1     -12.688   9.778  71.071  1.00  0.00    -0.304 C  
HETATM   10  C   UNL     1      -6.139  11.355  68.967  1.00  0.00    -0.054 C  
HETATM   11  C   UNL     1     -12.795  11.018  70.286  1.00  0.00    -0.178 C  
HETATM   12  C   UNL     1      -7.719  10.524  69.118  1.00  0.00    -0.131 C  
HETATM   13  C   UNL     1      -9.186  11.390  69.190  1.00  0.00     0.158 C  
HETATM   14  C   UNL     1     -10.723   9.616  68.120  1.00  0.00    -0.266 C  
HETATM   15  C   UNL     1      -9.421  12.683  68.119  1.00  0.00    -0.218 C  
HETATM   16  C   UNL     1     -10.484  10.495  69.362  1.00  0.00    -0.264 C  
HETATM   17  C   UNL     1     -10.265   9.546  70.609  1.00  0.00    -0.364 C  
HETATM   18  C   UNL     1     -10.633  13.487  68.604  1.00  0.00    -0.259 C  
HETATM   19  C   UNL     1     -11.889  12.624  68.668  1.00  0.00    -0.342 C  
HETATM   20  C   UNL     1     -11.749  11.377  69.516  1.00  0.00    -0.417 C  
ENDROOT
BRANCH   4  21
HETATM   21  C   UNL     1      -6.210  11.234  66.360  1.00  0.00    -0.106 C  
HETATM   22  O   UNL     1      -5.159  11.672  65.885  1.00  0.00    -0.324 OA 
BRANCH  21  23
HETATM   23  C   UNL     1      -6.602   9.828  65.918  1.00  0.00    -0.083 C  
BRANCH  23  24
HETATM   24  O   UNL     1      -7.114   9.886  64.594  1.00  0.00    -0.125 OA 
BRANCH  24  25
HETATM   25  C   UNL     1      -6.332   9.324  63.640  1.00  0.00    -0.091 C  
HETATM   26  C   UNL     1      -5.867  10.366  62.674  1.00  0.00    -0.137 C  
HETATM   27  O   UNL     1      -6.043   8.140  63.568  1.00  0.00    -0.069 OA 
ENDBRANCH  24  25
ENDBRANCH  23  24
ENDBRANCH  21  23
ENDBRANCH   4  21
TORSDOF 4
ENDMDL
MODEL      134
REMARK 921   NORMALIZED FREE ENERGY PREDICTED BY IDOCK:   -2.87 KCAL/MOL
REMARK 922        TOTAL FREE ENERGY PREDICTED BY IDOCK:   -3.10 KCAL/MOL
REMARK 923 INTER-LIGAND FREE ENERGY PREDICTED BY IDOCK:   -3.62 KCAL/MOL
REMARK 924 INTRA-LIGAND FREE ENERGY PREDICTED BY IDOCK:    0.52 KCAL/MOL
REMARK 927      BINDING AFFINITY PREDICTED BY RF-SCORE:    0.00 PKD
ROOT
HETATM    1  C   UNL     1      -5.929  11.045  68.543  1.00  0.00    -0.042 C  
HETATM    2  C   UNL     1      -6.083  11.472  69.894  1.00  0.00    -0.141 C  
HETATM    3  C   UNL     1      -7.150  10.482  69.547  1.00  0.00    -0.124 C  
HETATM    4  C   UNL     1      -6.893   9.540  67.747  1.00  0.00    -0.078 C  
HETATM    5  C   UNL     1     -12.280  13.020  67.799  1.00  0.00    -0.079 C  
HETATM    6  C   UNL     1      -6.306   9.218  68.930  1.00  0.00    -0.044 C  
HETATM    7  C   UNL     1      -5.141   8.387  69.383  1.00  0.00    -0.030 C  
HETATM    8  O   UNL     1     -12.851  14.690  66.168  1.00  0.00    -0.022 OA 
HETATM    9  C   UNL     1     -11.997  14.132  66.846  1.00  0.00    -0.449 C  
HETATM   10  C   UNL     1      -8.135   8.668  69.086  1.00  0.00    -0.116 C  
HETATM   11  C   UNL     1     -10.596  14.582  66.826  1.00  0.00    -0.276 C  
HETATM   12  C   UNL     1      -9.180   9.699  68.062  1.00  0.00    -0.132 C  
HETATM   13  C   UNL     1      -8.880  11.366  67.863  1.00  0.00    -0.149 C  
HETATM   14  C   UNL     1      -9.858  11.645  65.493  1.00  0.00    -0.264 C  
HETATM   15  C   UNL     1      -7.287  11.880  67.598  1.00  0.00    -0.123 C  
HETATM   16  C   UNL     1      -9.928  12.132  66.952  1.00  0.00    -0.217 C  
HETATM   17  C   UNL     1     -11.378  11.827  67.508  1.00  0.00    -0.377 C  
HETATM   18  C   UNL     1      -7.239  13.400  67.794  1.00  0.00    -0.156 C  
HETATM   19  C   UNL     1      -8.187  14.117  66.837  1.00  0.00     0.007 C  
HETATM   20  C   UNL     1      -9.626  13.651  66.916  1.00  0.00    -0.262 C  
ENDROOT
BRANCH   4  21
HETATM   21  C   UNL     1      -6.602   8.039  67.068  1.00  0.00    -0.057 C  
HETATM   22  O   UNL     1      -6.914   6.937  67.527  1.00  0.00    -0.077 OA 
BRANCH  21  23
HETATM   23  C   UNL     1      -5.851   8.017  65.741  1.00  0.00    -0.037 C  
BRANCH  23  24
HETATM   24  O   UNL     1      -6.640   7.336  64.776  1.00  0.00    -0.039 OA 
BRANCH  24  25
HETATM   25  C   UNL     1      -7.173   8.114  63.802  1.00  0.00    -0.095 C  
HETATM   26  C   UNL     1      -6.132   8.457  62.786  1.00  0.00    -0.086 C  
HETATM   27  O   UNL     1      -8.336   8.488  63.750  1.00  0.00    -0.155 OA 
ENDBRANCH  24  25
ENDBRANCH  23  24
ENDBRANCH  21  23
ENDBRANCH   4  21
TORSDOF 4
ENDMDL
MODEL      135
REMARK 921   NORMALIZED FREE ENERGY PREDICTED BY IDOCK:   -2.71 KCAL/MOL
REMARK 922        TOTAL FREE ENERGY PREDICTED BY IDOCK:   -2.91 KCAL/MOL
REMARK 923 INTER-LIGAND FREE ENERGY PREDICTED BY IDOCK:   -3.54 KCAL/MOL
REMARK 924 INTRA-LIGAND FREE ENERGY PREDICTED BY IDOCK:    0.63 KCAL/MOL
REMARK 927      BINDING AFFINITY PREDICTED BY RF-SCORE:    0.00 PKD
ROOT
HETATM    1  C   UNL     1      -9.742   6.986  69.553  1.00  0.00    -0.160 C  
HETATM    2  C   UNL     1     -10.480   5.926  68.948  1.00  0.00    -0.325 C  
HETATM    3  C   UNL     1      -9.011   5.666  68.817  1.00  0.00    -0.117 C  
HETATM    4  C   UNL     1      -7.817   6.931  69.898  1.00  0.00    -0.115 C  
HETATM    5  C   UNL     1      -6.718   7.508  63.606  1.00  0.00    -0.054 C  
HETATM    6  C   UNL     1      -8.462   5.824  70.354  1.00  0.00    -0.129 C  
HETATM    7  C   UNL     1      -8.838   5.250  71.690  1.00  0.00    -0.144 C  
HETATM    8  O   UNL     1      -6.786   9.578  62.385  1.00  0.00    -0.099 OA 
HETATM    9  C   UNL     1      -7.238   8.868  63.275  1.00  0.00    -0.093 C  
HETATM   10  C   UNL     1      -7.007   5.179  69.287  1.00  0.00    -0.055 C  
HETATM   11  C   UNL     1      -8.411   9.284  64.059  1.00  0.00    -0.202 C  
HETATM   12  C   UNL     1      -6.604   6.368  68.009  1.00  0.00    -0.066 C  
HETATM   13  C   UNL     1      -7.807   7.281  67.220  1.00  0.00    -0.111 C  
HETATM   14  C   UNL     1      -6.401   9.377  66.686  1.00  0.00    -0.066 C  
HETATM   15  C   UNL     1      -9.045   7.973  68.149  1.00  0.00    -0.134 C  
HETATM   16  C   UNL     1      -7.275   8.258  66.090  1.00  0.00    -0.070 C  
HETATM   17  C   UNL     1      -6.385   7.413  65.090  1.00  0.00    -0.038 C  
HETATM   18  C   UNL     1     -10.154   8.434  67.196  1.00  0.00    -0.335 C  
HETATM   19  C   UNL     1      -9.633   9.447  66.180  1.00  0.00    -0.311 C  
HETATM   20  C   UNL     1      -8.450   8.965  65.367  1.00  0.00    -0.176 C  
ENDROOT
BRANCH   4  21
HETATM   21  C   UNL     1      -6.736   6.963  71.175  1.00  0.00    -0.057 C  
HETATM   22  O   UNL     1      -6.673   6.175  72.122  1.00  0.00    -0.064 OA 
BRANCH  21  23
HETATM   23  C   UNL     1      -5.721   8.101  71.189  1.00  0.00    -0.033 C  
BRANCH  23  24
HETATM   24  O   UNL     1      -6.107   9.075  70.230  1.00  0.00    -0.036 OA 
BRANCH  24  25
HETATM   25  C   UNL     1      -6.124  10.357  70.672  1.00  0.00    -0.096 C  
HETATM   26  C   UNL     1      -6.657  11.263  69.609  1.00  0.00    -0.136 C  
HETATM   27  O   UNL     1      -5.759  10.730  71.776  1.00  0.00    -0.320 OA 
ENDBRANCH  24  25
ENDBRANCH  23  24
ENDBRANCH  21  23
ENDBRANCH   4  21
TORSDOF 4
ENDMDL
MODEL      136
REMARK 921   NORMALIZED FREE ENERGY PREDICTED BY IDOCK:   -2.69 KCAL/MOL
REMARK 922        TOTAL FREE ENERGY PREDICTED BY IDOCK:   -2.88 KCAL/MOL
REMARK 923 INTER-LIGAND FREE ENERGY PREDICTED BY IDOCK:   -5.13 KCAL/MOL
REMARK 924 INTRA-LIGAND FREE ENERGY PREDICTED BY IDOCK:    2.24 KCAL/MOL
REMARK 927      BINDING AFFINITY PREDICTED BY RF-SCORE:    0.00 PKD
ROOT
HETATM    1  C   UNL     1     -12.038  15.994  70.347  1.00  0.00    -0.198 C  
HETATM    2  C   UNL     1     -11.304  16.182  71.555  1.00  0.00    -0.286 C  
HETATM    3  C   UNL     1     -10.451  15.482  70.543  1.00  0.00    -0.147 C  
HETATM    4  C   UNL     1     -11.245  15.410  68.656  1.00  0.00    -0.312 C  
HETATM    5  C   UNL     1     -10.497   9.524  71.093  1.00  0.00    -0.358 C  
HETATM    6  C   UNL     1     -10.569  16.446  69.221  1.00  0.00    -0.311 C  
HETATM    7  C   UNL     1     -10.379  17.908  68.941  1.00  0.00    -0.272 C  
HETATM    8  O   UNL     1     -12.235   7.870  71.244  1.00  0.00    -0.305 OA 
HETATM    9  C   UNL     1     -11.895   9.045  71.307  1.00  0.00    -0.312 C  
HETATM   10  C   UNL     1      -9.252  15.106  68.841  1.00  0.00    -0.209 C  
HETATM   11  C   UNL     1     -12.853  10.096  71.684  1.00  0.00    -0.559 C  
HETATM   12  C   UNL     1      -9.994  13.477  68.897  1.00  0.00     0.009 C  
HETATM   13  C   UNL     1     -11.209  13.081  70.025  1.00  0.00     0.202 C  
HETATM   14  C   UNL     1     -12.456  11.307  68.630  1.00  0.00     0.518 C  
HETATM   15  C   UNL     1     -12.461  14.191  70.297  1.00  0.00    -0.416 C  
HETATM   16  C   UNL     1     -11.725  11.584  69.957  1.00  0.00    -0.414 C  
HETATM   17  C   UNL     1     -10.468  10.626  70.041  1.00  0.00    -0.063 C  
HETATM   18  C   UNL     1     -13.207  13.765  71.566  1.00  0.00    -0.417 C  
HETATM   19  C   UNL     1     -13.776  12.355  71.435  1.00  0.00     0.647 C  
HETATM   20  C   UNL     1     -12.751  11.297  71.083  1.00  0.00    -0.492 C  
ENDROOT
BRANCH   4  21
HETATM   21  C   UNL     1     -10.998  15.954  67.094  1.00  0.00    -0.214 C  
HETATM   22  O   UNL     1     -10.818  15.271  66.083  1.00  0.00    -0.316 OA 
BRANCH  21  23
HETATM   23  C   UNL     1     -10.970  17.465  66.888  1.00  0.00     0.135 C  
BRANCH  23  24
HETATM   24  O   UNL     1      -9.932  17.787  65.974  1.00  0.00    -0.482 OA 
BRANCH  24  25
HETATM   25  C   UNL     1      -9.678  19.109  65.817  1.00  0.00     0.125 C  
HETATM   26  C   UNL     1      -8.228  19.389  66.048  1.00  0.00    -0.245 C  
HETATM   27  O   UNL     1     -10.507  19.960  65.530  1.00  0.00    -0.434 OA 
ENDBRANCH  24  25
ENDBRANCH  23  24
ENDBRANCH  21  23
ENDBRANCH   4  21
TORSDOF 4
ENDMDL
MODEL      137
REMARK 921   NORMALIZED FREE ENERGY PREDICTED BY IDOCK:   -2.68 KCAL/MOL
REMARK 922        TOTAL FREE ENERGY PREDICTED BY IDOCK:   -2.87 KCAL/MOL
REMARK 923 INTER-LIGAND FREE ENERGY PREDICTED BY IDOCK:   -4.97 KCAL/MOL
REMARK 924 INTRA-LIGAND FREE ENERGY PREDICTED BY IDOCK:    2.10 KCAL/MOL
REMARK 927      BINDING AFFINITY PREDICTED BY RF-SCORE:    0.00 PKD
ROOT
HETATM    1  C   UNL     1      -8.774   9.943  65.481  1.00  0.00    -0.170 C  
HETATM    2  C   UNL     1      -7.544  10.290  64.849  1.00  0.00    -0.119 C  
HETATM    3  C   UNL     1      -7.574  10.836  66.243  1.00  0.00    -0.142 C  
HETATM    4  C   UNL     1      -9.133  10.170  67.391  1.00  0.00    -0.149 C  
HETATM    5  C   UNL     1      -9.421  16.520  66.540  1.00  0.00    -0.296 C  
HETATM    6  C   UNL     1      -7.959   9.527  67.152  1.00  0.00    -0.102 C  
HETATM    7  C   UNL     1      -7.428   8.130  67.296  1.00  0.00    -0.090 C  
HETATM    8  O   UNL     1     -11.332  17.706  65.691  1.00  0.00     0.469 OA 
HETATM    9  C   UNL     1     -10.619  16.711  65.670  1.00  0.00    -0.270 C  
HETATM   10  C   UNL     1      -7.536  10.958  68.354  1.00  0.00    -0.104 C  
HETATM   11  C   UNL     1     -10.852  15.628  64.701  1.00  0.00    -0.266 C  
HETATM   12  C   UNL     1      -8.677  12.319  68.120  1.00  0.00    -0.186 C  
HETATM   13  C   UNL     1      -9.266  12.742  66.578  1.00  0.00    -0.190 C  
HETATM   14  C   UNL     1     -11.552  13.697  67.296  1.00  0.00    -0.387 C  
HETATM   15  C   UNL     1      -9.767  11.507  65.530  1.00  0.00    -0.259 C  
HETATM   16  C   UNL     1     -10.237  13.996  66.551  1.00  0.00    -0.279 C  
HETATM   17  C   UNL     1      -9.511  15.194  67.286  1.00  0.00    -0.214 C  
HETATM   18  C   UNL     1      -9.920  12.106  64.127  1.00  0.00    -0.279 C  
HETATM   19  C   UNL     1     -10.933  13.248  64.114  1.00  0.00    -0.380 C  
HETATM   20  C   UNL     1     -10.636  14.359  65.098  1.00  0.00    -0.429 C  
ENDROOT
BRANCH   4  21
HETATM   21  C   UNL     1      -9.481   9.262  68.752  1.00  0.00    -0.150 C  
HETATM   22  O   UNL     1     -10.039   9.643  69.785  1.00  0.00    -0.203 OA 
BRANCH  21  23
HETATM   23  C   UNL     1      -9.047   7.799  68.734  1.00  0.00    -0.140 C  
BRANCH  23  24
HETATM   24  O   UNL     1     -10.180   6.986  68.466  1.00  0.00    -0.160 OA 
BRANCH  24  25
HETATM   25  C   UNL     1      -9.957   5.917  67.662  1.00  0.00    -0.138 C  
HETATM   26  C   UNL     1      -9.809   4.676  68.482  1.00  0.00    -0.181 C  
HETATM   27  O   UNL     1      -9.884   5.950  66.443  1.00  0.00    -0.158 OA 
ENDBRANCH  24  25
ENDBRANCH  23  24
ENDBRANCH  21  23
ENDBRANCH   4  21
TORSDOF 4
ENDMDL
MODEL      138
REMARK 921   NORMALIZED FREE ENERGY PREDICTED BY IDOCK:   -2.67 KCAL/MOL
REMARK 922        TOTAL FREE ENERGY PREDICTED BY IDOCK:   -2.85 KCAL/MOL
REMARK 923 INTER-LIGAND FREE ENERGY PREDICTED BY IDOCK:   -3.66 KCAL/MOL
REMARK 924 INTRA-LIGAND FREE ENERGY PREDICTED BY IDOCK:    0.81 KCAL/MOL
REMARK 927      BINDING AFFINITY PREDICTED BY RF-SCORE:    0.00 PKD
ROOT
HETATM    1  C   UNL     1     -10.104   4.551  67.180  1.00  0.00    -0.160 C  
HETATM    2  C   UNL     1      -9.228   4.478  66.057  1.00  0.00    -0.141 C  
HETATM    3  C   UNL     1      -8.432   4.593  67.321  1.00  0.00    -0.104 C  
HETATM    4  C   UNL     1      -9.525   4.399  69.042  1.00  0.00    -0.237 C  
HETATM    5  C   UNL     1      -6.838  10.209  68.633  1.00  0.00    -0.057 C  
HETATM    6  C   UNL     1      -9.044   3.396  68.261  1.00  0.00    -0.206 C  
HETATM    7  C   UNL     1      -9.293   1.925  68.094  1.00  0.00    -0.241 C  
HETATM    8  O   UNL     1      -8.030  12.288  68.816  1.00  0.00    -0.087 OA 
HETATM    9  C   UNL     1      -7.998  11.126  68.431  1.00  0.00    -0.137 C  
HETATM   10  C   UNL     1      -7.523   4.125  69.172  1.00  0.00    -0.054 C  
HETATM   11  C   UNL     1      -9.105  10.553  67.649  1.00  0.00    -0.146 C  
HETATM   12  C   UNL     1      -7.796   5.855  69.543  1.00  0.00    -0.098 C  
HETATM   13  C   UNL     1      -8.631   6.883  68.470  1.00  0.00    -0.123 C  
HETATM   14  C   UNL     1      -9.621   8.515  70.205  1.00  0.00    -0.174 C  
HETATM   15  C   UNL     1     -10.051   6.317  67.739  1.00  0.00    -0.174 C  
HETATM   16  C   UNL     1      -8.748   8.393  68.942  1.00  0.00    -0.136 C  
HETATM   17  C   UNL     1      -7.294   8.912  69.291  1.00  0.00    -0.070 C  
HETATM   18  C   UNL     1     -10.407   7.269  66.591  1.00  0.00    -0.229 C  
HETATM   19  C   UNL     1     -10.608   8.697  67.090  1.00  0.00    -0.304 C  
HETATM   20  C   UNL     1      -9.431   9.263  67.857  1.00  0.00    -0.154 C  
ENDROOT
BRANCH   4  21
HETATM   21  C   UNL     1      -9.727   3.412  70.377  1.00  0.00    -0.080 C  
HETATM   22  O   UNL     1      -9.476   2.207  70.463  1.00  0.00    -0.124 OA 
BRANCH  21  23
HETATM   23  C   UNL     1     -10.304   4.060  71.631  1.00  0.00     0.052 C  
BRANCH  23  24
HETATM   24  O   UNL     1      -9.338   3.995  72.671  1.00  0.00    -0.114 OA 
BRANCH  24  25
HETATM   25  C   UNL     1      -9.052   5.172  73.279  1.00  0.00    -0.122 C  
HETATM   26  C   UNL     1      -8.312   4.929  74.554  1.00  0.00    -0.100 C  
HETATM   27  O   UNL     1      -9.351   6.279  72.856  1.00  0.00    -0.141 OA 
ENDBRANCH  24  25
ENDBRANCH  23  24
ENDBRANCH  21  23
ENDBRANCH   4  21
TORSDOF 4
ENDMDL
MODEL      139
REMARK 921   NORMALIZED FREE ENERGY PREDICTED BY IDOCK:   -2.62 KCAL/MOL
REMARK 922        TOTAL FREE ENERGY PREDICTED BY IDOCK:   -2.80 KCAL/MOL
REMARK 923 INTER-LIGAND FREE ENERGY PREDICTED BY IDOCK:   -3.23 KCAL/MOL
REMARK 924 INTRA-LIGAND FREE ENERGY PREDICTED BY IDOCK:    0.43 KCAL/MOL
REMARK 927      BINDING AFFINITY PREDICTED BY RF-SCORE:    0.00 PKD
ROOT
HETATM    1  C   UNL     1      -7.634  11.157  66.510  1.00  0.00    -0.135 C  
HETATM    2  C   UNL     1      -6.854  12.066  67.283  1.00  0.00    -0.150 C  
HETATM    3  C   UNL     1      -6.301  10.681  67.414  1.00  0.00    -0.058 C  
HETATM    4  C   UNL     1      -7.114   9.309  66.128  1.00  0.00    -0.091 C  
HETATM    5  C   UNL     1      -8.299   7.759  72.238  1.00  0.00    -0.154 C  
HETATM    6  C   UNL     1      -6.122  10.199  65.856  1.00  0.00    -0.087 C  
HETATM    7  C   UNL     1      -5.466  10.763  64.630  1.00  0.00    -0.045 C  
HETATM    8  O   UNL     1     -10.482   7.318  73.143  1.00  0.00    -0.267 OA 
HETATM    9  C   UNL     1      -9.772   7.959  72.379  1.00  0.00    -0.213 C  
HETATM   10  C   UNL     1      -5.330   8.856  66.969  1.00  0.00    -0.040 C  
HETATM   11  C   UNL     1     -10.321   9.060  71.572  1.00  0.00    -0.412 C  
HETATM   12  C   UNL     1      -6.566   8.138  68.048  1.00  0.00    -0.057 C  
HETATM   13  C   UNL     1      -7.820   9.074  68.725  1.00  0.00    -0.096 C  
HETATM   14  C   UNL     1      -9.611   7.228  68.910  1.00  0.00    -0.143 C  
HETATM   15  C   UNL     1      -8.630  10.188  67.736  1.00  0.00    -0.118 C  
HETATM   16  C   UNL     1      -8.803   8.284  69.686  1.00  0.00    -0.139 C  
HETATM   17  C   UNL     1      -7.930   7.538  70.776  1.00  0.00    -0.103 C  
HETATM   18  C   UNL     1      -9.448  11.118  68.639  1.00  0.00    -0.196 C  
HETATM   19  C   UNL     1     -10.453  10.338  69.483  1.00  0.00    -0.268 C  
HETATM   20  C   UNL     1      -9.841   9.239  70.327  1.00  0.00    -0.265 C  
ENDROOT
BRANCH   4  21
HETATM   21  C   UNL     1      -6.733   8.320  64.834  1.00  0.00    -0.067 C  
HETATM   22  O   UNL     1      -5.706   7.656  64.676  1.00  0.00    -0.037 OA 
BRANCH  21  23
HETATM   23  C   UNL     1      -7.758   8.237  63.707  1.00  0.00    -0.145 C  
BRANCH  23  24
HETATM   24  O   UNL     1      -7.499   9.275  62.772  1.00  0.00    -0.104 OA 
BRANCH  24  25
HETATM   25  C   UNL     1      -8.410  10.279  62.745  1.00  0.00    -0.169 C  
HETATM   26  C   UNL     1      -9.774   9.747  63.049  1.00  0.00     0.439 C  
HETATM   27  O   UNL     1      -8.165  11.452  62.507  1.00  0.00    -0.108 OA 
ENDBRANCH  24  25
ENDBRANCH  23  24
ENDBRANCH  21  23
ENDBRANCH   4  21
TORSDOF 4
ENDMDL
MODEL      140
REMARK 921   NORMALIZED FREE ENERGY PREDICTED BY IDOCK:   -2.62 KCAL/MOL
REMARK 922        TOTAL FREE ENERGY PREDICTED BY IDOCK:   -2.79 KCAL/MOL
REMARK 923 INTER-LIGAND FREE ENERGY PREDICTED BY IDOCK:   -4.70 KCAL/MOL
REMARK 924 INTRA-LIGAND FREE ENERGY PREDICTED BY IDOCK:    1.91 KCAL/MOL
REMARK 927      BINDING AFFINITY PREDICTED BY RF-SCORE:    0.00 PKD
ROOT
HETATM    1  C   UNL     1     -11.881  13.284  67.871  1.00  0.00    -0.388 C  
HETATM    2  C   UNL     1     -10.832  12.328  67.737  1.00  0.00    -0.256 C  
HETATM    3  C   UNL     1     -10.594  13.181  68.944  1.00  0.00    -0.159 C  
HETATM    4  C   UNL     1     -12.159  14.398  69.456  1.00  0.00    -0.366 C  
HETATM    5  C   UNL     1      -6.960  17.821  67.909  1.00  0.00    -0.194 C  
HETATM    6  C   UNL     1     -12.013  13.081  69.761  1.00  0.00    -0.377 C  
HETATM    7  C   UNL     1     -12.894  11.966  70.243  1.00  0.00     0.184 C  
HETATM    8  O   UNL     1      -6.910  19.574  66.265  1.00  0.00    -0.203 OA 
HETATM    9  C   UNL     1      -7.337  18.484  66.626  1.00  0.00    -0.224 C  
HETATM   10  C   UNL     1     -10.770  14.019  70.878  1.00  0.00     1.760 C  
HETATM   11  C   UNL     1      -8.222  17.688  65.761  1.00  0.00     0.171 C  
HETATM   12  C   UNL     1     -10.240  15.531  70.079  1.00  0.00    -0.286 C  
HETATM   13  C   UNL     1      -9.997  15.619  68.394  1.00  0.00    -0.210 C  
HETATM   14  C   UNL     1     -10.562  18.114  68.061  1.00  0.00    -0.359 C  
HETATM   15  C   UNL     1     -11.143  14.907  67.367  1.00  0.00    -0.325 C  
HETATM   16  C   UNL     1      -9.491  17.025  67.862  1.00  0.00    -0.245 C  
HETATM   17  C   UNL     1      -8.208  17.432  68.694  1.00  0.00    -0.264 C  
HETATM   18  C   UNL     1     -10.535  14.823  65.962  1.00  0.00    -0.312 C  
HETATM   19  C   UNL     1     -10.147  16.203  65.437  1.00  0.00    -0.220 C  
HETATM   20  C   UNL     1      -9.205  16.973  66.339  1.00  0.00    -0.298 C  
ENDROOT
BRANCH   4  21
HETATM   21  C   UNL     1     -13.290  14.665  70.659  1.00  0.00    -0.134 C  
HETATM   22  O   UNL     1     -14.302  15.367  70.593  1.00  0.00    -0.151 OA 
BRANCH  21  23
HETATM   23  C   UNL     1     -13.042  13.982  72.000  1.00  0.00    -0.401 C  
BRANCH  23  24
HETATM   24  O   UNL     1     -13.877  14.578  72.983  1.00  0.00    -0.539 OA 
BRANCH  24  25
HETATM   25  C   UNL     1     -13.380  15.690  73.578  1.00  0.00    -0.346 C  
HETATM   26  C   UNL     1     -12.312  15.318  74.557  1.00  0.00    -0.630 C  
HETATM   27  O   UNL     1     -13.742  16.835  73.356  1.00  0.00     0.071 OA 
ENDBRANCH  24  25
ENDBRANCH  23  24
ENDBRANCH  21  23
ENDBRANCH   4  21
TORSDOF 4
ENDMDL
MODEL      141
REMARK 921   NORMALIZED FREE ENERGY PREDICTED BY IDOCK:   -2.61 KCAL/MOL
REMARK 922        TOTAL FREE ENERGY PREDICTED BY IDOCK:   -2.78 KCAL/MOL
REMARK 923 INTER-LIGAND FREE ENERGY PREDICTED BY IDOCK:   -4.14 KCAL/MOL
REMARK 924 INTRA-LIGAND FREE ENERGY PREDICTED BY IDOCK:    1.37 KCAL/MOL
REMARK 927      BINDING AFFINITY PREDICTED BY RF-SCORE:    0.00 PKD
ROOT
HETATM    1  C   UNL     1      -6.064  10.974  68.416  1.00  0.00    -0.042 C  
HETATM    2  C   UNL     1      -5.670  11.396  69.720  1.00  0.00    -0.088 C  
HETATM    3  C   UNL     1      -7.044  10.804  69.769  1.00  0.00    -0.126 C  
HETATM    4  C   UNL     1      -7.637   9.871  68.045  1.00  0.00    -0.085 C  
HETATM    5  C   UNL     1     -11.413  14.875  69.399  1.00  0.00    -0.324 C  
HETATM    6  C   UNL     1      -6.854   9.353  69.028  1.00  0.00    -0.054 C  
HETATM    7  C   UNL     1      -5.924   8.184  69.184  1.00  0.00    -0.038 C  
HETATM    8  O   UNL     1     -11.897  16.679  67.885  1.00  0.00     0.274 OA 
HETATM    9  C   UNL     1     -11.097  15.863  68.325  1.00  0.00    -0.345 C  
HETATM   10  C   UNL     1      -8.631   9.406  69.745  1.00  0.00    -0.182 C  
HETATM   11  C   UNL     1      -9.698  15.847  67.869  1.00  0.00    -0.216 C  
HETATM   12  C   UNL     1      -9.561  10.739  68.995  1.00  0.00    -0.193 C  
HETATM   13  C   UNL     1      -8.834  12.229  68.597  1.00  0.00     0.022 C  
HETATM   14  C   UNL     1     -10.335  12.859  66.597  1.00  0.00    -0.258 C  
HETATM   15  C   UNL     1      -7.314  12.219  67.847  1.00  0.00    -0.111 C  
HETATM   16  C   UNL     1      -9.814  13.309  67.975  1.00  0.00    -0.230 C  
HETATM   17  C   UNL     1     -11.053  13.465  68.947  1.00  0.00    -0.307 C  
HETATM   18  C   UNL     1      -6.743  13.640  67.909  1.00  0.00    -0.156 C  
HETATM   19  C   UNL     1      -7.662  14.643  67.217  1.00  0.00    -0.198 C  
HETATM   20  C   UNL     1      -9.083  14.655  67.743  1.00  0.00    -0.191 C  
ENDROOT
BRANCH   4  21
HETATM   21  C   UNL     1      -8.040   8.372  67.422  1.00  0.00    -0.106 C  
HETATM   22  O   UNL     1      -7.386   7.690  66.628  1.00  0.00    -0.084 OA 
BRANCH  21  23
HETATM   23  C   UNL     1      -9.373   7.778  67.865  1.00  0.00    -0.140 C  
BRANCH  23  24
HETATM   24  O   UNL     1      -9.156   6.455  68.334  1.00  0.00    -0.121 OA 
BRANCH  24  25
HETATM   25  C   UNL     1     -10.197   5.890  68.993  1.00  0.00    -0.203 C  
HETATM   26  C   UNL     1      -9.798   4.560  69.546  1.00  0.00    -0.277 C  
HETATM   27  O   UNL     1     -11.306   6.386  69.124  1.00  0.00    -0.364 OA 
ENDBRANCH  24  25
ENDBRANCH  23  24
ENDBRANCH  21  23
ENDBRANCH   4  21
TORSDOF 4
ENDMDL
MODEL      142
REMARK 921   NORMALIZED FREE ENERGY PREDICTED BY IDOCK:   -2.40 KCAL/MOL
REMARK 922        TOTAL FREE ENERGY PREDICTED BY IDOCK:   -2.52 KCAL/MOL
REMARK 923 INTER-LIGAND FREE ENERGY PREDICTED BY IDOCK:   -3.63 KCAL/MOL
REMARK 924 INTRA-LIGAND FREE ENERGY PREDICTED BY IDOCK:    1.11 KCAL/MOL
REMARK 927      BINDING AFFINITY PREDICTED BY RF-SCORE:    0.00 PKD
ROOT
HETATM    1  C   UNL     1      -9.059   9.545  65.612  1.00  0.00    -0.250 C  
HETATM    2  C   UNL     1      -7.698   9.540  65.186  1.00  0.00    -0.112 C  
HETATM    3  C   UNL     1      -7.765   9.569  66.681  1.00  0.00    -0.098 C  
HETATM    4  C   UNL     1      -9.635   9.270  67.461  1.00  0.00    -0.184 C  
HETATM    5  C   UNL     1      -7.383  15.080  68.982  1.00  0.00    -0.151 C  
HETATM    6  C   UNL     1      -8.762   8.317  67.037  1.00  0.00    -0.132 C  
HETATM    7  C   UNL     1      -8.824   6.861  66.676  1.00  0.00    -0.140 C  
HETATM    8  O   UNL     1      -8.535  17.149  68.571  1.00  0.00    -0.246 OA 
HETATM    9  C   UNL     1      -8.252  16.014  68.207  1.00  0.00    -0.159 C  
HETATM   10  C   UNL     1      -8.053   8.977  68.691  1.00  0.00    -0.107 C  
HETATM   11  C   UNL     1      -8.699  15.498  66.904  1.00  0.00    -0.281 C  
HETATM   12  C   UNL     1      -8.545  10.681  68.938  1.00  0.00    -0.158 C  
HETATM   13  C   UNL     1      -8.656  11.781  67.640  1.00  0.00    -0.153 C  
HETATM   14  C   UNL     1     -10.509  13.302  68.592  1.00  0.00    -0.242 C  
HETATM   15  C   UNL     1      -9.390  11.270  66.200  1.00  0.00    -0.230 C  
HETATM   16  C   UNL     1      -9.069  13.257  68.046  1.00  0.00    -0.202 C  
HETATM   17  C   UNL     1      -8.089  13.745  69.189  1.00  0.00     0.288 C  
HETATM   18  C   UNL     1      -9.062  12.297  65.109  1.00  0.00     0.501 C  
HETATM   19  C   UNL     1      -9.558  13.690  65.485  1.00  0.00     0.024 C  
HETATM   20  C   UNL     1      -9.044  14.199  66.816  1.00  0.00    -0.266 C  
ENDROOT
BRANCH   4  21
HETATM   21  C   UNL     1     -10.527   8.199  68.386  1.00  0.00    -0.161 C  
HETATM   22  O   UNL     1     -10.861   7.050  68.087  1.00  0.00    -0.205 OA 
BRANCH  21  23
HETATM   23  C   UNL     1     -11.002   8.695  69.748  1.00  0.00    -0.127 C  
BRANCH  23  24
HETATM   24  O   UNL     1     -10.459   7.858  70.759  1.00  0.00    -0.206 OA 
BRANCH  24  25
HETATM   25  C   UNL     1     -10.454   8.380  72.010  1.00  0.00    -0.314 C  
HETATM   26  C   UNL     1     -11.406   7.631  72.886  1.00  0.00    -0.394 C  
HETATM   27  O   UNL     1      -9.775   9.326  72.381  1.00  0.00     0.077 OA 
ENDBRANCH  24  25
ENDBRANCH  23  24
ENDBRANCH  21  23
ENDBRANCH   4  21
TORSDOF 4
ENDMDL
MODEL      143
REMARK 921   NORMALIZED FREE ENERGY PREDICTED BY IDOCK:   -2.35 KCAL/MOL
REMARK 922        TOTAL FREE ENERGY PREDICTED BY IDOCK:   -2.45 KCAL/MOL
REMARK 923 INTER-LIGAND FREE ENERGY PREDICTED BY IDOCK:   -3.44 KCAL/MOL
REMARK 924 INTRA-LIGAND FREE ENERGY PREDICTED BY IDOCK:    0.99 KCAL/MOL
REMARK 927      BINDING AFFINITY PREDICTED BY RF-SCORE:    0.00 PKD
ROOT
HETATM    1  C   UNL     1      -6.417   5.201  66.606  1.00  0.00    -0.041 C  
HETATM    2  C   UNL     1      -6.578   3.786  66.535  1.00  0.00    -0.041 C  
HETATM    3  C   UNL     1      -7.918   4.454  66.531  1.00  0.00    -0.099 C  
HETATM    4  C   UNL     1      -7.860   6.490  66.317  1.00  0.00    -0.105 C  
HETATM    5  C   UNL     1     -10.425   4.816  71.952  1.00  0.00    -0.201 C  
HETATM    6  C   UNL     1      -7.782   5.561  65.328  1.00  0.00    -0.090 C  
HETATM    7  C   UNL     1      -7.361   5.530  63.887  1.00  0.00    -0.054 C  
HETATM    8  O   UNL     1      -9.677   5.615  74.092  1.00  0.00    -0.152 OA 
HETATM    9  C   UNL     1      -9.408   5.256  72.953  1.00  0.00    -0.137 C  
HETATM   10  C   UNL     1      -9.610   5.559  65.905  1.00  0.00    -0.085 C  
HETATM   11  C   UNL     1      -8.013   5.155  72.496  1.00  0.00    -0.102 C  
HETATM   12  C   UNL     1      -9.713   6.039  67.628  1.00  0.00    -0.120 C  
HETATM   13  C   UNL     1      -8.534   5.567  68.764  1.00  0.00    -0.101 C  
HETATM   14  C   UNL     1      -8.722   7.582  70.363  1.00  0.00    -0.144 C  
HETATM   15  C   UNL     1      -6.898   5.672  68.332  1.00  0.00    -0.063 C  
HETATM   16  C   UNL     1      -8.804   6.049  70.251  1.00  0.00    -0.144 C  
HETATM   17  C   UNL     1     -10.267   5.599  70.654  1.00  0.00    -0.292 C  
HETATM   18  C   UNL     1      -6.082   4.887  69.365  1.00  0.00    -0.018 C  
HETATM   19  C   UNL     1      -6.288   5.435  70.775  1.00  0.00    -0.031 C  
HETATM   20  C   UNL     1      -7.734   5.487  71.221  1.00  0.00    -0.108 C  
ENDROOT
BRANCH   4  21
HETATM   21  C   UNL     1      -8.294   7.725  65.275  1.00  0.00    -0.122 C  
HETATM   22  O   UNL     1      -8.408   7.664  64.048  1.00  0.00    -0.030 OA 
BRANCH  21  23
HETATM   23  C   UNL     1      -8.564   9.090  65.900  1.00  0.00    -0.154 C  
BRANCH  23  24
HETATM   24  O   UNL     1      -9.689   9.676  65.259  1.00  0.00    -0.300 OA 
BRANCH  24  25
HETATM   25  C   UNL     1      -9.802  11.020  65.389  1.00  0.00    -0.251 C  
HETATM   26  C   UNL     1      -9.088  11.482  66.619  1.00  0.00    -0.193 C  
HETATM   27  O   UNL     1     -10.398  11.759  64.620  1.00  0.00    -0.262 OA 
ENDBRANCH  24  25
ENDBRANCH  23  24
ENDBRANCH  21  23
ENDBRANCH   4  21
TORSDOF 4
ENDMDL
MODEL      144
REMARK 921   NORMALIZED FREE ENERGY PREDICTED BY IDOCK:   -2.34 KCAL/MOL
REMARK 922        TOTAL FREE ENERGY PREDICTED BY IDOCK:   -2.44 KCAL/MOL
REMARK 923 INTER-LIGAND FREE ENERGY PREDICTED BY IDOCK:   -3.37 KCAL/MOL
REMARK 924 INTRA-LIGAND FREE ENERGY PREDICTED BY IDOCK:    0.92 KCAL/MOL
REMARK 927      BINDING AFFINITY PREDICTED BY RF-SCORE:    0.00 PKD
ROOT
HETATM    1  C   UNL     1      -6.721   4.038  69.765  1.00  0.00    -0.034 C  
HETATM    2  C   UNL     1      -5.452   3.675  69.228  1.00  0.00    -0.016 C  
HETATM    3  C   UNL     1      -5.833   5.045  68.759  1.00  0.00    -0.020 C  
HETATM    4  C   UNL     1      -7.479   5.840  69.682  1.00  0.00    -0.075 C  
HETATM    5  C   UNL     1      -8.479   5.081  63.392  1.00  0.00    -0.123 C  
HETATM    6  C   UNL     1      -6.203   5.830  70.151  1.00  0.00    -0.027 C  
HETATM    7  C   UNL     1      -5.521   6.049  71.470  1.00  0.00    -0.022 C  
HETATM    8  O   UNL     1     -10.331   3.888  62.431  1.00  0.00    -0.163 OA 
HETATM    9  C   UNL     1      -9.496   3.990  63.321  1.00  0.00    -0.146 C  
HETATM   10  C   UNL     1      -6.231   7.122  68.736  1.00  0.00    -0.031 C  
HETATM   11  C   UNL     1      -9.379   2.972  64.376  1.00  0.00    -0.142 C  
HETATM   12  C   UNL     1      -7.481   6.691  67.530  1.00  0.00    -0.097 C  
HETATM   13  C   UNL     1      -7.807   5.070  67.114  1.00  0.00    -0.096 C  
HETATM   14  C   UNL     1     -10.300   5.330  66.507  1.00  0.00    -0.332 C  
HETATM   15  C   UNL     1      -7.914   3.917  68.352  1.00  0.00    -0.075 C  
HETATM   16  C   UNL     1      -8.920   4.874  66.001  1.00  0.00    -0.129 C  
HETATM   17  C   UNL     1      -8.528   5.766  64.753  1.00  0.00    -0.079 C  
HETATM   18  C   UNL     1      -7.869   2.525  67.711  1.00  0.00    -0.060 C  
HETATM   19  C   UNL     1      -9.009   2.331  66.715  1.00  0.00    -0.136 C  
HETATM   20  C   UNL     1      -9.070   3.379  65.623  1.00  0.00    -0.151 C  
ENDROOT
BRANCH   4  21
HETATM   21  C   UNL     1      -7.958   7.083  70.693  1.00  0.00    -0.109 C  
HETATM   22  O   UNL     1      -7.314   7.588  71.616  1.00  0.00    -0.072 OA 
BRANCH  21  23
HETATM   23  C   UNL     1      -9.356   7.652  70.470  1.00  0.00    -0.163 C  
BRANCH  23  24
HETATM   24  O   UNL     1     -10.312   6.625  70.690  1.00  0.00    -0.198 OA 
BRANCH  24  25
HETATM   25  C   UNL     1     -11.126   6.803  71.759  1.00  0.00    -0.242 C  
HETATM   26  C   UNL     1     -12.555   6.846  71.320  1.00  0.00    -0.394 C  
HETATM   27  O   UNL     1     -10.758   6.912  72.919  1.00  0.00    -0.239 OA 
ENDBRANCH  24  25
ENDBRANCH  23  24
ENDBRANCH  21  23
ENDBRANCH   4  21
TORSDOF 4
ENDMDL
MODEL      145
REMARK 921   NORMALIZED FREE ENERGY PREDICTED BY IDOCK:   -2.33 KCAL/MOL
REMARK 922        TOTAL FREE ENERGY PREDICTED BY IDOCK:   -2.44 KCAL/MOL
REMARK 923 INTER-LIGAND FREE ENERGY PREDICTED BY IDOCK:   -3.53 KCAL/MOL
REMARK 924 INTRA-LIGAND FREE ENERGY PREDICTED BY IDOCK:    1.09 KCAL/MOL
REMARK 927      BINDING AFFINITY PREDICTED BY RF-SCORE:    0.00 PKD
ROOT
HETATM    1  C   UNL     1      -9.805  10.006  63.951  1.00  0.00     0.034 C  
HETATM    2  C   UNL     1      -9.204  10.682  62.849  1.00  0.00    -0.317 C  
HETATM    3  C   UNL     1      -8.158  10.320  63.857  1.00  0.00    -0.138 C  
HETATM    4  C   UNL     1      -8.803   9.077  65.352  1.00  0.00    -0.237 C  
HETATM    5  C   UNL     1      -6.907  14.740  67.692  1.00  0.00    -0.205 C  
HETATM    6  C   UNL     1      -8.410   8.718  64.101  1.00  0.00    -0.155 C  
HETATM    7  C   UNL     1      -8.534   7.507  63.221  1.00  0.00     0.276 C  
HETATM    8  O   UNL     1      -8.238  16.155  69.108  1.00  0.00    -0.233 OA 
HETATM    9  C   UNL     1      -8.173  15.372  68.168  1.00  0.00    -0.144 C  
HETATM   10  C   UNL     1      -6.807   9.198  65.035  1.00  0.00    -0.080 C  
HETATM   11  C   UNL     1      -9.362  15.045  67.365  1.00  0.00    -0.204 C  
HETATM   12  C   UNL     1      -7.169  10.417  66.296  1.00  0.00    -0.127 C  
HETATM   13  C   UNL     1      -8.329  11.642  66.055  1.00  0.00     0.110 C  
HETATM   14  C   UNL     1      -9.064  11.954  68.508  1.00  0.00    -0.123 C  
HETATM   15  C   UNL     1      -9.812  11.230  65.343  1.00  0.00    -0.281 C  
HETATM   16  C   UNL     1      -8.494  12.657  67.262  1.00  0.00    -0.193 C  
HETATM   17  C   UNL     1      -7.062  13.225  67.624  1.00  0.00    -0.163 C  
HETATM   18  C   UNL     1     -10.518  12.527  64.932  1.00  0.00    -0.328 C  
HETATM   19  C   UNL     1     -10.749  13.443  66.130  1.00  0.00    -0.288 C  
HETATM   20  C   UNL     1      -9.495  13.786  66.906  1.00  0.00    -0.265 C  
ENDROOT
BRANCH   4  21
HETATM   21  C   UNL     1      -8.590   7.541  65.980  1.00  0.00    -0.151 C  
HETATM   22  O   UNL     1      -9.414   6.623  66.008  1.00  0.00    -0.078 OA 
BRANCH  21  23
HETATM   23  C   UNL     1      -7.234   7.235  66.607  1.00  0.00    -0.080 C  
BRANCH  23  24
HETATM   24  O   UNL     1      -6.986   5.840  66.512  1.00  0.00    -0.061 OA 
BRANCH  24  25
HETATM   25  C   UNL     1      -6.331   5.436  65.396  1.00  0.00    -0.035 C  
HETATM   26  C   UNL     1      -7.007   4.241  64.805  1.00  0.00    -0.050 C  
HETATM   27  O   UNL     1      -5.333   5.964  64.930  1.00  0.00    -0.015 OA 
ENDBRANCH  24  25
ENDBRANCH  23  24
ENDBRANCH  21  23
ENDBRANCH   4  21
TORSDOF 4
ENDMDL
MODEL      146
REMARK 921   NORMALIZED FREE ENERGY PREDICTED BY IDOCK:   -2.32 KCAL/MOL
REMARK 922        TOTAL FREE ENERGY PREDICTED BY IDOCK:   -2.42 KCAL/MOL
REMARK 923 INTER-LIGAND FREE ENERGY PREDICTED BY IDOCK:   -3.40 KCAL/MOL
REMARK 924 INTRA-LIGAND FREE ENERGY PREDICTED BY IDOCK:    0.97 KCAL/MOL
REMARK 927      BINDING AFFINITY PREDICTED BY RF-SCORE:    0.00 PKD
ROOT
HETATM    1  C   UNL     1      -6.781   8.034  70.939  1.00  0.00    -0.037 C  
HETATM    2  C   UNL     1      -7.217   8.685  72.130  1.00  0.00    -0.058 C  
HETATM    3  C   UNL     1      -8.400   8.214  71.343  1.00  0.00    -0.146 C  
HETATM    4  C   UNL     1      -7.947   6.992  69.763  1.00  0.00    -0.124 C  
HETATM    5  C   UNL     1     -10.727  12.422  67.783  1.00  0.00    -0.247 C  
HETATM    6  C   UNL     1      -8.064   6.632  71.069  1.00  0.00    -0.119 C  
HETATM    7  C   UNL     1      -7.672   5.458  71.918  1.00  0.00    -0.104 C  
HETATM    8  O   UNL     1      -9.814  13.907  66.128  1.00  0.00    -0.294 OA 
HETATM    9  C   UNL     1      -9.633  13.145  67.069  1.00  0.00    -0.241 C  
HETATM   10  C   UNL     1      -9.849   6.956  70.453  1.00  0.00    -0.187 C  
HETATM   11  C   UNL     1      -8.290  12.936  67.632  1.00  0.00    -0.176 C  
HETATM   12  C   UNL     1      -9.838   8.170  69.137  1.00  0.00    -0.182 C  
HETATM   13  C   UNL     1      -8.762   9.492  69.143  1.00  0.00    -0.146 C  
HETATM   14  C   UNL     1      -8.534   9.804  66.592  1.00  0.00    -0.126 C  
HETATM   15  C   UNL     1      -7.142   9.221  69.562  1.00  0.00    -0.060 C  
HETATM   16  C   UNL     1      -8.916  10.488  67.918  1.00  0.00    -0.137 C  
HETATM   17  C   UNL     1     -10.434  10.928  67.832  1.00  0.00    -0.227 C  
HETATM   18  C   UNL     1      -6.483  10.581  69.821  1.00  0.00    -0.102 C  
HETATM   19  C   UNL     1      -6.563  11.484  68.593  1.00  0.00    -0.064 C  
HETATM   20  C   UNL     1      -7.966  11.703  68.068  1.00  0.00    -0.132 C  
ENDROOT
BRANCH   4  21
HETATM   21  C   UNL     1      -8.142   5.430  69.199  1.00  0.00    -0.094 C  
HETATM   22  O   UNL     1      -8.145   4.389  69.862  1.00  0.00    -0.062 OA 
BRANCH  21  23
HETATM   23  C   UNL     1      -8.320   5.258  67.694  1.00  0.00    -0.106 C  
BRANCH  23  24
HETATM   24  O   UNL     1      -7.194   5.813  67.030  1.00  0.00    -0.072 OA 
BRANCH  24  25
HETATM   25  C   UNL     1      -6.916   5.290  65.811  1.00  0.00    -0.066 C  
HETATM   26  C   UNL     1      -5.453   5.401  65.522  1.00  0.00    -0.013 C  
HETATM   27  O   UNL     1      -7.733   4.795  65.049  1.00  0.00    -0.076 OA 
ENDBRANCH  24  25
ENDBRANCH  23  24
ENDBRANCH  21  23
ENDBRANCH   4  21
TORSDOF 4
ENDMDL
MODEL      147
REMARK 921   NORMALIZED FREE ENERGY PREDICTED BY IDOCK:   -2.25 KCAL/MOL
REMARK 922        TOTAL FREE ENERGY PREDICTED BY IDOCK:   -2.33 KCAL/MOL
REMARK 923 INTER-LIGAND FREE ENERGY PREDICTED BY IDOCK:   -4.07 KCAL/MOL
REMARK 924 INTRA-LIGAND FREE ENERGY PREDICTED BY IDOCK:    1.73 KCAL/MOL
REMARK 927      BINDING AFFINITY PREDICTED BY RF-SCORE:    0.00 PKD
ROOT
HETATM    1  C   UNL     1     -11.635  14.932  66.099  1.00  0.00    -0.228 C  
HETATM    2  C   UNL     1     -11.566  15.488  64.788  1.00  0.00    -0.256 C  
HETATM    3  C   UNL     1     -10.299  14.753  65.099  1.00  0.00    -0.439 C  
HETATM    4  C   UNL     1     -10.354  13.638  66.816  1.00  0.00    -0.268 C  
HETATM    5  C   UNL     1      -5.947  18.282  67.199  1.00  0.00    -0.167 C  
HETATM    6  C   UNL     1     -10.829  13.282  65.593  1.00  0.00    -0.291 C  
HETATM    7  C   UNL     1     -11.756  12.237  65.042  1.00  0.00    -0.405 C  
HETATM    8  O   UNL     1      -5.815  19.907  68.965  1.00  0.00    -0.232 OA 
HETATM    9  C   UNL     1      -6.502  19.218  68.221  1.00  0.00    -0.235 C  
HETATM   10  C   UNL     1      -8.920  13.191  65.460  1.00  0.00     0.915 C  
HETATM   11  C   UNL     1      -7.969  19.322  68.225  1.00  0.00    -0.361 C  
HETATM   12  C   UNL     1      -8.165  14.356  66.591  1.00  0.00     0.248 C  
HETATM   13  C   UNL     1      -8.856  15.884  66.900  1.00  0.00    -0.264 C  
HETATM   14  C   UNL     1      -8.010  16.199  69.316  1.00  0.00    -0.194 C  
HETATM   15  C   UNL     1     -10.530  15.987  67.147  1.00  0.00    -0.308 C  
HETATM   16  C   UNL     1      -8.034  16.801  67.899  1.00  0.00    -0.182 C  
HETATM   17  C   UNL     1      -6.545  16.891  67.372  1.00  0.00    -0.190 C  
HETATM   18  C   UNL     1     -10.933  17.463  67.061  1.00  0.00     0.085 C  
HETATM   19  C   UNL     1     -10.198  18.306  68.099  1.00  0.00    -0.406 C  
HETATM   20  C   UNL     1      -8.689  18.200  68.035  1.00  0.00    -0.276 C  
ENDROOT
BRANCH   4  21
HETATM   21  C   UNL     1     -10.291  12.062  67.373  1.00  0.00    -0.207 C  
HETATM   22  O   UNL     1     -11.203  11.231  67.374  1.00  0.00    -0.284 OA 
BRANCH  21  23
HETATM   23  C   UNL     1      -8.966  11.595  67.967  1.00  0.00    -0.176 C  
BRANCH  23  24
HETATM   24  O   UNL     1      -8.474  12.599  68.843  1.00  0.00     0.095 OA 
BRANCH  24  25
HETATM   25  C   UNL     1      -7.138  12.571  69.073  1.00  0.00    -0.037 C  
HETATM   26  C   UNL     1      -6.424  11.973  67.903  1.00  0.00    -0.072 C  
HETATM   27  O   UNL     1      -6.585  12.972  70.086  1.00  0.00     0.070 OA 
ENDBRANCH  24  25
ENDBRANCH  23  24
ENDBRANCH  21  23
ENDBRANCH   4  21
TORSDOF 4
ENDMDL
MODEL      148
REMARK 921   NORMALIZED FREE ENERGY PREDICTED BY IDOCK:   -2.19 KCAL/MOL
REMARK 922        TOTAL FREE ENERGY PREDICTED BY IDOCK:   -2.26 KCAL/MOL
REMARK 923 INTER-LIGAND FREE ENERGY PREDICTED BY IDOCK:   -3.73 KCAL/MOL
REMARK 924 INTRA-LIGAND FREE ENERGY PREDICTED BY IDOCK:    1.47 KCAL/MOL
REMARK 927      BINDING AFFINITY PREDICTED BY RF-SCORE:    0.00 PKD
ROOT
HETATM    1  C   UNL     1     -10.577  11.928  67.081  1.00  0.00    -0.264 C  
HETATM    2  C   UNL     1     -11.813  11.539  66.486  1.00  0.00     0.285 C  
HETATM    3  C   UNL     1     -11.723  13.033  66.548  1.00  0.00    -0.437 C  
HETATM    4  C   UNL     1      -9.887  13.759  67.092  1.00  0.00    -0.242 C  
HETATM    5  C   UNL     1     -14.388  15.384  71.363  1.00  0.00    -0.500 C  
HETATM    6  C   UNL     1     -10.273  13.352  65.853  1.00  0.00    -0.302 C  
HETATM    7  C   UNL     1      -9.597  12.978  64.565  1.00  0.00     0.343 C  
HETATM    8  O   UNL     1     -14.256  14.957  73.725  1.00  0.00     1.882 OA 
HETATM    9  C   UNL     1     -14.030  14.593  72.577  1.00  0.00    -0.417 C  
HETATM   10  C   UNL     1     -11.151  15.029  66.150  1.00  0.00    -0.329 C  
HETATM   11  C   UNL     1     -13.441  13.274  72.299  1.00  0.00    -0.679 C  
HETATM   12  C   UNL     1     -11.438  15.275  67.900  1.00  0.00    -0.325 C  
HETATM   13  C   UNL     1     -11.851  13.984  68.933  1.00  0.00    -0.390 C  
HETATM   14  C   UNL     1     -10.813  14.896  71.111  1.00  0.00     0.135 C  
HETATM   15  C   UNL     1     -11.009  12.520  68.783  1.00  0.00    -0.294 C  
HETATM   16  C   UNL     1     -12.106  14.389  70.445  1.00  0.00    -0.399 C  
HETATM   17  C   UNL     1     -13.168  15.562  70.466  1.00  0.00    -0.183 C  
HETATM   18  C   UNL     1     -11.779  11.447  69.561  1.00  0.00    -0.417 C  
HETATM   19  C   UNL     1     -11.925  11.819  71.034  1.00  0.00     0.026 C  
HETATM   20  C   UNL     1     -12.571  13.167  71.277  1.00  0.00    -0.382 C  
ENDROOT
BRANCH   4  21
HETATM   21  C   UNL     1      -8.594  14.651  66.517  1.00  0.00     0.012 C  
HETATM   22  O   UNL     1      -7.396  14.365  66.591  1.00  0.00     0.431 OA 
BRANCH  21  23
HETATM   23  C   UNL     1      -8.920  15.978  65.840  1.00  0.00    -0.221 C  
BRANCH  23  24
HETATM   24  O   UNL     1      -7.775  16.817  65.894  1.00  0.00    -0.258 OA 
BRANCH  24  25
HETATM   25  C   UNL     1      -8.025  18.140  66.044  1.00  0.00    -0.115 C  
HETATM   26  C   UNL     1      -6.795  18.850  66.509  1.00  0.00    -0.223 C  
HETATM   27  O   UNL     1      -9.098  18.687  65.832  1.00  0.00    -0.467 OA 
ENDBRANCH  24  25
ENDBRANCH  23  24
ENDBRANCH  21  23
ENDBRANCH   4  21
TORSDOF 4
ENDMDL
MODEL      149
REMARK 921   NORMALIZED FREE ENERGY PREDICTED BY IDOCK:   -2.11 KCAL/MOL
REMARK 922        TOTAL FREE ENERGY PREDICTED BY IDOCK:   -2.17 KCAL/MOL
REMARK 923 INTER-LIGAND FREE ENERGY PREDICTED BY IDOCK:   -4.18 KCAL/MOL
REMARK 924 INTRA-LIGAND FREE ENERGY PREDICTED BY IDOCK:    2.02 KCAL/MOL
REMARK 927      BINDING AFFINITY PREDICTED BY RF-SCORE:    0.00 PKD
ROOT
HETATM    1  C   UNL     1     -11.154   7.152  70.007  1.00  0.00    -0.288 C  
HETATM    2  C   UNL     1     -11.242   6.169  68.978  1.00  0.00    -0.375 C  
HETATM    3  C   UNL     1      -9.890   6.119  69.619  1.00  0.00    -0.196 C  
HETATM    4  C   UNL     1      -9.702   7.251  71.314  1.00  0.00    -0.168 C  
HETATM    5  C   UNL     1      -5.748   9.302  66.700  1.00  0.00    -0.054 C  
HETATM    6  C   UNL     1     -10.235   6.004  71.218  1.00  0.00    -0.253 C  
HETATM    7  C   UNL     1     -11.097   5.114  72.066  1.00  0.00    -0.085 C  
HETATM    8  O   UNL     1      -5.636  11.563  65.894  1.00  0.00    -0.214 OA 
HETATM    9  C   UNL     1      -6.309  10.630  66.312  1.00  0.00    -0.119 C  
HETATM   10  C   UNL     1      -8.342   5.781  71.019  1.00  0.00    -0.123 C  
HETATM   11  C   UNL     1      -7.775  10.725  66.395  1.00  0.00    -0.145 C  
HETATM   12  C   UNL     1      -7.617   7.257  70.309  1.00  0.00    -0.089 C  
HETATM   13  C   UNL     1      -8.425   8.171  69.119  1.00  0.00    -0.135 C  
HETATM   14  C   UNL     1      -7.427  10.483  69.677  1.00  0.00    -0.145 C  
HETATM   15  C   UNL     1     -10.077   8.495  69.323  1.00  0.00    -0.203 C  
HETATM   16  C   UNL     1      -7.621   9.425  68.575  1.00  0.00    -0.081 C  
HETATM   17  C   UNL     1      -6.193   8.927  68.108  1.00  0.00    -0.051 C  
HETATM   18  C   UNL     1     -10.627   9.017  67.991  1.00  0.00    -0.242 C  
HETATM   19  C   UNL     1      -9.898  10.279  67.540  1.00  0.00    -0.204 C  
HETATM   20  C   UNL     1      -8.395  10.128  67.431  1.00  0.00    -0.118 C  
ENDROOT
BRANCH   4  21
HETATM   21  C   UNL     1      -9.443   7.133  72.963  1.00  0.00    -0.158 C  
HETATM   22  O   UNL     1      -9.149   8.043  73.742  1.00  0.00    -0.269 OA 
BRANCH  21  23
HETATM   23  C   UNL     1      -9.564   5.743  73.581  1.00  0.00    -0.142 C  
BRANCH  23  24
HETATM   24  O   UNL     1      -8.494   5.550  74.494  1.00  0.00    -0.105 OA 
BRANCH  24  25
HETATM   25  C   UNL     1      -7.809   4.389  74.356  1.00  0.00    -0.088 C  
HETATM   26  C   UNL     1      -8.741   3.279  73.989  1.00  0.00    -0.080 C  
HETATM   27  O   UNL     1      -6.604   4.254  74.506  1.00  0.00    -0.054 OA 
ENDBRANCH  24  25
ENDBRANCH  23  24
ENDBRANCH  21  23
ENDBRANCH   4  21
TORSDOF 4
ENDMDL
MODEL      150
REMARK 921   NORMALIZED FREE ENERGY PREDICTED BY IDOCK:   -1.98 KCAL/MOL
REMARK 922        TOTAL FREE ENERGY PREDICTED BY IDOCK:   -2.00 KCAL/MOL
REMARK 923 INTER-LIGAND FREE ENERGY PREDICTED BY IDOCK:   -3.36 KCAL/MOL
REMARK 924 INTRA-LIGAND FREE ENERGY PREDICTED BY IDOCK:    1.36 KCAL/MOL
REMARK 927      BINDING AFFINITY PREDICTED BY RF-SCORE:    0.00 PKD
ROOT
HETATM    1  C   UNL     1     -11.208   9.083  68.156  1.00  0.00     0.352 C  
HETATM    2  C   UNL     1     -11.595  10.156  69.011  1.00  0.00    -0.076 C  
HETATM    3  C   UNL     1     -10.102  10.065  68.949  1.00  0.00    -0.200 C  
HETATM    4  C   UNL     1      -9.381   8.778  67.529  1.00  0.00    -0.161 C  
HETATM    5  C   UNL     1      -7.714   6.899  73.430  1.00  0.00    -0.097 C  
HETATM    6  C   UNL     1      -9.792  10.060  67.338  1.00  0.00    -0.226 C  
HETATM    7  C   UNL     1     -10.176  10.923  66.172  1.00  0.00    -0.304 C  
HETATM    8  O   UNL     1      -8.129   4.715  74.344  1.00  0.00    -0.098 OA 
HETATM    9  C   UNL     1      -8.501   5.648  73.643  1.00  0.00    -0.114 C  
HETATM   10  C   UNL     1      -8.110  10.180  68.248  1.00  0.00    -0.102 C  
HETATM   11  C   UNL     1      -9.824   5.638  72.999  1.00  0.00    -0.181 C  
HETATM   12  C   UNL     1      -7.853   8.731  69.267  1.00  0.00    -0.100 C  
HETATM   13  C   UNL     1      -9.138   7.977  70.097  1.00  0.00    -0.151 C  
HETATM   14  C   UNL     1      -8.219   5.567  70.106  1.00  0.00    -0.102 C  
HETATM   15  C   UNL     1     -10.606   7.741  69.283  1.00  0.00    -0.199 C  
HETATM   16  C   UNL     1      -8.724   6.728  70.982  1.00  0.00    -0.137 C  
HETATM   17  C   UNL     1      -7.546   7.175  71.941  1.00  0.00    -0.087 C  
HETATM   18  C   UNL     1     -11.672   7.373  70.321  1.00  0.00    -0.100 C  
HETATM   19  C   UNL     1     -11.292   6.112  71.092  1.00  0.00    -0.340 C  
HETATM   20  C   UNL     1      -9.939   6.179  71.771  1.00  0.00    -0.197 C  
ENDROOT
BRANCH   4  21
HETATM   21  C   UNL     1      -8.497   8.734  66.109  1.00  0.00    -0.131 C  
HETATM   22  O   UNL     1      -8.765   8.108  65.080  1.00  0.00    -0.099 OA 
BRANCH  21  23
HETATM   23  C   UNL     1      -7.203   9.541  66.078  1.00  0.00    -0.093 C  
BRANCH  23  24
HETATM   24  O   UNL     1      -6.772   9.669  64.731  1.00  0.00    -0.091 OA 
BRANCH  24  25
HETATM   25  C   UNL     1      -5.754  10.539  64.522  1.00  0.00    -0.100 C  
HETATM   26  C   UNL     1      -5.382  11.216  65.802  1.00  0.00    -0.061 C  
HETATM   27  O   UNL     1      -5.209  10.749  63.449  1.00  0.00    -0.169 OA 
ENDBRANCH  24  25
ENDBRANCH  23  24
ENDBRANCH  21  23
ENDBRANCH   4  21
TORSDOF 4
ENDMDL
MODEL      151
REMARK 921   NORMALIZED FREE ENERGY PREDICTED BY IDOCK:   -1.94 KCAL/MOL
REMARK 922        TOTAL FREE ENERGY PREDICTED BY IDOCK:   -1.96 KCAL/MOL
REMARK 923 INTER-LIGAND FREE ENERGY PREDICTED BY IDOCK:   -3.37 KCAL/MOL
REMARK 924 INTRA-LIGAND FREE ENERGY PREDICTED BY IDOCK:    1.41 KCAL/MOL
REMARK 927      BINDING AFFINITY PREDICTED BY RF-SCORE:    0.00 PKD
ROOT
HETATM    1  C   UNL     1     -10.477   7.195  68.283  1.00  0.00    -0.235 C  
HETATM    2  C   UNL     1     -10.669   7.129  66.872  1.00  0.00    -0.363 C  
HETATM    3  C   UNL     1      -9.232   6.873  67.205  1.00  0.00    -0.153 C  
HETATM    4  C   UNL     1      -8.845   6.627  69.201  1.00  0.00    -0.129 C  
HETATM    5  C   UNL     1      -5.794  11.759  66.858  1.00  0.00    -0.143 C  
HETATM    6  C   UNL     1      -9.313   5.688  68.335  1.00  0.00    -0.133 C  
HETATM    7  C   UNL     1      -9.978   4.345  68.433  1.00  0.00    -0.070 C  
HETATM    8  O   UNL     1      -5.942  13.978  67.770  1.00  0.00    -0.192 OA 
HETATM    9  C   UNL     1      -6.486  12.913  67.506  1.00  0.00    -0.160 C  
HETATM   10  C   UNL     1      -7.465   5.935  67.891  1.00  0.00    -0.081 C  
HETATM   11  C   UNL     1      -7.923  12.711  67.746  1.00  0.00    -0.158 C  
HETATM   12  C   UNL     1      -6.949   7.600  68.299  1.00  0.00    -0.072 C  
HETATM   13  C   UNL     1      -7.987   8.937  68.097  1.00  0.00    -0.102 C  
HETATM   14  C   UNL     1      -7.049  10.431  69.979  1.00  0.00    -0.155 C  
HETATM   15  C   UNL     1      -9.602   8.798  68.593  1.00  0.00    -0.159 C  
HETATM   16  C   UNL     1      -7.352  10.341  68.472  1.00  0.00    -0.082 C  
HETATM   17  C   UNL     1      -5.989  10.491  67.682  1.00  0.00    -0.044 C  
HETATM   18  C   UNL     1     -10.384   9.976  68.003  1.00  0.00    -0.238 C  
HETATM   19  C   UNL     1      -9.809  11.314  68.459  1.00  0.00    -0.198 C  
HETATM   20  C   UNL     1      -8.336  11.497  68.159  1.00  0.00    -0.152 C  
ENDROOT
BRANCH   4  21
HETATM   21  C   UNL     1      -8.323   5.496  70.318  1.00  0.00    -0.110 C  
HETATM   22  O   UNL     1      -8.866   5.190  71.383  1.00  0.00    -0.129 OA 
BRANCH  21  23
HETATM   23  C   UNL     1      -7.020   4.769  70.003  1.00  0.00    -0.049 C  
BRANCH  23  24
HETATM   24  O   UNL     1      -7.086   3.454  70.537  1.00  0.00    -0.033 OA 
BRANCH  24  25
HETATM   25  C   UNL     1      -6.014   3.066  71.271  1.00  0.00    -0.014 C  
HETATM   26  C   UNL     1      -6.037   1.585  71.477  1.00  0.00    -0.014 C  
HETATM   27  O   UNL     1      -5.147   3.809  71.706  1.00  0.00     0.000 OA 
ENDBRANCH  24  25
ENDBRANCH  23  24
ENDBRANCH  21  23
ENDBRANCH   4  21
TORSDOF 4
ENDMDL
MODEL      152
REMARK 921   NORMALIZED FREE ENERGY PREDICTED BY IDOCK:   -1.90 KCAL/MOL
REMARK 922        TOTAL FREE ENERGY PREDICTED BY IDOCK:   -1.90 KCAL/MOL
REMARK 923 INTER-LIGAND FREE ENERGY PREDICTED BY IDOCK:   -3.07 KCAL/MOL
REMARK 924 INTRA-LIGAND FREE ENERGY PREDICTED BY IDOCK:    1.17 KCAL/MOL
REMARK 927      BINDING AFFINITY PREDICTED BY RF-SCORE:    0.00 PKD
ROOT
HETATM    1  C   UNL     1      -5.793   6.536  68.003  1.00  0.00    -0.016 C  
HETATM    2  C   UNL     1      -5.680   7.552  67.009  1.00  0.00    -0.031 C  
HETATM    3  C   UNL     1      -7.077   7.515  67.546  1.00  0.00    -0.085 C  
HETATM    4  C   UNL     1      -7.331   6.325  69.192  1.00  0.00    -0.089 C  
HETATM    5  C   UNL     1     -10.816   4.215  64.238  1.00  0.00    -0.094 C  
HETATM    6  C   UNL     1      -6.859   7.600  69.169  1.00  0.00    -0.053 C  
HETATM    7  C   UNL     1      -6.111   8.506  70.103  1.00  0.00    -0.034 C  
HETATM    8  O   UNL     1     -10.749   1.976  63.368  1.00  0.00    -0.181 OA 
HETATM    9  C   UNL     1     -10.159   2.929  63.861  1.00  0.00    -0.162 C  
HETATM   10  C   UNL     1      -8.741   7.732  68.833  1.00  0.00    -0.135 C  
HETATM   11  C   UNL     1      -8.700   2.906  64.052  1.00  0.00    -0.090 C  
HETATM   12  C   UNL     1      -9.332   6.244  68.031  1.00  0.00    -0.114 C  
HETATM   13  C   UNL     1      -8.390   5.407  66.883  1.00  0.00    -0.108 C  
HETATM   14  C   UNL     1      -9.304   3.032  67.303  1.00  0.00    -0.198 C  
HETATM   15  C   UNL     1      -6.744   5.161  67.204  1.00  0.00    -0.055 C  
HETATM   16  C   UNL     1      -9.085   4.131  66.247  1.00  0.00    -0.134 C  
HETATM   17  C   UNL     1     -10.498   4.570  65.686  1.00  0.00    -0.261 C  
HETATM   18  C   UNL     1      -6.069   4.707  65.904  1.00  0.00    -0.027 C  
HETATM   19  C   UNL     1      -6.695   3.423  65.367  1.00  0.00    -0.041 C  
HETATM   20  C   UNL     1      -8.192   3.502  65.148  1.00  0.00    -0.097 C  
ENDROOT
BRANCH   4  21
HETATM   21  C   UNL     1      -7.719   6.381  70.819  1.00  0.00    -0.102 C  
HETATM   22  O   UNL     1      -7.093   6.946  71.719  1.00  0.00    -0.072 OA 
BRANCH  21  23
HETATM   23  C   UNL     1      -8.977   5.636  71.253  1.00  0.00    -0.139 C  
BRANCH  23  24
HETATM   24  O   UNL     1      -8.928   5.426  72.657  1.00  0.00    -0.132 OA 
BRANCH  24  25
HETATM   25  C   UNL     1      -9.789   4.499  73.141  1.00  0.00    -0.137 C  
HETATM   26  C   UNL     1     -11.119   5.123  73.417  1.00  0.00    -0.385 C  
HETATM   27  O   UNL     1      -9.530   3.319  73.329  1.00  0.00    -0.099 OA 
ENDBRANCH  24  25
ENDBRANCH  23  24
ENDBRANCH  21  23
ENDBRANCH   4  21
TORSDOF 4
ENDMDL
MODEL      153
REMARK 921   NORMALIZED FREE ENERGY PREDICTED BY IDOCK:   -1.75 KCAL/MOL
REMARK 922        TOTAL FREE ENERGY PREDICTED BY IDOCK:   -1.72 KCAL/MOL
REMARK 923 INTER-LIGAND FREE ENERGY PREDICTED BY IDOCK:   -3.49 KCAL/MOL
REMARK 924 INTRA-LIGAND FREE ENERGY PREDICTED BY IDOCK:    1.77 KCAL/MOL
REMARK 927      BINDING AFFINITY PREDICTED BY RF-SCORE:    0.00 PKD
ROOT
HETATM    1  C   UNL     1     -10.858   7.629  68.351  1.00  0.00    -0.011 C  
HETATM    2  C   UNL     1     -11.259   6.621  67.425  1.00  0.00    -0.294 C  
HETATM    3  C   UNL     1      -9.870   6.345  67.912  1.00  0.00    -0.130 C  
HETATM    4  C   UNL     1      -9.260   7.520  69.474  1.00  0.00    -0.146 C  
HETATM    5  C   UNL     1      -5.605   8.464  64.289  1.00  0.00    -0.059 C  
HETATM    6  C   UNL     1     -10.026   6.399  69.543  1.00  0.00    -0.190 C  
HETATM    7  C   UNL     1     -10.926   5.750  70.555  1.00  0.00    -0.320 C  
HETATM    8  O   UNL     1      -5.172  10.605  63.287  1.00  0.00    -0.151 OA 
HETATM    9  C   UNL     1      -5.950   9.850  63.855  1.00  0.00    -0.121 C  
HETATM   10  C   UNL     1      -8.249   5.796  69.154  1.00  0.00    -0.101 C  
HETATM   11  C   UNL     1      -7.350  10.237  64.093  1.00  0.00    -0.063 C  
HETATM   12  C   UNL     1      -7.355   7.053  68.245  1.00  0.00    -0.097 C  
HETATM   13  C   UNL     1      -8.121   8.034  67.079  1.00  0.00    -0.116 C  
HETATM   14  C   UNL     1      -6.643  10.134  67.324  1.00  0.00    -0.069 C  
HETATM   15  C   UNL     1      -9.643   8.689  67.439  1.00  0.00    -0.204 C  
HETATM   16  C   UNL     1      -7.170   9.069  66.345  1.00  0.00    -0.087 C  
HETATM   17  C   UNL     1      -5.932   8.272  65.765  1.00  0.00    -0.041 C  
HETATM   18  C   UNL     1     -10.248   9.226  66.137  1.00  0.00    -0.229 C  
HETATM   19  C   UNL     1      -9.357  10.290  65.503  1.00  0.00    -0.250 C  
HETATM   20  C   UNL     1      -7.935   9.839  65.239  1.00  0.00    -0.123 C  
ENDROOT
BRANCH   4  21
HETATM   21  C   UNL     1      -8.822   7.455  71.087  1.00  0.00    -0.142 C  
HETATM   22  O   UNL     1      -8.583   8.404  71.837  1.00  0.00    -0.154 OA 
BRANCH  21  23
HETATM   23  C   UNL     1      -8.682   6.068  71.707  1.00  0.00    -0.138 C  
BRANCH  23  24
HETATM   24  O   UNL     1      -7.756   6.135  72.782  1.00  0.00    -0.103 OA 
BRANCH  24  25
HETATM   25  C   UNL     1      -6.661   5.344  72.661  1.00  0.00    -0.075 C  
HETATM   26  C   UNL     1      -7.069   3.941  72.347  1.00  0.00    -0.051 C  
HETATM   27  O   UNL     1      -5.503   5.713  72.788  1.00  0.00    -0.021 OA 
ENDBRANCH  24  25
ENDBRANCH  23  24
ENDBRANCH  21  23
ENDBRANCH   4  21
TORSDOF 4
ENDMDL
MODEL      154
REMARK 921   NORMALIZED FREE ENERGY PREDICTED BY IDOCK:   -1.57 KCAL/MOL
REMARK 922        TOTAL FREE ENERGY PREDICTED BY IDOCK:   -1.50 KCAL/MOL
REMARK 923 INTER-LIGAND FREE ENERGY PREDICTED BY IDOCK:   -3.32 KCAL/MOL
REMARK 924 INTRA-LIGAND FREE ENERGY PREDICTED BY IDOCK:    1.83 KCAL/MOL
REMARK 927      BINDING AFFINITY PREDICTED BY RF-SCORE:    0.00 PKD
ROOT
HETATM    1  C   UNL     1      -7.384  10.639  66.604  1.00  0.00    -0.129 C  
HETATM    2  C   UNL     1      -7.285  10.047  67.897  1.00  0.00    -0.087 C  
HETATM    3  C   UNL     1      -8.572  10.802  67.778  1.00  0.00    -0.127 C  
HETATM    4  C   UNL     1      -9.013  11.453  65.887  1.00  0.00    -0.184 C  
HETATM    5  C   UNL     1      -8.276  16.379  69.928  1.00  0.00     0.928 C  
HETATM    6  C   UNL     1      -9.229  10.211  66.396  1.00  0.00    -0.190 C  
HETATM    7  C   UNL     1      -9.531   8.844  65.854  1.00  0.00    -0.303 C  
HETATM    8  O   UNL     1      -6.785  18.232  69.576  1.00  0.00    -0.216 OA 
HETATM    9  C   UNL     1      -7.016  17.034  69.468  1.00  0.00    -0.052 C  
HETATM   10  C   UNL     1     -10.537  11.348  67.215  1.00  0.00    -0.264 C  
HETATM   11  C   UNL     1      -6.005  16.110  68.929  1.00  0.00    -0.123 C  
HETATM   12  C   UNL     1      -9.915  13.023  67.328  1.00  0.00    -0.232 C  
HETATM   13  C   UNL     1      -8.275  13.353  67.660  1.00  0.00    -0.177 C  
HETATM   14  C   UNL     1      -8.079  15.596  66.402  1.00  0.00    -0.046 C  
HETATM   15  C   UNL     1      -7.085  12.449  66.859  1.00  0.00     0.095 C  
HETATM   16  C   UNL     1      -7.908  14.892  67.761  1.00  0.00    -0.164 C  
HETATM   17  C   UNL     1      -8.896  15.566  68.798  1.00  0.00    -0.203 C  
HETATM   18  C   UNL     1      -5.747  12.692  67.568  1.00  0.00    -0.131 C  
HETATM   19  C   UNL     1      -5.373  14.171  67.565  1.00  0.00     0.205 C  
HETATM   20  C   UNL     1      -6.423  15.084  68.163  1.00  0.00    -0.138 C  
ENDROOT
BRANCH   4  21
HETATM   21  C   UNL     1     -10.111  11.254  64.641  1.00  0.00    -0.290 C  
HETATM   22  O   UNL     1      -9.865  11.128  63.439  1.00  0.00    -0.288 OA 
BRANCH  21  23
HETATM   23  C   UNL     1     -11.588  11.243  65.021  1.00  0.00     0.274 C  
BRANCH  23  24
HETATM   24  O   UNL     1     -12.249  12.294  64.331  1.00  0.00    -0.410 OA 
BRANCH  24  25
HETATM   25  C   UNL     1     -12.333  13.470  64.999  1.00  0.00    -0.428 C  
HETATM   26  C   UNL     1     -12.076  14.613  64.070  1.00  0.00    -0.229 C  
HETATM   27  O   UNL     1     -12.582  13.593  66.189  1.00  0.00    -0.412 OA 
ENDBRANCH  24  25
ENDBRANCH  23  24
ENDBRANCH  21  23
ENDBRANCH   4  21
TORSDOF 4
ENDMDL
MODEL      155
REMARK 921   NORMALIZED FREE ENERGY PREDICTED BY IDOCK:   -1.24 KCAL/MOL
REMARK 922        TOTAL FREE ENERGY PREDICTED BY IDOCK:   -1.09 KCAL/MOL
REMARK 923 INTER-LIGAND FREE ENERGY PREDICTED BY IDOCK:   -1.88 KCAL/MOL
REMARK 924 INTRA-LIGAND FREE ENERGY PREDICTED BY IDOCK:    0.79 KCAL/MOL
REMARK 927      BINDING AFFINITY PREDICTED BY RF-SCORE:    0.00 PKD
ROOT
HETATM    1  C   UNL     1      -7.094  13.703  67.149  1.00  0.00     0.246 C  
HETATM    2  C   UNL     1      -6.066  13.156  67.972  1.00  0.00    -0.118 C  
HETATM    3  C   UNL     1      -7.161  13.716  68.826  1.00  0.00    -0.100 C  
HETATM    4  C   UNL     1      -8.851  14.260  67.805  1.00  0.00    -0.185 C  
HETATM    5  C   UNL     1      -6.131  19.317  70.662  1.00  0.00    -0.051 C  
HETATM    6  C   UNL     1      -8.511  13.010  68.218  1.00  0.00    -0.159 C  
HETATM    7  C   UNL     1      -8.939  11.603  67.913  1.00  0.00    -0.170 C  
HETATM    8  O   UNL     1      -5.520  21.358  69.549  1.00  0.00    -0.327 OA 
HETATM    9  C   UNL     1      -5.618  20.137  69.525  1.00  0.00    -0.272 C  
HETATM   10  C   UNL     1      -9.022  13.962  69.800  1.00  0.00     1.451 C  
HETATM   11  C   UNL     1      -5.154  19.359  68.367  1.00  0.00    -0.189 C  
HETATM   12  C   UNL     1      -8.695  15.711  69.602  1.00  0.00    -0.100 C  
HETATM   13  C   UNL     1      -7.329  16.280  68.755  1.00  0.00    -0.191 C  
HETATM   14  C   UNL     1      -8.315  18.503  67.898  1.00  0.00    -0.281 C  
HETATM   15  C   UNL     1      -6.917  15.542  67.285  1.00  0.00    -0.206 C  
HETATM   16  C   UNL     1      -7.177  17.857  68.709  1.00  0.00    -0.275 C  
HETATM   17  C   UNL     1      -7.255  18.401  70.193  1.00  0.00     1.114 C  
HETATM   18  C   UNL     1      -5.499  15.988  66.910  1.00  0.00     0.401 C  
HETATM   19  C   UNL     1      -5.406  17.506  66.779  1.00  0.00    -0.199 C  
HETATM   20  C   UNL     1      -5.858  18.269  68.007  1.00  0.00    -0.165 C  
ENDROOT
BRANCH   4  21
HETATM   21  C   UNL     1     -10.471  13.881  67.630  1.00  0.00    -0.245 C  
HETATM   22  O   UNL     1     -11.139  13.111  68.324  1.00  0.00    -0.242 OA 
BRANCH  21  23
HETATM   23  C   UNL     1     -11.211  14.542  66.472  1.00  0.00    -0.344 C  
BRANCH  23  24
HETATM   24  O   UNL     1     -12.093  13.595  65.887  1.00  0.00    -0.386 OA 
BRANCH  24  25
HETATM   25  C   UNL     1     -12.115  13.575  64.531  1.00  0.00    -0.416 C  
HETATM   26  C   UNL     1     -11.551  14.848  63.987  1.00  0.00     0.105 C  
HETATM   27  O   UNL     1     -12.534  12.657  63.843  1.00  0.00    -0.572 OA 
ENDBRANCH  24  25
ENDBRANCH  23  24
ENDBRANCH  21  23
ENDBRANCH   4  21
TORSDOF 4
ENDMDL
MODEL      156
REMARK 921   NORMALIZED FREE ENERGY PREDICTED BY IDOCK:    0.30 KCAL/MOL
REMARK 922        TOTAL FREE ENERGY PREDICTED BY IDOCK:    0.82 KCAL/MOL
REMARK 923 INTER-LIGAND FREE ENERGY PREDICTED BY IDOCK:    0.22 KCAL/MOL
REMARK 924 INTRA-LIGAND FREE ENERGY PREDICTED BY IDOCK:    0.60 KCAL/MOL
REMARK 927      BINDING AFFINITY PREDICTED BY RF-SCORE:    0.00 PKD
ROOT
HETATM    1  C   UNL     1     -11.400  11.129  65.368  1.00  0.00     0.124 C  
HETATM    2  C   UNL     1     -12.057  11.764  64.273  1.00  0.00    -0.252 C  
HETATM    3  C   UNL     1     -10.600  12.108  64.264  1.00  0.00    -0.385 C  
HETATM    4  C   UNL     1      -9.457  11.038  65.584  1.00  0.00    -0.250 C  
HETATM    5  C   UNL     1      -9.359  17.299  66.971  1.00  0.00    -0.257 C  
HETATM    6  C   UNL     1      -9.866  10.644  64.348  1.00  0.00    -0.395 C  
HETATM    7  C   UNL     1      -9.962   9.353  63.587  1.00  0.00     1.797 C  
HETATM    8  O   UNL     1      -9.895  18.237  69.118  1.00  0.00    -0.279 OA 
HETATM    9  C   UNL     1     -10.109  17.392  68.258  1.00  0.00    -0.339 C  
HETATM   10  C   UNL     1      -8.501  11.957  64.054  1.00  0.00     1.483 C  
HETATM   11  C   UNL     1     -11.206  16.422  68.401  1.00  0.00    -0.324 C  
HETATM   12  C   UNL     1      -8.458  13.118  65.416  1.00  0.00     2.412 C  
HETATM   13  C   UNL     1      -9.879  13.632  66.205  1.00  0.00    -0.304 C  
HETATM   14  C   UNL     1      -8.877  14.075  68.539  1.00  0.00    -0.160 C  
HETATM   15  C   UNL     1     -11.058  12.477  66.593  1.00  0.00    -0.327 C  
HETATM   16  C   UNL     1      -9.658  14.691  67.364  1.00  0.00    -0.215 C  
HETATM   17  C   UNL     1      -8.808  15.891  66.777  1.00  0.00    -0.294 C  
HETATM   18  C   UNL     1     -12.346  13.220  66.968  1.00  0.00    -0.190 C  
HETATM   19  C   UNL     1     -12.125  14.161  68.149  1.00  0.00    -0.297 C  
HETATM   20  C   UNL     1     -11.012  15.169  67.947  1.00  0.00    -0.302 C  
ENDROOT
BRANCH   4  21
HETATM   21  C   UNL     1      -8.222   9.912  65.654  1.00  0.00    -0.138 C  
HETATM   22  O   UNL     1      -7.277   9.787  64.871  1.00  0.00    -0.116 OA 
BRANCH  21  23
HETATM   23  C   UNL     1      -8.268   8.910  66.803  1.00  0.00    -0.111 C  
BRANCH  23  24
HETATM   24  O   UNL     1      -9.143   7.848  66.454  1.00  0.00    -0.162 OA 
BRANCH  24  25
HETATM   25  C   UNL     1      -9.755   7.227  67.492  1.00  0.00    -0.145 C  
HETATM   26  C   UNL     1      -8.741   6.770  68.491  1.00  0.00    -0.124 C  
HETATM   27  O   UNL     1     -10.960   7.060  67.607  1.00  0.00    -0.233 OA 
ENDBRANCH  24  25
ENDBRANCH  23  24
ENDBRANCH  21  23
ENDBRANCH   4  21
TORSDOF 4
ENDMDL
MODEL      157
REMARK 921   NORMALIZED FREE ENERGY PREDICTED BY IDOCK:    1.96 KCAL/MOL
REMARK 922        TOTAL FREE ENERGY PREDICTED BY IDOCK:    2.85 KCAL/MOL
REMARK 923 INTER-LIGAND FREE ENERGY PREDICTED BY IDOCK:   -0.99 KCAL/MOL
REMARK 924 INTRA-LIGAND FREE ENERGY PREDICTED BY IDOCK:    3.84 KCAL/MOL
REMARK 927      BINDING AFFINITY PREDICTED BY RF-SCORE:    0.00 PKD
ROOT
HETATM    1  C   UNL     1      -7.246  13.365  66.889  1.00  0.00     0.630 C  
HETATM    2  C   UNL     1      -6.532  14.241  67.758  1.00  0.00    -0.181 C  
HETATM    3  C   UNL     1      -7.002  13.039  68.517  1.00  0.00    -0.102 C  
HETATM    4  C   UNL     1      -7.776  11.540  67.355  1.00  0.00    -0.143 C  
HETATM    5  C   UNL     1     -12.196  13.894  71.362  1.00  0.00    -0.296 C  
HETATM    6  C   UNL     1      -6.462  11.785  67.608  1.00  0.00    -0.082 C  
HETATM    7  C   UNL     1      -5.141  11.379  67.021  1.00  0.00    -0.080 C  
HETATM    8  O   UNL     1     -14.355  14.715  70.695  1.00  0.00     0.280 OA 
HETATM    9  C   UNL     1     -13.159  14.595  70.461  1.00  0.00    -0.202 C  
HETATM   10  C   UNL     1      -7.180  11.055  69.228  1.00  0.00    -0.124 C  
HETATM   11  C   UNL     1     -12.548  15.217  69.275  1.00  0.00     0.112 C  
HETATM   12  C   UNL     1      -8.922  11.447  69.364  1.00  0.00     0.523 C  
HETATM   13  C   UNL     1      -9.551  12.940  68.834  1.00  0.00     0.215 C  
HETATM   14  C   UNL     1     -11.924  12.148  68.206  1.00  0.00    -0.248 C  
HETATM   15  C   UNL     1      -9.032  13.559  67.343  1.00  0.00    -0.219 C  
HETATM   16  C   UNL     1     -11.108  13.132  69.065  1.00  0.00    -0.282 C  
HETATM   17  C   UNL     1     -11.418  12.837  70.589  1.00  0.00     0.718 C  
HETATM   18  C   UNL     1      -9.465  15.028  67.262  1.00  0.00    -0.212 C  
HETATM   19  C   UNL     1     -10.978  15.173  67.391  1.00  0.00    -0.314 C  
HETATM   20  C   UNL     1     -11.561  14.553  68.644  1.00  0.00    -0.346 C  
ENDROOT
BRANCH   4  21
HETATM   21  C   UNL     1      -7.504   9.960  66.880  1.00  0.00    -0.092 C  
HETATM   22  O   UNL     1      -7.066   9.568  65.795  1.00  0.00    -0.091 OA 
BRANCH  21  23
HETATM   23  C   UNL     1      -7.850   8.869  67.889  1.00  0.00    -0.102 C  
BRANCH  23  24
HETATM   24  O   UNL     1      -7.265   7.646  67.464  1.00  0.00    -0.082 OA 
BRANCH  24  25
HETATM   25  C   UNL     1      -7.490   7.308  66.171  1.00  0.00    -0.083 C  
HETATM   26  C   UNL     1      -6.214   6.878  65.520  1.00  0.00    -0.039 C  
HETATM   27  O   UNL     1      -8.573   7.345  65.607  1.00  0.00    -0.148 OA 
ENDBRANCH  24  25
ENDBRANCH  23  24
ENDBRANCH  21  23
ENDBRANCH   4  21
TORSDOF 4
ENDMDL
MODEL      158
REMARK 921   NORMALIZED FREE ENERGY PREDICTED BY IDOCK:    5.11 KCAL/MOL
REMARK 922        TOTAL FREE ENERGY PREDICTED BY IDOCK:    6.75 KCAL/MOL
REMARK 923 INTER-LIGAND FREE ENERGY PREDICTED BY IDOCK:   -4.60 KCAL/MOL
REMARK 924 INTRA-LIGAND FREE ENERGY PREDICTED BY IDOCK:   11.35 KCAL/MOL
REMARK 927      BINDING AFFINITY PREDICTED BY RF-SCORE:    0.00 PKD
ROOT
HETATM    1  C   UNL     1      -9.505  16.169  65.467  1.00  0.00     0.020 C  
HETATM    2  C   UNL     1     -10.721  16.912  65.454  1.00  0.00    -0.161 C  
HETATM    3  C   UNL     1     -10.095  16.981  66.812  1.00  0.00    -0.300 C  
HETATM    4  C   UNL     1      -8.195  16.227  66.919  1.00  0.00    -0.261 C  
HETATM    5  C   UNL     1     -12.230  12.900  70.633  1.00  0.00    -0.386 C  
HETATM    6  C   UNL     1      -8.561  17.466  66.495  1.00  0.00    -0.293 C  
HETATM    7  C   UNL     1      -7.930  18.587  65.722  1.00  0.00     0.124 C  
HETATM    8  O   UNL     1     -12.531  10.517  70.541  1.00  0.00    -0.316 OA 
HETATM    9  C   UNL     1     -12.328  11.574  69.955  1.00  0.00    -0.213 C  
HETATM   10  C   UNL     1      -8.787  17.476  68.398  1.00  0.00    -0.276 C  
HETATM   11  C   UNL     1     -12.239  11.626  68.488  1.00  0.00     0.055 C  
HETATM   12  C   UNL     1      -9.158  15.825  68.985  1.00  0.00    -0.245 C  
HETATM   13  C   UNL     1     -10.131  14.750  68.088  1.00  0.00    -0.221 C  
HETATM   14  C   UNL     1      -9.082  12.534  68.889  1.00  0.00     0.305 C  
HETATM   15  C   UNL     1      -9.876  14.622  66.417  1.00  0.00    -0.302 C  
HETATM   16  C   UNL     1     -10.387  13.345  68.776  1.00  0.00    -0.164 C  
HETATM   17  C   UNL     1     -10.938  13.605  70.236  1.00  0.00     0.622 C  
HETATM   18  C   UNL     1     -11.070  13.876  65.810  1.00  0.00    -0.294 C  
HETATM   19  C   UNL     1     -11.233  12.488  66.423  1.00  0.00    -0.353 C  
HETATM   20  C   UNL     1     -11.360  12.482  67.932  1.00  0.00    -0.343 C  
ENDROOT
BRANCH   4  21
HETATM   21  C   UNL     1      -6.608  16.672  67.205  1.00  0.00    -0.187 C  
HETATM   22  O   UNL     1      -5.608  15.952  67.159  1.00  0.00    -0.333 OA 
BRANCH  21  23
HETATM   23  C   UNL     1      -6.359  18.129  67.584  1.00  0.00    -0.174 C  
BRANCH  23  24
HETATM   24  O   UNL     1      -7.610  18.781  67.753  1.00  0.00    -0.226 OA 
BRANCH  24  25
HETATM   25  C   UNL     1      -7.722  19.553  68.862  1.00  0.00    -0.334 C  
HETATM   26  C   UNL     1      -6.371  20.002  69.317  1.00  0.00    -0.365 C  
HETATM   27  O   UNL     1      -8.770  19.846  69.418  1.00  0.00     0.020 OA 
ENDBRANCH  24  25
ENDBRANCH  23  24
ENDBRANCH  21  23
ENDBRANCH   4  21
TORSDOF 4
ENDMDL
MODEL      159
REMARK 921   NORMALIZED FREE ENERGY PREDICTED BY IDOCK:    8.57 KCAL/MOL
REMARK 922        TOTAL FREE ENERGY PREDICTED BY IDOCK:   11.01 KCAL/MOL
REMARK 923 INTER-LIGAND FREE ENERGY PREDICTED BY IDOCK:    7.67 KCAL/MOL
REMARK 924 INTRA-LIGAND FREE ENERGY PREDICTED BY IDOCK:    3.34 KCAL/MOL
REMARK 927      BINDING AFFINITY PREDICTED BY RF-SCORE:    0.00 PKD
ROOT
HETATM    1  C   UNL     1      -8.899  14.453  69.496  1.00  0.00     0.432 C  
HETATM    2  C   UNL     1      -7.705  15.121  69.095  1.00  0.00    -0.195 C  
HETATM    3  C   UNL     1      -8.201  14.251  67.983  1.00  0.00    -0.153 C  
HETATM    4  C   UNL     1     -10.067  13.461  68.280  1.00  0.00    -0.247 C  
HETATM    5  C   UNL     1      -5.631   8.849  67.850  1.00  0.00    -0.035 C  
HETATM    6  C   UNL     1      -9.769  14.705  67.820  1.00  0.00    -0.215 C  
HETATM    7  C   UNL     1     -10.493  16.008  67.644  1.00  0.00    -0.292 C  
HETATM    8  O   UNL     1      -5.289   7.117  69.482  1.00  0.00    -0.015 OA 
HETATM    9  C   UNL     1      -5.568   8.283  69.230  1.00  0.00    -0.031 C  
HETATM   10  C   UNL     1      -9.365  13.505  66.382  1.00  0.00    -0.191 C  
HETATM   11  C   UNL     1      -5.796   9.261  70.305  1.00  0.00    -0.036 C  
HETATM   12  C   UNL     1      -8.905  11.899  67.028  1.00  0.00    -0.190 C  
HETATM   13  C   UNL     1      -7.998  11.734  68.461  1.00  0.00    -0.145 C  
HETATM   14  C   UNL     1      -8.920   9.450  69.229  1.00  0.00    -0.154 C  
HETATM   15  C   UNL     1      -8.406  12.692  69.799  1.00  0.00     2.186 C  
HETATM   16  C   UNL     1      -7.649  10.240  68.865  1.00  0.00    -0.094 C  
HETATM   17  C   UNL     1      -6.969   9.541  67.619  1.00  0.00    -0.080 C  
HETATM   18  C   UNL     1      -7.259  12.607  70.812  1.00  0.00     3.539 C  
HETATM   19  C   UNL     1      -7.010  11.169  71.256  1.00  0.00     2.992 C  
HETATM   20  C   UNL     1      -6.742  10.202  70.121  1.00  0.00    -0.138 C  
ENDROOT
BRANCH   4  21
HETATM   21  C   UNL     1     -11.629  13.494  67.682  1.00  0.00    -0.339 C  
HETATM   22  O   UNL     1     -12.531  14.278  67.988  1.00  0.00    -0.098 OA 
BRANCH  21  23
HETATM   23  C   UNL     1     -11.996  12.427  66.656  1.00  0.00    -0.229 C  
BRANCH  23  24
HETATM   24  O   UNL     1     -11.824  12.964  65.352  1.00  0.00    -0.357 OA 
BRANCH  24  25
HETATM   25  C   UNL     1     -12.552  14.073  65.075  1.00  0.00    -0.390 C  
HETATM   26  C   UNL     1     -13.889  13.993  65.739  1.00  0.00     2.617 C  
HETATM   27  O   UNL     1     -12.180  15.010  64.384  1.00  0.00    -0.469 OA 
ENDBRANCH  24  25
ENDBRANCH  23  24
ENDBRANCH  21  23
ENDBRANCH   4  21
TORSDOF 4
ENDMDL
MODEL      160
REMARK 921   NORMALIZED FREE ENERGY PREDICTED BY IDOCK:   10.68 KCAL/MOL
REMARK 922        TOTAL FREE ENERGY PREDICTED BY IDOCK:   13.62 KCAL/MOL
REMARK 923 INTER-LIGAND FREE ENERGY PREDICTED BY IDOCK:    1.51 KCAL/MOL
REMARK 924 INTRA-LIGAND FREE ENERGY PREDICTED BY IDOCK:   12.11 KCAL/MOL
REMARK 927      BINDING AFFINITY PREDICTED BY RF-SCORE:    0.00 PKD
ROOT
HETATM    1  C   UNL     1     -10.855  15.393  66.058  1.00  0.00    -0.315 C  
HETATM    2  C   UNL     1     -11.898  15.007  66.950  1.00  0.00    -0.110 C  
HETATM    3  C   UNL     1     -10.895  15.852  67.672  1.00  0.00    -0.312 C  
HETATM    4  C   UNL     1      -9.499  16.743  66.466  1.00  0.00    -0.287 C  
HETATM    5  C   UNL     1      -6.751  12.672  70.590  1.00  0.00     1.492 C  
HETATM    6  C   UNL     1     -10.763  17.178  66.716  1.00  0.00    -0.097 C  
HETATM    7  C   UNL     1     -11.723  18.156  66.103  1.00  0.00     2.661 C  
HETATM    8  O   UNL     1      -5.272  10.881  69.971  1.00  0.00    -0.042 OA 
HETATM    9  C   UNL     1      -6.260  11.561  69.722  1.00  0.00    -0.138 C  
HETATM   10  C   UNL     1      -9.766  17.521  68.316  1.00  0.00    -0.311 C  
HETATM   11  C   UNL     1      -7.106  11.275  68.553  1.00  0.00    -0.083 C  
HETATM   12  C   UNL     1      -8.435  16.335  68.481  1.00  0.00    -0.206 C  
HETATM   13  C   UNL     1      -8.618  14.707  68.008  1.00  0.00    -0.162 C  
HETATM   14  C   UNL     1      -6.166  14.220  67.375  1.00  0.00     0.184 C  
HETATM   15  C   UNL     1      -9.386  14.369  66.535  1.00  0.00    -0.300 C  
HETATM   16  C   UNL     1      -7.350  13.789  68.259  1.00  0.00    -0.118 C  
HETATM   17  C   UNL     1      -6.922  13.948  69.775  1.00  0.00     0.139 C  
HETATM   18  C   UNL     1      -9.725  12.874  66.507  1.00  0.00    -0.257 C  
HETATM   19  C   UNL     1      -8.473  12.014  66.655  1.00  0.00    -0.117 C  
HETATM   20  C   UNL     1      -7.650  12.314  67.891  1.00  0.00    -0.127 C  
ENDROOT
BRANCH   4  21
HETATM   21  C   UNL     1      -8.970  18.239  65.935  1.00  0.00     0.229 C  
HETATM   22  O   UNL     1      -9.587  19.307  65.970  1.00  0.00    -0.400 OA 
BRANCH  21  23
HETATM   23  C   UNL     1      -7.576  18.297  65.319  1.00  0.00     0.989 C  
BRANCH  23  24
HETATM   24  O   UNL     1      -6.639  18.640  66.330  1.00  0.00    -0.182 OA 
BRANCH  24  25
HETATM   25  C   UNL     1      -6.942  18.209  67.579  1.00  0.00    -0.198 C  
HETATM   26  C   UNL     1      -6.153  18.971  68.595  1.00  0.00    -0.237 C  
HETATM   27  O   UNL     1      -7.743  17.326  67.850  1.00  0.00    -0.185 OA 
ENDBRANCH  24  25
ENDBRANCH  23  24
ENDBRANCH  21  23
ENDBRANCH   4  21
TORSDOF 4
ENDMDL
MODEL      161
REMARK 921   NORMALIZED FREE ENERGY PREDICTED BY IDOCK:   14.58 KCAL/MOL
REMARK 922        TOTAL FREE ENERGY PREDICTED BY IDOCK:   18.43 KCAL/MOL
REMARK 923 INTER-LIGAND FREE ENERGY PREDICTED BY IDOCK:   14.58 KCAL/MOL
REMARK 924 INTRA-LIGAND FREE ENERGY PREDICTED BY IDOCK:    3.85 KCAL/MOL
REMARK 927      BINDING AFFINITY PREDICTED BY RF-SCORE:    0.00 PKD
ROOT
HETATM    1  C   UNL     1      -7.666   9.264  67.031  1.00  0.00    -0.095 C  
HETATM    2  C   UNL     1      -8.015   8.309  68.031  1.00  0.00    -0.123 C  
HETATM    3  C   UNL     1      -9.021   9.418  68.011  1.00  0.00    -0.128 C  
HETATM    4  C   UNL     1      -8.841  10.710  66.432  1.00  0.00    -0.164 C  
HETATM    5  C   UNL     1      -7.911  13.720  72.019  1.00  0.00     8.045 C  
HETATM    6  C   UNL     1      -9.459   9.499  66.432  1.00  0.00    -0.251 C  
HETATM    7  C   UNL     1      -9.945   8.519  65.404  1.00  0.00     0.946 C  
HETATM    8  O   UNL     1      -5.982  15.049  72.557  1.00  0.00     0.577 OA 
HETATM    9  C   UNL     1      -6.459  14.069  72.000  1.00  0.00     1.468 C  
HETATM   10  C   UNL     1     -10.612  10.677  67.412  1.00  0.00    -0.304 C  
HETATM   11  C   UNL     1      -5.602  13.090  71.314  1.00  0.00    -0.071 C  
HETATM   12  C   UNL     1      -9.652  11.968  68.197  1.00  0.00    -0.200 C  
HETATM   13  C   UNL     1      -8.105  11.669  68.848  1.00  0.00    -0.005 C  
HETATM   14  C   UNL     1      -7.092  14.017  68.508  1.00  0.00    -0.102 C  
HETATM   15  C   UNL     1      -7.012  10.733  67.952  1.00  0.00    -0.073 C  
HETATM   16  C   UNL     1      -7.415  12.919  69.539  1.00  0.00     0.596 C  
HETATM   17  C   UNL     1      -8.426  13.514  70.600  1.00  0.00     5.248 C  
HETATM   18  C   UNL     1      -5.857  10.333  68.878  1.00  0.00    -0.041 C  
HETATM   19  C   UNL     1      -5.151  11.557  69.452  1.00  0.00    -0.044 C  
HETATM   20  C   UNL     1      -6.063  12.520  70.184  1.00  0.00    -0.099 C  
ENDROOT
BRANCH   4  21
HETATM   21  C   UNL     1      -9.634  11.239  65.057  1.00  0.00    -0.233 C  
HETATM   22  O   UNL     1      -9.182  11.957  64.162  1.00  0.00     0.117 OA 
BRANCH  21  23
HETATM   23  C   UNL     1     -11.086  10.805  64.891  1.00  0.00     0.317 C  
BRANCH  23  24
HETATM   24  O   UNL     1     -11.809  11.848  64.252  1.00  0.00    -0.331 OA 
BRANCH  24  25
HETATM   25  C   UNL     1     -11.494  13.105  64.649  1.00  0.00    -0.333 C  
HETATM   26  C   UNL     1     -11.841  14.087  63.576  1.00  0.00     0.142 C  
HETATM   27  O   UNL     1     -10.999  13.406  65.724  1.00  0.00    -0.277 OA 
ENDBRANCH  24  25
ENDBRANCH  23  24
ENDBRANCH  21  23
ENDBRANCH   4  21
TORSDOF 4
ENDMDL
MODEL      162
REMARK 921   NORMALIZED FREE ENERGY PREDICTED BY IDOCK:   16.88 KCAL/MOL
REMARK 922        TOTAL FREE ENERGY PREDICTED BY IDOCK:   21.27 KCAL/MOL
REMARK 923 INTER-LIGAND FREE ENERGY PREDICTED BY IDOCK:   20.33 KCAL/MOL
REMARK 924 INTRA-LIGAND FREE ENERGY PREDICTED BY IDOCK:    0.94 KCAL/MOL
REMARK 927      BINDING AFFINITY PREDICTED BY RF-SCORE:    0.00 PKD
ROOT
HETATM    1  C   UNL     1      -7.345  14.603  67.513  1.00  0.00    -0.220 C  
HETATM    2  C   UNL     1      -6.368  13.842  68.220  1.00  0.00    -0.110 C  
HETATM    3  C   UNL     1      -7.558  14.084  69.095  1.00  0.00     0.030 C  
HETATM    4  C   UNL     1      -9.177  14.894  68.137  1.00  0.00    -0.186 C  
HETATM    5  C   UNL     1      -6.956  18.833  72.685  1.00  0.00     4.671 C  
HETATM    6  C   UNL     1      -8.815  13.583  68.168  1.00  0.00    -0.179 C  
HETATM    7  C   UNL     1      -9.148  12.338  67.398  1.00  0.00    -0.184 C  
HETATM    8  O   UNL     1      -6.348  21.131  72.333  1.00  0.00     0.941 OA 
HETATM    9  C   UNL     1      -6.386  19.979  71.918  1.00  0.00     0.078 C  
HETATM   10  C   UNL     1      -9.506  13.977  69.911  1.00  0.00     1.402 C  
HETATM   11  C   UNL     1      -5.786  19.615  70.625  1.00  0.00    -0.272 C  
HETATM   12  C   UNL     1      -9.246  15.704  70.304  1.00  0.00     0.731 C  
HETATM   13  C   UNL     1      -7.840  16.535  69.815  1.00  0.00     0.620 C  
HETATM   14  C   UNL     1      -8.851  18.898  69.606  1.00  0.00     0.620 C  
HETATM   15  C   UNL     1      -7.267  16.307  68.236  1.00  0.00    -0.141 C  
HETATM   16  C   UNL     1      -7.759  18.049  70.281  1.00  0.00     2.440 C  
HETATM   17  C   UNL     1      -7.991  18.093  71.846  1.00  0.00    10.895 C  
HETATM   18  C   UNL     1      -5.845  16.874  68.160  1.00  0.00    -0.121 C  
HETATM   19  C   UNL     1      -5.812  18.356  68.520  1.00  0.00    -0.186 C  
HETATM   20  C   UNL     1      -6.405  18.683  69.875  1.00  0.00    -0.121 C  
ENDROOT
BRANCH   4  21
HETATM   21  C   UNL     1     -10.756  14.562  67.695  1.00  0.00    -0.254 C  
HETATM   22  O   UNL     1     -11.607  13.960  68.354  1.00  0.00    -0.290 OA 
BRANCH  21  23
HETATM   23  C   UNL     1     -11.198  15.036  66.314  1.00  0.00    -0.309 C  
BRANCH  23  24
HETATM   24  O   UNL     1     -11.735  16.347  66.427  1.00  0.00     0.779 OA 
BRANCH  24  25
HETATM   25  C   UNL     1     -10.927  17.261  67.017  1.00  0.00     0.091 C  
HETATM   26  C   UNL     1      -9.766  17.575  66.130  1.00  0.00    -0.225 C  
HETATM   27  O   UNL     1     -11.111  17.764  68.116  1.00  0.00    -0.173 OA 
ENDBRANCH  24  25
ENDBRANCH  23  24
ENDBRANCH  21  23
ENDBRANCH   4  21
TORSDOF 4
ENDMDL
MODEL      163
REMARK 921   NORMALIZED FREE ENERGY PREDICTED BY IDOCK:   26.92 KCAL/MOL
REMARK 922        TOTAL FREE ENERGY PREDICTED BY IDOCK:   33.66 KCAL/MOL
REMARK 923 INTER-LIGAND FREE ENERGY PREDICTED BY IDOCK:   31.75 KCAL/MOL
REMARK 924 INTRA-LIGAND FREE ENERGY PREDICTED BY IDOCK:    1.91 KCAL/MOL
REMARK 927      BINDING AFFINITY PREDICTED BY RF-SCORE:    0.00 PKD
ROOT
HETATM    1  C   UNL     1     -11.276  16.653  68.798  1.00  0.00    -0.217 C  
HETATM    2  C   UNL     1     -12.564  16.171  69.172  1.00  0.00     0.949 C  
HETATM    3  C   UNL     1     -11.516  15.561  70.049  1.00  0.00    -0.344 C  
HETATM    4  C   UNL     1      -9.649  16.378  69.849  1.00  0.00     0.433 C  
HETATM    5  C   UNL     1      -9.668  10.186  68.177  1.00  0.00    -0.155 C  
HETATM    6  C   UNL     1     -10.678  16.861  70.595  1.00  0.00     0.625 C  
HETATM    7  C   UNL     1     -11.031  18.160  71.260  1.00  0.00     2.930 C  
HETATM    8  O   UNL     1      -8.867   9.329  66.079  1.00  0.00    -0.143 OA 
HETATM    9  C   UNL     1      -9.441  10.214  66.701  1.00  0.00    -0.170 C  
HETATM   10  C   UNL     1     -10.028  15.323  71.534  1.00  0.00     1.959 C  
HETATM   11  C   UNL     1     -10.036  11.368  66.010  1.00  0.00    -0.269 C  
HETATM   12  C   UNL     1      -9.316  14.151  70.382  1.00  0.00     2.521 C  
HETATM   13  C   UNL     1      -9.980  13.898  68.832  1.00  0.00    -0.077 C  
HETATM   14  C   UNL     1      -7.814  13.237  67.598  1.00  0.00    -0.168 C  
HETATM   15  C   UNL     1     -10.452  15.245  67.919  1.00  0.00    -0.253 C  
HETATM   16  C   UNL     1      -9.244  12.797  67.960  1.00  0.00    -0.208 C  
HETATM   17  C   UNL     1      -9.153  11.470  68.817  1.00  0.00    -0.063 C  
HETATM   18  C   UNL     1     -11.310  14.749  66.749  1.00  0.00    -0.347 C  
HETATM   19  C   UNL     1     -10.543  13.764  65.871  1.00  0.00    -0.289 C  
HETATM   20  C   UNL     1      -9.980  12.571  66.615  1.00  0.00    -0.243 C  
ENDROOT
BRANCH   4  21
HETATM   21  C   UNL     1      -8.490  17.252  70.681  1.00  0.00     4.801 C  
HETATM   22  O   UNL     1      -8.671  18.030  71.621  1.00  0.00     9.732 OA 
BRANCH  21  23
HETATM   23  C   UNL     1      -7.045  17.091  70.222  1.00  0.00     1.491 C  
BRANCH  23  24
HETATM   24  O   UNL     1      -6.265  16.620  71.311  1.00  0.00     1.147 OA 
BRANCH  24  25
HETATM   25  C   UNL     1      -5.884  17.562  72.209  1.00  0.00     2.020 C  
HETATM   26  C   UNL     1      -5.197  16.921  73.372  1.00  0.00     5.492 C  
HETATM   27  O   UNL     1      -6.070  18.765  72.096  1.00  0.00     0.603 OA 
ENDBRANCH  24  25
ENDBRANCH  23  24
ENDBRANCH  21  23
ENDBRANCH   4  21
TORSDOF 4
ENDMDL
MODEL      164
REMARK 921   NORMALIZED FREE ENERGY PREDICTED BY IDOCK:   46.18 KCAL/MOL
REMARK 922        TOTAL FREE ENERGY PREDICTED BY IDOCK:   57.42 KCAL/MOL
REMARK 923 INTER-LIGAND FREE ENERGY PREDICTED BY IDOCK:   55.36 KCAL/MOL
REMARK 924 INTRA-LIGAND FREE ENERGY PREDICTED BY IDOCK:    2.05 KCAL/MOL
REMARK 927      BINDING AFFINITY PREDICTED BY RF-SCORE:    0.00 PKD
ROOT
HETATM    1  C   UNL     1     -11.032  16.299  69.212  1.00  0.00    -0.317 C  
HETATM    2  C   UNL     1     -12.317  16.342  69.830  1.00  0.00     0.555 C  
HETATM    3  C   UNL     1     -11.296  15.845  70.806  1.00  0.00    -0.424 C  
HETATM    4  C   UNL     1      -9.355  16.015  70.178  1.00  0.00     0.724 C  
HETATM    5  C   UNL     1     -10.973   9.877  71.094  1.00  0.00    -0.298 C  
HETATM    6  C   UNL     1     -10.122  16.988  70.738  1.00  0.00     2.227 C  
HETATM    7  C   UNL     1     -10.076  18.484  70.857  1.00  0.00     2.803 C  
HETATM    8  O   UNL     1     -10.724   8.133  69.458  1.00  0.00    -0.227 OA 
HETATM    9  C   UNL     1     -10.987   9.301  69.716  1.00  0.00    -0.196 C  
HETATM   10  C   UNL     1      -9.676  15.789  72.164  1.00  0.00     5.058 C  
HETATM   11  C   UNL     1     -11.422  10.234  68.665  1.00  0.00    -0.178 C  
HETATM   12  C   UNL     1      -9.427  14.134  71.525  1.00  0.00     6.407 C  
HETATM   13  C   UNL     1     -10.370  13.513  70.248  1.00  0.00     1.992 C  
HETATM   14  C   UNL     1      -8.625  11.906  69.237  1.00  0.00     0.640 C  
HETATM   15  C   UNL     1     -10.683  14.505  68.910  1.00  0.00    -0.259 C  
HETATM   16  C   UNL     1     -10.039  12.018  69.836  1.00  0.00     1.602 C  
HETATM   17  C   UNL     1     -10.099  11.124  71.140  1.00  0.00     4.787 C  
HETATM   18  C   UNL     1     -11.804  13.856  68.089  1.00  0.00    -0.407 C  
HETATM   19  C   UNL     1     -11.419  12.455  67.624  1.00  0.00    -0.399 C  
HETATM   20  C   UNL     1     -11.013  11.515  68.741  1.00  0.00    -0.271 C  
ENDROOT
BRANCH   4  21
HETATM   21  C   UNL     1      -7.917  16.799  70.520  1.00  0.00     3.351 C  
HETATM   22  O   UNL     1      -7.100  17.251  69.713  1.00  0.00     0.063 OA 
BRANCH  21  23
HETATM   23  C   UNL     1      -7.555  16.962  71.992  1.00  0.00    10.567 C  
BRANCH  23  24
HETATM   24  O   UNL     1      -7.450  18.347  72.291  1.00  0.00     6.689 OA 
BRANCH  24  25
HETATM   25  C   UNL     1      -6.281  18.738  72.854  1.00  0.00     3.574 C  
HETATM   26  C   UNL     1      -5.192  18.748  71.829  1.00  0.00    -0.182 C  
HETATM   27  O   UNL     1      -6.125  19.040  74.027  1.00  0.00     7.482 OA 
ENDBRANCH  24  25
ENDBRANCH  23  24
ENDBRANCH  21  23
ENDBRANCH   4  21
TORSDOF 4
ENDMDL
MODEL      165
REMARK 921   NORMALIZED FREE ENERGY PREDICTED BY IDOCK:   51.39 KCAL/MOL
REMARK 922        TOTAL FREE ENERGY PREDICTED BY IDOCK:   63.85 KCAL/MOL
REMARK 923 INTER-LIGAND FREE ENERGY PREDICTED BY IDOCK:   55.54 KCAL/MOL
REMARK 924 INTRA-LIGAND FREE ENERGY PREDICTED BY IDOCK:    8.31 KCAL/MOL
REMARK 927      BINDING AFFINITY PREDICTED BY RF-SCORE:    0.00 PKD
ROOT
HETATM    1  C   UNL     1      -8.527  13.625  67.569  1.00  0.00    -0.190 C  
HETATM    2  C   UNL     1      -7.275  12.966  67.391  1.00  0.00    -0.130 C  
HETATM    3  C   UNL     1      -7.113  14.129  68.319  1.00  0.00    -0.112 C  
HETATM    4  C   UNL     1      -8.867  14.996  68.923  1.00  0.00    -0.201 C  
HETATM    5  C   UNL     1      -5.264  19.122  65.586  1.00  0.00    -0.180 C  
HETATM    6  C   UNL     1      -8.283  13.882  69.441  1.00  0.00     0.545 C  
HETATM    7  C   UNL     1      -8.697  12.740  70.323  1.00  0.00     4.886 C  
HETATM    8  O   UNL     1      -6.012  20.351  63.661  1.00  0.00    -0.254 OA 
HETATM    9  C   UNL     1      -6.027  19.318  64.318  1.00  0.00    -0.217 C  
HETATM   10  C   UNL     1      -7.216  15.358  70.037  1.00  0.00     0.033 C  
HETATM   11  C   UNL     1      -6.759  18.129  63.852  1.00  0.00     4.921 C  
HETATM   12  C   UNL     1      -7.303  16.701  68.855  1.00  0.00    -0.225 C  
HETATM   13  C   UNL     1      -7.375  16.417  67.176  1.00  0.00    -0.230 C  
HETATM   14  C   UNL     1      -8.712  18.514  66.495  1.00  0.00    -0.296 C  
HETATM   15  C   UNL     1      -8.404  15.199  66.599  1.00  0.00    -0.162 C  
HETATM   16  C   UNL     1      -7.410  17.721  66.276  1.00  0.00    -0.334 C  
HETATM   17  C   UNL     1      -6.192  18.640  66.695  1.00  0.00    -0.197 C  
HETATM   18  C   UNL     1      -8.037  14.918  65.138  1.00  0.00     6.046 C  
HETATM   19  C   UNL     1      -8.172  16.170  64.276  1.00  0.00    10.892 C  
HETATM   20  C   UNL     1      -7.373  17.359  64.769  1.00  0.00     4.378 C  
ENDROOT
BRANCH   4  21
HETATM   21  C   UNL     1      -9.814  15.263  70.276  1.00  0.00     0.186 C  
HETATM   22  O   UNL     1     -11.046  15.293  70.333  1.00  0.00    -0.269 OA 
BRANCH  21  23
HETATM   23  C   UNL     1      -9.082  15.516  71.590  1.00  0.00     4.776 C  
BRANCH  23  24
HETATM   24  O   UNL     1      -8.633  16.863  71.614  1.00  0.00     8.456 OA 
BRANCH  24  25
HETATM   25  C   UNL     1      -7.288  17.032  71.578  1.00  0.00     6.921 C  
HETATM   26  C   UNL     1      -6.632  16.178  72.614  1.00  0.00     5.082 C  
HETATM   27  O   UNL     1      -6.688  17.773  70.814  1.00  0.00     1.418 OA 
ENDBRANCH  24  25
ENDBRANCH  23  24
ENDBRANCH  21  23
ENDBRANCH   4  21
TORSDOF 4
ENDMDL
MODEL      166
REMARK 921   NORMALIZED FREE ENERGY PREDICTED BY IDOCK:   84.94 KCAL/MOL
REMARK 922        TOTAL FREE ENERGY PREDICTED BY IDOCK:  105.25 KCAL/MOL
REMARK 923 INTER-LIGAND FREE ENERGY PREDICTED BY IDOCK:  103.92 KCAL/MOL
REMARK 924 INTRA-LIGAND FREE ENERGY PREDICTED BY IDOCK:    1.33 KCAL/MOL
REMARK 927      BINDING AFFINITY PREDICTED BY RF-SCORE:    0.00 PKD
ROOT
HETATM    1  C   UNL     1     -10.189  13.196  64.394  1.00  0.00    -0.319 C  
HETATM    2  C   UNL     1     -11.136  13.232  65.459  1.00  0.00    -0.299 C  
HETATM    3  C   UNL     1      -9.780  12.884  65.991  1.00  0.00    -0.228 C  
HETATM    4  C   UNL     1      -8.251  13.093  64.645  1.00  0.00     5.739 C  
HETATM    5  C   UNL     1      -8.867   6.996  66.539  1.00  0.00    -0.151 C  
HETATM    6  C   UNL     1      -8.824  14.074  65.391  1.00  0.00     1.740 C  
HETATM    7  C   UNL     1      -8.862  15.575  65.381  1.00  0.00     1.200 C  
HETATM    8  O   UNL     1      -9.119   5.118  65.059  1.00  0.00    -0.147 OA 
HETATM    9  C   UNL     1      -9.360   6.291  65.319  1.00  0.00     0.505 C  
HETATM   10  C   UNL     1      -7.763  13.042  66.609  1.00  0.00     0.599 C  
HETATM   11  C   UNL     1     -10.244   7.095  64.460  1.00  0.00     5.571 C  
HETATM   12  C   UNL     1      -7.640  11.349  66.039  1.00  0.00     0.187 C  
HETATM   13  C   UNL     1      -8.946  10.560  65.278  1.00  0.00    -0.211 C  
HETATM   14  C   UNL     1      -7.594   8.955  63.778  1.00  0.00    -0.121 C  
HETATM   15  C   UNL     1      -9.832  11.402  64.103  1.00  0.00    -0.307 C  
HETATM   16  C   UNL     1      -8.673   9.052  64.872  1.00  0.00    -0.200 C  
HETATM   17  C   UNL     1      -8.151   8.285  66.154  1.00  0.00    -0.111 C  
HETATM   18  C   UNL     1     -11.123  10.620  63.832  1.00  0.00     0.881 C  
HETATM   19  C   UNL     1     -10.829   9.203  63.350  1.00  0.00     7.626 C  
HETATM   20  C   UNL     1      -9.948   8.396  64.282  1.00  0.00     3.662 C  
ENDROOT
BRANCH   4  21
HETATM   21  C   UNL     1      -6.865  13.979  64.343  1.00  0.00    20.919 C  
HETATM   22  O   UNL     1      -5.721  13.736  64.736  1.00  0.00    13.403 OA 
BRANCH  21  23
HETATM   23  C   UNL     1      -7.024  15.242  63.504  1.00  0.00    25.054 C  
BRANCH  23  24
HETATM   24  O   UNL     1      -5.866  16.049  63.662  1.00  0.00    12.082 OA 
BRANCH  24  25
HETATM   25  C   UNL     1      -6.071  17.263  64.230  1.00  0.00     4.888 C  
HETATM   26  C   UNL     1      -5.882  18.347  63.217  1.00  0.00     1.780 C  
HETATM   27  O   UNL     1      -6.367  17.457  65.399  1.00  0.00     0.177 OA 
ENDBRANCH  24  25
ENDBRANCH  23  24
ENDBRANCH  21  23
ENDBRANCH   4  21
TORSDOF 4
ENDMDL
