MODEL        1
REMARK 921   NORMALIZED FREE ENERGY PREDICTED BY IDOCK:   -6.30 KCAL/MOL
REMARK 922        TOTAL FREE ENERGY PREDICTED BY IDOCK:   -6.83 KCAL/MOL
REMARK 923 INTER-LIGAND FREE ENERGY PREDICTED BY IDOCK:   -6.66 KCAL/MOL
REMARK 924 INTRA-LIGAND FREE ENERGY PREDICTED BY IDOCK:   -0.17 KCAL/MOL
REMARK 927      BINDING AFFINITY PREDICTED BY RF-SCORE:    0.00 PKD
ROOT
HETATM    1  C   UNL     1      -6.052  15.202  67.717  1.00  0.00    -0.144 C  
HETATM    2  N   UNL     1      -7.483  14.912  67.628  1.00  0.00    -0.168 NA 
HETATM    3  C   UNL     1      -7.754  13.574  68.167  1.00  0.00    -0.139 C  
ENDROOT
BRANCH   2   4
HETATM    4  C   UNL     1      -8.306  15.922  68.335  1.00  0.00    -0.174 C  
HETATM    5  C   UNL     1      -9.291  16.751  67.448  1.00  0.00    -0.233 C  
HETATM    6  C   UNL     1     -10.333  15.839  66.798  1.00  0.00    -0.293 A  
HETATM    7  C   UNL     1      -9.899  18.001  68.219  1.00  0.00    -0.355 C  
HETATM    8  O   UNL     1     -10.595  17.574  69.396  1.00  0.00    -0.404 OA 
HETATM    9  C   UNL     1     -11.252  15.091  67.551  1.00  0.00    -0.333 A  
HETATM   10  C   UNL     1      -8.810  19.006  68.652  1.00  0.00    -0.388 C  
HETATM   11  C   UNL     1      -8.031  19.573  67.475  1.00  0.00    -0.308 C  
HETATM   12  C   UNL     1     -12.179  14.253  66.922  1.00  0.00    -0.366 A  
HETATM   13  H   UNL     1     -10.959  18.322  69.857  1.00  0.00     0.000 HD 
HETATM   14  C   UNL     1     -12.193  14.165  65.535  1.00  0.00    -0.432 A  
HETATM   15  C   UNL     1      -8.920  20.163  66.383  1.00  0.00    -0.362 C  
HETATM   16  C   UNL     1     -10.286  19.506  66.165  1.00  0.00    -0.614 C  
HETATM   17  O   UNL     1     -13.092  13.379  64.878  1.00  0.00    -0.723 OA 
HETATM   18  C   UNL     1     -11.285  14.883  64.769  1.00  0.00    -0.393 A  
HETATM   19  H   UNL     1     -13.102  13.319  63.930  1.00  0.00     0.000 HD 
HETATM   20  C   UNL     1     -10.901  18.818  67.380  1.00  0.00    -0.414 C  
HETATM   21  C   UNL     1     -10.358  15.714  65.397  1.00  0.00    -0.421 A  
ENDBRANCH   2   4
TORSDOF 1
ENDMDL
MODEL        2
REMARK 921   NORMALIZED FREE ENERGY PREDICTED BY IDOCK:   -6.21 KCAL/MOL
REMARK 922        TOTAL FREE ENERGY PREDICTED BY IDOCK:   -6.74 KCAL/MOL
REMARK 923 INTER-LIGAND FREE ENERGY PREDICTED BY IDOCK:   -6.67 KCAL/MOL
REMARK 924 INTRA-LIGAND FREE ENERGY PREDICTED BY IDOCK:   -0.07 KCAL/MOL
REMARK 927      BINDING AFFINITY PREDICTED BY RF-SCORE:    0.00 PKD
ROOT
HETATM    1  C   UNL     1     -12.299  12.740  70.597  1.00  0.00    -0.297 C  
HETATM    2  N   UNL     1     -11.885  13.325  69.322  1.00  0.00    -0.322 NA 
HETATM    3  C   UNL     1     -11.909  14.789  69.414  1.00  0.00    -0.323 C  
ENDROOT
BRANCH   2   4
HETATM    4  C   UNL     1     -10.541  12.864  68.902  1.00  0.00    -0.123 C  
HETATM    5  C   UNL     1     -10.419  12.338  67.434  1.00  0.00    -0.228 C  
HETATM    6  C   UNL     1     -10.740  13.449  66.432  1.00  0.00    -0.289 A  
HETATM    7  C   UNL     1      -9.043  11.589  67.168  1.00  0.00    -0.167 C  
HETATM    8  O   UNL     1      -7.937  12.460  67.433  1.00  0.00    -0.159 OA 
HETATM    9  C   UNL     1      -9.972  14.620  66.337  1.00  0.00    -0.296 A  
HETATM   10  C   UNL     1      -8.879  10.335  68.056  1.00  0.00    -0.122 C  
HETATM   11  C   UNL     1      -9.974   9.305  67.826  1.00  0.00    -0.235 C  
HETATM   12  C   UNL     1     -10.307  15.623  65.422  1.00  0.00    -0.421 A  
HETATM   13  H   UNL     1      -7.115  12.012  67.273  1.00  0.00     0.000 HD 
HETATM   14  C   UNL     1     -11.410  15.455  64.593  1.00  0.00    -0.355 A  
HETATM   15  C   UNL     1     -10.151   8.920  66.358  1.00  0.00    -0.333 C  
HETATM   16  C   UNL     1      -9.876  10.006  65.314  1.00  0.00    -0.388 C  
HETATM   17  O   UNL     1     -11.760  16.395  63.671  1.00  0.00    -1.520 OA 
HETATM   18  C   UNL     1     -12.193  14.313  64.678  1.00  0.00    -0.470 A  
HETATM   19  H   UNL     1     -12.514  16.280  63.104  1.00  0.00     0.000 HD 
HETATM   20  C   UNL     1      -8.880  11.089  65.719  1.00  0.00    -0.200 C  
HETATM   21  C   UNL     1     -11.861  13.316  65.595  1.00  0.00    -0.419 A  
ENDBRANCH   2   4
TORSDOF 1
ENDMDL
MODEL        3
REMARK 921   NORMALIZED FREE ENERGY PREDICTED BY IDOCK:   -5.92 KCAL/MOL
REMARK 922        TOTAL FREE ENERGY PREDICTED BY IDOCK:   -6.44 KCAL/MOL
REMARK 923 INTER-LIGAND FREE ENERGY PREDICTED BY IDOCK:   -6.26 KCAL/MOL
REMARK 924 INTRA-LIGAND FREE ENERGY PREDICTED BY IDOCK:   -0.17 KCAL/MOL
REMARK 927      BINDING AFFINITY PREDICTED BY RF-SCORE:    0.00 PKD
ROOT
HETATM    1  C   UNL     1     -10.313  10.336  68.480  1.00  0.00    -0.178 C  
HETATM    2  N   UNL     1      -9.251  11.326  68.660  1.00  0.00    -0.179 NA 
HETATM    3  C   UNL     1      -7.964  10.646  68.850  1.00  0.00    -0.132 C  
ENDROOT
BRANCH   2   4
HETATM    4  C   UNL     1      -9.163  12.269  67.520  1.00  0.00    -0.181 C  
HETATM    5  C   UNL     1     -10.453  13.097  67.210  1.00  0.00    -0.243 C  
HETATM    6  C   UNL     1     -10.813  14.001  68.391  1.00  0.00    -0.263 A  
HETATM    7  C   UNL     1     -10.375  13.843  65.809  1.00  0.00    -0.316 C  
HETATM    8  O   UNL     1      -9.248  14.726  65.772  1.00  0.00    -0.513 OA 
HETATM    9  C   UNL     1      -9.966  15.028  68.838  1.00  0.00    -0.236 A  
HETATM   10  C   UNL     1     -10.241  12.856  64.629  1.00  0.00    -0.321 C  
HETATM   11  C   UNL     1     -11.414  11.892  64.531  1.00  0.00    -0.363 C  
HETATM   12  C   UNL     1     -10.321  15.822  69.932  1.00  0.00    -0.313 A  
HETATM   13  H   UNL     1      -9.202  15.172  64.934  1.00  0.00     0.000 HD 
HETATM   14  C   UNL     1     -11.529  15.597  70.581  1.00  0.00    -0.375 A  
HETATM   15  C   UNL     1     -12.774  12.587  64.515  1.00  0.00    -0.440 C  
HETATM   16  C   UNL     1     -12.903  13.888  65.312  1.00  0.00    -0.437 C  
HETATM   17  O   UNL     1     -11.926  16.361  71.637  1.00  0.00    -0.644 OA 
HETATM   18  C   UNL     1     -12.377  14.579  70.167  1.00  0.00    -0.398 A  
HETATM   19  H   UNL     1     -12.752  16.206  72.080  1.00  0.00     0.000 HD 
HETATM   20  C   UNL     1     -11.620  14.695  65.491  1.00  0.00    -0.335 C  
HETATM   21  C   UNL     1     -12.020  13.784  69.079  1.00  0.00    -0.399 A  
ENDBRANCH   2   4
TORSDOF 1
ENDMDL
MODEL        4
REMARK 921   NORMALIZED FREE ENERGY PREDICTED BY IDOCK:   -5.84 KCAL/MOL
REMARK 922        TOTAL FREE ENERGY PREDICTED BY IDOCK:   -6.35 KCAL/MOL
REMARK 923 INTER-LIGAND FREE ENERGY PREDICTED BY IDOCK:   -6.21 KCAL/MOL
REMARK 924 INTRA-LIGAND FREE ENERGY PREDICTED BY IDOCK:   -0.14 KCAL/MOL
REMARK 927      BINDING AFFINITY PREDICTED BY RF-SCORE:    0.00 PKD
ROOT
HETATM    1  C   UNL     1     -10.096  11.024  69.186  1.00  0.00    -0.146 C  
HETATM    2  N   UNL     1     -11.489  11.460  69.101  1.00  0.00    -0.269 NA 
HETATM    3  C   UNL     1     -12.222  11.025  70.296  1.00  0.00    -0.363 C  
ENDROOT
BRANCH   2   4
HETATM    4  C   UNL     1     -11.609  12.929  68.939  1.00  0.00    -0.315 C  
HETATM    5  C   UNL     1     -10.770  13.565  67.782  1.00  0.00    -0.262 C  
HETATM    6  C   UNL     1     -11.221  13.022  66.424  1.00  0.00    -0.332 A  
HETATM    7  C   UNL     1     -10.714  15.150  67.871  1.00  0.00    -0.268 C  
HETATM    8  O   UNL     1     -12.035  15.703  67.833  1.00  0.00    -0.300 OA 
HETATM    9  C   UNL     1     -12.518  13.225  65.927  1.00  0.00    -0.433 A  
HETATM   10  C   UNL     1     -10.036  15.639  69.170  1.00  0.00    -0.244 C  
HETATM   11  C   UNL     1      -8.599  15.156  69.301  1.00  0.00    -0.211 C  
HETATM   12  C   UNL     1     -12.900  12.698  64.689  1.00  0.00    -0.361 A  
HETATM   13  H   UNL     1     -12.001  16.651  67.886  1.00  0.00     0.000 HD 
HETATM   14  C   UNL     1     -11.984  11.969  63.941  1.00  0.00    -0.443 A  
HETATM   15  C   UNL     1      -7.737  15.469  68.079  1.00  0.00    -0.134 C  
HETATM   16  C   UNL     1      -8.434  15.471  66.716  1.00  0.00    -0.314 C  
HETATM   17  O   UNL     1     -12.305  11.455  62.721  1.00  0.00    -0.888 OA 
HETATM   18  C   UNL     1     -10.700  11.742  64.418  1.00  0.00    -0.381 A  
HETATM   19  H   UNL     1     -11.678  10.957  62.209  1.00  0.00     0.000 HD 
HETATM   20  C   UNL     1      -9.923  15.808  66.723  1.00  0.00    -0.260 C  
HETATM   21  C   UNL     1     -10.321  12.264  65.654  1.00  0.00    -0.287 A  
ENDBRANCH   2   4
TORSDOF 1
ENDMDL
MODEL        5
REMARK 921   NORMALIZED FREE ENERGY PREDICTED BY IDOCK:   -5.78 KCAL/MOL
REMARK 922        TOTAL FREE ENERGY PREDICTED BY IDOCK:   -6.29 KCAL/MOL
REMARK 923 INTER-LIGAND FREE ENERGY PREDICTED BY IDOCK:   -6.16 KCAL/MOL
REMARK 924 INTRA-LIGAND FREE ENERGY PREDICTED BY IDOCK:   -0.13 KCAL/MOL
REMARK 927      BINDING AFFINITY PREDICTED BY RF-SCORE:    0.00 PKD
ROOT
HETATM    1  C   UNL     1     -13.462  15.012  70.604  1.00  0.00    -0.168 C  
HETATM    2  N   UNL     1     -12.204  15.627  70.179  1.00  0.00    -0.383 NA 
HETATM    3  C   UNL     1     -11.416  16.012  71.356  1.00  0.00    -0.398 C  
ENDROOT
BRANCH   2   4
HETATM    4  C   UNL     1     -11.409  14.733  69.305  1.00  0.00    -0.294 C  
HETATM    5  C   UNL     1     -10.989  15.320  67.918  1.00  0.00    -0.306 C  
HETATM    6  C   UNL     1     -10.080  16.538  68.098  1.00  0.00    -0.255 A  
HETATM    7  C   UNL     1     -10.417  14.211  66.935  1.00  0.00    -0.272 C  
HETATM    8  O   UNL     1      -9.280  13.562  67.517  1.00  0.00    -0.201 OA 
HETATM    9  C   UNL     1      -8.823  16.452  68.718  1.00  0.00    -0.246 A  
HETATM   10  C   UNL     1     -11.464  13.124  66.607  1.00  0.00    -0.389 C  
HETATM   11  C   UNL     1     -12.705  13.688  65.932  1.00  0.00    -0.428 C  
HETATM   12  C   UNL     1      -8.027  17.590  68.882  1.00  0.00    -0.180 A  
HETATM   13  H   UNL     1      -8.938  12.899  66.929  1.00  0.00     0.000 HD 
HETATM   14  C   UNL     1      -8.484  18.819  68.421  1.00  0.00    -0.342 A  
HETATM   15  C   UNL     1     -12.397  14.543  64.704  1.00  0.00    -0.419 C  
HETATM   16  C   UNL     1     -11.091  15.343  64.721  1.00  0.00    -0.416 C  
HETATM   17  O   UNL     1      -7.733  19.950  68.539  1.00  0.00    -0.308 OA 
HETATM   18  C   UNL     1      -9.728  18.932  67.817  1.00  0.00    -0.371 A  
HETATM   19  H   UNL     1      -8.045  20.790  68.223  1.00  0.00     0.000 HD 
HETATM   20  C   UNL     1      -9.962  14.767  65.571  1.00  0.00    -0.390 C  
HETATM   21  C   UNL     1     -10.524  17.797  67.659  1.00  0.00    -0.393 A  
ENDBRANCH   2   4
TORSDOF 1
ENDMDL
MODEL        6
REMARK 921   NORMALIZED FREE ENERGY PREDICTED BY IDOCK:   -5.72 KCAL/MOL
REMARK 922        TOTAL FREE ENERGY PREDICTED BY IDOCK:   -6.22 KCAL/MOL
REMARK 923 INTER-LIGAND FREE ENERGY PREDICTED BY IDOCK:   -6.06 KCAL/MOL
REMARK 924 INTRA-LIGAND FREE ENERGY PREDICTED BY IDOCK:   -0.16 KCAL/MOL
REMARK 927      BINDING AFFINITY PREDICTED BY RF-SCORE:    0.00 PKD
ROOT
HETATM    1  C   UNL     1     -11.077  12.924  63.927  1.00  0.00    -0.411 C  
HETATM    2  N   UNL     1     -11.433  13.367  65.275  1.00  0.00    -0.294 NA 
HETATM    3  C   UNL     1     -12.593  14.264  65.214  1.00  0.00    -0.394 C  
ENDROOT
BRANCH   2   4
HETATM    4  C   UNL     1     -11.715  12.231  66.184  1.00  0.00    -0.376 C  
HETATM    5  C   UNL     1     -10.790  12.105  67.438  1.00  0.00    -0.286 C  
HETATM    6  C   UNL     1     -10.938  13.328  68.346  1.00  0.00    -0.289 A  
HETATM    7  C   UNL     1     -10.958  10.710  68.180  1.00  0.00    -0.269 C  
HETATM    8  O   UNL     1     -12.316  10.522  68.595  1.00  0.00    -0.785 OA 
HETATM    9  C   UNL     1     -12.152  13.659  68.969  1.00  0.00    -0.348 A  
HETATM   10  C   UNL     1     -10.570   9.518  67.278  1.00  0.00    -0.317 C  
HETATM   11  C   UNL     1      -9.124   9.579  66.812  1.00  0.00    -0.173 C  
HETATM   12  C   UNL     1     -12.255  14.795  69.778  1.00  0.00    -0.337 A  
HETATM   13  H   UNL     1     -12.416   9.688  69.039  1.00  0.00     0.000 HD 
HETATM   14  C   UNL     1     -11.140  15.603  69.970  1.00  0.00    -0.324 A  
HETATM   15  C   UNL     1      -8.122   9.753  67.952  1.00  0.00    -0.112 C  
HETATM   16  C   UNL     1      -8.582  10.566  69.165  1.00  0.00    -0.157 C  
HETATM   17  O   UNL     1     -11.188  16.707  70.767  1.00  0.00    -0.464 OA 
HETATM   18  C   UNL     1      -9.934  15.305  69.353  1.00  0.00    -0.257 A  
HETATM   19  H   UNL     1     -10.426  17.259  70.898  1.00  0.00     0.000 HD 
HETATM   20  C   UNL     1     -10.083  10.570  69.442  1.00  0.00    -0.233 C  
HETATM   21  C   UNL     1      -9.833  14.175  68.543  1.00  0.00    -0.230 A  
ENDBRANCH   2   4
TORSDOF 1
ENDMDL
MODEL        7
REMARK 921   NORMALIZED FREE ENERGY PREDICTED BY IDOCK:   -5.71 KCAL/MOL
REMARK 922        TOTAL FREE ENERGY PREDICTED BY IDOCK:   -6.21 KCAL/MOL
REMARK 923 INTER-LIGAND FREE ENERGY PREDICTED BY IDOCK:   -6.05 KCAL/MOL
REMARK 924 INTRA-LIGAND FREE ENERGY PREDICTED BY IDOCK:   -0.17 KCAL/MOL
REMARK 927      BINDING AFFINITY PREDICTED BY RF-SCORE:    0.00 PKD
ROOT
HETATM    1  C   UNL     1      -7.522  11.650  66.956  1.00  0.00    -0.150 C  
HETATM    2  N   UNL     1      -8.053  12.629  67.904  1.00  0.00    -0.152 NA 
HETATM    3  C   UNL     1      -6.948  13.303  68.596  1.00  0.00    -0.101 C  
ENDROOT
BRANCH   2   4
HETATM    4  C   UNL     1      -8.927  13.630  67.247  1.00  0.00    -0.225 C  
HETATM    5  C   UNL     1     -10.394  13.176  66.953  1.00  0.00    -0.247 C  
HETATM    6  C   UNL     1     -11.135  12.859  68.254  1.00  0.00    -0.294 A  
HETATM    7  C   UNL     1     -11.159  14.179  65.987  1.00  0.00    -0.314 C  
HETATM    8  O   UNL     1     -11.195  15.494  66.554  1.00  0.00    -0.243 OA 
HETATM    9  C   UNL     1     -11.372  13.831  69.239  1.00  0.00    -0.325 A  
HETATM   10  C   UNL     1     -10.488  14.281  64.600  1.00  0.00    -0.325 C  
HETATM   11  C   UNL     1     -10.437  12.947  63.871  1.00  0.00    -0.333 C  
HETATM   12  C   UNL     1     -12.037  13.501  70.424  1.00  0.00    -0.415 A  
HETATM   13  H   UNL     1     -11.653  16.093  65.976  1.00  0.00     0.000 HD 
HETATM   14  C   UNL     1     -12.472  12.196  70.626  1.00  0.00    -0.242 A  
HETATM   15  C   UNL     1     -11.794  12.252  63.775  1.00  0.00    -0.587 C  
HETATM   16  C   UNL     1     -12.771  12.467  64.934  1.00  0.00    -0.371 C  
HETATM   17  O   UNL     1     -13.143  11.834  71.755  1.00  0.00    -0.463 OA 
HETATM   18  C   UNL     1     -12.236  11.214  69.674  1.00  0.00    -0.360 A  
HETATM   19  H   UNL     1     -13.440  10.942  71.893  1.00  0.00     0.000 HD 
HETATM   20  C   UNL     1     -12.620  13.775  65.706  1.00  0.00    -0.525 C  
HETATM   21  C   UNL     1     -11.569  11.544  68.495  1.00  0.00    -0.377 A  
ENDBRANCH   2   4
TORSDOF 1
ENDMDL
MODEL        8
REMARK 921   NORMALIZED FREE ENERGY PREDICTED BY IDOCK:   -5.60 KCAL/MOL
REMARK 922        TOTAL FREE ENERGY PREDICTED BY IDOCK:   -6.10 KCAL/MOL
REMARK 923 INTER-LIGAND FREE ENERGY PREDICTED BY IDOCK:   -5.94 KCAL/MOL
REMARK 924 INTRA-LIGAND FREE ENERGY PREDICTED BY IDOCK:   -0.16 KCAL/MOL
REMARK 927      BINDING AFFINITY PREDICTED BY RF-SCORE:    0.00 PKD
ROOT
HETATM    1  C   UNL     1     -12.909  13.782  65.344  1.00  0.00    -0.410 C  
HETATM    2  N   UNL     1     -11.822  12.832  65.105  1.00  0.00    -0.367 NA 
HETATM    3  C   UNL     1     -11.821  12.419  63.697  1.00  0.00    -0.526 C  
ENDROOT
BRANCH   2   4
HETATM    4  C   UNL     1     -10.499  13.390  65.472  1.00  0.00    -0.291 C  
HETATM    5  C   UNL     1     -10.364  13.946  66.927  1.00  0.00    -0.266 C  
HETATM    6  C   UNL     1     -10.574  12.831  67.954  1.00  0.00    -0.232 A  
HETATM    7  C   UNL     1      -9.035  14.792  67.136  1.00  0.00    -0.224 C  
HETATM    8  O   UNL     1      -7.881  13.994  66.844  1.00  0.00    -0.355 OA 
HETATM    9  C   UNL     1      -9.724  11.717  68.038  1.00  0.00    -0.182 A  
HETATM   10  C   UNL     1      -8.988  16.039  66.227  1.00  0.00    -0.380 C  
HETATM   11  C   UNL     1     -10.143  16.996  66.481  1.00  0.00    -0.318 C  
HETATM   12  C   UNL     1      -9.958  10.708  68.978  1.00  0.00    -0.226 A  
HETATM   13  H   UNL     1      -7.087  14.500  66.969  1.00  0.00     0.000 HD 
HETATM   14  C   UNL     1     -11.041  10.813  69.842  1.00  0.00    -0.271 A  
HETATM   15  C   UNL     1     -10.296  17.391  67.949  1.00  0.00    -0.369 C  
HETATM   16  C   UNL     1      -9.912  16.342  68.997  1.00  0.00    -0.267 C  
HETATM   17  O   UNL     1     -11.294   9.865  70.788  1.00  0.00    -0.299 OA 
HETATM   18  C   UNL     1     -11.904  11.897  69.770  1.00  0.00    -0.411 A  
HETATM   19  H   UNL     1     -12.035   9.937  71.379  1.00  0.00     0.000 HD 
HETATM   20  C   UNL     1      -8.858  15.324  68.572  1.00  0.00    -0.185 C  
HETATM   21  C   UNL     1     -11.673  12.900  68.829  1.00  0.00    -0.363 A  
ENDBRANCH   2   4
TORSDOF 1
ENDMDL
MODEL        9
REMARK 921   NORMALIZED FREE ENERGY PREDICTED BY IDOCK:   -5.46 KCAL/MOL
REMARK 922        TOTAL FREE ENERGY PREDICTED BY IDOCK:   -5.95 KCAL/MOL
REMARK 923 INTER-LIGAND FREE ENERGY PREDICTED BY IDOCK:   -5.77 KCAL/MOL
REMARK 924 INTRA-LIGAND FREE ENERGY PREDICTED BY IDOCK:   -0.18 KCAL/MOL
REMARK 927      BINDING AFFINITY PREDICTED BY RF-SCORE:    0.00 PKD
ROOT
HETATM    1  C   UNL     1      -8.831  17.437  68.657  1.00  0.00    -0.258 C  
HETATM    2  N   UNL     1     -10.277  17.619  68.536  1.00  0.00    -0.367 NA 
HETATM    3  C   UNL     1     -10.564  18.878  67.838  1.00  0.00    -0.352 C  
ENDROOT
BRANCH   2   4
HETATM    4  C   UNL     1     -10.928  16.489  67.832  1.00  0.00    -0.288 C  
HETATM    5  C   UNL     1     -10.883  15.105  68.560  1.00  0.00    -0.247 C  
HETATM    6  C   UNL     1     -11.632  15.170  69.893  1.00  0.00    -0.329 A  
HETATM    7  C   UNL     1     -11.322  13.905  67.616  1.00  0.00    -0.309 C  
HETATM    8  O   UNL     1     -12.650  14.116  67.121  1.00  0.00    -0.533 OA 
HETATM    9  C   UNL     1     -13.007  15.443  69.970  1.00  0.00     0.002 A  
HETATM   10  C   UNL     1     -10.384  13.746  66.399  1.00  0.00    -0.290 C  
HETATM   11  C   UNL     1      -8.944  13.465  66.800  1.00  0.00    -0.190 C  
HETATM   12  C   UNL     1     -13.654  15.512  71.208  1.00  0.00    -0.520 A  
HETATM   13  H   UNL     1     -12.912  13.398  66.556  1.00  0.00     0.000 HD 
HETATM   14  C   UNL     1     -12.928  15.304  72.374  1.00  0.00    -0.380 A  
HETATM   15  C   UNL     1      -8.798  12.289  67.764  1.00  0.00    -0.174 C  
HETATM   16  C   UNL     1      -9.939  12.056  68.758  1.00  0.00    -0.086 C  
HETATM   17  O   UNL     1     -13.521  15.340  73.601  1.00  0.00    -0.617 OA 
HETATM   18  C   UNL     1     -11.566  15.048  72.326  1.00  0.00    -0.388 A  
HETATM   19  H   UNL     1     -13.025  15.198  74.398  1.00  0.00     0.000 HD 
HETATM   20  C   UNL     1     -11.321  12.532  68.317  1.00  0.00    -0.331 C  
HETATM   21  C   UNL     1     -10.920  14.984  71.091  1.00  0.00    -0.112 A  
ENDBRANCH   2   4
TORSDOF 1
ENDMDL
MODEL       10
REMARK 921   NORMALIZED FREE ENERGY PREDICTED BY IDOCK:   -5.43 KCAL/MOL
REMARK 922        TOTAL FREE ENERGY PREDICTED BY IDOCK:   -5.92 KCAL/MOL
REMARK 923 INTER-LIGAND FREE ENERGY PREDICTED BY IDOCK:   -5.74 KCAL/MOL
REMARK 924 INTRA-LIGAND FREE ENERGY PREDICTED BY IDOCK:   -0.17 KCAL/MOL
REMARK 927      BINDING AFFINITY PREDICTED BY RF-SCORE:    0.00 PKD
ROOT
HETATM    1  C   UNL     1     -12.133  11.246  70.307  1.00  0.00    -0.373 C  
HETATM    2  N   UNL     1     -11.724  12.192  69.268  1.00  0.00    -0.311 NA 
HETATM    3  C   UNL     1     -11.850  13.566  69.768  1.00  0.00    -0.329 C  
ENDROOT
BRANCH   2   4
HETATM    4  C   UNL     1     -10.340  11.947  68.799  1.00  0.00    -0.165 C  
HETATM    5  C   UNL     1     -10.195  11.374  67.350  1.00  0.00    -0.221 C  
HETATM    6  C   UNL     1     -10.748  12.361  66.320  1.00  0.00    -0.287 A  
HETATM    7  C   UNL     1      -8.723  10.859  67.044  1.00  0.00    -0.141 C  
HETATM    8  O   UNL     1      -7.774  11.919  67.212  1.00  0.00    -0.147 OA 
HETATM    9  C   UNL     1     -10.199  13.640  66.134  1.00  0.00    -0.306 A  
HETATM   10  C   UNL     1      -8.306   9.699  67.975  1.00  0.00    -0.117 C  
HETATM   11  C   UNL     1      -9.214   8.486  67.848  1.00  0.00    -0.148 C  
HETATM   12  C   UNL     1     -10.743  14.522  65.195  1.00  0.00    -0.422 A  
HETATM   13  H   UNL     1      -6.895  11.610  67.029  1.00  0.00     0.000 HD 
HETATM   14  C   UNL     1     -11.836  14.126  64.434  1.00  0.00    -0.428 A  
HETATM   15  C   UNL     1      -9.387   8.001  66.410  1.00  0.00    -0.259 C  
HETATM   16  C   UNL     1      -9.351   9.063  65.307  1.00  0.00    -0.158 C  
HETATM   17  O   UNL     1     -12.385  14.943  63.492  1.00  0.00    -1.008 OA 
HETATM   18  C   UNL     1     -12.405  12.872  64.609  1.00  0.00    -0.501 A  
HETATM   19  H   UNL     1     -13.132  14.672  62.971  1.00  0.00     0.000 HD 
HETATM   20  C   UNL     1      -8.541  10.320  65.611  1.00  0.00    -0.170 C  
HETATM   21  C   UNL     1     -11.865  11.995  65.549  1.00  0.00    -0.250 A  
ENDBRANCH   2   4
TORSDOF 1
ENDMDL
MODEL       11
REMARK 921   NORMALIZED FREE ENERGY PREDICTED BY IDOCK:   -5.42 KCAL/MOL
REMARK 922        TOTAL FREE ENERGY PREDICTED BY IDOCK:   -5.91 KCAL/MOL
REMARK 923 INTER-LIGAND FREE ENERGY PREDICTED BY IDOCK:   -5.75 KCAL/MOL
REMARK 924 INTRA-LIGAND FREE ENERGY PREDICTED BY IDOCK:   -0.16 KCAL/MOL
REMARK 927      BINDING AFFINITY PREDICTED BY RF-SCORE:    0.00 PKD
ROOT
HETATM    1  C   UNL     1     -10.038  11.623  63.211  1.00  0.00    -0.423 C  
HETATM    2  N   UNL     1     -10.876  12.402  64.122  1.00  0.00    -0.340 NA 
HETATM    3  C   UNL     1     -12.071  12.879  63.415  1.00  0.00    -0.530 C  
ENDROOT
BRANCH   2   4
HETATM    4  C   UNL     1     -11.272  11.628  65.323  1.00  0.00    -0.199 C  
HETATM    5  C   UNL     1     -10.366  11.804  66.586  1.00  0.00    -0.251 C  
HETATM    6  C   UNL     1     -10.394  13.254  67.075  1.00  0.00    -0.246 A  
HETATM    7  C   UNL     1     -10.672  10.724  67.710  1.00  0.00    -0.251 C  
HETATM    8  O   UNL     1     -12.043  10.799  68.119  1.00  0.00    -0.802 OA 
HETATM    9  C   UNL     1     -11.571  13.871  67.529  1.00  0.00    -0.392 A  
HETATM   10  C   UNL     1     -10.403   9.283  67.224  1.00  0.00    -0.332 C  
HETATM   11  C   UNL     1      -8.957   9.063  66.808  1.00  0.00    -0.160 C  
HETATM   12  C   UNL     1     -11.562  15.204  67.952  1.00  0.00    -0.326 A  
HETATM   13  H   UNL     1     -12.226  10.153  68.791  1.00  0.00     0.000 HD 
HETATM   14  C   UNL     1     -10.374  15.924  67.926  1.00  0.00    -0.269 A  
HETATM   15  C   UNL     1      -7.945   9.482  67.873  1.00  0.00    -0.098 C  
HETATM   16  C   UNL     1      -8.324  10.665  68.768  1.00  0.00    -0.144 C  
HETATM   17  O   UNL     1     -10.313  17.218  68.349  1.00  0.00    -0.322 OA 
HETATM   18  C   UNL     1      -9.201  15.341  67.468  1.00  0.00    -0.202 A  
HETATM   19  H   UNL     1      -9.501  17.710  68.331  1.00  0.00     0.000 HD 
HETATM   20  C   UNL     1      -9.818  10.894  68.982  1.00  0.00    -0.196 C  
HETATM   21  C   UNL     1      -9.212  14.013  67.042  1.00  0.00    -0.262 A  
ENDBRANCH   2   4
TORSDOF 1
ENDMDL
MODEL       12
REMARK 921   NORMALIZED FREE ENERGY PREDICTED BY IDOCK:   -5.21 KCAL/MOL
REMARK 922        TOTAL FREE ENERGY PREDICTED BY IDOCK:   -5.68 KCAL/MOL
REMARK 923 INTER-LIGAND FREE ENERGY PREDICTED BY IDOCK:   -5.67 KCAL/MOL
REMARK 924 INTRA-LIGAND FREE ENERGY PREDICTED BY IDOCK:   -0.01 KCAL/MOL
REMARK 927      BINDING AFFINITY PREDICTED BY RF-SCORE:    0.00 PKD
ROOT
HETATM    1  C   UNL     1     -11.731  13.398  70.324  1.00  0.00    -0.159 C  
HETATM    2  N   UNL     1     -12.515  14.538  69.849  1.00  0.00    -0.293 NA 
HETATM    3  C   UNL     1     -13.214  15.166  70.977  1.00  0.00    -0.450 C  
ENDROOT
BRANCH   2   4
HETATM    4  C   UNL     1     -11.679  15.541  69.148  1.00  0.00    -0.365 C  
HETATM    5  C   UNL     1     -10.613  14.975  68.153  1.00  0.00    -0.248 C  
HETATM    6  C   UNL     1     -11.289  14.216  67.009  1.00  0.00    -0.346 A  
HETATM    7  C   UNL     1      -9.571  16.080  67.685  1.00  0.00    -0.218 C  
HETATM    8  O   UNL     1     -10.247  17.174  67.054  1.00  0.00    -0.298 OA 
HETATM    9  C   UNL     1     -12.161  14.841  66.104  1.00  0.00    -0.100 A  
HETATM   10  C   UNL     1      -8.753  16.648  68.865  1.00  0.00    -0.238 C  
HETATM   11  C   UNL     1      -7.944  15.582  69.588  1.00  0.00    -0.123 C  
HETATM   12  C   UNL     1     -12.775  14.110  65.081  1.00  0.00    -0.387 A  
HETATM   13  H   UNL     1      -9.624  17.834  66.774  1.00  0.00     0.000 HD 
HETATM   14  C   UNL     1     -12.513  12.751  64.957  1.00  0.00    -0.506 A  
HETATM   15  C   UNL     1      -7.063  14.750  68.659  1.00  0.00    -0.112 C  
HETATM   16  C   UNL     1      -7.585  14.500  67.241  1.00  0.00    -0.150 C  
HETATM   17  O   UNL     1     -13.071  12.004  63.964  1.00  0.00    -0.660 OA 
HETATM   18  C   UNL     1     -11.667  12.107  65.848  1.00  0.00    -0.393 A  
HETATM   19  H   UNL     1     -12.892  11.075  63.879  1.00  0.00     0.000 HD 
HETATM   20  C   UNL     1      -8.528  15.559  66.676  1.00  0.00    -0.314 C  
HETATM   21  C   UNL     1     -11.059  12.836  66.871  1.00  0.00    -0.308 A  
ENDBRANCH   2   4
TORSDOF 1
ENDMDL
MODEL       13
REMARK 921   NORMALIZED FREE ENERGY PREDICTED BY IDOCK:   -5.14 KCAL/MOL
REMARK 922        TOTAL FREE ENERGY PREDICTED BY IDOCK:   -5.61 KCAL/MOL
REMARK 923 INTER-LIGAND FREE ENERGY PREDICTED BY IDOCK:   -5.49 KCAL/MOL
REMARK 924 INTRA-LIGAND FREE ENERGY PREDICTED BY IDOCK:   -0.12 KCAL/MOL
REMARK 927      BINDING AFFINITY PREDICTED BY RF-SCORE:    0.00 PKD
ROOT
HETATM    1  C   UNL     1      -6.375  14.332  67.945  1.00  0.00    -0.163 C  
HETATM    2  N   UNL     1      -7.338  13.236  67.848  1.00  0.00    -0.117 NA 
HETATM    3  C   UNL     1      -6.953  12.152  68.759  1.00  0.00    -0.101 C  
ENDROOT
BRANCH   2   4
HETATM    4  C   UNL     1      -8.723  13.677  68.140  1.00  0.00    -0.177 C  
HETATM    5  C   UNL     1      -9.796  13.347  67.051  1.00  0.00    -0.250 C  
HETATM    6  C   UNL     1      -9.938  11.834  66.871  1.00  0.00    -0.220 A  
HETATM    7  C   UNL     1     -11.166  14.113  67.295  1.00  0.00    -0.316 C  
HETATM    8  O   UNL     1     -11.705  13.781  68.580  1.00  0.00    -0.313 OA 
HETATM    9  C   UNL     1     -10.373  10.992  67.906  1.00  0.00    -0.213 A  
HETATM   10  C   UNL     1     -10.997  15.647  67.236  1.00  0.00    -0.275 C  
HETATM   11  C   UNL     1     -10.476  16.130  65.892  1.00  0.00    -0.366 C  
HETATM   12  C   UNL     1     -10.473   9.611  67.710  1.00  0.00    -0.309 A  
HETATM   13  H   UNL     1     -12.525  14.238  68.725  1.00  0.00     0.000 HD 
HETATM   14  C   UNL     1     -10.142   9.067  66.474  1.00  0.00    -0.283 A  
HETATM   15  C   UNL     1     -11.289  15.621  64.703  1.00  0.00    -0.355 C  
HETATM   16  C   UNL     1     -11.925  14.235  64.836  1.00  0.00    -0.430 C  
HETATM   17  O   UNL     1     -10.246   7.731  66.231  1.00  0.00    -0.475 OA 
HETATM   18  C   UNL     1      -9.696   9.877  65.440  1.00  0.00    -0.375 A  
HETATM   19  H   UNL     1     -10.020   7.359  65.386  1.00  0.00     0.000 HD 
HETATM   20  C   UNL     1     -12.255  13.781  66.255  1.00  0.00    -0.489 C  
HETATM   21  C   UNL     1      -9.592  11.254  65.638  1.00  0.00    -0.260 A  
ENDBRANCH   2   4
TORSDOF 1
ENDMDL
MODEL       14
REMARK 921   NORMALIZED FREE ENERGY PREDICTED BY IDOCK:   -5.11 KCAL/MOL
REMARK 922        TOTAL FREE ENERGY PREDICTED BY IDOCK:   -5.58 KCAL/MOL
REMARK 923 INTER-LIGAND FREE ENERGY PREDICTED BY IDOCK:   -5.40 KCAL/MOL
REMARK 924 INTRA-LIGAND FREE ENERGY PREDICTED BY IDOCK:   -0.17 KCAL/MOL
REMARK 927      BINDING AFFINITY PREDICTED BY RF-SCORE:    0.00 PKD
ROOT
HETATM    1  C   UNL     1      -6.869  14.790  69.691  1.00  0.00    -0.173 C  
HETATM    2  N   UNL     1      -6.598  15.290  68.343  1.00  0.00    -0.105 NA 
HETATM    3  C   UNL     1      -5.209  14.996  67.972  1.00  0.00    -0.113 C  
ENDROOT
BRANCH   2   4
HETATM    4  C   UNL     1      -7.525  14.720  67.337  1.00  0.00    -0.194 C  
HETATM    5  C   UNL     1      -9.048  14.979  67.577  1.00  0.00    -0.189 C  
HETATM    6  C   UNL     1      -9.357  16.477  67.532  1.00  0.00    -0.218 A  
HETATM    7  C   UNL     1      -9.972  14.088  66.640  1.00  0.00    -0.278 C  
HETATM    8  O   UNL     1      -9.680  14.339  65.261  1.00  0.00    -0.553 OA 
HETATM    9  C   UNL     1      -9.156  17.252  66.379  1.00  0.00    -0.281 A  
HETATM   10  C   UNL     1      -9.779  12.577  66.896  1.00  0.00    -0.232 C  
HETATM   11  C   UNL     1     -10.111  12.175  68.325  1.00  0.00    -0.210 C  
HETATM   12  C   UNL     1      -9.432  18.622  66.381  1.00  0.00    -0.319 A  
HETATM   13  H   UNL     1     -10.233  13.807  64.701  1.00  0.00     0.000 HD 
HETATM   14  C   UNL     1      -9.916  19.223  67.537  1.00  0.00    -0.365 A  
HETATM   15  C   UNL     1     -11.493  12.638  68.783  1.00  0.00    -0.349 C  
HETATM   16  C   UNL     1     -12.013  13.959  68.207  1.00  0.00    -0.392 C  
HETATM   17  O   UNL     1     -10.219  20.551  67.579  1.00  0.00    -0.348 OA 
HETATM   18  C   UNL     1     -10.109  18.482  68.694  1.00  0.00    -0.406 A  
HETATM   19  H   UNL     1     -10.550  20.961  68.369  1.00  0.00     0.000 HD 
HETATM   20  C   UNL     1     -11.480  14.347  66.831  1.00  0.00    -0.379 C  
HETATM   21  C   UNL     1      -9.828  17.116  68.693  1.00  0.00    -0.300 A  
ENDBRANCH   2   4
TORSDOF 1
ENDMDL
MODEL       15
REMARK 921   NORMALIZED FREE ENERGY PREDICTED BY IDOCK:   -5.08 KCAL/MOL
REMARK 922        TOTAL FREE ENERGY PREDICTED BY IDOCK:   -5.55 KCAL/MOL
REMARK 923 INTER-LIGAND FREE ENERGY PREDICTED BY IDOCK:   -5.37 KCAL/MOL
REMARK 924 INTRA-LIGAND FREE ENERGY PREDICTED BY IDOCK:   -0.18 KCAL/MOL
REMARK 927      BINDING AFFINITY PREDICTED BY RF-SCORE:    0.00 PKD
ROOT
HETATM    1  C   UNL     1     -10.417  14.313  64.737  1.00  0.00    -0.395 C  
HETATM    2  N   UNL     1     -11.312  14.758  65.805  1.00  0.00    -0.342 NA 
HETATM    3  C   UNL     1     -12.613  14.090  65.676  1.00  0.00    -0.512 C  
ENDROOT
BRANCH   2   4
HETATM    4  C   UNL     1     -10.745  14.512  67.152  1.00  0.00    -0.286 C  
HETATM    5  C   UNL     1      -9.377  15.203  67.461  1.00  0.00    -0.198 C  
HETATM    6  C   UNL     1      -9.515  16.726  67.409  1.00  0.00    -0.236 A  
HETATM    7  C   UNL     1      -8.700  14.648  68.787  1.00  0.00    -0.166 C  
HETATM    8  O   UNL     1      -9.569  14.836  69.911  1.00  0.00    -0.419 OA 
HETATM    9  C   UNL     1     -10.351  17.435  68.286  1.00  0.00    -0.374 A  
HETATM   10  C   UNL     1      -8.373  13.142  68.690  1.00  0.00     0.019 C  
HETATM   11  C   UNL     1      -7.411  12.821  67.557  1.00  0.00    -0.153 C  
HETATM   12  C   UNL     1     -10.466  18.826  68.197  1.00  0.00    -0.372 A  
HETATM   13  H   UNL     1      -9.164  14.504  70.704  1.00  0.00     0.000 HD 
HETATM   14  C   UNL     1      -9.741  19.514  67.232  1.00  0.00    -0.343 A  
HETATM   15  C   UNL     1      -6.134  13.660  67.585  1.00  0.00    -0.108 C  
HETATM   16  C   UNL     1      -6.250  15.088  68.123  1.00  0.00    -0.142 C  
HETATM   17  O   UNL     1      -9.804  20.871  67.123  1.00  0.00    -0.605 OA 
HETATM   18  C   UNL     1      -8.919  18.835  66.344  1.00  0.00    -0.296 A  
HETATM   19  H   UNL     1      -9.308  21.341  66.463  1.00  0.00     0.000 HD 
HETATM   20  C   UNL     1      -7.365  15.336  69.136  1.00  0.00    -0.172 C  
HETATM   21  C   UNL     1      -8.809  17.447  66.430  1.00  0.00    -0.273 A  
ENDBRANCH   2   4
TORSDOF 1
ENDMDL
MODEL       16
REMARK 921   NORMALIZED FREE ENERGY PREDICTED BY IDOCK:   -5.05 KCAL/MOL
REMARK 922        TOTAL FREE ENERGY PREDICTED BY IDOCK:   -5.51 KCAL/MOL
REMARK 923 INTER-LIGAND FREE ENERGY PREDICTED BY IDOCK:   -5.33 KCAL/MOL
REMARK 924 INTRA-LIGAND FREE ENERGY PREDICTED BY IDOCK:   -0.18 KCAL/MOL
REMARK 927      BINDING AFFINITY PREDICTED BY RF-SCORE:    0.00 PKD
ROOT
HETATM    1  C   UNL     1     -13.992   7.413  71.701  1.00  0.00    -0.403 C  
HETATM    2  N   UNL     1     -12.986   8.449  71.467  1.00  0.00    -0.319 NA 
HETATM    3  C   UNL     1     -13.473   9.739  71.969  1.00  0.00    -0.407 C  
ENDROOT
BRANCH   2   4
HETATM    4  C   UNL     1     -11.684   8.118  72.093  1.00  0.00    -0.359 C  
HETATM    5  C   UNL     1     -10.934   6.876  71.509  1.00  0.00    -0.268 C  
HETATM    6  C   UNL     1     -10.572   7.103  70.039  1.00  0.00    -0.248 A  
HETATM    7  C   UNL     1      -9.719   6.414  72.422  1.00  0.00    -0.153 C  
HETATM    8  O   UNL     1      -8.776   7.480  72.582  1.00  0.00    -0.116 OA 
HETATM    9  C   UNL     1      -9.705   8.127  69.628  1.00  0.00    -0.170 A  
HETATM   10  C   UNL     1     -10.180   5.976  73.830  1.00  0.00    -0.270 C  
HETATM   11  C   UNL     1     -11.151   4.807  73.794  1.00  0.00    -0.321 C  
HETATM   12  C   UNL     1      -9.412   8.316  68.274  1.00  0.00    -0.146 A  
HETATM   13  H   UNL     1      -8.050   7.204  73.128  1.00  0.00     0.000 HD 
HETATM   14  C   UNL     1      -9.982   7.476  67.325  1.00  0.00    -0.210 A  
HETATM   15  C   UNL     1     -10.641   3.614  72.987  1.00  0.00    -0.252 C  
HETATM   16  C   UNL     1      -9.747   3.919  71.781  1.00  0.00    -0.243 C  
HETATM   17  O   UNL     1      -9.708   7.608  65.997  1.00  0.00    -0.434 OA 
HETATM   18  C   UNL     1     -10.853   6.465  67.705  1.00  0.00    -0.425 A  
HETATM   19  H   UNL     1     -10.097   7.033  65.348  1.00  0.00     0.000 HD 
HETATM   20  C   UNL     1      -8.939   5.211  71.854  1.00  0.00    -0.147 C  
HETATM   21  C   UNL     1     -11.149   6.281  69.055  1.00  0.00    -0.446 A  
ENDBRANCH   2   4
TORSDOF 1
ENDMDL
MODEL       17
REMARK 921   NORMALIZED FREE ENERGY PREDICTED BY IDOCK:   -4.99 KCAL/MOL
REMARK 922        TOTAL FREE ENERGY PREDICTED BY IDOCK:   -5.45 KCAL/MOL
REMARK 923 INTER-LIGAND FREE ENERGY PREDICTED BY IDOCK:   -5.36 KCAL/MOL
REMARK 924 INTRA-LIGAND FREE ENERGY PREDICTED BY IDOCK:   -0.09 KCAL/MOL
REMARK 927      BINDING AFFINITY PREDICTED BY RF-SCORE:    0.00 PKD
ROOT
HETATM    1  C   UNL     1      -9.971  19.693  68.061  1.00  0.00    -0.427 C  
HETATM    2  N   UNL     1     -10.522  18.869  66.985  1.00  0.00    -0.406 NA 
HETATM    3  C   UNL     1     -10.772  19.698  65.800  1.00  0.00    -0.392 C  
ENDROOT
BRANCH   2   4
HETATM    4  C   UNL     1      -9.633  17.736  66.634  1.00  0.00    -0.307 C  
HETATM    5  C   UNL     1      -9.080  16.897  67.832  1.00  0.00    -0.233 C  
HETATM    6  C   UNL     1     -10.223  16.224  68.595  1.00  0.00    -0.254 A  
HETATM    7  C   UNL     1      -7.910  15.912  67.397  1.00  0.00    -0.168 C  
HETATM    8  O   UNL     1      -8.364  15.011  66.381  1.00  0.00    -0.400 OA 
HETATM    9  C   UNL     1     -11.068  15.275  68.000  1.00  0.00    -0.312 A  
HETATM   10  C   UNL     1      -6.684  16.671  66.843  1.00  0.00    -0.247 C  
HETATM   11  C   UNL     1      -6.078  17.629  67.857  1.00  0.00    -0.155 C  
HETATM   12  C   UNL     1     -12.115  14.695  68.724  1.00  0.00    -0.237 A  
HETATM   13  H   UNL     1      -7.665  14.423  66.121  1.00  0.00     0.000 HD 
HETATM   14  C   UNL     1     -12.317  15.060  70.050  1.00  0.00    -0.309 A  
HETATM   15  C   UNL     1      -5.758  16.974  69.199  1.00  0.00    -0.164 C  
HETATM   16  C   UNL     1      -6.677  15.838  69.658  1.00  0.00    -0.176 C  
HETATM   17  O   UNL     1     -13.309  14.505  70.800  1.00  0.00    -0.461 OA 
HETATM   18  C   UNL     1     -11.504  16.007  70.656  1.00  0.00    -0.427 A  
HETATM   19  H   UNL     1     -13.447  14.754  71.707  1.00  0.00     0.000 HD 
HETATM   20  C   UNL     1      -7.369  15.046  68.552  1.00  0.00    -0.117 C  
HETATM   21  C   UNL     1     -10.464  16.588  69.932  1.00  0.00    -0.166 A  
ENDBRANCH   2   4
TORSDOF 1
ENDMDL
MODEL       18
REMARK 921   NORMALIZED FREE ENERGY PREDICTED BY IDOCK:   -4.96 KCAL/MOL
REMARK 922        TOTAL FREE ENERGY PREDICTED BY IDOCK:   -5.42 KCAL/MOL
REMARK 923 INTER-LIGAND FREE ENERGY PREDICTED BY IDOCK:   -5.24 KCAL/MOL
REMARK 924 INTRA-LIGAND FREE ENERGY PREDICTED BY IDOCK:   -0.18 KCAL/MOL
REMARK 927      BINDING AFFINITY PREDICTED BY RF-SCORE:    0.00 PKD
ROOT
HETATM    1  C   UNL     1      -7.154   6.117  71.915  1.00  0.00    -0.086 C  
HETATM    2  N   UNL     1      -8.234   7.098  72.026  1.00  0.00    -0.100 NA 
HETATM    3  C   UNL     1      -8.078   7.873  73.262  1.00  0.00    -0.167 C  
ENDROOT
BRANCH   2   4
HETATM    4  C   UNL     1      -8.287   8.009  70.858  1.00  0.00    -0.119 C  
HETATM    5  C   UNL     1      -9.537   7.867  69.929  1.00  0.00    -0.168 C  
HETATM    6  C   UNL     1     -10.821   8.198  70.694  1.00  0.00    -0.246 A  
HETATM    7  C   UNL     1      -9.368   8.650  68.557  1.00  0.00    -0.138 C  
HETATM    8  O   UNL     1      -9.136  10.042  68.798  1.00  0.00    -0.136 OA 
HETATM    9  C   UNL     1     -11.064   9.469  71.239  1.00  0.00    -0.449 A  
HETATM   10  C   UNL     1      -8.187   8.112  67.719  1.00  0.00    -0.128 C  
HETATM   11  C   UNL     1      -8.345   6.644  67.353  1.00  0.00    -0.121 C  
HETATM   12  C   UNL     1     -12.241   9.730  71.948  1.00  0.00    -0.378 A  
HETATM   13  H   UNL     1      -9.035  10.510  67.977  1.00  0.00     0.000 HD 
HETATM   14  C   UNL     1     -13.182   8.720  72.110  1.00  0.00    -0.414 A  
HETATM   15  C   UNL     1      -9.681   6.323  66.687  1.00  0.00    -0.195 C  
HETATM   16  C   UNL     1     -10.895   7.149  67.124  1.00  0.00    -0.403 C  
HETATM   17  O   UNL     1     -14.353   8.935  72.774  1.00  0.00    -0.949 OA 
HETATM   18  C   UNL     1     -12.959   7.452  71.593  1.00  0.00    -0.409 A  
HETATM   19  H   UNL     1     -14.997   8.245  72.884  1.00  0.00     0.000 HD 
HETATM   20  C   UNL     1     -10.600   8.557  67.634  1.00  0.00    -0.268 C  
HETATM   21  C   UNL     1     -11.783   7.192  70.890  1.00  0.00    -0.367 A  
ENDBRANCH   2   4
TORSDOF 1
ENDMDL
MODEL       19
REMARK 921   NORMALIZED FREE ENERGY PREDICTED BY IDOCK:   -4.95 KCAL/MOL
REMARK 922        TOTAL FREE ENERGY PREDICTED BY IDOCK:   -5.41 KCAL/MOL
REMARK 923 INTER-LIGAND FREE ENERGY PREDICTED BY IDOCK:   -5.24 KCAL/MOL
REMARK 924 INTRA-LIGAND FREE ENERGY PREDICTED BY IDOCK:   -0.18 KCAL/MOL
REMARK 927      BINDING AFFINITY PREDICTED BY RF-SCORE:    0.00 PKD
ROOT
HETATM    1  C   UNL     1     -11.881  16.047  71.481  1.00  0.00    -0.486 C  
HETATM    2  N   UNL     1     -11.345  15.243  70.382  1.00  0.00    -0.273 NA 
HETATM    3  C   UNL     1     -12.140  14.019  70.226  1.00  0.00    -0.355 C  
ENDROOT
BRANCH   2   4
HETATM    4  C   UNL     1     -11.309  15.993  69.104  1.00  0.00    -0.352 C  
HETATM    5  C   UNL     1      -9.890  16.287  68.517  1.00  0.00    -0.223 C  
HETATM    6  C   UNL     1      -9.161  14.983  68.182  1.00  0.00    -0.183 A  
HETATM    7  C   UNL     1      -9.929  17.342  67.329  1.00  0.00    -0.302 C  
HETATM    8  O   UNL     1     -10.773  16.876  66.270  1.00  0.00    -0.229 OA 
HETATM    9  C   UNL     1      -9.641  14.079  67.221  1.00  0.00    -0.238 A  
HETATM   10  C   UNL     1     -10.464  18.717  67.788  1.00  0.00    -0.479 C  
HETATM   11  C   UNL     1      -9.615  19.343  68.883  1.00  0.00    -0.477 C  
HETATM   12  C   UNL     1      -8.957  12.889  66.955  1.00  0.00    -0.225 A  
HETATM   13  H   UNL     1     -10.796  17.507  65.560  1.00  0.00     0.000 HD 
HETATM   14  C   UNL     1      -7.786  12.601  67.647  1.00  0.00    -0.162 A  
HETATM   15  C   UNL     1      -8.130  19.420  68.535  1.00  0.00    -0.396 C  
HETATM   16  C   UNL     1      -7.561  18.303  67.656  1.00  0.00    -0.222 C  
HETATM   17  O   UNL     1      -7.075  11.464  67.405  1.00  0.00    -0.098 OA 
HETATM   18  C   UNL     1      -7.300  13.471  68.612  1.00  0.00    -0.112 A  
HETATM   19  H   UNL     1      -6.275  11.267  67.878  1.00  0.00     0.000 HD 
HETATM   20  C   UNL     1      -8.548  17.627  66.707  1.00  0.00    -0.276 C  
HETATM   21  C   UNL     1      -7.985  14.656  68.880  1.00  0.00    -0.149 A  
ENDBRANCH   2   4
TORSDOF 1
ENDMDL
MODEL       20
REMARK 921   NORMALIZED FREE ENERGY PREDICTED BY IDOCK:   -4.95 KCAL/MOL
REMARK 922        TOTAL FREE ENERGY PREDICTED BY IDOCK:   -5.41 KCAL/MOL
REMARK 923 INTER-LIGAND FREE ENERGY PREDICTED BY IDOCK:   -5.24 KCAL/MOL
REMARK 924 INTRA-LIGAND FREE ENERGY PREDICTED BY IDOCK:   -0.17 KCAL/MOL
REMARK 927      BINDING AFFINITY PREDICTED BY RF-SCORE:    0.00 PKD
ROOT
HETATM    1  C   UNL     1      -5.860  11.212  66.144  1.00  0.00    -0.120 C  
HETATM    2  N   UNL     1      -6.699  10.713  65.054  1.00  0.00     0.010 NA 
HETATM    3  C   UNL     1      -5.855  10.170  63.983  1.00  0.00    -0.140 C  
ENDROOT
BRANCH   2   4
HETATM    4  C   UNL     1      -7.663   9.685  65.513  1.00  0.00    -0.112 C  
HETATM    5  C   UNL     1      -8.880  10.204  66.346  1.00  0.00    -0.158 C  
HETATM    6  C   UNL     1      -9.745  11.149  65.509  1.00  0.00    -0.271 A  
HETATM    7  C   UNL     1      -9.683   9.026  67.049  1.00  0.00    -0.189 C  
HETATM    8  O   UNL     1     -10.163   8.093  66.074  1.00  0.00    -0.401 OA 
HETATM    9  C   UNL     1     -10.406  10.730  64.344  1.00  0.00    -0.405 A  
HETATM   10  C   UNL     1      -8.812   8.248  68.059  1.00  0.00    -0.135 C  
HETATM   11  C   UNL     1      -8.283   9.128  69.181  1.00  0.00    -0.117 C  
HETATM   12  C   UNL     1     -11.174  11.627  63.594  1.00  0.00    -0.497 A  
HETATM   13  H   UNL     1     -10.643   7.389  66.494  1.00  0.00     0.000 HD 
HETATM   14  C   UNL     1     -11.287  12.948  64.011  1.00  0.00    -0.415 A  
HETATM   15  C   UNL     1      -9.371   9.927  69.895  1.00  0.00    -0.250 C  
HETATM   16  C   UNL     1     -10.571  10.376  69.055  1.00  0.00    -0.247 C  
HETATM   17  O   UNL     1     -12.041  13.852  63.325  1.00  0.00    -0.938 OA 
HETATM   18  C   UNL     1     -10.631  13.390  65.152  1.00  0.00    -0.353 A  
HETATM   19  H   UNL     1     -12.118  14.755  63.611  1.00  0.00     0.000 HD 
HETATM   20  C   UNL     1     -10.911   9.505  67.849  1.00  0.00    -0.240 C  
HETATM   21  C   UNL     1      -9.862  12.496  65.896  1.00  0.00    -0.257 A  
ENDBRANCH   2   4
TORSDOF 1
ENDMDL
MODEL       21
REMARK 921   NORMALIZED FREE ENERGY PREDICTED BY IDOCK:   -4.92 KCAL/MOL
REMARK 922        TOTAL FREE ENERGY PREDICTED BY IDOCK:   -5.38 KCAL/MOL
REMARK 923 INTER-LIGAND FREE ENERGY PREDICTED BY IDOCK:   -5.22 KCAL/MOL
REMARK 924 INTRA-LIGAND FREE ENERGY PREDICTED BY IDOCK:   -0.16 KCAL/MOL
REMARK 927      BINDING AFFINITY PREDICTED BY RF-SCORE:    0.00 PKD
ROOT
HETATM    1  C   UNL     1     -11.568  16.024  70.957  1.00  0.00    -0.431 C  
HETATM    2  N   UNL     1     -11.280  15.266  69.740  1.00  0.00    -0.266 NA 
HETATM    3  C   UNL     1     -12.373  14.325  69.469  1.00  0.00    -0.230 C  
ENDROOT
BRANCH   2   4
HETATM    4  C   UNL     1     -11.066  16.147  68.567  1.00  0.00    -0.357 C  
HETATM    5  C   UNL     1      -9.670  16.039  67.870  1.00  0.00    -0.220 C  
HETATM    6  C   UNL     1      -9.456  14.635  67.301  1.00  0.00    -0.221 A  
HETATM    7  C   UNL     1      -9.415  17.216  66.833  1.00  0.00    -0.259 C  
HETATM    8  O   UNL     1     -10.430  17.223  65.822  1.00  0.00    -0.502 OA 
HETATM    9  C   UNL     1     -10.274  14.099  66.294  1.00  0.00    -0.301 A  
HETATM   10  C   UNL     1      -9.415  18.603  67.512  1.00  0.00    -0.311 C  
HETATM   11  C   UNL     1      -8.339  18.737  68.578  1.00  0.00    -0.379 C  
HETATM   12  C   UNL     1     -10.059  12.804  65.811  1.00  0.00    -0.296 A  
HETATM   13  H   UNL     1     -10.277  17.927  65.202  1.00  0.00     0.000 HD 
HETATM   14  C   UNL     1      -9.020  12.042  66.331  1.00  0.00    -0.161 A  
HETATM   15  C   UNL     1      -6.941  18.368  68.083  1.00  0.00    -0.241 C  
HETATM   16  C   UNL     1      -6.846  17.274  67.016  1.00  0.00    -0.225 C  
HETATM   17  O   UNL     1      -8.760  10.785  65.875  1.00  0.00    -0.170 OA 
HETATM   18  C   UNL     1      -8.206  12.544  67.336  1.00  0.00    -0.183 A  
HETATM   19  H   UNL     1      -8.049  10.263  66.230  1.00  0.00     0.000 HD 
HETATM   20  C   UNL     1      -8.060  17.117  66.104  1.00  0.00    -0.283 C  
HETATM   21  C   UNL     1      -8.425  13.833  67.821  1.00  0.00    -0.181 A  
ENDBRANCH   2   4
TORSDOF 1
ENDMDL
MODEL       22
REMARK 921   NORMALIZED FREE ENERGY PREDICTED BY IDOCK:   -4.87 KCAL/MOL
REMARK 922        TOTAL FREE ENERGY PREDICTED BY IDOCK:   -5.32 KCAL/MOL
REMARK 923 INTER-LIGAND FREE ENERGY PREDICTED BY IDOCK:   -5.16 KCAL/MOL
REMARK 924 INTRA-LIGAND FREE ENERGY PREDICTED BY IDOCK:   -0.16 KCAL/MOL
REMARK 927      BINDING AFFINITY PREDICTED BY RF-SCORE:    0.00 PKD
ROOT
HETATM    1  C   UNL     1     -11.957  15.939  70.310  1.00  0.00    -0.305 C  
HETATM    2  N   UNL     1     -11.291  15.002  69.406  1.00  0.00    -0.278 NA 
HETATM    3  C   UNL     1     -12.126  13.809  69.222  1.00  0.00    -0.329 C  
ENDROOT
BRANCH   2   4
HETATM    4  C   UNL     1     -10.983  15.613  68.091  1.00  0.00    -0.314 C  
HETATM    5  C   UNL     1      -9.603  16.340  67.976  1.00  0.00    -0.224 C  
HETATM    6  C   UNL     1      -8.452  15.353  68.186  1.00  0.00    -0.147 A  
HETATM    7  C   UNL     1      -9.485  17.218  66.657  1.00  0.00    -0.265 C  
HETATM    8  O   UNL     1      -9.669  16.403  65.493  1.00  0.00    -0.505 OA 
HETATM    9  C   UNL     1      -8.228  14.266  67.327  1.00  0.00    -0.212 A  
HETATM   10  C   UNL     1     -10.536  18.349  66.613  1.00  0.00    -0.415 C  
HETATM   11  C   UNL     1     -10.408  19.317  67.779  1.00  0.00    -0.531 C  
HETATM   12  C   UNL     1      -7.176  13.374  67.560  1.00  0.00    -0.163 A  
HETATM   13  H   UNL     1      -9.598  16.929  64.705  1.00  0.00     0.000 HD 
HETATM   14  C   UNL     1      -6.341  13.570  68.653  1.00  0.00    -0.091 A  
HETATM   15  C   UNL     1      -8.999  19.882  67.951  1.00  0.00    -0.381 C  
HETATM   16  C   UNL     1      -7.830  18.970  67.567  1.00  0.00    -0.263 C  
HETATM   17  O   UNL     1      -5.291  12.740  68.908  1.00  0.00    -0.066 OA 
HETATM   18  C   UNL     1      -6.550  14.629  69.525  1.00  0.00    -0.149 A  
HETATM   19  H   UNL     1      -4.719  12.874  69.655  1.00  0.00     0.000 HD 
HETATM   20  C   UNL     1      -8.121  17.919  66.499  1.00  0.00    -0.303 C  
HETATM   21  C   UNL     1      -7.602  15.515  69.294  1.00  0.00    -0.221 A  
ENDBRANCH   2   4
TORSDOF 1
ENDMDL
MODEL       23
REMARK 921   NORMALIZED FREE ENERGY PREDICTED BY IDOCK:   -4.82 KCAL/MOL
REMARK 922        TOTAL FREE ENERGY PREDICTED BY IDOCK:   -5.27 KCAL/MOL
REMARK 923 INTER-LIGAND FREE ENERGY PREDICTED BY IDOCK:   -6.16 KCAL/MOL
REMARK 924 INTRA-LIGAND FREE ENERGY PREDICTED BY IDOCK:    0.89 KCAL/MOL
REMARK 927      BINDING AFFINITY PREDICTED BY RF-SCORE:    0.00 PKD
ROOT
HETATM    1  C   UNL     1     -10.381  17.908  66.322  1.00  0.00    -0.364 C  
HETATM    2  N   UNL     1     -10.000  16.807  65.437  1.00  0.00    -0.558 NA 
HETATM    3  C   UNL     1      -8.803  16.138  65.961  1.00  0.00    -0.278 C  
ENDROOT
BRANCH   2   4
HETATM    4  C   UNL     1     -11.095  15.824  65.260  1.00  0.00    -0.273 C  
HETATM    5  C   UNL     1     -10.938  14.472  66.029  1.00  0.00    -0.324 C  
HETATM    6  C   UNL     1     -10.917  14.708  67.541  1.00  0.00    -0.301 A  
HETATM    7  C   UNL     1     -11.982  13.374  65.549  1.00  0.00    -0.398 C  
HETATM    8  O   UNL     1     -13.323  13.845  65.725  1.00  0.00    -0.623 OA 
HETATM    9  C   UNL     1     -12.008  15.257  68.232  1.00  0.00    -0.153 A  
HETATM   10  C   UNL     1     -11.801  13.008  64.059  1.00  0.00    -0.510 C  
HETATM   11  C   UNL     1     -10.422  12.444  63.755  1.00  0.00    -0.475 C  
HETATM   12  C   UNL     1     -11.945  15.475  69.611  1.00  0.00    -0.380 A  
HETATM   13  H   UNL     1     -13.947  13.188  65.438  1.00  0.00     0.000 HD 
HETATM   14  C   UNL     1     -10.790  15.140  70.307  1.00  0.00    -0.231 A  
HETATM   15  C   UNL     1     -10.028  11.277  64.658  1.00  0.00    -0.331 C  
HETATM   16  C   UNL     1     -10.559  11.297  66.095  1.00  0.00    -0.312 C  
HETATM   17  O   UNL     1     -10.692  15.314  71.655  1.00  0.00    -0.407 OA 
HETATM   18  C   UNL     1      -9.692  14.609  69.645  1.00  0.00     0.206 A  
HETATM   19  H   UNL     1      -9.902  15.084  72.131  1.00  0.00     0.000 HD 
HETATM   20  C   UNL     1     -11.874  12.040  66.314  1.00  0.00    -0.225 C  
HETATM   21  C   UNL     1      -9.754  14.396  68.268  1.00  0.00    -0.222 A  
ENDBRANCH   2   4
TORSDOF 1
ENDMDL
MODEL       24
REMARK 921   NORMALIZED FREE ENERGY PREDICTED BY IDOCK:   -4.79 KCAL/MOL
REMARK 922        TOTAL FREE ENERGY PREDICTED BY IDOCK:   -5.24 KCAL/MOL
REMARK 923 INTER-LIGAND FREE ENERGY PREDICTED BY IDOCK:   -5.09 KCAL/MOL
REMARK 924 INTRA-LIGAND FREE ENERGY PREDICTED BY IDOCK:   -0.16 KCAL/MOL
REMARK 927      BINDING AFFINITY PREDICTED BY RF-SCORE:    0.00 PKD
ROOT
HETATM    1  C   UNL     1     -11.211  11.706  66.939  1.00  0.00    -0.313 C  
HETATM    2  N   UNL     1     -11.339  12.414  68.213  1.00  0.00    -0.261 NA 
HETATM    3  C   UNL     1     -11.369  11.450  69.319  1.00  0.00    -0.289 C  
ENDROOT
BRANCH   2   4
HETATM    4  C   UNL     1     -10.248  13.394  68.422  1.00  0.00    -0.251 C  
HETATM    5  C   UNL     1     -10.685  14.884  68.608  1.00  0.00    -0.250 C  
HETATM    6  C   UNL     1     -11.548  15.043  69.862  1.00  0.00    -0.328 A  
HETATM    7  C   UNL     1      -9.461  15.894  68.519  1.00  0.00    -0.209 C  
HETATM    8  O   UNL     1      -8.478  15.581  69.513  1.00  0.00    -0.256 OA 
HETATM    9  C   UNL     1     -11.061  14.769  71.149  1.00  0.00     0.015 A  
HETATM   10  C   UNL     1      -8.768  15.851  67.139  1.00  0.00    -0.223 C  
HETATM   11  C   UNL     1      -9.704  16.218  65.999  1.00  0.00    -0.370 C  
HETATM   12  C   UNL     1     -11.885  14.909  72.271  1.00  0.00    -0.372 A  
HETATM   13  H   UNL     1      -7.746  16.184  69.459  1.00  0.00     0.000 HD 
HETATM   14  C   UNL     1     -13.199  15.329  72.108  1.00  0.00    -0.395 A  
HETATM   15  C   UNL     1     -10.428  17.547  66.208  1.00  0.00    -0.283 C  
HETATM   16  C   UNL     1     -10.771  17.934  67.650  1.00  0.00    -0.343 C  
HETATM   17  O   UNL     1     -14.031  15.500  73.173  1.00  0.00    -0.536 OA 
HETATM   18  C   UNL     1     -13.709  15.592  70.844  1.00  0.00    -0.191 A  
HETATM   19  H   UNL     1     -14.930  15.787  73.062  1.00  0.00     0.000 HD 
HETATM   20  C   UNL     1      -9.857  17.368  68.732  1.00  0.00    -0.311 C  
HETATM   21  C   UNL     1     -12.888  15.448  69.726  1.00  0.00     0.080 A  
ENDBRANCH   2   4
TORSDOF 1
ENDMDL
MODEL       25
REMARK 921   NORMALIZED FREE ENERGY PREDICTED BY IDOCK:   -4.79 KCAL/MOL
REMARK 922        TOTAL FREE ENERGY PREDICTED BY IDOCK:   -5.24 KCAL/MOL
REMARK 923 INTER-LIGAND FREE ENERGY PREDICTED BY IDOCK:   -5.07 KCAL/MOL
REMARK 924 INTRA-LIGAND FREE ENERGY PREDICTED BY IDOCK:   -0.17 KCAL/MOL
REMARK 927      BINDING AFFINITY PREDICTED BY RF-SCORE:    0.00 PKD
ROOT
HETATM    1  C   UNL     1      -9.991  19.379  69.289  1.00  0.00    -0.247 C  
HETATM    2  N   UNL     1     -10.244  18.621  68.064  1.00  0.00    -0.370 NA 
HETATM    3  C   UNL     1     -10.904  19.480  67.074  1.00  0.00    -0.427 C  
ENDROOT
BRANCH   2   4
HETATM    4  C   UNL     1      -9.003  18.047  67.492  1.00  0.00    -0.249 C  
HETATM    5  C   UNL     1      -8.787  16.514  67.714  1.00  0.00    -0.197 C  
HETATM    6  C   UNL     1      -9.895  15.707  67.034  1.00  0.00    -0.237 A  
HETATM    7  C   UNL     1      -7.313  16.048  67.346  1.00  0.00    -0.184 C  
HETATM    8  O   UNL     1      -7.014  16.357  65.980  1.00  0.00     0.173 OA 
HETATM    9  C   UNL     1     -10.096  15.727  65.645  1.00  0.00    -0.401 A  
HETATM   10  C   UNL     1      -6.247  16.733  68.229  1.00  0.00    -0.132 C  
HETATM   11  C   UNL     1      -6.429  16.435  69.710  1.00  0.00    -0.153 C  
HETATM   12  C   UNL     1     -11.131  14.990  65.061  1.00  0.00    -0.421 A  
HETATM   13  H   UNL     1      -6.133  16.078  65.760  1.00  0.00     0.000 HD 
HETATM   14  C   UNL     1     -11.967  14.225  65.865  1.00  0.00    -0.391 A  
HETATM   15  C   UNL     1      -6.526  14.943  70.024  1.00  0.00    -0.167 C  
HETATM   16  C   UNL     1      -7.179  14.049  68.966  1.00  0.00    -0.092 C  
HETATM   17  O   UNL     1     -12.974  13.474  65.338  1.00  0.00    -0.656 OA 
HETATM   18  C   UNL     1     -11.798  14.200  67.242  1.00  0.00    -0.452 A  
HETATM   19  H   UNL     1     -13.546  12.951  65.888  1.00  0.00     0.000 HD 
HETATM   20  C   UNL     1      -7.080  14.534  67.522  1.00  0.00    -0.199 C  
HETATM   21  C   UNL     1     -10.768  14.939  67.824  1.00  0.00    -0.271 A  
ENDBRANCH   2   4
TORSDOF 1
ENDMDL
MODEL       26
REMARK 921   NORMALIZED FREE ENERGY PREDICTED BY IDOCK:   -4.78 KCAL/MOL
REMARK 922        TOTAL FREE ENERGY PREDICTED BY IDOCK:   -5.23 KCAL/MOL
REMARK 923 INTER-LIGAND FREE ENERGY PREDICTED BY IDOCK:   -5.14 KCAL/MOL
REMARK 924 INTRA-LIGAND FREE ENERGY PREDICTED BY IDOCK:   -0.09 KCAL/MOL
REMARK 927      BINDING AFFINITY PREDICTED BY RF-SCORE:    0.00 PKD
ROOT
HETATM    1  C   UNL     1     -12.074  12.815  70.258  1.00  0.00    -0.297 C  
HETATM    2  N   UNL     1     -11.869  11.434  70.696  1.00  0.00    -0.305 NA 
HETATM    3  C   UNL     1     -13.028  10.982  71.475  1.00  0.00    -0.448 C  
ENDROOT
BRANCH   2   4
HETATM    4  C   UNL     1     -11.631  10.514  69.559  1.00  0.00    -0.260 C  
HETATM    5  C   UNL     1     -10.376   9.588  69.674  1.00  0.00    -0.236 C  
HETATM    6  C   UNL     1     -10.509   8.643  70.871  1.00  0.00    -0.265 A  
HETATM    7  C   UNL     1     -10.024   8.867  68.302  1.00  0.00    -0.175 C  
HETATM    8  O   UNL     1     -11.132   8.080  67.849  1.00  0.00    -0.470 OA 
HETATM    9  C   UNL     1     -11.530   7.684  70.962  1.00  0.00    -0.294 A  
HETATM   10  C   UNL     1      -9.674   9.875  67.186  1.00  0.00    -0.224 C  
HETATM   11  C   UNL     1      -8.472  10.741  67.531  1.00  0.00    -0.119 C  
HETATM   12  C   UNL     1     -11.630   6.850  72.080  1.00  0.00    -0.322 A  
HETATM   13  H   UNL     1     -10.921   7.649  67.029  1.00  0.00     0.000 HD 
HETATM   14  C   UNL     1     -10.704   6.969  73.109  1.00  0.00    -0.326 A  
HETATM   15  C   UNL     1      -7.242   9.937  67.951  1.00  0.00    -0.087 C  
HETATM   16  C   UNL     1      -7.490   8.621  68.693  1.00  0.00    -0.096 C  
HETATM   17  O   UNL     1     -10.749   6.163  74.207  1.00  0.00    -0.370 OA 
HETATM   18  C   UNL     1      -9.694   7.918  73.049  1.00  0.00    -0.349 A  
HETATM   19  H   UNL     1     -10.116   6.244  74.911  1.00  0.00     0.000 HD 
HETATM   20  C   UNL     1      -8.812   7.919  68.393  1.00  0.00    -0.130 C  
HETATM   21  C   UNL     1      -9.598   8.753  71.936  1.00  0.00    -0.372 A  
ENDBRANCH   2   4
TORSDOF 1
ENDMDL
MODEL       27
REMARK 921   NORMALIZED FREE ENERGY PREDICTED BY IDOCK:   -4.77 KCAL/MOL
REMARK 922        TOTAL FREE ENERGY PREDICTED BY IDOCK:   -5.22 KCAL/MOL
REMARK 923 INTER-LIGAND FREE ENERGY PREDICTED BY IDOCK:   -5.07 KCAL/MOL
REMARK 924 INTRA-LIGAND FREE ENERGY PREDICTED BY IDOCK:   -0.15 KCAL/MOL
REMARK 927      BINDING AFFINITY PREDICTED BY RF-SCORE:    0.00 PKD
ROOT
HETATM    1  C   UNL     1     -11.719  16.069  71.783  1.00  0.00    -0.509 C  
HETATM    2  N   UNL     1     -11.736  15.100  70.687  1.00  0.00    -0.287 NA 
HETATM    3  C   UNL     1     -13.014  14.379  70.681  1.00  0.00    -0.289 C  
ENDROOT
BRANCH   2   4
HETATM    4  C   UNL     1     -11.507  15.739  69.370  1.00  0.00    -0.355 C  
HETATM    5  C   UNL     1     -10.301  15.189  68.538  1.00  0.00    -0.230 C  
HETATM    6  C   UNL     1     -10.514  13.715  68.184  1.00  0.00    -0.250 A  
HETATM    7  C   UNL     1      -9.942  16.118  67.300  1.00  0.00    -0.248 C  
HETATM    8  O   UNL     1     -11.071  16.254  66.430  1.00  0.00    -0.076 OA 
HETATM    9  C   UNL     1     -11.582  13.282  67.383  1.00  0.00    -0.396 A  
HETATM   10  C   UNL     1      -9.511  17.535  67.739  1.00  0.00    -0.269 C  
HETATM   11  C   UNL     1      -8.280  17.525  68.633  1.00  0.00    -0.265 C  
HETATM   12  C   UNL     1     -11.756  11.924  67.096  1.00  0.00    -0.311 A  
HETATM   13  H   UNL     1     -10.856  16.810  65.689  1.00  0.00     0.000 HD 
HETATM   14  C   UNL     1     -10.856  10.995  67.605  1.00  0.00    -0.256 A  
HETATM   15  C   UNL     1      -7.103  16.751  68.041  1.00  0.00    -0.159 C  
HETATM   16  C   UNL     1      -7.435  15.541  67.164  1.00  0.00    -0.244 C  
HETATM   17  O   UNL     1     -10.973   9.665  67.333  1.00  0.00    -0.363 OA 
HETATM   18  C   UNL     1      -9.801  11.397  68.412  1.00  0.00    -0.205 A  
HETATM   19  H   UNL     1     -10.358   9.030  67.682  1.00  0.00     0.000 HD 
HETATM   20  C   UNL     1      -8.779  15.583  66.441  1.00  0.00    -0.333 C  
HETATM   21  C   UNL     1      -9.632  12.751  68.702  1.00  0.00    -0.028 A  
ENDBRANCH   2   4
TORSDOF 1
ENDMDL
MODEL       28
REMARK 921   NORMALIZED FREE ENERGY PREDICTED BY IDOCK:   -4.77 KCAL/MOL
REMARK 922        TOTAL FREE ENERGY PREDICTED BY IDOCK:   -5.22 KCAL/MOL
REMARK 923 INTER-LIGAND FREE ENERGY PREDICTED BY IDOCK:   -5.07 KCAL/MOL
REMARK 924 INTRA-LIGAND FREE ENERGY PREDICTED BY IDOCK:   -0.14 KCAL/MOL
REMARK 927      BINDING AFFINITY PREDICTED BY RF-SCORE:    0.00 PKD
ROOT
HETATM    1  C   UNL     1     -12.266  12.122  64.000  1.00  0.00    -0.446 C  
HETATM    2  N   UNL     1     -11.938  13.168  64.969  1.00  0.00    -0.360 NA 
HETATM    3  C   UNL     1     -13.121  13.997  65.225  1.00  0.00    -0.136 C  
ENDROOT
BRANCH   2   4
HETATM    4  C   UNL     1     -11.422  12.612  66.242  1.00  0.00    -0.364 C  
HETATM    5  C   UNL     1     -10.012  13.116  66.693  1.00  0.00    -0.270 C  
HETATM    6  C   UNL     1     -10.032  14.625  66.949  1.00  0.00    -0.254 A  
HETATM    7  C   UNL     1      -9.409  12.254  67.884  1.00  0.00    -0.190 C  
HETATM    8  O   UNL     1     -10.285  12.281  69.017  1.00  0.00    -0.415 OA 
HETATM    9  C   UNL     1     -10.830  15.207  67.946  1.00  0.00    -0.291 A  
HETATM   10  C   UNL     1      -9.196  10.777  67.486  1.00  0.00    -0.150 C  
HETATM   11  C   UNL     1      -8.236  10.615  66.318  1.00  0.00    -0.153 C  
HETATM   12  C   UNL     1     -10.837  16.592  68.139  1.00  0.00    -0.345 A  
HETATM   13  H   UNL     1      -9.925  11.765  69.729  1.00  0.00     0.000 HD 
HETATM   14  C   UNL     1     -10.040  17.400  67.337  1.00  0.00    -0.321 A  
HETATM   15  C   UNL     1      -6.900  11.327  66.523  1.00  0.00    -0.101 C  
HETATM   16  C   UNL     1      -6.918  12.623  67.338  1.00  0.00    -0.143 C  
HETATM   17  O   UNL     1      -9.997  18.752  67.503  1.00  0.00    -0.312 OA 
HETATM   18  C   UNL     1      -9.253  16.850  66.335  1.00  0.00    -0.308 A  
HETATM   19  H   UNL     1      -9.452  19.304  66.955  1.00  0.00     0.000 HD 
HETATM   20  C   UNL     1      -8.033  12.749  68.373  1.00  0.00    -0.137 C  
HETATM   21  C   UNL     1      -9.251  15.469  66.140  1.00  0.00    -0.379 A  
ENDBRANCH   2   4
TORSDOF 1
ENDMDL
MODEL       29
REMARK 921   NORMALIZED FREE ENERGY PREDICTED BY IDOCK:   -4.77 KCAL/MOL
REMARK 922        TOTAL FREE ENERGY PREDICTED BY IDOCK:   -5.22 KCAL/MOL
REMARK 923 INTER-LIGAND FREE ENERGY PREDICTED BY IDOCK:   -5.04 KCAL/MOL
REMARK 924 INTRA-LIGAND FREE ENERGY PREDICTED BY IDOCK:   -0.17 KCAL/MOL
REMARK 927      BINDING AFFINITY PREDICTED BY RF-SCORE:    0.00 PKD
ROOT
HETATM    1  C   UNL     1      -6.968  13.222  68.870  1.00  0.00    -0.096 C  
HETATM    2  N   UNL     1      -7.618  11.985  68.437  1.00  0.00    -0.122 NA 
HETATM    3  C   UNL     1      -7.307  10.903  69.379  1.00  0.00    -0.116 C  
ENDROOT
BRANCH   2   4
HETATM    4  C   UNL     1      -9.086  12.138  68.306  1.00  0.00    -0.191 C  
HETATM    5  C   UNL     1      -9.671  11.963  66.866  1.00  0.00    -0.212 C  
HETATM    6  C   UNL     1      -9.416  10.546  66.347  1.00  0.00    -0.208 A  
HETATM    7  C   UNL     1     -11.183  12.440  66.762  1.00  0.00    -0.310 C  
HETATM    8  O   UNL     1     -12.005  11.709  67.680  1.00  0.00    -0.618 OA 
HETATM    9  C   UNL     1      -9.954   9.409  66.970  1.00  0.00    -0.282 A  
HETATM   10  C   UNL     1     -11.344  13.943  67.077  1.00  0.00    -0.343 C  
HETATM   11  C   UNL     1     -10.553  14.831  66.130  1.00  0.00    -0.314 C  
HETATM   12  C   UNL     1      -9.683   8.128  66.477  1.00  0.00    -0.309 A  
HETATM   13  H   UNL     1     -12.909  11.994  67.617  1.00  0.00     0.000 HD 
HETATM   14  C   UNL     1      -8.878   7.981  65.354  1.00  0.00    -0.014 A  
HETATM   15  C   UNL     1     -10.829  14.547  64.654  1.00  0.00    -0.351 C  
HETATM   16  C   UNL     1     -11.155  13.100  64.272  1.00  0.00    -0.426 C  
HETATM   17  O   UNL     1      -8.606   6.755  64.825  1.00  0.00    -0.346 OA 
HETATM   18  C   UNL     1      -8.323   9.089  64.729  1.00  0.00    -0.181 A  
HETATM   19  H   UNL     1      -8.055   6.655  64.058  1.00  0.00     0.000 HD 
HETATM   20  C   UNL     1     -11.799  12.247  65.362  1.00  0.00    -0.418 C  
HETATM   21  C   UNL     1      -8.589  10.365  65.224  1.00  0.00    -0.184 A  
ENDBRANCH   2   4
TORSDOF 1
ENDMDL
MODEL       30
REMARK 921   NORMALIZED FREE ENERGY PREDICTED BY IDOCK:   -4.74 KCAL/MOL
REMARK 922        TOTAL FREE ENERGY PREDICTED BY IDOCK:   -5.19 KCAL/MOL
REMARK 923 INTER-LIGAND FREE ENERGY PREDICTED BY IDOCK:   -5.09 KCAL/MOL
REMARK 924 INTRA-LIGAND FREE ENERGY PREDICTED BY IDOCK:   -0.09 KCAL/MOL
REMARK 927      BINDING AFFINITY PREDICTED BY RF-SCORE:    0.00 PKD
ROOT
HETATM    1  C   UNL     1     -11.277  15.960  70.947  1.00  0.00    -0.351 C  
HETATM    2  N   UNL     1     -11.194  15.733  69.504  1.00  0.00    -0.291 NA 
HETATM    3  C   UNL     1     -12.524  15.411  68.973  1.00  0.00     0.134 C  
ENDROOT
BRANCH   2   4
HETATM    4  C   UNL     1     -10.628  16.898  68.784  1.00  0.00    -0.355 C  
HETATM    5  C   UNL     1      -9.444  16.596  67.807  1.00  0.00    -0.227 C  
HETATM    6  C   UNL     1      -9.898  15.669  66.677  1.00  0.00    -0.258 A  
HETATM    7  C   UNL     1      -8.705  17.915  67.319  1.00  0.00    -0.239 C  
HETATM    8  O   UNL     1      -9.627  18.793  66.661  1.00  0.00    -0.310 OA 
HETATM    9  C   UNL     1     -10.889  16.038  65.754  1.00  0.00    -0.236 A  
HETATM   10  C   UNL     1      -8.067  18.694  68.490  1.00  0.00    -0.370 C  
HETATM   11  C   UNL     1      -7.025  17.878  69.241  1.00  0.00    -0.146 C  
HETATM   12  C   UNL     1     -11.291  15.156  64.745  1.00  0.00    -0.399 A  
HETATM   13  H   UNL     1      -9.184  19.582  66.369  1.00  0.00     0.000 HD 
HETATM   14  C   UNL     1     -10.698  13.903  64.653  1.00  0.00    -0.407 A  
HETATM   15  C   UNL     1      -5.955  17.274  68.334  1.00  0.00    -0.150 C  
HETATM   16  C   UNL     1      -6.384  16.872  66.920  1.00  0.00    -0.237 C  
HETATM   17  O   UNL     1     -11.042  13.020  63.674  1.00  0.00    -0.549 OA 
HETATM   18  C   UNL     1      -9.726  13.509  65.562  1.00  0.00    -0.072 A  
HETATM   19  H   UNL     1     -10.636  12.163  63.611  1.00  0.00     0.000 HD 
HETATM   20  C   UNL     1      -7.555  17.651  66.327  1.00  0.00    -0.334 C  
HETATM   21  C   UNL     1      -9.330  14.387  66.571  1.00  0.00    -0.300 A  
ENDBRANCH   2   4
TORSDOF 1
ENDMDL
MODEL       31
REMARK 921   NORMALIZED FREE ENERGY PREDICTED BY IDOCK:   -4.74 KCAL/MOL
REMARK 922        TOTAL FREE ENERGY PREDICTED BY IDOCK:   -5.18 KCAL/MOL
REMARK 923 INTER-LIGAND FREE ENERGY PREDICTED BY IDOCK:   -5.15 KCAL/MOL
REMARK 924 INTRA-LIGAND FREE ENERGY PREDICTED BY IDOCK:   -0.03 KCAL/MOL
REMARK 927      BINDING AFFINITY PREDICTED BY RF-SCORE:    0.00 PKD
ROOT
HETATM    1  C   UNL     1      -8.390  14.134  68.564  1.00  0.00    -0.155 C  
HETATM    2  N   UNL     1      -7.597  13.605  67.454  1.00  0.00    -0.159 NA 
HETATM    3  C   UNL     1      -6.179  13.922  67.660  1.00  0.00    -0.095 C  
ENDROOT
BRANCH   2   4
HETATM    4  C   UNL     1      -7.772  12.143  67.286  1.00  0.00    -0.168 C  
HETATM    5  C   UNL     1      -9.239  11.610  67.375  1.00  0.00    -0.168 C  
HETATM    6  C   UNL     1     -10.099  12.200  66.254  1.00  0.00    -0.247 A  
HETATM    7  C   UNL     1      -9.306  10.027  67.492  1.00  0.00    -0.144 C  
HETATM    8  O   UNL     1      -8.665   9.413  66.367  1.00  0.00    -0.131 OA 
HETATM    9  C   UNL     1      -9.832  11.959  64.897  1.00  0.00    -0.224 A  
HETATM   10  C   UNL     1      -8.615   9.506  68.771  1.00  0.00    -0.123 C  
HETATM   11  C   UNL     1      -9.244  10.051  70.043  1.00  0.00    -0.146 C  
HETATM   12  C   UNL     1     -10.629  12.530  63.900  1.00  0.00    -0.472 A  
HETATM   13  H   UNL     1      -8.705   8.466  66.437  1.00  0.00     0.000 HD 
HETATM   14  C   UNL     1     -11.699  13.341  64.257  1.00  0.00    -0.407 A  
HETATM   15  C   UNL     1     -10.756   9.844  70.113  1.00  0.00    -0.361 C  
HETATM   16  C   UNL     1     -11.526   9.878  68.789  1.00  0.00     0.039 C  
HETATM   17  O   UNL     1     -12.516  13.900  63.320  1.00  0.00    -1.113 OA 
HETATM   18  C   UNL     1     -11.974  13.606  65.591  1.00  0.00    -0.422 A  
HETATM   19  H   UNL     1     -13.248  14.455  63.565  1.00  0.00     0.000 HD 
HETATM   20  C   UNL     1     -10.742   9.469  67.546  1.00  0.00    -0.311 C  
HETATM   21  C   UNL     1     -11.176  13.040  66.585  1.00  0.00    -0.341 A  
ENDBRANCH   2   4
TORSDOF 1
ENDMDL
MODEL       32
REMARK 921   NORMALIZED FREE ENERGY PREDICTED BY IDOCK:   -4.71 KCAL/MOL
REMARK 922        TOTAL FREE ENERGY PREDICTED BY IDOCK:   -5.15 KCAL/MOL
REMARK 923 INTER-LIGAND FREE ENERGY PREDICTED BY IDOCK:   -5.02 KCAL/MOL
REMARK 924 INTRA-LIGAND FREE ENERGY PREDICTED BY IDOCK:   -0.14 KCAL/MOL
REMARK 927      BINDING AFFINITY PREDICTED BY RF-SCORE:    0.00 PKD
ROOT
HETATM    1  C   UNL     1     -13.392  10.257  71.166  1.00  0.00    -0.259 C  
HETATM    2  N   UNL     1     -12.398  10.861  70.279  1.00  0.00    -0.322 NA 
HETATM    3  C   UNL     1     -12.123  12.239  70.704  1.00  0.00    -0.237 C  
ENDROOT
BRANCH   2   4
HETATM    4  C   UNL     1     -11.138  10.082  70.233  1.00  0.00    -0.318 C  
HETATM    5  C   UNL     1     -10.661   9.626  68.816  1.00  0.00    -0.242 C  
HETATM    6  C   UNL     1     -10.359  10.837  67.930  1.00  0.00    -0.216 A  
HETATM    7  C   UNL     1      -9.491   8.553  68.884  1.00  0.00    -0.147 C  
HETATM    8  O   UNL     1      -8.365   9.081  69.595  1.00  0.00    -0.114 OA 
HETATM    9  C   UNL     1      -9.352  11.764  68.241  1.00  0.00    -0.193 A  
HETATM   10  C   UNL     1      -9.931   7.254  69.593  1.00  0.00    -0.176 C  
HETATM   11  C   UNL     1     -11.095   6.567  68.896  1.00  0.00    -0.371 C  
HETATM   12  C   UNL     1      -9.118  12.869  67.417  1.00  0.00    -0.197 A  
HETATM   13  H   UNL     1      -7.666   8.439  69.635  1.00  0.00     0.000 HD 
HETATM   14  C   UNL     1      -9.888  13.048  66.274  1.00  0.00    -0.278 A  
HETATM   15  C   UNL     1     -10.857   6.326  67.406  1.00  0.00    -0.448 C  
HETATM   16  C   UNL     1     -10.003   7.356  66.661  1.00  0.00    -0.261 C  
HETATM   17  O   UNL     1      -9.681  14.098  65.430  1.00  0.00    -0.538 OA 
HETATM   18  C   UNL     1     -10.899  12.154  65.953  1.00  0.00    -0.316 A  
HETATM   19  H   UNL     1     -10.207  14.220  64.649  1.00  0.00     0.000 HD 
HETATM   20  C   UNL     1      -8.975   8.110  67.500  1.00  0.00    -0.143 C  
HETATM   21  C   UNL     1     -11.135  11.055  66.778  1.00  0.00    -0.240 A  
ENDBRANCH   2   4
TORSDOF 1
ENDMDL
MODEL       33
REMARK 921   NORMALIZED FREE ENERGY PREDICTED BY IDOCK:   -4.70 KCAL/MOL
REMARK 922        TOTAL FREE ENERGY PREDICTED BY IDOCK:   -5.15 KCAL/MOL
REMARK 923 INTER-LIGAND FREE ENERGY PREDICTED BY IDOCK:   -5.12 KCAL/MOL
REMARK 924 INTRA-LIGAND FREE ENERGY PREDICTED BY IDOCK:   -0.03 KCAL/MOL
REMARK 927      BINDING AFFINITY PREDICTED BY RF-SCORE:    0.00 PKD
ROOT
HETATM    1  C   UNL     1     -11.856  12.855  69.400  1.00  0.00    -0.312 C  
HETATM    2  N   UNL     1     -11.631  11.563  70.049  1.00  0.00    -0.302 NA 
HETATM    3  C   UNL     1     -12.717  11.284  70.995  1.00  0.00    -0.359 C  
ENDROOT
BRANCH   2   4
HETATM    4  C   UNL     1     -11.513  10.456  69.070  1.00  0.00    -0.193 C  
HETATM    5  C   UNL     1     -10.320   9.468  69.286  1.00  0.00    -0.219 C  
HETATM    6  C   UNL     1     -10.455   8.742  70.626  1.00  0.00    -0.253 A  
HETATM    7  C   UNL     1     -10.088   8.512  68.039  1.00  0.00    -0.200 C  
HETATM    8  O   UNL     1     -11.268   7.747  67.765  1.00  0.00    -0.435 OA 
HETATM    9  C   UNL     1     -11.533   7.890  70.914  1.00  0.00    -0.294 A  
HETATM   10  C   UNL     1      -9.728   9.298  66.759  1.00  0.00    -0.260 C  
HETATM   11  C   UNL     1      -8.454  10.114  66.909  1.00  0.00    -0.126 C  
HETATM   12  C   UNL     1     -11.632   7.257  72.157  1.00  0.00    -0.324 A  
HETATM   13  H   UNL     1     -11.129   7.175  67.020  1.00  0.00     0.000 HD 
HETATM   14  C   UNL     1     -10.649   7.470  73.116  1.00  0.00    -0.388 A  
HETATM   15  C   UNL     1      -7.262   9.299  67.407  1.00  0.00    -0.080 C  
HETATM   16  C   UNL     1      -7.560   8.142  68.365  1.00  0.00    -0.105 C  
HETATM   17  O   UNL     1     -10.692   6.857  74.332  1.00  0.00    -0.468 OA 
HETATM   18  C   UNL     1      -9.581   8.318  72.860  1.00  0.00    -0.320 A  
HETATM   19  H   UNL     1     -10.020   7.002  74.987  1.00  0.00     0.000 HD 
HETATM   20  C   UNL     1      -8.940   7.503  68.237  1.00  0.00    -0.130 C  
HETATM   21  C   UNL     1      -9.485   8.953  71.622  1.00  0.00    -0.351 A  
ENDBRANCH   2   4
TORSDOF 1
ENDMDL
MODEL       34
REMARK 921   NORMALIZED FREE ENERGY PREDICTED BY IDOCK:   -4.69 KCAL/MOL
REMARK 922        TOTAL FREE ENERGY PREDICTED BY IDOCK:   -5.13 KCAL/MOL
REMARK 923 INTER-LIGAND FREE ENERGY PREDICTED BY IDOCK:   -4.96 KCAL/MOL
REMARK 924 INTRA-LIGAND FREE ENERGY PREDICTED BY IDOCK:   -0.17 KCAL/MOL
REMARK 927      BINDING AFFINITY PREDICTED BY RF-SCORE:    0.00 PKD
ROOT
HETATM    1  C   UNL     1     -13.370   8.855  71.967  1.00  0.00    -0.421 C  
HETATM    2  N   UNL     1     -12.298   9.415  71.145  1.00  0.00    -0.312 NA 
HETATM    3  C   UNL     1     -12.450  10.871  71.053  1.00  0.00    -0.411 C  
ENDROOT
BRANCH   2   4
HETATM    4  C   UNL     1     -10.953   9.077  71.670  1.00  0.00    -0.365 C  
HETATM    5  C   UNL     1     -10.470   7.608  71.433  1.00  0.00    -0.230 C  
HETATM    6  C   UNL     1     -10.350   7.313  69.936  1.00  0.00    -0.226 A  
HETATM    7  C   UNL     1      -9.175   7.249  72.281  1.00  0.00    -0.131 C  
HETATM    8  O   UNL     1      -8.101   8.140  71.959  1.00  0.00    -0.115 OA 
HETATM    9  C   UNL     1      -9.454   8.002  69.104  1.00  0.00    -0.155 A  
HETATM   10  C   UNL     1      -9.429   7.345  73.802  1.00  0.00    -0.328 C  
HETATM   11  C   UNL     1     -10.522   6.401  74.277  1.00  0.00    -0.218 C  
HETATM   12  C   UNL     1      -9.385   7.717  67.736  1.00  0.00    -0.155 A  
HETATM   13  H   UNL     1      -7.327   7.924  72.467  1.00  0.00     0.000 HD 
HETATM   14  C   UNL     1     -10.209   6.736  67.197  1.00  0.00    -0.225 A  
HETATM   15  C   UNL     1     -10.305   4.951  73.846  1.00  0.00    -0.287 C  
HETATM   16  C   UNL     1      -9.610   4.720  72.502  1.00  0.00    -0.174 C  
HETATM   17  O   UNL     1     -10.160   6.410  65.875  1.00  0.00    -0.358 OA 
HETATM   18  C   UNL     1     -11.112   6.051  67.997  1.00  0.00    -0.233 A  
HETATM   19  H   UNL     1     -10.723   5.739  65.507  1.00  0.00     0.000 HD 
HETATM   20  C   UNL     1      -8.655   5.818  72.042  1.00  0.00    -0.130 C  
HETATM   21  C   UNL     1     -11.184   6.339  69.360  1.00  0.00    -0.489 A  
ENDBRANCH   2   4
TORSDOF 1
ENDMDL
MODEL       35
REMARK 921   NORMALIZED FREE ENERGY PREDICTED BY IDOCK:   -4.67 KCAL/MOL
REMARK 922        TOTAL FREE ENERGY PREDICTED BY IDOCK:   -5.11 KCAL/MOL
REMARK 923 INTER-LIGAND FREE ENERGY PREDICTED BY IDOCK:   -4.99 KCAL/MOL
REMARK 924 INTRA-LIGAND FREE ENERGY PREDICTED BY IDOCK:   -0.11 KCAL/MOL
REMARK 927      BINDING AFFINITY PREDICTED BY RF-SCORE:    0.00 PKD
ROOT
HETATM    1  C   UNL     1      -7.000   8.432  70.947  1.00  0.00    -0.052 C  
HETATM    2  N   UNL     1      -7.556   9.719  70.528  1.00  0.00    -0.263 NA 
HETATM    3  C   UNL     1      -6.481  10.711  70.410  1.00  0.00    -0.100 C  
ENDROOT
BRANCH   2   4
HETATM    4  C   UNL     1      -8.298   9.620  69.249  1.00  0.00    -0.137 C  
HETATM    5  C   UNL     1      -9.353   8.469  69.151  1.00  0.00    -0.153 C  
HETATM    6  C   UNL     1     -10.461   8.660  70.189  1.00  0.00    -0.228 A  
HETATM    7  C   UNL     1      -9.873   8.245  67.667  1.00  0.00    -0.169 C  
HETATM    8  O   UNL     1     -10.461   9.446  67.153  1.00  0.00    -0.249 OA 
HETATM    9  C   UNL     1     -11.314   9.775  70.181  1.00  0.00    -0.305 A  
HETATM   10  C   UNL     1      -8.737   7.827  66.707  1.00  0.00    -0.143 C  
HETATM   11  C   UNL     1      -8.064   6.528  67.121  1.00  0.00    -0.113 C  
HETATM   12  C   UNL     1     -12.304   9.925  71.158  1.00  0.00    -0.466 A  
HETATM   13  H   UNL     1     -10.772   9.311  66.266  1.00  0.00     0.000 HD 
HETATM   14  C   UNL     1     -12.448   8.956  72.144  1.00  0.00    -0.389 A  
HETATM   15  C   UNL     1      -9.045   5.378  67.345  1.00  0.00    -0.111 C  
HETATM   16  C   UNL     1     -10.433   5.739  67.883  1.00  0.00    -0.290 C  
HETATM   17  O   UNL     1     -13.412   9.049  73.101  1.00  0.00    -0.948 OA 
HETATM   18  C   UNL     1     -11.608   7.852  72.181  1.00  0.00    -0.380 A  
HETATM   19  H   UNL     1     -13.511   8.386  73.775  1.00  0.00     0.000 HD 
HETATM   20  C   UNL     1     -10.940   7.138  67.545  1.00  0.00    -0.261 C  
HETATM   21  C   UNL     1     -10.617   7.706  71.210  1.00  0.00    -0.237 A  
ENDBRANCH   2   4
TORSDOF 1
ENDMDL
MODEL       36
REMARK 921   NORMALIZED FREE ENERGY PREDICTED BY IDOCK:   -4.66 KCAL/MOL
REMARK 922        TOTAL FREE ENERGY PREDICTED BY IDOCK:   -5.10 KCAL/MOL
REMARK 923 INTER-LIGAND FREE ENERGY PREDICTED BY IDOCK:   -5.04 KCAL/MOL
REMARK 924 INTRA-LIGAND FREE ENERGY PREDICTED BY IDOCK:   -0.06 KCAL/MOL
REMARK 927      BINDING AFFINITY PREDICTED BY RF-SCORE:    0.00 PKD
ROOT
HETATM    1  C   UNL     1      -9.037   9.592  63.077  1.00  0.00    -0.209 C  
HETATM    2  N   UNL     1      -9.055   9.776  64.528  1.00  0.00    -0.239 NA 
HETATM    3  C   UNL     1      -7.984   8.985  65.144  1.00  0.00    -0.119 C  
ENDROOT
BRANCH   2   4
HETATM    4  C   UNL     1      -8.922  11.200  64.915  1.00  0.00    -0.041 C  
HETATM    5  C   UNL     1      -9.957  11.731  65.960  1.00  0.00    -0.258 C  
HETATM    6  C   UNL     1      -9.813  10.988  67.291  1.00  0.00    -0.204 A  
HETATM    7  C   UNL     1      -9.939  13.315  66.085  1.00  0.00    -0.293 C  
HETATM    8  O   UNL     1      -8.636  13.774  66.463  1.00  0.00    -0.441 OA 
HETATM    9  C   UNL     1      -8.640  11.043  68.059  1.00  0.00    -0.134 A  
HETATM   10  C   UNL     1     -10.319  14.010  64.759  1.00  0.00    -0.407 C  
HETATM   11  C   UNL     1     -11.714  13.638  64.279  1.00  0.00    -0.438 C  
HETATM   12  C   UNL     1      -8.538  10.336  69.261  1.00  0.00    -0.175 A  
HETATM   13  H   UNL     1      -8.625  14.721  66.537  1.00  0.00     0.000 HD 
HETATM   14  C   UNL     1      -9.613   9.574  69.702  1.00  0.00    -0.202 A  
HETATM   15  C   UNL     1     -12.797  13.842  65.337  1.00  0.00    -0.466 C  
HETATM   16  C   UNL     1     -12.395  13.623  66.798  1.00  0.00    -0.354 C  
HETATM   17  O   UNL     1      -9.568   8.887  70.878  1.00  0.00    -0.196 OA 
HETATM   18  C   UNL     1     -10.779   9.492  68.953  1.00  0.00    -0.220 A  
HETATM   19  H   UNL     1     -10.303   8.366  71.179  1.00  0.00     0.000 HD 
HETATM   20  C   UNL     1     -10.926  13.865  67.134  1.00  0.00    -0.298 C  
HETATM   21  C   UNL     1     -10.877  10.194  67.752  1.00  0.00    -0.346 A  
ENDBRANCH   2   4
TORSDOF 1
ENDMDL
MODEL       37
REMARK 921   NORMALIZED FREE ENERGY PREDICTED BY IDOCK:   -4.64 KCAL/MOL
REMARK 922        TOTAL FREE ENERGY PREDICTED BY IDOCK:   -5.08 KCAL/MOL
REMARK 923 INTER-LIGAND FREE ENERGY PREDICTED BY IDOCK:   -4.90 KCAL/MOL
REMARK 924 INTRA-LIGAND FREE ENERGY PREDICTED BY IDOCK:   -0.18 KCAL/MOL
REMARK 927      BINDING AFFINITY PREDICTED BY RF-SCORE:    0.00 PKD
ROOT
HETATM    1  C   UNL     1      -7.308  11.206  68.465  1.00  0.00    -0.104 C  
HETATM    2  N   UNL     1      -7.553  11.727  67.120  1.00  0.00    -0.149 NA 
HETATM    3  C   UNL     1      -6.930  10.847  66.124  1.00  0.00    -0.099 C  
ENDROOT
BRANCH   2   4
HETATM    4  C   UNL     1      -8.999  11.879  66.832  1.00  0.00    -0.196 C  
HETATM    5  C   UNL     1      -9.783  12.875  67.747  1.00  0.00    -0.214 C  
HETATM    6  C   UNL     1      -9.241  14.297  67.590  1.00  0.00    -0.194 A  
HETATM    7  C   UNL     1     -11.358  12.748  67.575  1.00  0.00    -0.312 C  
HETATM    8  O   UNL     1     -11.735  12.986  66.214  1.00  0.00    -0.348 OA 
HETATM    9  C   UNL     1      -9.294  14.991  66.371  1.00  0.00    -0.334 A  
HETATM   10  C   UNL     1     -11.878  11.348  67.971  1.00  0.00    -0.273 C  
HETATM   11  C   UNL     1     -11.581  10.999  69.421  1.00  0.00    -0.383 C  
HETATM   12  C   UNL     1      -8.771  16.284  66.261  1.00  0.00    -0.370 A  
HETATM   13  H   UNL     1     -12.677  12.911  66.111  1.00  0.00     0.000 HD 
HETATM   14  C   UNL     1      -8.198  16.889  67.372  1.00  0.00    -0.182 A  
HETATM   15  C   UNL     1     -12.051  12.061  70.413  1.00  0.00    -0.407 C  
HETATM   16  C   UNL     1     -12.017  13.518  69.943  1.00  0.00    -0.416 C  
HETATM   17  O   UNL     1      -7.696  18.155  67.317  1.00  0.00    -0.212 OA 
HETATM   18  C   UNL     1      -8.120  16.218  68.584  1.00  0.00    -0.213 A  
HETATM   19  H   UNL     1      -7.304  18.569  68.078  1.00  0.00     0.000 HD 
HETATM   20  C   UNL     1     -12.158  13.742  68.440  1.00  0.00    -0.324 C  
HETATM   21  C   UNL     1      -8.637  14.927  68.692  1.00  0.00    -0.168 A  
ENDBRANCH   2   4
TORSDOF 1
ENDMDL
MODEL       38
REMARK 921   NORMALIZED FREE ENERGY PREDICTED BY IDOCK:   -4.60 KCAL/MOL
REMARK 922        TOTAL FREE ENERGY PREDICTED BY IDOCK:   -5.04 KCAL/MOL
REMARK 923 INTER-LIGAND FREE ENERGY PREDICTED BY IDOCK:   -4.87 KCAL/MOL
REMARK 924 INTRA-LIGAND FREE ENERGY PREDICTED BY IDOCK:   -0.17 KCAL/MOL
REMARK 927      BINDING AFFINITY PREDICTED BY RF-SCORE:    0.00 PKD
ROOT
HETATM    1  C   UNL     1      -6.913   8.815  70.932  1.00  0.00    -0.072 C  
HETATM    2  N   UNL     1      -7.409  10.062  70.349  1.00  0.00    -0.259 NA 
HETATM    3  C   UNL     1      -6.310  11.027  70.226  1.00  0.00    -0.120 C  
ENDROOT
BRANCH   2   4
HETATM    4  C   UNL     1      -8.049   9.849  69.029  1.00  0.00    -0.111 C  
HETATM    5  C   UNL     1      -9.265   8.866  69.003  1.00  0.00    -0.140 C  
HETATM    6  C   UNL     1     -10.410   9.398  69.868  1.00  0.00    -0.252 A  
HETATM    7  C   UNL     1      -9.689   8.462  67.526  1.00  0.00    -0.162 C  
HETATM    8  O   UNL     1     -10.028   9.627  66.764  1.00  0.00    -0.198 OA 
HETATM    9  C   UNL     1     -11.066  10.607  69.587  1.00  0.00    -0.342 A  
HETATM   10  C   UNL     1      -8.561   7.720  66.776  1.00  0.00    -0.133 C  
HETATM   11  C   UNL     1      -8.146   6.430  67.466  1.00  0.00    -0.117 C  
HETATM   12  C   UNL     1     -12.096  11.070  70.412  1.00  0.00    -0.463 A  
HETATM   13  H   UNL     1     -10.282   9.385  65.881  1.00  0.00     0.000 HD 
HETATM   14  C   UNL     1     -12.478  10.322  71.519  1.00  0.00    -0.422 A  
HETATM   15  C   UNL     1      -9.316   5.494  67.763  1.00  0.00    -0.119 C  
HETATM   16  C   UNL     1     -10.666   6.144  68.080  1.00  0.00    -0.370 C  
HETATM   17  O   UNL     1     -13.491  10.723  72.337  1.00  0.00    -0.599 OA 
HETATM   18  C   UNL     1     -11.835   9.131  71.826  1.00  0.00    -0.453 A  
HETATM   19  H   UNL     1     -13.752  10.211  73.094  1.00  0.00     0.000 HD 
HETATM   20  C   UNL     1     -10.908   7.521  67.467  1.00  0.00    -0.232 C  
HETATM   21  C   UNL     1     -10.804   8.672  71.006  1.00  0.00    -0.302 A  
ENDBRANCH   2   4
TORSDOF 1
ENDMDL
MODEL       39
REMARK 921   NORMALIZED FREE ENERGY PREDICTED BY IDOCK:   -4.59 KCAL/MOL
REMARK 922        TOTAL FREE ENERGY PREDICTED BY IDOCK:   -5.03 KCAL/MOL
REMARK 923 INTER-LIGAND FREE ENERGY PREDICTED BY IDOCK:   -4.90 KCAL/MOL
REMARK 924 INTRA-LIGAND FREE ENERGY PREDICTED BY IDOCK:   -0.13 KCAL/MOL
REMARK 927      BINDING AFFINITY PREDICTED BY RF-SCORE:    0.00 PKD
ROOT
HETATM    1  C   UNL     1     -10.530  19.818  67.856  1.00  0.00    -0.393 C  
HETATM    2  N   UNL     1     -10.233  19.106  66.612  1.00  0.00    -0.378 NA 
HETATM    3  C   UNL     1     -10.751  19.866  65.468  1.00  0.00    -0.199 C  
ENDROOT
BRANCH   2   4
HETATM    4  C   UNL     1      -8.782  18.856  66.441  1.00  0.00    -0.303 C  
HETATM    5  C   UNL     1      -8.050  18.192  67.653  1.00  0.00    -0.234 C  
HETATM    6  C   UNL     1      -8.618  16.799  67.933  1.00  0.00    -0.202 A  
HETATM    7  C   UNL     1      -6.468  18.241  67.510  1.00  0.00    -0.190 C  
HETATM    8  O   UNL     1      -6.052  17.581  66.309  1.00  0.00    -0.197 OA 
HETATM    9  C   UNL     1      -8.541  15.754  66.998  1.00  0.00    -0.247 A  
HETATM   10  C   UNL     1      -5.931  19.689  67.463  1.00  0.00    -0.207 C  
HETATM   11  C   UNL     1      -6.267  20.482  68.717  1.00  0.00    -0.353 C  
HETATM   12  C   UNL     1      -9.088  14.499  67.281  1.00  0.00    -0.217 A  
HETATM   13  H   UNL     1      -5.106  17.610  66.223  1.00  0.00     0.000 HD 
HETATM   14  C   UNL     1      -9.711  14.282  68.505  1.00  0.00    -0.225 A  
HETATM   15  C   UNL     1      -5.853  19.783  70.010  1.00  0.00    -0.320 C  
HETATM   16  C   UNL     1      -5.904  18.252  70.023  1.00  0.00    -0.211 C  
HETATM   17  O   UNL     1     -10.238  13.070  68.833  1.00  0.00    -0.414 OA 
HETATM   18  C   UNL     1      -9.813  15.303  69.439  1.00  0.00    -0.253 A  
HETATM   19  H   UNL     1     -10.664  12.921  69.669  1.00  0.00     0.000 HD 
HETATM   20  C   UNL     1      -5.719  17.563  68.674  1.00  0.00    -0.162 C  
HETATM   21  C   UNL     1      -9.271  16.556  69.154  1.00  0.00    -0.197 A  
ENDBRANCH   2   4
TORSDOF 1
ENDMDL
MODEL       40
REMARK 921   NORMALIZED FREE ENERGY PREDICTED BY IDOCK:   -4.57 KCAL/MOL
REMARK 922        TOTAL FREE ENERGY PREDICTED BY IDOCK:   -5.01 KCAL/MOL
REMARK 923 INTER-LIGAND FREE ENERGY PREDICTED BY IDOCK:   -5.13 KCAL/MOL
REMARK 924 INTRA-LIGAND FREE ENERGY PREDICTED BY IDOCK:    0.12 KCAL/MOL
REMARK 927      BINDING AFFINITY PREDICTED BY RF-SCORE:    0.00 PKD
ROOT
HETATM    1  C   UNL     1     -12.156  13.123  69.617  1.00  0.00    -0.255 C  
HETATM    2  N   UNL     1     -11.205  12.016  69.502  1.00  0.00    -0.195 NA 
HETATM    3  C   UNL     1     -11.834  10.770  69.955  1.00  0.00    -0.344 C  
ENDROOT
BRANCH   2   4
HETATM    4  C   UNL     1     -10.696  11.855  68.119  1.00  0.00    -0.215 C  
HETATM    5  C   UNL     1     -10.444  13.175  67.319  1.00  0.00    -0.243 C  
HETATM    6  C   UNL     1      -9.363  14.021  67.997  1.00  0.00    -0.205 A  
HETATM    7  C   UNL     1     -10.199  12.911  65.771  1.00  0.00    -0.288 C  
HETATM    8  O   UNL     1      -9.077  12.041  65.581  1.00  0.00    -0.421 OA 
HETATM    9  C   UNL     1      -8.042  13.570  68.150  1.00  0.00    -0.154 A  
HETATM   10  C   UNL     1     -11.422  12.260  65.089  1.00  0.00    -0.390 C  
HETATM   11  C   UNL     1     -12.673  13.119  65.180  1.00  0.00    -0.468 C  
HETATM   12  C   UNL     1      -7.086  14.364  68.791  1.00  0.00    -0.114 A  
HETATM   13  H   UNL     1      -8.930  11.884  64.656  1.00  0.00     0.000 HD 
HETATM   14  C   UNL     1      -7.447  15.615  69.278  1.00  0.00    -0.216 A  
HETATM   15  C   UNL     1     -12.467  14.550  64.687  1.00  0.00    -0.339 C  
HETATM   16  C   UNL     1     -11.083  15.169  64.902  1.00  0.00    -0.425 C  
HETATM   17  O   UNL     1      -6.544  16.431  69.889  1.00  0.00    -0.180 OA 
HETATM   18  C   UNL     1      -8.749  16.076  69.151  1.00  0.00    -0.248 A  
HETATM   19  H   UNL     1      -6.790  17.287  70.222  1.00  0.00     0.000 HD 
HETATM   20  C   UNL     1      -9.913  14.192  64.962  1.00  0.00    -0.216 C  
HETATM   21  C   UNL     1      -9.704  15.282  68.516  1.00  0.00    -0.211 A  
ENDBRANCH   2   4
TORSDOF 1
ENDMDL
MODEL       41
REMARK 921   NORMALIZED FREE ENERGY PREDICTED BY IDOCK:   -4.56 KCAL/MOL
REMARK 922        TOTAL FREE ENERGY PREDICTED BY IDOCK:   -5.00 KCAL/MOL
REMARK 923 INTER-LIGAND FREE ENERGY PREDICTED BY IDOCK:   -4.84 KCAL/MOL
REMARK 924 INTRA-LIGAND FREE ENERGY PREDICTED BY IDOCK:   -0.16 KCAL/MOL
REMARK 927      BINDING AFFINITY PREDICTED BY RF-SCORE:    0.00 PKD
ROOT
HETATM    1  C   UNL     1      -9.580   4.403  68.641  1.00  0.00    -0.149 C  
HETATM    2  N   UNL     1     -10.048   5.745  68.294  1.00  0.00    -0.153 NA 
HETATM    3  C   UNL     1     -10.580   5.749  66.927  1.00  0.00    -0.308 C  
ENDROOT
BRANCH   2   4
HETATM    4  C   UNL     1     -11.074   6.244  69.240  1.00  0.00    -0.393 C  
HETATM    5  C   UNL     1     -10.546   7.075  70.455  1.00  0.00    -0.245 C  
HETATM    6  C   UNL     1      -9.855   8.354  69.977  1.00  0.00    -0.182 A  
HETATM    7  C   UNL     1     -11.659   7.304  71.566  1.00  0.00    -0.275 C  
HETATM    8  O   UNL     1     -12.792   7.981  71.010  1.00  0.00    -0.508 OA 
HETATM    9  C   UNL     1     -10.537   9.358  69.272  1.00  0.00    -0.239 A  
HETATM   10  C   UNL     1     -12.155   5.975  72.178  1.00  0.00    -0.201 C  
HETATM   11  C   UNL     1     -11.043   5.185  72.849  1.00  0.00    -0.359 C  
HETATM   12  C   UNL     1      -9.867  10.505  68.834  1.00  0.00    -0.209 A  
HETATM   13  H   UNL     1     -13.457   8.118  71.675  1.00  0.00     0.000 HD 
HETATM   14  C   UNL     1      -8.513  10.655  69.106  1.00  0.00    -0.128 A  
HETATM   15  C   UNL     1     -10.248   5.996  73.870  1.00  0.00    -0.270 C  
HETATM   16  C   UNL     1     -10.077   7.492  73.591  1.00  0.00    -0.343 C  
HETATM   17  O   UNL     1      -7.825  11.766  68.719  1.00  0.00    -0.198 OA 
HETATM   18  C   UNL     1      -7.813   9.670  69.789  1.00  0.00    -0.144 A  
HETATM   19  H   UNL     1      -6.899  11.868  68.905  1.00  0.00     0.000 HD 
HETATM   20  C   UNL     1     -11.176   8.150  72.761  1.00  0.00    -0.407 C  
HETATM   21  C   UNL     1      -8.481   8.524  70.220  1.00  0.00    -0.128 A  
ENDBRANCH   2   4
TORSDOF 1
ENDMDL
MODEL       42
REMARK 921   NORMALIZED FREE ENERGY PREDICTED BY IDOCK:   -4.55 KCAL/MOL
REMARK 922        TOTAL FREE ENERGY PREDICTED BY IDOCK:   -4.99 KCAL/MOL
REMARK 923 INTER-LIGAND FREE ENERGY PREDICTED BY IDOCK:   -4.83 KCAL/MOL
REMARK 924 INTRA-LIGAND FREE ENERGY PREDICTED BY IDOCK:   -0.15 KCAL/MOL
REMARK 927      BINDING AFFINITY PREDICTED BY RF-SCORE:    0.00 PKD
ROOT
HETATM    1  C   UNL     1     -11.423  11.498  67.502  1.00  0.00    -0.282 C  
HETATM    2  N   UNL     1     -10.661  10.294  67.835  1.00  0.00    -0.244 NA 
HETATM    3  C   UNL     1      -9.321  10.373  67.242  1.00  0.00    -0.146 C  
ENDROOT
BRANCH   2   4
HETATM    4  C   UNL     1     -10.558  10.082  69.298  1.00  0.00    -0.227 C  
HETATM    5  C   UNL     1     -11.112   8.723  69.839  1.00  0.00    -0.129 C  
HETATM    6  C   UNL     1     -10.325   7.547  69.255  1.00  0.00    -0.209 A  
HETATM    7  C   UNL     1     -11.243   8.706  71.422  1.00  0.00    -0.277 C  
HETATM    8  O   UNL     1      -9.973   8.956  72.035  1.00  0.00    -0.329 OA 
HETATM    9  C   UNL     1      -8.954   7.367  69.497  1.00  0.00    -0.144 A  
HETATM   10  C   UNL     1     -12.234   9.773  71.937  1.00  0.00    -0.378 C  
HETATM   11  C   UNL     1     -13.641   9.582  71.393  1.00  0.00    -0.353 C  
HETATM   12  C   UNL     1      -8.264   6.290  68.931  1.00  0.00    -0.113 A  
HETATM   13  H   UNL     1     -10.052   8.946  72.982  1.00  0.00     0.000 HD 
HETATM   14  C   UNL     1      -8.945   5.385  68.125  1.00  0.00    -0.108 A  
HETATM   15  C   UNL     1     -14.191   8.173  71.607  1.00  0.00    -0.536 C  
HETATM   16  C   UNL     1     -13.184   7.019  71.579  1.00  0.00    -0.382 C  
HETATM   17  O   UNL     1      -8.319   4.310  67.571  1.00  0.00    -0.099 OA 
HETATM   18  C   UNL     1     -10.297   5.551  67.860  1.00  0.00    -0.240 A  
HETATM   19  H   UNL     1      -8.785   3.691  67.020  1.00  0.00     0.000 HD 
HETATM   20  C   UNL     1     -11.754   7.366  71.987  1.00  0.00    -0.325 C  
HETATM   21  C   UNL     1     -10.983   6.628  68.420  1.00  0.00    -0.313 A  
ENDBRANCH   2   4
TORSDOF 1
ENDMDL
MODEL       43
REMARK 921   NORMALIZED FREE ENERGY PREDICTED BY IDOCK:   -4.54 KCAL/MOL
REMARK 922        TOTAL FREE ENERGY PREDICTED BY IDOCK:   -4.98 KCAL/MOL
REMARK 923 INTER-LIGAND FREE ENERGY PREDICTED BY IDOCK:   -4.86 KCAL/MOL
REMARK 924 INTRA-LIGAND FREE ENERGY PREDICTED BY IDOCK:   -0.12 KCAL/MOL
REMARK 927      BINDING AFFINITY PREDICTED BY RF-SCORE:    0.00 PKD
ROOT
HETATM    1  C   UNL     1      -7.327  11.679  68.451  1.00  0.00    -0.096 C  
HETATM    2  N   UNL     1      -7.079  11.563  67.013  1.00  0.00    -0.139 NA 
HETATM    3  C   UNL     1      -5.665  11.829  66.728  1.00  0.00    -0.113 C  
ENDROOT
BRANCH   2   4
HETATM    4  C   UNL     1      -7.463  10.234  66.483  1.00  0.00    -0.113 C  
HETATM    5  C   UNL     1      -8.892   9.725  66.866  1.00  0.00    -0.150 C  
HETATM    6  C   UNL     1      -9.968  10.655  66.300  1.00  0.00    -0.274 A  
HETATM    7  C   UNL     1      -9.103   8.188  66.522  1.00  0.00    -0.176 C  
HETATM    8  O   UNL     1      -8.896   7.953  65.124  1.00  0.00    -0.379 OA 
HETATM    9  C   UNL     1     -10.140  10.854  64.921  1.00  0.00    -0.374 A  
HETATM   10  C   UNL     1      -8.133   7.276  67.304  1.00  0.00    -0.112 C  
HETATM   11  C   UNL     1      -8.295   7.399  68.811  1.00  0.00    -0.129 C  
HETATM   12  C   UNL     1     -11.122  11.726  64.442  1.00  0.00    -0.396 A  
HETATM   13  H   UNL     1      -9.022   7.034  64.919  1.00  0.00     0.000 HD 
HETATM   14  C   UNL     1     -11.940  12.399  65.341  1.00  0.00    -0.398 A  
HETATM   15  C   UNL     1      -9.733   7.207  69.287  1.00  0.00    -0.159 C  
HETATM   16  C   UNL     1     -10.848   7.673  68.346  1.00  0.00    -0.011 C  
HETATM   17  O   UNL     1     -12.925  13.241  64.919  1.00  0.00    -0.727 OA 
HETATM   18  C   UNL     1     -11.780  12.231  66.709  1.00  0.00    -0.411 A  
HETATM   19  H   UNL     1     -13.484  13.702  65.534  1.00  0.00     0.000 HD 
HETATM   20  C   UNL     1     -10.515   7.667  66.857  1.00  0.00    -0.388 C  
HETATM   21  C   UNL     1     -10.797  11.364  67.186  1.00  0.00    -0.316 A  
ENDBRANCH   2   4
TORSDOF 1
ENDMDL
MODEL       44
REMARK 921   NORMALIZED FREE ENERGY PREDICTED BY IDOCK:   -4.53 KCAL/MOL
REMARK 922        TOTAL FREE ENERGY PREDICTED BY IDOCK:   -4.97 KCAL/MOL
REMARK 923 INTER-LIGAND FREE ENERGY PREDICTED BY IDOCK:   -4.80 KCAL/MOL
REMARK 924 INTRA-LIGAND FREE ENERGY PREDICTED BY IDOCK:   -0.17 KCAL/MOL
REMARK 927      BINDING AFFINITY PREDICTED BY RF-SCORE:    0.00 PKD
ROOT
HETATM    1  C   UNL     1      -9.709  16.209  67.333  1.00  0.00    -0.233 C  
HETATM    2  N   UNL     1      -9.786  15.159  68.349  1.00  0.00    -0.218 NA 
HETATM    3  C   UNL     1     -10.195  15.738  69.634  1.00  0.00    -0.289 C  
ENDROOT
BRANCH   2   4
HETATM    4  C   UNL     1     -10.716  14.072  67.963  1.00  0.00    -0.246 C  
HETATM    5  C   UNL     1     -10.158  13.013  66.956  1.00  0.00    -0.243 C  
HETATM    6  C   UNL     1      -8.970  12.263  67.561  1.00  0.00    -0.180 A  
HETATM    7  C   UNL     1     -11.297  12.075  66.365  1.00  0.00    -0.354 C  
HETATM    8  O   UNL     1     -11.977  11.386  67.421  1.00  0.00    -0.606 OA 
HETATM    9  C   UNL     1      -9.090  11.467  68.711  1.00  0.00    -0.096 A  
HETATM   10  C   UNL     1     -12.352  12.870  65.565  1.00  0.00    -0.517 C  
HETATM   11  C   UNL     1     -11.755  13.610  64.378  1.00  0.00    -0.444 C  
HETATM   12  C   UNL     1      -7.978  10.811  69.247  1.00  0.00    -0.110 A  
HETATM   13  H   UNL     1     -12.658  10.825  67.068  1.00  0.00     0.000 HD 
HETATM   14  C   UNL     1      -6.739  10.944  68.629  1.00  0.00    -0.059 A  
HETATM   15  C   UNL     1     -10.925  12.717  63.457  1.00  0.00    -0.413 C  
HETATM   16  C   UNL     1     -10.168  11.556  64.109  1.00  0.00    -0.374 C  
HETATM   17  O   UNL     1      -5.633  10.306  69.103  1.00  0.00    -0.038 OA 
HETATM   18  C   UNL     1      -6.592  11.737  67.500  1.00  0.00    -0.097 A  
HETATM   19  H   UNL     1      -4.787  10.397  68.680  1.00  0.00     0.000 HD 
HETATM   20  C   UNL     1     -10.772  10.999  65.395  1.00  0.00    -0.222 C  
HETATM   21  C   UNL     1      -7.701  12.395  66.970  1.00  0.00    -0.065 A  
ENDBRANCH   2   4
TORSDOF 1
ENDMDL
MODEL       45
REMARK 921   NORMALIZED FREE ENERGY PREDICTED BY IDOCK:   -4.52 KCAL/MOL
REMARK 922        TOTAL FREE ENERGY PREDICTED BY IDOCK:   -4.95 KCAL/MOL
REMARK 923 INTER-LIGAND FREE ENERGY PREDICTED BY IDOCK:   -4.78 KCAL/MOL
REMARK 924 INTRA-LIGAND FREE ENERGY PREDICTED BY IDOCK:   -0.18 KCAL/MOL
REMARK 927      BINDING AFFINITY PREDICTED BY RF-SCORE:    0.00 PKD
ROOT
HETATM    1  C   UNL     1     -13.653   9.834  71.457  1.00  0.00    -0.274 C  
HETATM    2  N   UNL     1     -12.525  10.375  70.698  1.00  0.00    -0.334 NA 
HETATM    3  C   UNL     1     -12.511  11.839  70.803  1.00  0.00    -0.312 C  
ENDROOT
BRANCH   2   4
HETATM    4  C   UNL     1     -11.227   9.820  71.149  1.00  0.00    -0.374 C  
HETATM    5  C   UNL     1     -10.463   8.927  70.118  1.00  0.00    -0.236 C  
HETATM    6  C   UNL     1     -10.089   9.735  68.874  1.00  0.00    -0.194 A  
HETATM    7  C   UNL     1      -9.254   8.134  70.777  1.00  0.00    -0.150 C  
HETATM    8  O   UNL     1      -8.320   9.044  71.370  1.00  0.00    -0.273 OA 
HETATM    9  C   UNL     1      -9.224  10.840  68.927  1.00  0.00    -0.180 A  
HETATM   10  C   UNL     1      -9.726   7.158  71.877  1.00  0.00    -0.169 C  
HETATM   11  C   UNL     1     -10.689   6.104  71.355  1.00  0.00    -0.308 C  
HETATM   12  C   UNL     1      -8.919  11.566  67.772  1.00  0.00    -0.160 A  
HETATM   13  H   UNL     1      -7.597   8.570  71.763  1.00  0.00     0.000 HD 
HETATM   14  C   UNL     1      -9.474  11.186  66.556  1.00  0.00    -0.193 A  
HETATM   15  C   UNL     1     -10.162   5.346  70.138  1.00  0.00    -0.342 C  
HETATM   16  C   UNL     1      -9.259   6.119  69.172  1.00  0.00    -0.129 C  
HETATM   17  O   UNL     1      -9.188  11.850  65.401  1.00  0.00    -0.413 OA 
HETATM   18  C   UNL     1     -10.342  10.106  66.479  1.00  0.00    -0.270 A  
HETATM   19  H   UNL     1      -9.567  11.590  64.570  1.00  0.00     0.000 HD 
HETATM   20  C   UNL     1      -8.461   7.271  69.776  1.00  0.00    -0.136 C  
HETATM   21  C   UNL     1     -10.650   9.386  67.633  1.00  0.00    -0.333 A  
ENDBRANCH   2   4
TORSDOF 1
ENDMDL
MODEL       46
REMARK 921   NORMALIZED FREE ENERGY PREDICTED BY IDOCK:   -4.52 KCAL/MOL
REMARK 922        TOTAL FREE ENERGY PREDICTED BY IDOCK:   -4.95 KCAL/MOL
REMARK 923 INTER-LIGAND FREE ENERGY PREDICTED BY IDOCK:   -4.79 KCAL/MOL
REMARK 924 INTRA-LIGAND FREE ENERGY PREDICTED BY IDOCK:   -0.16 KCAL/MOL
REMARK 927      BINDING AFFINITY PREDICTED BY RF-SCORE:    0.00 PKD
ROOT
HETATM    1  C   UNL     1      -9.911   7.236  66.654  1.00  0.00    -0.187 C  
HETATM    2  N   UNL     1      -8.773   7.398  67.559  1.00  0.00    -0.124 NA 
HETATM    3  C   UNL     1      -7.595   6.720  67.005  1.00  0.00    -0.095 C  
ENDROOT
BRANCH   2   4
HETATM    4  C   UNL     1      -8.462   8.824  67.821  1.00  0.00    -0.125 C  
HETATM    5  C   UNL     1      -9.637   9.694  68.377  1.00  0.00    -0.154 C  
HETATM    6  C   UNL     1     -10.096   9.176  69.742  1.00  0.00    -0.211 A  
HETATM    7  C   UNL     1      -9.314  11.249  68.337  1.00  0.00    -0.181 C  
HETATM    8  O   UNL     1      -8.135  11.537  69.098  1.00  0.00    -0.354 OA 
HETATM    9  C   UNL     1      -9.251   9.161  70.863  1.00  0.00    -0.326 A  
HETATM   10  C   UNL     1      -9.085  11.762  66.898  1.00  0.00    -0.192 C  
HETATM   11  C   UNL     1     -10.295  11.558  66.001  1.00  0.00    -0.290 C  
HETATM   12  C   UNL     1      -9.700   8.663  72.090  1.00  0.00    -0.383 A  
HETATM   13  H   UNL     1      -7.942  12.467  69.074  1.00  0.00     0.000 HD 
HETATM   14  C   UNL     1     -10.999   8.182  72.202  1.00  0.00    -0.306 A  
HETATM   15  C   UNL     1     -11.589  12.121  66.585  1.00  0.00    -0.416 C  
HETATM   16  C   UNL     1     -11.738  12.090  68.109  1.00  0.00    -0.398 C  
HETATM   17  O   UNL     1     -11.486   7.709  73.383  1.00  0.00    -0.643 OA 
HETATM   18  C   UNL     1     -11.849   8.174  71.105  1.00  0.00    -0.303 A  
HETATM   19  H   UNL     1     -12.375   7.381  73.459  1.00  0.00     0.000 HD 
HETATM   20  C   UNL     1     -10.441  12.131  68.911  1.00  0.00    -0.142 C  
HETATM   21  C   UNL     1     -11.399   8.666  69.880  1.00  0.00     0.043 A  
ENDBRANCH   2   4
TORSDOF 1
ENDMDL
MODEL       47
REMARK 921   NORMALIZED FREE ENERGY PREDICTED BY IDOCK:   -4.48 KCAL/MOL
REMARK 922        TOTAL FREE ENERGY PREDICTED BY IDOCK:   -4.91 KCAL/MOL
REMARK 923 INTER-LIGAND FREE ENERGY PREDICTED BY IDOCK:   -4.75 KCAL/MOL
REMARK 924 INTRA-LIGAND FREE ENERGY PREDICTED BY IDOCK:   -0.17 KCAL/MOL
REMARK 927      BINDING AFFINITY PREDICTED BY RF-SCORE:    0.00 PKD
ROOT
HETATM    1  C   UNL     1     -11.110  10.979  69.360  1.00  0.00    -0.262 C  
HETATM    2  N   UNL     1     -11.166  12.223  68.591  1.00  0.00    -0.239 NA 
HETATM    3  C   UNL     1     -11.422  11.923  67.178  1.00  0.00    -0.319 C  
ENDROOT
BRANCH   2   4
HETATM    4  C   UNL     1     -12.196  13.155  69.108  1.00  0.00    -0.092 C  
HETATM    5  C   UNL     1     -11.685  14.293  70.051  1.00  0.00    -0.364 C  
HETATM    6  C   UNL     1     -10.713  15.214  69.311  1.00  0.00    -0.250 A  
HETATM    7  C   UNL     1     -12.870  15.047  70.794  1.00  0.00    -0.392 C  
HETATM    8  O   UNL     1     -13.777  15.617  69.843  1.00  0.00    -0.063 OA 
HETATM    9  C   UNL     1     -11.100  15.976  68.197  1.00  0.00    -0.344 A  
HETATM   10  C   UNL     1     -13.679  14.102  71.710  1.00  0.00    -0.492 C  
HETATM   11  C   UNL     1     -12.829  13.471  72.802  1.00  0.00    -0.054 C  
HETATM   12  C   UNL     1     -10.178  16.793  67.534  1.00  0.00    -0.289 A  
HETATM   13  H   UNL     1     -14.485  16.068  70.287  1.00  0.00     0.000 HD 
HETATM   14  C   UNL     1      -8.866  16.856  67.988  1.00  0.00    -0.216 A  
HETATM   15  C   UNL     1     -12.037  14.487  73.622  1.00  0.00    -0.071 C  
HETATM   16  C   UNL     1     -11.557  15.747  72.897  1.00  0.00    -0.364 C  
HETATM   17  O   UNL     1      -7.940  17.655  67.388  1.00  0.00    -0.201 OA 
HETATM   18  C   UNL     1      -8.456  16.102  69.078  1.00  0.00    -0.251 A  
HETATM   19  H   UNL     1      -7.043  17.698  67.698  1.00  0.00     0.000 HD 
HETATM   20  C   UNL     1     -12.398  16.197  71.705  1.00  0.00    -0.398 C  
HETATM   21  C   UNL     1      -9.374  15.283  69.735  1.00  0.00    -0.084 A  
ENDBRANCH   2   4
TORSDOF 1
ENDMDL
MODEL       48
REMARK 921   NORMALIZED FREE ENERGY PREDICTED BY IDOCK:   -4.48 KCAL/MOL
REMARK 922        TOTAL FREE ENERGY PREDICTED BY IDOCK:   -4.91 KCAL/MOL
REMARK 923 INTER-LIGAND FREE ENERGY PREDICTED BY IDOCK:   -4.73 KCAL/MOL
REMARK 924 INTRA-LIGAND FREE ENERGY PREDICTED BY IDOCK:   -0.18 KCAL/MOL
REMARK 927      BINDING AFFINITY PREDICTED BY RF-SCORE:    0.00 PKD
ROOT
HETATM    1  C   UNL     1     -12.090  13.565  69.638  1.00  0.00    -0.306 C  
HETATM    2  N   UNL     1     -11.418  12.285  69.416  1.00  0.00    -0.282 NA 
HETATM    3  C   UNL     1     -12.014  11.254  70.273  1.00  0.00    -0.379 C  
ENDROOT
BRANCH   2   4
HETATM    4  C   UNL     1     -11.473  11.860  67.997  1.00  0.00    -0.323 C  
HETATM    5  C   UNL     1     -10.774  12.807  66.967  1.00  0.00    -0.272 C  
HETATM    6  C   UNL     1      -9.273  12.900  67.250  1.00  0.00    -0.208 A  
HETATM    7  C   UNL     1     -11.140  12.446  65.463  1.00  0.00    -0.300 C  
HETATM    8  O   UNL     1     -10.768  11.095  65.166  1.00  0.00    -0.273 OA 
HETATM    9  C   UNL     1      -8.423  11.785  67.174  1.00  0.00    -0.170 A  
HETATM   10  C   UNL     1     -12.650  12.594  65.178  1.00  0.00    -0.459 C  
HETATM   11  C   UNL     1     -13.157  14.009  65.410  1.00  0.00    -0.215 C  
HETATM   12  C   UNL     1      -7.059  11.905  67.457  1.00  0.00    -0.123 A  
HETATM   13  H   UNL     1     -10.986  10.880  64.267  1.00  0.00     0.000 HD 
HETATM   14  C   UNL     1      -6.538  13.144  67.812  1.00  0.00    -0.151 A  
HETATM   15  C   UNL     1     -12.352  15.074  64.669  1.00  0.00    -0.223 C  
HETATM   16  C   UNL     1     -10.857  14.808  64.473  1.00  0.00    -0.181 C  
HETATM   17  O   UNL     1      -5.212  13.312  68.074  1.00  0.00    -0.091 OA 
HETATM   18  C   UNL     1      -7.360  14.258  67.908  1.00  0.00    -0.163 A  
HETATM   19  H   UNL     1      -4.856  14.159  68.317  1.00  0.00     0.000 HD 
HETATM   20  C   UNL     1     -10.437  13.341  64.423  1.00  0.00    -0.424 C  
HETATM   21  C   UNL     1      -8.721  14.136  67.630  1.00  0.00    -0.187 A  
ENDBRANCH   2   4
TORSDOF 1
ENDMDL
MODEL       49
REMARK 921   NORMALIZED FREE ENERGY PREDICTED BY IDOCK:   -4.45 KCAL/MOL
REMARK 922        TOTAL FREE ENERGY PREDICTED BY IDOCK:   -4.88 KCAL/MOL
REMARK 923 INTER-LIGAND FREE ENERGY PREDICTED BY IDOCK:   -4.74 KCAL/MOL
REMARK 924 INTRA-LIGAND FREE ENERGY PREDICTED BY IDOCK:   -0.14 KCAL/MOL
REMARK 927      BINDING AFFINITY PREDICTED BY RF-SCORE:    0.00 PKD
ROOT
HETATM    1  C   UNL     1      -9.311  10.377  69.069  1.00  0.00    -0.194 C  
HETATM    2  N   UNL     1      -9.069  11.678  68.446  1.00  0.00    -0.185 NA 
HETATM    3  C   UNL     1      -8.422  11.493  67.142  1.00  0.00    -0.158 C  
ENDROOT
BRANCH   2   4
HETATM    4  C   UNL     1     -10.315  12.465  68.288  1.00  0.00    -0.227 C  
HETATM    5  C   UNL     1     -10.317  13.890  68.933  1.00  0.00    -0.163 C  
HETATM    6  C   UNL     1      -9.253  14.779  68.285  1.00  0.00    -0.187 A  
HETATM    7  C   UNL     1     -11.770  14.532  68.985  1.00  0.00    -0.311 C  
HETATM    8  O   UNL     1     -12.324  14.628  67.668  1.00  0.00    -0.597 OA 
HETATM    9  C   UNL     1      -9.290  15.126  66.926  1.00  0.00    -0.251 A  
HETATM   10  C   UNL     1     -12.745  13.702  69.848  1.00  0.00     0.041 C  
HETATM   11  C   UNL     1     -12.287  13.572  71.293  1.00  0.00    -0.325 C  
HETATM   12  C   UNL     1      -8.289  15.927  66.365  1.00  0.00    -0.310 A  
HETATM   13  H   UNL     1     -13.192  15.013  67.699  1.00  0.00     0.000 HD 
HETATM   14  C   UNL     1      -7.250  16.388  67.164  1.00  0.00    -0.198 A  
HETATM   15  C   UNL     1     -11.970  14.912  71.955  1.00  0.00    -0.428 C  
HETATM   16  C   UNL     1     -11.406  16.017  71.058  1.00  0.00    -0.423 C  
HETATM   17  O   UNL     1      -6.267  17.188  66.666  1.00  0.00    -0.186 OA 
HETATM   18  C   UNL     1      -7.184  16.046  68.508  1.00  0.00    -0.138 A  
HETATM   19  H   UNL     1      -5.556  17.503  67.213  1.00  0.00     0.000 HD 
HETATM   20  C   UNL     1     -11.798  15.952  69.585  1.00  0.00    -0.298 C  
HETATM   21  C   UNL     1      -8.180  15.244  69.065  1.00  0.00    -0.205 A  
ENDBRANCH   2   4
TORSDOF 1
ENDMDL
MODEL       50
REMARK 921   NORMALIZED FREE ENERGY PREDICTED BY IDOCK:   -4.45 KCAL/MOL
REMARK 922        TOTAL FREE ENERGY PREDICTED BY IDOCK:   -4.88 KCAL/MOL
REMARK 923 INTER-LIGAND FREE ENERGY PREDICTED BY IDOCK:   -4.72 KCAL/MOL
REMARK 924 INTRA-LIGAND FREE ENERGY PREDICTED BY IDOCK:   -0.16 KCAL/MOL
REMARK 927      BINDING AFFINITY PREDICTED BY RF-SCORE:    0.00 PKD
ROOT
HETATM    1  C   UNL     1      -6.605   7.614  69.946  1.00  0.00    -0.041 C  
HETATM    2  N   UNL     1      -7.061   8.606  70.920  1.00  0.00    -0.059 NA 
HETATM    3  C   UNL     1      -5.919   9.101  71.698  1.00  0.00    -0.072 C  
ENDROOT
BRANCH   2   4
HETATM    4  C   UNL     1      -7.769   9.739  70.279  1.00  0.00    -0.172 C  
HETATM    5  C   UNL     1      -8.976   9.365  69.358  1.00  0.00    -0.157 C  
HETATM    6  C   UNL     1     -10.077   8.671  70.163  1.00  0.00    -0.196 A  
HETATM    7  C   UNL     1      -9.475  10.593  68.481  1.00  0.00    -0.176 C  
HETATM    8  O   UNL     1      -9.865  11.685  69.322  1.00  0.00    -0.405 OA 
HETATM    9  C   UNL     1     -10.758   9.310  71.211  1.00  0.00    -0.422 A  
HETATM   10  C   UNL     1      -8.383  11.106  67.518  1.00  0.00    -0.122 C  
HETATM   11  C   UNL     1      -7.920  10.043  66.533  1.00  0.00    -0.115 C  
HETATM   12  C   UNL     1     -11.746   8.637  71.937  1.00  0.00    -0.422 A  
HETATM   13  H   UNL     1     -10.164  12.419  68.798  1.00  0.00     0.000 HD 
HETATM   14  C   UNL     1     -12.061   7.323  71.612  1.00  0.00    -0.325 A  
HETATM   15  C   UNL     1      -9.064   9.384  65.766  1.00  0.00    -0.249 C  
HETATM   16  C   UNL     1     -10.401   9.234  66.498  1.00  0.00    -0.270 C  
HETATM   17  O   UNL     1     -13.032   6.636  72.277  1.00  0.00    -0.548 OA 
HETATM   18  C   UNL     1     -11.392   6.666  70.590  1.00  0.00    -0.401 A  
HETATM   19  H   UNL     1     -13.247   5.738  72.055  1.00  0.00     0.000 HD 
HETATM   20  C   UNL     1     -10.688  10.264  67.588  1.00  0.00    -0.339 C  
HETATM   21  C   UNL     1     -10.403   7.336  69.870  1.00  0.00    -0.226 A  
ENDBRANCH   2   4
TORSDOF 1
ENDMDL
MODEL       51
REMARK 921   NORMALIZED FREE ENERGY PREDICTED BY IDOCK:   -4.44 KCAL/MOL
REMARK 922        TOTAL FREE ENERGY PREDICTED BY IDOCK:   -4.87 KCAL/MOL
REMARK 923 INTER-LIGAND FREE ENERGY PREDICTED BY IDOCK:   -4.71 KCAL/MOL
REMARK 924 INTRA-LIGAND FREE ENERGY PREDICTED BY IDOCK:   -0.16 KCAL/MOL
REMARK 927      BINDING AFFINITY PREDICTED BY RF-SCORE:    0.00 PKD
ROOT
HETATM    1  C   UNL     1     -10.994  11.645  63.740  1.00  0.00    -0.422 C  
HETATM    2  N   UNL     1     -10.249  10.565  64.387  1.00  0.00    -0.330 NA 
HETATM    3  C   UNL     1      -9.283   9.992  63.443  1.00  0.00    -0.281 C  
ENDROOT
BRANCH   2   4
HETATM    4  C   UNL     1      -9.554  11.019  65.614  1.00  0.00    -0.226 C  
HETATM    5  C   UNL     1      -9.953  10.295  66.941  1.00  0.00    -0.259 C  
HETATM    6  C   UNL     1      -9.608   8.805  66.870  1.00  0.00    -0.249 A  
HETATM    7  C   UNL     1      -9.398  11.039  68.231  1.00  0.00    -0.172 C  
HETATM    8  O   UNL     1      -7.970  11.138  68.179  1.00  0.00    -0.113 OA 
HETATM    9  C   UNL     1      -8.289   8.346  66.728  1.00  0.00    -0.109 A  
HETATM   10  C   UNL     1      -9.967  12.468  68.371  1.00  0.00    -0.212 C  
HETATM   11  C   UNL     1     -11.483  12.489  68.489  1.00  0.00    -0.346 C  
HETATM   12  C   UNL     1      -8.014   6.977  66.648  1.00  0.00    -0.108 A  
HETATM   13  H   UNL     1      -7.639  11.583  68.951  1.00  0.00     0.000 HD 
HETATM   14  C   UNL     1      -9.057   6.062  66.717  1.00  0.00    -0.131 A  
HETATM   15  C   UNL     1     -12.022  11.574  69.586  1.00  0.00    -0.407 C  
HETATM   16  C   UNL     1     -11.240  10.288  69.869  1.00  0.00    -0.360 C  
HETATM   17  O   UNL     1      -8.834   4.719  66.666  1.00  0.00    -0.111 OA 
HETATM   18  C   UNL     1     -10.371   6.492  66.843  1.00  0.00    -0.311 A  
HETATM   19  H   UNL     1      -9.548   4.093  66.713  1.00  0.00     0.000 HD 
HETATM   20  C   UNL     1      -9.747  10.328  69.554  1.00  0.00    -0.235 C  
HETATM   21  C   UNL     1     -10.645   7.857  66.917  1.00  0.00    -0.333 A  
ENDBRANCH   2   4
TORSDOF 1
ENDMDL
MODEL       52
REMARK 921   NORMALIZED FREE ENERGY PREDICTED BY IDOCK:   -4.44 KCAL/MOL
REMARK 922        TOTAL FREE ENERGY PREDICTED BY IDOCK:   -4.87 KCAL/MOL
REMARK 923 INTER-LIGAND FREE ENERGY PREDICTED BY IDOCK:   -4.76 KCAL/MOL
REMARK 924 INTRA-LIGAND FREE ENERGY PREDICTED BY IDOCK:   -0.11 KCAL/MOL
REMARK 927      BINDING AFFINITY PREDICTED BY RF-SCORE:    0.00 PKD
ROOT
HETATM    1  C   UNL     1     -12.080  11.262  70.473  1.00  0.00    -0.387 C  
HETATM    2  N   UNL     1     -11.244  10.814  69.359  1.00  0.00    -0.253 NA 
HETATM    3  C   UNL     1     -11.158   9.349  69.359  1.00  0.00    -0.076 C  
ENDROOT
BRANCH   2   4
HETATM    4  C   UNL     1     -11.748  11.294  68.051  1.00  0.00    -0.233 C  
HETATM    5  C   UNL     1     -10.715  12.043  67.147  1.00  0.00    -0.277 C  
HETATM    6  C   UNL     1      -9.560  11.116  66.762  1.00  0.00    -0.215 A  
HETATM    7  C   UNL     1     -11.403  12.782  65.920  1.00  0.00    -0.324 C  
HETATM    8  O   UNL     1     -12.123  11.846  65.109  1.00  0.00    -0.319 OA 
HETATM    9  C   UNL     1      -9.752   9.952  66.001  1.00  0.00    -0.310 A  
HETATM   10  C   UNL     1     -12.397  13.873  66.377  1.00  0.00    -0.468 C  
HETATM   11  C   UNL     1     -11.735  14.960  67.209  1.00  0.00    -0.308 C  
HETATM   12  C   UNL     1      -8.674   9.119  65.684  1.00  0.00    -0.203 A  
HETATM   13  H   UNL     1     -12.534  12.288  64.375  1.00  0.00     0.000 HD 
HETATM   14  C   UNL     1      -7.398   9.451  66.123  1.00  0.00    -0.096 A  
HETATM   15  C   UNL     1     -10.509  15.579  66.540  1.00  0.00    -0.301 C  
HETATM   16  C   UNL     1      -9.667  14.665  65.645  1.00  0.00    -0.302 C  
HETATM   17  O   UNL     1      -6.315   8.682  65.819  1.00  0.00    -0.055 OA 
HETATM   18  C   UNL     1      -7.185  10.589  66.888  1.00  0.00    -0.106 A  
HETATM   19  H   UNL     1      -5.443   8.909  66.119  1.00  0.00     0.000 HD 
HETATM   20  C   UNL     1     -10.405  13.501  64.990  1.00  0.00    -0.379 C  
HETATM   21  C   UNL     1      -8.261  11.416  67.208  1.00  0.00    -0.150 A  
ENDBRANCH   2   4
TORSDOF 1
ENDMDL
MODEL       53
REMARK 921   NORMALIZED FREE ENERGY PREDICTED BY IDOCK:   -4.42 KCAL/MOL
REMARK 922        TOTAL FREE ENERGY PREDICTED BY IDOCK:   -4.85 KCAL/MOL
REMARK 923 INTER-LIGAND FREE ENERGY PREDICTED BY IDOCK:   -4.68 KCAL/MOL
REMARK 924 INTRA-LIGAND FREE ENERGY PREDICTED BY IDOCK:   -0.17 KCAL/MOL
REMARK 927      BINDING AFFINITY PREDICTED BY RF-SCORE:    0.00 PKD
ROOT
HETATM    1  C   UNL     1      -6.979   8.599  71.395  1.00  0.00    -0.085 C  
HETATM    2  N   UNL     1      -7.296   8.681  69.969  1.00  0.00    -0.050 NA 
HETATM    3  C   UNL     1      -6.057   8.666  69.182  1.00  0.00    -0.043 C  
ENDROOT
BRANCH   2   4
HETATM    4  C   UNL     1      -8.191   7.584  69.529  1.00  0.00    -0.130 C  
HETATM    5  C   UNL     1      -9.692   7.708  69.951  1.00  0.00    -0.175 C  
HETATM    6  C   UNL     1     -10.328   8.954  69.330  1.00  0.00    -0.221 A  
HETATM    7  C   UNL     1     -10.505   6.364  69.711  1.00  0.00    -0.215 C  
HETATM    8  O   UNL     1     -10.450   5.984  68.331  1.00  0.00    -0.188 OA 
HETATM    9  C   UNL     1     -10.449   9.123  67.941  1.00  0.00    -0.293 A  
HETATM   10  C   UNL     1      -9.952   5.190  70.547  1.00  0.00    -0.304 C  
HETATM   11  C   UNL     1     -10.006   5.456  72.043  1.00  0.00    -0.232 C  
HETATM   12  C   UNL     1     -11.019  10.284  67.409  1.00  0.00    -0.317 A  
HETATM   13  H   UNL     1     -10.936   5.181  68.187  1.00  0.00     0.000 HD 
HETATM   14  C   UNL     1     -11.476  11.279  68.266  1.00  0.00    -0.308 A  
HETATM   15  C   UNL     1     -11.388   5.879  72.538  1.00  0.00    -0.352 C  
HETATM   16  C   UNL     1     -12.255   6.693  71.572  1.00  0.00    -0.391 C  
HETATM   17  O   UNL     1     -12.059  12.416  67.793  1.00  0.00    -0.447 OA 
HETATM   18  C   UNL     1     -11.355  11.141  69.641  1.00  0.00    -0.366 A  
HETATM   19  H   UNL     1     -12.371  13.096  68.379  1.00  0.00     0.000 HD 
HETATM   20  C   UNL     1     -11.997   6.467  70.085  1.00  0.00    -0.200 C  
HETATM   21  C   UNL     1     -10.781   9.985  70.171  1.00  0.00    -0.361 A  
ENDBRANCH   2   4
TORSDOF 1
ENDMDL
MODEL       54
REMARK 921   NORMALIZED FREE ENERGY PREDICTED BY IDOCK:   -4.41 KCAL/MOL
REMARK 922        TOTAL FREE ENERGY PREDICTED BY IDOCK:   -4.84 KCAL/MOL
REMARK 923 INTER-LIGAND FREE ENERGY PREDICTED BY IDOCK:   -4.87 KCAL/MOL
REMARK 924 INTRA-LIGAND FREE ENERGY PREDICTED BY IDOCK:    0.02 KCAL/MOL
REMARK 927      BINDING AFFINITY PREDICTED BY RF-SCORE:    0.00 PKD
ROOT
HETATM    1  C   UNL     1     -12.689  12.873  71.416  1.00  0.00    -0.270 C  
HETATM    2  N   UNL     1     -11.920  12.407  70.263  1.00  0.00    -0.337 NA 
HETATM    3  C   UNL     1     -12.383  11.073  69.861  1.00  0.00    -0.288 C  
ENDROOT
BRANCH   2   4
HETATM    4  C   UNL     1     -12.006  13.341  69.115  1.00  0.00    -0.296 C  
HETATM    5  C   UNL     1     -10.667  13.636  68.364  1.00  0.00    -0.272 C  
HETATM    6  C   UNL     1     -10.105  12.358  67.737  1.00  0.00    -0.203 A  
HETATM    7  C   UNL     1     -10.788  14.863  67.361  1.00  0.00    -0.304 C  
HETATM    8  O   UNL     1     -11.811  14.617  66.389  1.00  0.00    -0.365 OA 
HETATM    9  C   UNL     1     -10.791  11.644  66.742  1.00  0.00    -0.322 A  
HETATM   10  C   UNL     1     -11.135  16.180  68.089  1.00  0.00    -0.332 C  
HETATM   11  C   UNL     1     -10.088  16.576  69.119  1.00  0.00    -0.287 C  
HETATM   12  C   UNL     1     -10.255  10.469  66.206  1.00  0.00    -0.296 A  
HETATM   13  H   UNL     1     -11.884  15.351  65.789  1.00  0.00     0.000 HD 
HETATM   14  C   UNL     1      -9.025  10.007  66.659  1.00  0.00    -0.139 A  
HETATM   15  C   UNL     1      -8.667  16.615  68.559  1.00  0.00    -0.242 C  
HETATM   16  C   UNL     1      -8.326  15.615  67.451  1.00  0.00    -0.198 C  
HETATM   17  O   UNL     1      -8.453   8.880  66.150  1.00  0.00    -0.116 OA 
HETATM   18  C   UNL     1      -8.334  10.687  67.652  1.00  0.00    -0.114 A  
HETATM   19  H   UNL     1      -7.612   8.564  66.460  1.00  0.00     0.000 HD 
HETATM   20  C   UNL     1      -9.492  15.155  66.580  1.00  0.00    -0.308 C  
HETATM   21  C   UNL     1      -8.872  11.856  68.190  1.00  0.00    -0.178 A  
ENDBRANCH   2   4
TORSDOF 1
ENDMDL
MODEL       55
REMARK 921   NORMALIZED FREE ENERGY PREDICTED BY IDOCK:   -4.40 KCAL/MOL
REMARK 922        TOTAL FREE ENERGY PREDICTED BY IDOCK:   -4.83 KCAL/MOL
REMARK 923 INTER-LIGAND FREE ENERGY PREDICTED BY IDOCK:   -4.67 KCAL/MOL
REMARK 924 INTRA-LIGAND FREE ENERGY PREDICTED BY IDOCK:   -0.17 KCAL/MOL
REMARK 927      BINDING AFFINITY PREDICTED BY RF-SCORE:    0.00 PKD
ROOT
HETATM    1  C   UNL     1      -9.538   8.725  67.786  1.00  0.00    -0.148 C  
HETATM    2  N   UNL     1     -10.413   7.559  67.917  1.00  0.00    -0.210 NA 
HETATM    3  C   UNL     1     -10.588   6.918  66.608  1.00  0.00    -0.127 C  
ENDROOT
BRANCH   2   4
HETATM    4  C   UNL     1      -9.896   6.577  68.899  1.00  0.00    -0.134 C  
HETATM    5  C   UNL     1      -9.629   7.119  70.341  1.00  0.00    -0.169 C  
HETATM    6  C   UNL     1     -10.928   7.611  70.984  1.00  0.00    -0.262 A  
HETATM    7  C   UNL     1      -8.800   6.098  71.232  1.00  0.00    -0.136 C  
HETATM    8  O   UNL     1      -9.490   4.847  71.336  1.00  0.00    -0.144 OA 
HETATM    9  C   UNL     1     -12.011   6.756  71.241  1.00  0.00    -0.414 A  
HETATM   10  C   UNL     1      -7.399   5.816  70.646  1.00  0.00    -0.084 C  
HETATM   11  C   UNL     1      -6.545   7.070  70.534  1.00  0.00    -0.052 C  
HETATM   12  C   UNL     1     -13.189   7.245  71.813  1.00  0.00    -0.368 A  
HETATM   13  H   UNL     1      -8.994   4.236  71.869  1.00  0.00     0.000 HD 
HETATM   14  C   UNL     1     -13.287   8.593  72.135  1.00  0.00    -0.396 A  
HETATM   15  C   UNL     1      -6.447   7.860  71.837  1.00  0.00    -0.046 C  
HETATM   16  C   UNL     1      -7.667   7.831  72.764  1.00  0.00    -0.133 C  
HETATM   17  O   UNL     1     -14.407   9.110  72.714  1.00  0.00    -0.897 OA 
HETATM   18  C   UNL     1     -12.236   9.462  71.878  1.00  0.00    -0.440 A  
HETATM   19  H   UNL     1     -14.474  10.032  72.935  1.00  0.00     0.000 HD 
HETATM   20  C   UNL     1      -8.551   6.591  72.671  1.00  0.00    -0.124 C  
HETATM   21  C   UNL     1     -11.063   8.974  71.303  1.00  0.00    -0.382 A  
ENDBRANCH   2   4
TORSDOF 1
ENDMDL
MODEL       56
REMARK 921   NORMALIZED FREE ENERGY PREDICTED BY IDOCK:   -4.35 KCAL/MOL
REMARK 922        TOTAL FREE ENERGY PREDICTED BY IDOCK:   -4.78 KCAL/MOL
REMARK 923 INTER-LIGAND FREE ENERGY PREDICTED BY IDOCK:   -4.64 KCAL/MOL
REMARK 924 INTRA-LIGAND FREE ENERGY PREDICTED BY IDOCK:   -0.13 KCAL/MOL
REMARK 927      BINDING AFFINITY PREDICTED BY RF-SCORE:    0.00 PKD
ROOT
HETATM    1  C   UNL     1      -6.018  13.381  69.260  1.00  0.00    -0.093 C  
HETATM    2  N   UNL     1      -7.375  13.914  69.139  1.00  0.00    -0.056 NA 
HETATM    3  C   UNL     1      -7.376  15.349  69.445  1.00  0.00    -0.213 C  
ENDROOT
BRANCH   2   4
HETATM    4  C   UNL     1      -7.952  13.680  67.794  1.00  0.00    -0.172 C  
HETATM    5  C   UNL     1      -9.323  12.929  67.753  1.00  0.00    -0.203 C  
HETATM    6  C   UNL     1     -10.407  13.741  68.467  1.00  0.00    -0.244 A  
HETATM    7  C   UNL     1      -9.714  12.455  66.288  1.00  0.00    -0.246 C  
HETATM    8  O   UNL     1      -9.782  13.575  65.398  1.00  0.00    -0.510 OA 
HETATM    9  C   UNL     1     -10.810  15.010  68.023  1.00  0.00    -0.270 A  
HETATM   10  C   UNL     1      -8.692  11.452  65.707  1.00  0.00    -0.062 C  
HETATM   11  C   UNL     1      -8.568  10.188  66.543  1.00  0.00    -0.132 C  
HETATM   12  C   UNL     1     -11.791  15.730  68.712  1.00  0.00    -0.321 A  
HETATM   13  H   UNL     1     -10.015  13.291  64.522  1.00  0.00     0.000 HD 
HETATM   14  C   UNL     1     -12.377  15.180  69.845  1.00  0.00    -0.276 A  
HETATM   15  C   UNL     1      -9.907   9.508  66.823  1.00  0.00    -0.277 C  
HETATM   16  C   UNL     1     -11.134  10.414  66.963  1.00  0.00    -0.141 C  
HETATM   17  O   UNL     1     -13.353  15.835  70.535  1.00  0.00    -0.767 OA 
HETATM   18  C   UNL     1     -11.986  13.933  70.312  1.00  0.00    -0.401 A  
HETATM   19  H   UNL     1     -13.754  15.459  71.310  1.00  0.00     0.000 HD 
HETATM   20  C   UNL     1     -11.078  11.741  66.210  1.00  0.00    -0.364 C  
HETATM   21  C   UNL     1     -11.004  13.218  69.627  1.00  0.00     0.103 A  
ENDBRANCH   2   4
TORSDOF 1
ENDMDL
MODEL       57
REMARK 921   NORMALIZED FREE ENERGY PREDICTED BY IDOCK:   -4.33 KCAL/MOL
REMARK 922        TOTAL FREE ENERGY PREDICTED BY IDOCK:   -4.75 KCAL/MOL
REMARK 923 INTER-LIGAND FREE ENERGY PREDICTED BY IDOCK:   -4.60 KCAL/MOL
REMARK 924 INTRA-LIGAND FREE ENERGY PREDICTED BY IDOCK:   -0.15 KCAL/MOL
REMARK 927      BINDING AFFINITY PREDICTED BY RF-SCORE:    0.00 PKD
ROOT
HETATM    1  C   UNL     1     -12.035  11.231  69.426  1.00  0.00    -0.341 C  
HETATM    2  N   UNL     1     -11.200  10.223  68.773  1.00  0.00    -0.230 NA 
HETATM    3  C   UNL     1     -10.567  10.797  67.580  1.00  0.00    -0.237 C  
ENDROOT
BRANCH   2   4
HETATM    4  C   UNL     1     -10.165   9.676  69.683  1.00  0.00    -0.222 C  
HETATM    5  C   UNL     1     -10.187   8.127  69.900  1.00  0.00    -0.204 C  
HETATM    6  C   UNL     1      -9.925   7.392  68.584  1.00  0.00    -0.174 A  
HETATM    7  C   UNL     1      -9.261   7.668  71.107  1.00  0.00    -0.147 C  
HETATM    8  O   UNL     1      -7.906   8.078  70.884  1.00  0.00    -0.083 OA 
HETATM    9  C   UNL     1      -8.719   7.523  67.878  1.00  0.00    -0.124 A  
HETATM   10  C   UNL     1      -9.720   8.266  72.455  1.00  0.00    -0.368 C  
HETATM   11  C   UNL     1     -11.136   7.858  72.829  1.00  0.00    -0.462 C  
HETATM   12  C   UNL     1      -8.521   6.849  66.668  1.00  0.00    -0.121 A  
HETATM   13  H   UNL     1      -7.353   7.803  71.606  1.00  0.00     0.000 HD 
HETATM   14  C   UNL     1      -9.529   6.037  66.163  1.00  0.00    -0.087 A  
HETATM   15  C   UNL     1     -11.365   6.348  72.792  1.00  0.00    -0.226 C  
HETATM   16  C   UNL     1     -10.575   5.548  71.751  1.00  0.00    -0.296 C  
HETATM   17  O   UNL     1      -9.373   5.345  65.000  1.00  0.00    -0.359 OA 
HETATM   18  C   UNL     1     -10.736   5.903  66.835  1.00  0.00    -0.395 A  
HETATM   19  H   UNL     1     -10.062   4.789  64.654  1.00  0.00     0.000 HD 
HETATM   20  C   UNL     1      -9.236   6.142  71.323  1.00  0.00    -0.157 C  
HETATM   21  C   UNL     1     -10.934   6.579  68.038  1.00  0.00    -0.368 A  
ENDBRANCH   2   4
TORSDOF 1
ENDMDL
MODEL       58
REMARK 921   NORMALIZED FREE ENERGY PREDICTED BY IDOCK:   -4.32 KCAL/MOL
REMARK 922        TOTAL FREE ENERGY PREDICTED BY IDOCK:   -4.75 KCAL/MOL
REMARK 923 INTER-LIGAND FREE ENERGY PREDICTED BY IDOCK:   -4.58 KCAL/MOL
REMARK 924 INTRA-LIGAND FREE ENERGY PREDICTED BY IDOCK:   -0.17 KCAL/MOL
REMARK 927      BINDING AFFINITY PREDICTED BY RF-SCORE:    0.00 PKD
ROOT
HETATM    1  C   UNL     1      -8.260  10.731  68.591  1.00  0.00    -0.139 C  
HETATM    2  N   UNL     1      -8.299   9.278  68.425  1.00  0.00    -0.118 NA 
HETATM    3  C   UNL     1      -7.056   8.815  67.796  1.00  0.00    -0.083 C  
ENDROOT
BRANCH   2   4
HETATM    4  C   UNL     1      -8.513   8.571  69.709  1.00  0.00    -0.129 C  
HETATM    5  C   UNL     1      -9.812   7.708  69.813  1.00  0.00    -0.181 C  
HETATM    6  C   UNL     1      -9.793   6.574  68.785  1.00  0.00    -0.146 A  
HETATM    7  C   UNL     1     -10.116   7.241  71.302  1.00  0.00    -0.189 C  
HETATM    8  O   UNL     1      -9.021   6.480  71.823  1.00  0.00    -0.139 OA 
HETATM    9  C   UNL     1      -8.824   5.559  68.803  1.00  0.00    -0.109 A  
HETATM   10  C   UNL     1     -10.355   8.436  72.251  1.00  0.00    -0.403 C  
HETATM   11  C   UNL     1     -11.534   9.298  71.828  1.00  0.00    -0.448 C  
HETATM   12  C   UNL     1      -8.827   4.550  67.836  1.00  0.00    -0.120 A  
HETATM   13  H   UNL     1      -9.203   6.201  72.713  1.00  0.00     0.000 HD 
HETATM   14  C   UNL     1      -9.806   4.548  66.849  1.00  0.00    -0.213 A  
HETATM   15  C   UNL     1     -12.821   8.505  71.609  1.00  0.00    -0.366 C  
HETATM   16  C   UNL     1     -12.678   7.073  71.084  1.00  0.00    -0.361 C  
HETATM   17  O   UNL     1      -9.861   3.572  65.900  1.00  0.00    -0.383 OA 
HETATM   18  C   UNL     1     -10.766   5.548  66.801  1.00  0.00    -0.329 A  
HETATM   19  H   UNL     1     -10.531   3.572  65.225  1.00  0.00     0.000 HD 
HETATM   20  C   UNL     1     -11.374   6.359  71.430  1.00  0.00    -0.354 C  
HETATM   21  C   UNL     1     -10.759   6.558  67.764  1.00  0.00    -0.368 A  
ENDBRANCH   2   4
TORSDOF 1
ENDMDL
MODEL       59
REMARK 921   NORMALIZED FREE ENERGY PREDICTED BY IDOCK:   -4.30 KCAL/MOL
REMARK 922        TOTAL FREE ENERGY PREDICTED BY IDOCK:   -4.72 KCAL/MOL
REMARK 923 INTER-LIGAND FREE ENERGY PREDICTED BY IDOCK:   -4.58 KCAL/MOL
REMARK 924 INTRA-LIGAND FREE ENERGY PREDICTED BY IDOCK:   -0.14 KCAL/MOL
REMARK 927      BINDING AFFINITY PREDICTED BY RF-SCORE:    0.00 PKD
ROOT
HETATM    1  C   UNL     1      -5.971  15.716  67.647  1.00  0.00    -0.134 C  
HETATM    2  N   UNL     1      -7.252  15.760  68.353  1.00  0.00    -0.117 NA 
HETATM    3  C   UNL     1      -7.191  14.911  69.549  1.00  0.00    -0.184 C  
ENDROOT
BRANCH   2   4
HETATM    4  C   UNL     1      -7.638  17.140  68.730  1.00  0.00    -0.259 C  
HETATM    5  C   UNL     1      -9.031  17.631  68.214  1.00  0.00    -0.276 C  
HETATM    6  C   UNL     1     -10.157  16.777  68.799  1.00  0.00    -0.286 A  
HETATM    7  C   UNL     1      -9.229  19.197  68.395  1.00  0.00    -0.356 C  
HETATM    8  O   UNL     1      -9.100  19.564  69.774  1.00  0.00     0.187 OA 
HETATM    9  C   UNL     1     -10.415  16.715  70.177  1.00  0.00     0.100 A  
HETATM   10  C   UNL     1      -8.195  20.015  67.591  1.00  0.00    -0.347 C  
HETATM   11  C   UNL     1      -8.270  19.749  66.095  1.00  0.00    -0.363 C  
HETATM   12  C   UNL     1     -11.443  15.909  70.677  1.00  0.00    -0.426 A  
HETATM   13  H   UNL     1      -9.219  20.500  69.882  1.00  0.00     0.000 HD 
HETATM   14  C   UNL     1     -12.220  15.164  69.798  1.00  0.00    -0.289 A  
HETATM   15  C   UNL     1      -9.673  19.916  65.515  1.00  0.00     0.110 C  
HETATM   16  C   UNL     1     -10.851  19.560  66.427  1.00  0.00    -0.443 C  
HETATM   17  O   UNL     1     -13.245  14.382  70.238  1.00  0.00    -0.462 OA 
HETATM   18  C   UNL     1     -11.976  15.197  68.433  1.00  0.00    -0.216 A  
HETATM   19  H   UNL     1     -13.777  13.873  69.637  1.00  0.00     0.000 HD 
HETATM   20  C   UNL     1     -10.607  19.705  67.927  1.00  0.00    -0.492 C  
HETATM   21  C   UNL     1     -10.948  15.998  67.936  1.00  0.00    -0.327 A  
ENDBRANCH   2   4
TORSDOF 1
ENDMDL
MODEL       60
REMARK 921   NORMALIZED FREE ENERGY PREDICTED BY IDOCK:   -4.28 KCAL/MOL
REMARK 922        TOTAL FREE ENERGY PREDICTED BY IDOCK:   -4.70 KCAL/MOL
REMARK 923 INTER-LIGAND FREE ENERGY PREDICTED BY IDOCK:   -4.53 KCAL/MOL
REMARK 924 INTRA-LIGAND FREE ENERGY PREDICTED BY IDOCK:   -0.17 KCAL/MOL
REMARK 927      BINDING AFFINITY PREDICTED BY RF-SCORE:    0.00 PKD
ROOT
HETATM    1  C   UNL     1     -10.554   5.369  66.342  1.00  0.00    -0.260 C  
HETATM    2  N   UNL     1     -10.123   5.325  67.740  1.00  0.00    -0.163 NA 
HETATM    3  C   UNL     1      -9.342   4.107  67.982  1.00  0.00    -0.162 C  
ENDROOT
BRANCH   2   4
HETATM    4  C   UNL     1      -9.334   6.520  68.122  1.00  0.00    -0.109 C  
HETATM    5  C   UNL     1     -10.040   7.534  69.081  1.00  0.00    -0.192 C  
HETATM    6  C   UNL     1     -10.357   6.875  70.426  1.00  0.00    -0.221 A  
HETATM    7  C   UNL     1      -9.257   8.912  69.192  1.00  0.00    -0.144 C  
HETATM    8  O   UNL     1      -7.921   8.696  69.661  1.00  0.00    -0.092 OA 
HETATM    9  C   UNL     1      -9.355   6.387  71.279  1.00  0.00    -0.162 A  
HETATM   10  C   UNL     1      -9.169   9.644  67.834  1.00  0.00    -0.134 C  
HETATM   11  C   UNL     1     -10.535   9.977  67.255  1.00  0.00    -0.313 C  
HETATM   12  C   UNL     1      -9.685   5.775  72.493  1.00  0.00    -0.175 A  
HETATM   13  H   UNL     1      -7.454   9.520  69.727  1.00  0.00     0.000 HD 
HETATM   14  C   UNL     1     -11.020   5.654  72.860  1.00  0.00    -0.282 A  
HETATM   15  C   UNL     1     -11.442  10.730  68.227  1.00  0.00    -0.353 C  
HETATM   16  C   UNL     1     -11.287  10.409  69.716  1.00  0.00    -0.353 C  
HETATM   17  O   UNL     1     -11.387   5.085  74.042  1.00  0.00    -0.395 OA 
HETATM   18  C   UNL     1     -12.029   6.115  72.027  1.00  0.00    -0.310 A  
HETATM   19  H   UNL     1     -12.299   5.002  74.293  1.00  0.00     0.000 HD 
HETATM   20  C   UNL     1      -9.911   9.920  70.158  1.00  0.00    -0.272 C  
HETATM   21  C   UNL     1     -11.700   6.721  70.815  1.00  0.00    -0.439 A  
ENDBRANCH   2   4
TORSDOF 1
ENDMDL
MODEL       61
REMARK 921   NORMALIZED FREE ENERGY PREDICTED BY IDOCK:   -4.25 KCAL/MOL
REMARK 922        TOTAL FREE ENERGY PREDICTED BY IDOCK:   -4.67 KCAL/MOL
REMARK 923 INTER-LIGAND FREE ENERGY PREDICTED BY IDOCK:   -4.49 KCAL/MOL
REMARK 924 INTRA-LIGAND FREE ENERGY PREDICTED BY IDOCK:   -0.18 KCAL/MOL
REMARK 927      BINDING AFFINITY PREDICTED BY RF-SCORE:    0.00 PKD
ROOT
HETATM    1  C   UNL     1      -6.490   6.556  69.188  1.00  0.00    -0.040 C  
HETATM    2  N   UNL     1      -7.535   7.305  68.490  1.00  0.00    -0.103 NA 
HETATM    3  C   UNL     1      -7.332   7.210  67.039  1.00  0.00    -0.089 C  
ENDROOT
BRANCH   2   4
HETATM    4  C   UNL     1      -8.895   6.835  68.844  1.00  0.00    -0.128 C  
HETATM    5  C   UNL     1      -9.776   7.832  69.667  1.00  0.00    -0.172 C  
HETATM    6  C   UNL     1     -10.041   9.109  68.866  1.00  0.00    -0.209 A  
HETATM    7  C   UNL     1     -11.080   7.145  70.260  1.00  0.00    -0.274 C  
HETATM    8  O   UNL     1     -11.880   6.592  69.207  1.00  0.00    -0.629 OA 
HETATM    9  C   UNL     1     -10.747   9.103  67.653  1.00  0.00    -0.257 A  
HETATM   10  C   UNL     1     -10.743   6.004  71.245  1.00  0.00    -0.320 C  
HETATM   11  C   UNL     1      -9.933   6.480  72.441  1.00  0.00    -0.183 C  
HETATM   12  C   UNL     1     -10.954  10.288  66.939  1.00  0.00    -0.140 A  
HETATM   13  H   UNL     1     -12.660   6.181  69.562  1.00  0.00     0.000 HD 
HETATM   14  C   UNL     1     -10.459  11.486  67.441  1.00  0.00    -0.209 A  
HETATM   15  C   UNL     1     -10.561   7.667  73.169  1.00  0.00    -0.438 C  
HETATM   16  C   UNL     1     -11.353   8.666  72.321  1.00  0.00    -0.411 C  
HETATM   17  O   UNL     1     -10.655  12.667  66.792  1.00  0.00    -0.235 OA 
HETATM   18  C   UNL     1      -9.745  11.516  68.631  1.00  0.00    -0.172 A  
HETATM   19  H   UNL     1     -10.317  13.486  67.135  1.00  0.00     0.000 HD 
HETATM   20  C   UNL     1     -11.987   8.111  71.047  1.00  0.00    -0.257 C  
HETATM   21  C   UNL     1      -9.535  10.333  69.339  1.00  0.00    -0.225 A  
ENDBRANCH   2   4
TORSDOF 1
ENDMDL
MODEL       62
REMARK 921   NORMALIZED FREE ENERGY PREDICTED BY IDOCK:   -4.24 KCAL/MOL
REMARK 922        TOTAL FREE ENERGY PREDICTED BY IDOCK:   -4.66 KCAL/MOL
REMARK 923 INTER-LIGAND FREE ENERGY PREDICTED BY IDOCK:   -4.49 KCAL/MOL
REMARK 924 INTRA-LIGAND FREE ENERGY PREDICTED BY IDOCK:   -0.17 KCAL/MOL
REMARK 927      BINDING AFFINITY PREDICTED BY RF-SCORE:    0.00 PKD
ROOT
HETATM    1  C   UNL     1      -6.435  10.688  66.525  1.00  0.00    -0.106 C  
HETATM    2  N   UNL     1      -7.553  10.417  65.621  1.00  0.00    -0.148 NA 
HETATM    3  C   UNL     1      -7.045   9.937  64.330  1.00  0.00    -0.134 C  
ENDROOT
BRANCH   2   4
HETATM    4  C   UNL     1      -8.508   9.435  66.188  1.00  0.00    -0.120 C  
HETATM    5  C   UNL     1      -9.157   9.818  67.558  1.00  0.00    -0.142 C  
HETATM    6  C   UNL     1      -9.997  11.090  67.424  1.00  0.00    -0.209 A  
HETATM    7  C   UNL     1      -9.916   8.596  68.234  1.00  0.00    -0.180 C  
HETATM    8  O   UNL     1     -10.943   8.101  67.367  1.00  0.00    -0.505 OA 
HETATM    9  C   UNL     1     -11.124  11.162  66.590  1.00  0.00    -0.255 A  
HETATM   10  C   UNL     1      -8.965   7.424  68.558  1.00  0.00    -0.128 C  
HETATM   11  C   UNL     1      -7.853   7.816  69.519  1.00  0.00    -0.111 C  
HETATM   12  C   UNL     1     -11.857  12.348  66.478  1.00  0.00    -0.407 A  
HETATM   13  H   UNL     1     -11.397   7.371  67.771  1.00  0.00     0.000 HD 
HETATM   14  C   UNL     1     -11.466  13.467  67.205  1.00  0.00    -0.340 A  
HETATM   15  C   UNL     1      -8.359   8.481  70.797  1.00  0.00    -0.154 C  
HETATM   16  C   UNL     1      -9.626   9.335  70.685  1.00  0.00    -0.334 C  
HETATM   17  O   UNL     1     -12.162  14.636  67.145  1.00  0.00    -0.523 OA 
HETATM   18  C   UNL     1     -10.347  13.425  68.025  1.00  0.00    -0.242 A  
HETATM   19  H   UNL     1     -11.896  15.401  67.642  1.00  0.00     0.000 HD 
HETATM   20  C   UNL     1     -10.596   8.953  69.571  1.00  0.00    -0.233 C  
HETATM   21  C   UNL     1      -9.615  12.243  68.132  1.00  0.00    -0.213 A  
ENDBRANCH   2   4
TORSDOF 1
ENDMDL
MODEL       63
REMARK 921   NORMALIZED FREE ENERGY PREDICTED BY IDOCK:   -4.24 KCAL/MOL
REMARK 922        TOTAL FREE ENERGY PREDICTED BY IDOCK:   -4.66 KCAL/MOL
REMARK 923 INTER-LIGAND FREE ENERGY PREDICTED BY IDOCK:   -4.48 KCAL/MOL
REMARK 924 INTRA-LIGAND FREE ENERGY PREDICTED BY IDOCK:   -0.18 KCAL/MOL
REMARK 927      BINDING AFFINITY PREDICTED BY RF-SCORE:    0.00 PKD
ROOT
HETATM    1  C   UNL     1      -5.814  10.069  68.743  1.00  0.00    -0.034 C  
HETATM    2  N   UNL     1      -6.822  10.360  67.724  1.00  0.00    -0.073 NA 
HETATM    3  C   UNL     1      -6.279  11.307  66.743  1.00  0.00    -0.134 C  
ENDROOT
BRANCH   2   4
HETATM    4  C   UNL     1      -7.298   9.136  67.039  1.00  0.00    -0.090 C  
HETATM    5  C   UNL     1      -8.778   8.719  67.321  1.00  0.00    -0.133 C  
HETATM    6  C   UNL     1      -9.747   9.798  66.830  1.00  0.00    -0.243 A  
HETATM    7  C   UNL     1      -9.108   7.253  66.803  1.00  0.00    -0.148 C  
HETATM    8  O   UNL     1      -8.867   7.152  65.394  1.00  0.00    -0.360 OA 
HETATM    9  C   UNL     1      -9.848  10.158  65.477  1.00  0.00    -0.365 A  
HETATM   10  C   UNL     1      -8.251   6.179  67.507  1.00  0.00    -0.109 C  
HETATM   11  C   UNL     1      -8.460   6.153  69.013  1.00  0.00    -0.118 C  
HETATM   12  C   UNL     1     -10.732  11.162  65.069  1.00  0.00    -0.301 A  
HETATM   13  H   UNL     1      -9.064   6.276  65.085  1.00  0.00     0.000 HD 
HETATM   14  C   UNL     1     -11.524  11.805  66.013  1.00  0.00    -0.215 A  
HETATM   15  C   UNL     1      -9.927   6.041  69.423  1.00  0.00    -0.220 C  
HETATM   16  C   UNL     1     -10.960   6.704  68.507  1.00  0.00    -0.314 C  
HETATM   17  O   UNL     1     -12.415  12.773  65.658  1.00  0.00    -0.586 OA 
HETATM   18  C   UNL     1     -11.432  11.477  67.358  1.00  0.00    -0.349 A  
HETATM   19  H   UNL     1     -12.956  13.213  66.303  1.00  0.00     0.000 HD 
HETATM   20  C   UNL     1     -10.571   6.828  67.036  1.00  0.00    -0.405 C  
HETATM   21  C   UNL     1     -10.546  10.479  67.765  1.00  0.00    -0.285 A  
ENDBRANCH   2   4
TORSDOF 1
ENDMDL
MODEL       64
REMARK 921   NORMALIZED FREE ENERGY PREDICTED BY IDOCK:   -4.18 KCAL/MOL
REMARK 922        TOTAL FREE ENERGY PREDICTED BY IDOCK:   -4.59 KCAL/MOL
REMARK 923 INTER-LIGAND FREE ENERGY PREDICTED BY IDOCK:   -4.43 KCAL/MOL
REMARK 924 INTRA-LIGAND FREE ENERGY PREDICTED BY IDOCK:   -0.16 KCAL/MOL
REMARK 927      BINDING AFFINITY PREDICTED BY RF-SCORE:    0.00 PKD
ROOT
HETATM    1  C   UNL     1      -8.417   5.833  68.772  1.00  0.00    -0.107 C  
HETATM    2  N   UNL     1      -9.822   6.054  69.114  1.00  0.00    -0.143 NA 
HETATM    3  C   UNL     1     -10.682   5.542  68.041  1.00  0.00    -0.086 C  
ENDROOT
BRANCH   2   4
HETATM    4  C   UNL     1     -10.191   5.424  70.405  1.00  0.00    -0.262 C  
HETATM    5  C   UNL     1     -10.051   6.325  71.676  1.00  0.00    -0.214 C  
HETATM    6  C   UNL     1     -10.989   7.532  71.590  1.00  0.00    -0.263 A  
HETATM    7  C   UNL     1     -10.167   5.495  73.026  1.00  0.00    -0.188 C  
HETATM    8  O   UNL     1     -11.425   4.811  73.088  1.00  0.00    -0.309 OA 
HETATM    9  C   UNL     1     -12.385   7.396  71.539  1.00  0.00    -0.385 A  
HETATM   10  C   UNL     1      -9.048   4.439  73.160  1.00  0.00    -0.126 C  
HETATM   11  C   UNL     1      -7.657   5.052  73.159  1.00  0.00    -0.093 C  
HETATM   12  C   UNL     1     -13.209   8.522  71.443  1.00  0.00    -0.246 A  
HETATM   13  H   UNL     1     -11.494   4.315  73.895  1.00  0.00     0.000 HD 
HETATM   14  C   UNL     1     -12.639   9.789  71.403  1.00  0.00    -0.386 A  
HETATM   15  C   UNL     1      -7.483   6.171  74.184  1.00  0.00    -0.086 C  
HETATM   16  C   UNL     1      -8.711   7.033  74.492  1.00  0.00    -0.227 C  
HETATM   17  O   UNL     1     -13.404  10.914  71.332  1.00  0.00    -0.295 OA 
HETATM   18  C   UNL     1     -11.261   9.948  71.438  1.00  0.00    -0.279 A  
HETATM   19  H   UNL     1     -13.014  11.780  71.306  1.00  0.00     0.000 HD 
HETATM   20  C   UNL     1     -10.068   6.362  74.296  1.00  0.00    -0.365 C  
HETATM   21  C   UNL     1     -10.439   8.824  71.529  1.00  0.00    -0.373 A  
ENDBRANCH   2   4
TORSDOF 1
ENDMDL
MODEL       65
REMARK 921   NORMALIZED FREE ENERGY PREDICTED BY IDOCK:   -4.14 KCAL/MOL
REMARK 922        TOTAL FREE ENERGY PREDICTED BY IDOCK:   -4.55 KCAL/MOL
REMARK 923 INTER-LIGAND FREE ENERGY PREDICTED BY IDOCK:   -4.38 KCAL/MOL
REMARK 924 INTRA-LIGAND FREE ENERGY PREDICTED BY IDOCK:   -0.17 KCAL/MOL
REMARK 927      BINDING AFFINITY PREDICTED BY RF-SCORE:    0.00 PKD
ROOT
HETATM    1  C   UNL     1     -11.258  16.211  64.717  1.00  0.00    -0.304 C  
HETATM    2  N   UNL     1     -10.460  16.213  65.943  1.00  0.00    -0.346 NA 
HETATM    3  C   UNL     1     -10.512  17.540  66.569  1.00  0.00    -0.270 C  
ENDROOT
BRANCH   2   4
HETATM    4  C   UNL     1     -10.908  15.180  66.906  1.00  0.00    -0.317 C  
HETATM    5  C   UNL     1      -9.879  14.048  67.230  1.00  0.00    -0.242 C  
HETATM    6  C   UNL     1      -8.627  14.627  67.892  1.00  0.00    -0.165 A  
HETATM    7  C   UNL     1     -10.537  12.834  68.017  1.00  0.00    -0.226 C  
HETATM    8  O   UNL     1     -11.118  13.287  69.246  1.00  0.00    -0.360 OA 
HETATM    9  C   UNL     1      -8.667  15.284  69.132  1.00  0.00    -0.238 A  
HETATM   10  C   UNL     1     -11.648  12.140  67.198  1.00  0.00    -0.405 C  
HETATM   11  C   UNL     1     -11.139  11.568  65.884  1.00  0.00    -0.274 C  
HETATM   12  C   UNL     1      -7.504  15.817  69.697  1.00  0.00    -0.100 A  
HETATM   13  H   UNL     1     -11.511  12.561  69.716  1.00  0.00     0.000 HD 
HETATM   14  C   UNL     1      -6.294  15.691  69.025  1.00  0.00    -0.123 A  
HETATM   15  C   UNL     1      -9.925  10.655  66.046  1.00  0.00    -0.295 C  
HETATM   16  C   UNL     1      -8.948  10.989  67.177  1.00  0.00    -0.145 C  
HETATM   17  O   UNL     1      -5.133  16.175  69.547  1.00  0.00    -0.110 OA 
HETATM   18  C   UNL     1      -6.231  15.058  67.791  1.00  0.00    -0.168 A  
HETATM   19  H   UNL     1      -4.306  16.088  69.088  1.00  0.00     0.000 HD 
HETATM   20  C   UNL     1      -9.539  11.717  68.381  1.00  0.00    -0.191 C  
HETATM   21  C   UNL     1      -7.392  14.531  67.226  1.00  0.00    -0.098 A  
ENDBRANCH   2   4
TORSDOF 1
ENDMDL
MODEL       66
REMARK 921   NORMALIZED FREE ENERGY PREDICTED BY IDOCK:   -4.08 KCAL/MOL
REMARK 922        TOTAL FREE ENERGY PREDICTED BY IDOCK:   -4.49 KCAL/MOL
REMARK 923 INTER-LIGAND FREE ENERGY PREDICTED BY IDOCK:   -4.33 KCAL/MOL
REMARK 924 INTRA-LIGAND FREE ENERGY PREDICTED BY IDOCK:   -0.16 KCAL/MOL
REMARK 927      BINDING AFFINITY PREDICTED BY RF-SCORE:    0.00 PKD
ROOT
HETATM    1  C   UNL     1      -8.847  10.296  67.205  1.00  0.00    -0.136 C  
HETATM    2  N   UNL     1      -9.650  10.275  68.428  1.00  0.00    -0.146 NA 
HETATM    3  C   UNL     1     -10.472  11.488  68.505  1.00  0.00    -0.208 C  
ENDROOT
BRANCH   2   4
HETATM    4  C   UNL     1     -10.510   9.071  68.514  1.00  0.00    -0.196 C  
HETATM    5  C   UNL     1      -9.825   7.771  69.049  1.00  0.00    -0.169 C  
HETATM    6  C   UNL     1      -9.345   7.965  70.489  1.00  0.00    -0.162 A  
HETATM    7  C   UNL     1     -10.716   6.475  68.821  1.00  0.00    -0.272 C  
HETATM    8  O   UNL     1     -11.987   6.620  69.468  1.00  0.00    -0.642 OA 
HETATM    9  C   UNL     1     -10.228   8.230  71.547  1.00  0.00    -0.277 A  
HETATM   10  C   UNL     1     -10.977   6.201  67.324  1.00  0.00    -0.418 C  
HETATM   11  C   UNL     1      -9.696   5.978  66.535  1.00  0.00    -0.183 C  
HETATM   12  C   UNL     1      -9.751   8.420  72.847  1.00  0.00    -0.253 A  
HETATM   13  H   UNL     1     -12.519   5.845  69.332  1.00  0.00     0.000 HD 
HETATM   14  C   UNL     1      -8.386   8.341  73.095  1.00  0.00    -0.187 A  
HETATM   15  C   UNL     1      -8.786   4.910  67.139  1.00  0.00    -0.106 C  
HETATM   16  C   UNL     1      -8.794   4.768  68.664  1.00  0.00    -0.121 C  
HETATM   17  O   UNL     1      -7.877   8.497  74.350  1.00  0.00    -0.332 OA 
HETATM   18  C   UNL     1      -7.490   8.095  72.064  1.00  0.00    -0.115 A  
HETATM   19  H   UNL     1      -6.944   8.443  74.519  1.00  0.00     0.000 HD 
HETATM   20  C   UNL     1     -10.082   5.182  69.370  1.00  0.00    -0.305 C  
HETATM   21  C   UNL     1      -7.967   7.911  70.766  1.00  0.00    -0.100 A  
ENDBRANCH   2   4
TORSDOF 1
ENDMDL
MODEL       67
REMARK 921   NORMALIZED FREE ENERGY PREDICTED BY IDOCK:   -4.08 KCAL/MOL
REMARK 922        TOTAL FREE ENERGY PREDICTED BY IDOCK:   -4.49 KCAL/MOL
REMARK 923 INTER-LIGAND FREE ENERGY PREDICTED BY IDOCK:   -4.38 KCAL/MOL
REMARK 924 INTRA-LIGAND FREE ENERGY PREDICTED BY IDOCK:   -0.10 KCAL/MOL
REMARK 927      BINDING AFFINITY PREDICTED BY RF-SCORE:    0.00 PKD
ROOT
HETATM    1  C   UNL     1      -7.993  10.676  65.088  1.00  0.00    -0.036 C  
HETATM    2  N   UNL     1      -9.373  11.134  64.924  1.00  0.00    -0.214 NA 
HETATM    3  C   UNL     1      -9.863  10.770  63.589  1.00  0.00    -0.350 C  
ENDROOT
BRANCH   2   4
HETATM    4  C   UNL     1     -10.275  10.584  65.963  1.00  0.00    -0.245 C  
HETATM    5  C   UNL     1      -9.778  10.705  67.441  1.00  0.00    -0.192 C  
HETATM    6  C   UNL     1      -9.628  12.174  67.844  1.00  0.00    -0.198 A  
HETATM    7  C   UNL     1     -10.642   9.831  68.448  1.00  0.00    -0.226 C  
HETATM    8  O   UNL     1     -12.019  10.222  68.398  1.00  0.00    -0.730 OA 
HETATM    9  C   UNL     1     -10.718  13.058  67.880  1.00  0.00    -0.249 A  
HETATM   10  C   UNL     1     -10.568   8.322  68.124  1.00  0.00    -0.169 C  
HETATM   11  C   UNL     1      -9.151   7.774  68.196  1.00  0.00    -0.129 C  
HETATM   12  C   UNL     1     -10.539  14.399  68.235  1.00  0.00    -0.243 A  
HETATM   13  H   UNL     1     -12.536   9.699  69.000  1.00  0.00     0.000 HD 
HETATM   14  C   UNL     1      -9.270  14.859  68.562  1.00  0.00    -0.192 A  
HETATM   15  C   UNL     1      -8.441   8.090  69.512  1.00  0.00    -0.131 C  
HETATM   16  C   UNL     1      -8.798   9.412  70.197  1.00  0.00    -0.249 C  
HETATM   17  O   UNL     1      -9.052  16.151  68.936  1.00  0.00    -0.221 OA 
HETATM   18  C   UNL     1      -8.174  14.008  68.521  1.00  0.00    -0.136 A  
HETATM   19  H   UNL     1      -8.184  16.465  69.160  1.00  0.00     0.000 HD 
HETATM   20  C   UNL     1     -10.196   9.957  69.918  1.00  0.00    -0.298 C  
HETATM   21  C   UNL     1      -8.352  12.672  68.161  1.00  0.00    -0.175 A  
ENDBRANCH   2   4
TORSDOF 1
ENDMDL
MODEL       68
REMARK 921   NORMALIZED FREE ENERGY PREDICTED BY IDOCK:   -4.06 KCAL/MOL
REMARK 922        TOTAL FREE ENERGY PREDICTED BY IDOCK:   -4.47 KCAL/MOL
REMARK 923 INTER-LIGAND FREE ENERGY PREDICTED BY IDOCK:   -4.30 KCAL/MOL
REMARK 924 INTRA-LIGAND FREE ENERGY PREDICTED BY IDOCK:   -0.17 KCAL/MOL
REMARK 927      BINDING AFFINITY PREDICTED BY RF-SCORE:    0.00 PKD
ROOT
HETATM    1  C   UNL     1      -9.165  11.076  67.516  1.00  0.00    -0.145 C  
HETATM    2  N   UNL     1     -10.002  10.325  68.452  1.00  0.00    -0.153 NA 
HETATM    3  C   UNL     1     -11.166  11.132  68.837  1.00  0.00    -0.256 C  
ENDROOT
BRANCH   2   4
HETATM    4  C   UNL     1     -10.447   9.028  67.891  1.00  0.00    -0.234 C  
HETATM    5  C   UNL     1      -9.787   7.749  68.504  1.00  0.00    -0.181 C  
HETATM    6  C   UNL     1     -10.124   7.626  69.992  1.00  0.00    -0.204 A  
HETATM    7  C   UNL     1     -10.083   6.442  67.651  1.00  0.00    -0.151 C  
HETATM    8  O   UNL     1     -11.495   6.220  67.547  1.00  0.00    -0.626 OA 
HETATM    9  C   UNL     1     -11.440   7.466  70.454  1.00  0.00    -0.250 A  
HETATM   10  C   UNL     1      -9.513   6.538  66.219  1.00  0.00    -0.126 C  
HETATM   11  C   UNL     1      -8.004   6.724  66.197  1.00  0.00    -0.110 C  
HETATM   12  C   UNL     1     -11.712   7.375  71.822  1.00  0.00    -0.319 A  
HETATM   13  H   UNL     1     -11.672   5.438  67.037  1.00  0.00     0.000 HD 
HETATM   14  C   UNL     1     -10.666   7.437  72.735  1.00  0.00    -0.314 A  
HETATM   15  C   UNL     1      -7.249   5.682  67.021  1.00  0.00    -0.075 C  
HETATM   16  C   UNL     1      -7.948   5.143  68.273  1.00  0.00    -0.087 C  
HETATM   17  O   UNL     1     -10.881   7.331  74.076  1.00  0.00    -0.556 OA 
HETATM   18  C   UNL     1      -9.358   7.609  72.305  1.00  0.00    -0.199 A  
HETATM   19  H   UNL     1     -10.165   7.373  74.700  1.00  0.00     0.000 HD 
HETATM   20  C   UNL     1      -9.473   5.159  68.250  1.00  0.00    -0.164 C  
HETATM   21  C   UNL     1      -9.088   7.705  70.939  1.00  0.00    -0.149 A  
ENDBRANCH   2   4
TORSDOF 1
ENDMDL
MODEL       69
REMARK 921   NORMALIZED FREE ENERGY PREDICTED BY IDOCK:   -4.05 KCAL/MOL
REMARK 922        TOTAL FREE ENERGY PREDICTED BY IDOCK:   -4.46 KCAL/MOL
REMARK 923 INTER-LIGAND FREE ENERGY PREDICTED BY IDOCK:   -4.29 KCAL/MOL
REMARK 924 INTRA-LIGAND FREE ENERGY PREDICTED BY IDOCK:   -0.18 KCAL/MOL
REMARK 927      BINDING AFFINITY PREDICTED BY RF-SCORE:    0.00 PKD
ROOT
HETATM    1  C   UNL     1      -8.317   3.067  69.457  1.00  0.00    -0.059 C  
HETATM    2  N   UNL     1      -8.868   4.181  68.686  1.00  0.00    -0.098 NA 
HETATM    3  C   UNL     1      -9.256   3.718  67.349  1.00  0.00    -0.183 C  
ENDROOT
BRANCH   2   4
HETATM    4  C   UNL     1     -10.027   4.812  69.361  1.00  0.00    -0.199 C  
HETATM    5  C   UNL     1      -9.813   6.273  69.876  1.00  0.00    -0.198 C  
HETATM    6  C   UNL     1      -9.524   7.222  68.710  1.00  0.00    -0.142 A  
HETATM    7  C   UNL     1     -10.979   6.755  70.843  1.00  0.00    -0.260 C  
HETATM    8  O   UNL     1     -12.244   6.688  70.176  1.00  0.00    -0.598 OA 
HETATM    9  C   UNL     1     -10.453   7.457  67.685  1.00  0.00    -0.310 A  
HETATM   10  C   UNL     1     -11.072   5.892  72.121  1.00  0.00    -0.333 C  
HETATM   11  C   UNL     1      -9.795   5.924  72.947  1.00  0.00    -0.179 C  
HETATM   12  C   UNL     1     -10.147   8.317  66.625  1.00  0.00    -0.351 A  
HETATM   13  H   UNL     1     -12.941   6.976  70.754  1.00  0.00     0.000 HD 
HETATM   14  C   UNL     1      -8.909   8.949  66.590  1.00  0.00    -0.129 A  
HETATM   15  C   UNL     1      -9.315   7.338  73.272  1.00  0.00    -0.226 C  
HETATM   16  C   UNL     1      -9.594   8.426  72.231  1.00  0.00    -0.374 C  
HETATM   17  O   UNL     1      -8.576   9.811  65.590  1.00  0.00    -0.132 OA 
HETATM   18  C   UNL     1      -7.969   8.721  67.584  1.00  0.00    -0.106 A  
HETATM   19  H   UNL     1      -7.730  10.244  65.566  1.00  0.00     0.000 HD 
HETATM   20  C   UNL     1     -10.812   8.205  71.339  1.00  0.00    -0.281 C  
HETATM   21  C   UNL     1      -8.273   7.860  68.638  1.00  0.00    -0.127 A  
ENDBRANCH   2   4
TORSDOF 1
ENDMDL
MODEL       70
REMARK 921   NORMALIZED FREE ENERGY PREDICTED BY IDOCK:   -4.01 KCAL/MOL
REMARK 922        TOTAL FREE ENERGY PREDICTED BY IDOCK:   -4.41 KCAL/MOL
REMARK 923 INTER-LIGAND FREE ENERGY PREDICTED BY IDOCK:   -5.29 KCAL/MOL
REMARK 924 INTRA-LIGAND FREE ENERGY PREDICTED BY IDOCK:    0.88 KCAL/MOL
REMARK 927      BINDING AFFINITY PREDICTED BY RF-SCORE:    0.00 PKD
ROOT
HETATM    1  C   UNL     1     -12.193  15.421  64.417  1.00  0.00    -0.151 C  
HETATM    2  N   UNL     1     -12.647  14.044  64.611  1.00  0.00    -0.659 NA 
HETATM    3  C   UNL     1     -11.772  13.122  63.878  1.00  0.00    -0.456 C  
ENDROOT
BRANCH   2   4
HETATM    4  C   UNL     1     -12.697  13.666  66.044  1.00  0.00    -0.309 C  
HETATM    5  C   UNL     1     -11.319  13.547  66.773  1.00  0.00    -0.351 C  
HETATM    6  C   UNL     1     -10.595  14.896  66.789  1.00  0.00    -0.305 A  
HETATM    7  C   UNL     1     -11.442  12.850  68.196  1.00  0.00    -0.315 C  
HETATM    8  O   UNL     1     -12.341  13.581  69.038  1.00  0.00    -0.252 OA 
HETATM    9  C   UNL     1     -11.120  16.023  67.440  1.00  0.00    -0.167 A  
HETATM   10  C   UNL     1     -11.965  11.400  68.093  1.00  0.00    -0.201 C  
HETATM   11  C   UNL     1     -11.060  10.506  67.259  1.00  0.00    -0.284 C  
HETATM   12  C   UNL     1     -10.439  17.244  67.417  1.00  0.00    -0.338 A  
HETATM   13  H   UNL     1     -12.414  13.164  69.889  1.00  0.00     0.000 HD 
HETATM   14  C   UNL     1      -9.226  17.340  66.746  1.00  0.00    -0.255 A  
HETATM   15  C   UNL     1      -9.599  10.532  67.704  1.00  0.00    -0.175 C  
HETATM   16  C   UNL     1      -9.070  11.847  68.284  1.00  0.00    -0.183 C  
HETATM   17  O   UNL     1      -8.517  18.503  66.716  1.00  0.00    -0.264 OA 
HETATM   18  C   UNL     1      -8.694  16.244  66.082  1.00  0.00    -0.353 A  
HETATM   19  H   UNL     1      -7.688  18.569  66.257  1.00  0.00     0.000 HD 
HETATM   20  C   UNL     1     -10.103  12.749  68.954  1.00  0.00     0.051 C  
HETATM   21  C   UNL     1      -9.376  15.028  66.101  1.00  0.00    -0.327 A  
ENDBRANCH   2   4
TORSDOF 1
ENDMDL
MODEL       71
REMARK 921   NORMALIZED FREE ENERGY PREDICTED BY IDOCK:   -4.00 KCAL/MOL
REMARK 922        TOTAL FREE ENERGY PREDICTED BY IDOCK:   -4.40 KCAL/MOL
REMARK 923 INTER-LIGAND FREE ENERGY PREDICTED BY IDOCK:   -4.22 KCAL/MOL
REMARK 924 INTRA-LIGAND FREE ENERGY PREDICTED BY IDOCK:   -0.18 KCAL/MOL
REMARK 927      BINDING AFFINITY PREDICTED BY RF-SCORE:    0.00 PKD
ROOT
HETATM    1  C   UNL     1      -7.819   6.422  67.042  1.00  0.00    -0.104 C  
HETATM    2  N   UNL     1      -7.394   6.615  68.429  1.00  0.00    -0.085 NA 
HETATM    3  C   UNL     1      -6.015   6.141  68.597  1.00  0.00    -0.020 C  
ENDROOT
BRANCH   2   4
HETATM    4  C   UNL     1      -7.500   8.029  68.858  1.00  0.00    -0.093 C  
HETATM    5  C   UNL     1      -8.948   8.611  68.962  1.00  0.00    -0.142 C  
HETATM    6  C   UNL     1      -9.758   7.858  70.021  1.00  0.00    -0.179 A  
HETATM    7  C   UNL     1      -8.960  10.191  69.125  1.00  0.00    -0.175 C  
HETATM    8  O   UNL     1      -8.227  10.582  70.292  1.00  0.00    -0.345 OA 
HETATM    9  C   UNL     1      -9.399   7.851  71.378  1.00  0.00    -0.174 A  
HETATM   10  C   UNL     1      -8.330  10.908  67.910  1.00  0.00    -0.119 C  
HETATM   11  C   UNL     1      -9.058  10.610  66.609  1.00  0.00    -0.176 C  
HETATM   12  C   UNL     1     -10.153   7.137  72.314  1.00  0.00    -0.202 A  
HETATM   13  H   UNL     1      -8.234  11.527  70.389  1.00  0.00     0.000 HD 
HETATM   14  C   UNL     1     -11.275   6.431  71.896  1.00  0.00    -0.280 A  
HETATM   15  C   UNL     1     -10.562  10.868  66.679  1.00  0.00    -0.305 C  
HETATM   16  C   UNL     1     -11.249  10.625  68.027  1.00  0.00    -0.373 C  
HETATM   17  O   UNL     1     -12.052   5.740  72.776  1.00  0.00    -0.543 OA 
HETATM   18  C   UNL     1     -11.643   6.411  70.558  1.00  0.00    -0.424 A  
HETATM   19  H   UNL     1     -12.820   5.258  72.490  1.00  0.00     0.000 HD 
HETATM   20  C   UNL     1     -10.373  10.790  69.266  1.00  0.00    -0.228 C  
HETATM   21  C   UNL     1     -10.887   7.119  69.625  1.00  0.00    -0.254 A  
ENDBRANCH   2   4
TORSDOF 1
ENDMDL
MODEL       72
REMARK 921   NORMALIZED FREE ENERGY PREDICTED BY IDOCK:   -3.98 KCAL/MOL
REMARK 922        TOTAL FREE ENERGY PREDICTED BY IDOCK:   -4.38 KCAL/MOL
REMARK 923 INTER-LIGAND FREE ENERGY PREDICTED BY IDOCK:   -4.21 KCAL/MOL
REMARK 924 INTRA-LIGAND FREE ENERGY PREDICTED BY IDOCK:   -0.17 KCAL/MOL
REMARK 927      BINDING AFFINITY PREDICTED BY RF-SCORE:    0.00 PKD
ROOT
HETATM    1  C   UNL     1      -6.812   7.833  72.011  1.00  0.00    -0.062 C  
HETATM    2  N   UNL     1      -7.812   7.574  73.047  1.00  0.00    -0.096 NA 
HETATM    3  C   UNL     1      -7.465   8.307  74.270  1.00  0.00    -0.201 C  
ENDROOT
BRANCH   2   4
HETATM    4  C   UNL     1      -9.181   7.937  72.608  1.00  0.00    -0.208 C  
HETATM    5  C   UNL     1      -9.857   6.966  71.586  1.00  0.00    -0.173 C  
HETATM    6  C   UNL     1     -10.039   5.575  72.198  1.00  0.00    -0.231 A  
HETATM    7  C   UNL     1     -11.174   7.580  70.943  1.00  0.00    -0.269 C  
HETATM    8  O   UNL     1     -12.127   7.903  71.962  1.00  0.00    -0.295 OA 
HETATM    9  C   UNL     1     -10.849   5.350  73.322  1.00  0.00    -0.345 A  
HETATM   10  C   UNL     1     -10.886   8.868  70.139  1.00  0.00    -0.251 C  
HETATM   11  C   UNL     1      -9.919   8.639  68.988  1.00  0.00    -0.197 C  
HETATM   12  C   UNL     1     -10.977   4.067  73.866  1.00  0.00    -0.289 A  
HETATM   13  H   UNL     1     -12.914   8.270  71.577  1.00  0.00     0.000 HD 
HETATM   14  C   UNL     1     -10.298   3.004  73.282  1.00  0.00    -0.152 A  
HETATM   15  C   UNL     1     -10.332   7.495  68.063  1.00  0.00    -0.254 C  
HETATM   16  C   UNL     1     -11.073   6.316  68.700  1.00  0.00    -0.409 C  
HETATM   17  O   UNL     1     -10.411   1.734  73.763  1.00  0.00    -0.088 OA 
HETATM   18  C   UNL     1      -9.481   3.204  72.179  1.00  0.00    -0.195 A  
HETATM   19  H   UNL     1      -9.947   1.007  73.364  1.00  0.00     0.000 HD 
HETATM   20  C   UNL     1     -11.882   6.631  69.956  1.00  0.00    -0.301 C  
HETATM   21  C   UNL     1      -9.350   4.484  71.641  1.00  0.00    -0.196 A  
ENDBRANCH   2   4
TORSDOF 1
ENDMDL
MODEL       73
REMARK 921   NORMALIZED FREE ENERGY PREDICTED BY IDOCK:   -3.98 KCAL/MOL
REMARK 922        TOTAL FREE ENERGY PREDICTED BY IDOCK:   -4.38 KCAL/MOL
REMARK 923 INTER-LIGAND FREE ENERGY PREDICTED BY IDOCK:   -4.21 KCAL/MOL
REMARK 924 INTRA-LIGAND FREE ENERGY PREDICTED BY IDOCK:   -0.17 KCAL/MOL
REMARK 927      BINDING AFFINITY PREDICTED BY RF-SCORE:    0.00 PKD
ROOT
HETATM    1  C   UNL     1     -10.549   7.921  67.034  1.00  0.00    -0.311 C  
HETATM    2  N   UNL     1     -10.461   9.321  67.450  1.00  0.00    -0.266 NA 
HETATM    3  C   UNL     1     -10.904   9.455  68.842  1.00  0.00    -0.123 C  
ENDROOT
BRANCH   2   4
HETATM    4  C   UNL     1      -9.091   9.866  67.297  1.00  0.00    -0.135 C  
HETATM    5  C   UNL     1      -8.607  10.113  65.831  1.00  0.00    -0.156 C  
HETATM    6  C   UNL     1      -9.483  11.161  65.140  1.00  0.00    -0.257 A  
HETATM    7  C   UNL     1      -7.046  10.400  65.745  1.00  0.00    -0.139 C  
HETATM    8  O   UNL     1      -6.702  11.543  66.537  1.00  0.00    -0.289 OA 
HETATM    9  C   UNL     1      -9.571  12.486  65.595  1.00  0.00    -0.099 A  
HETATM   10  C   UNL     1      -6.204   9.207  66.248  1.00  0.00    -0.064 C  
HETATM   11  C   UNL     1      -6.446   7.938  65.446  1.00  0.00    -0.041 C  
HETATM   12  C   UNL     1     -10.397  13.411  64.949  1.00  0.00    -0.382 A  
HETATM   13  H   UNL     1      -5.769  11.715  66.486  1.00  0.00     0.000 HD 
HETATM   14  C   UNL     1     -11.135  13.014  63.840  1.00  0.00    -0.371 A  
HETATM   15  C   UNL     1      -6.284   8.128  63.939  1.00  0.00    -0.067 C  
HETATM   16  C   UNL     1      -6.668   9.495  63.364  1.00  0.00    -0.102 C  
HETATM   17  O   UNL     1     -11.935  13.886  63.166  1.00  0.00    -0.784 OA 
HETATM   18  C   UNL     1     -11.076  11.706  63.380  1.00  0.00    -0.422 A  
HETATM   19  H   UNL     1     -12.440  13.615  62.408  1.00  0.00     0.000 HD 
HETATM   20  C   UNL     1      -6.545  10.682  64.315  1.00  0.00     0.193 C  
HETATM   21  C   UNL     1     -10.256  10.783  64.028  1.00  0.00    -0.390 A  
ENDBRANCH   2   4
TORSDOF 1
ENDMDL
MODEL       74
REMARK 921   NORMALIZED FREE ENERGY PREDICTED BY IDOCK:   -3.96 KCAL/MOL
REMARK 922        TOTAL FREE ENERGY PREDICTED BY IDOCK:   -4.36 KCAL/MOL
REMARK 923 INTER-LIGAND FREE ENERGY PREDICTED BY IDOCK:   -4.19 KCAL/MOL
REMARK 924 INTRA-LIGAND FREE ENERGY PREDICTED BY IDOCK:   -0.17 KCAL/MOL
REMARK 927      BINDING AFFINITY PREDICTED BY RF-SCORE:    0.00 PKD
ROOT
HETATM    1  C   UNL     1     -10.990  14.132  68.564  1.00  0.00    -0.254 C  
HETATM    2  N   UNL     1     -11.014  13.192  67.443  1.00  0.00    -0.259 NA 
HETATM    3  C   UNL     1     -11.833  13.737  66.354  1.00  0.00    -0.404 C  
ENDROOT
BRANCH   2   4
HETATM    4  C   UNL     1      -9.654  12.876  66.946  1.00  0.00    -0.240 C  
HETATM    5  C   UNL     1      -8.799  11.919  67.840  1.00  0.00    -0.172 C  
HETATM    6  C   UNL     1      -9.463  10.545  67.951  1.00  0.00    -0.157 A  
HETATM    7  C   UNL     1      -7.272  11.879  67.401  1.00  0.00    -0.142 C  
HETATM    8  O   UNL     1      -7.152  11.457  66.038  1.00  0.00    -0.369 OA 
HETATM    9  C   UNL     1      -9.670   9.718  66.836  1.00  0.00    -0.243 A  
HETATM   10  C   UNL     1      -6.591  13.259  67.530  1.00  0.00    -0.153 C  
HETATM   11  C   UNL     1      -6.609  13.794  68.954  1.00  0.00    -0.104 C  
HETATM   12  C   UNL     1     -10.297   8.475  66.974  1.00  0.00    -0.379 A  
HETATM   13  H   UNL     1      -6.239  11.433  65.776  1.00  0.00     0.000 HD 
HETATM   14  C   UNL     1     -10.714   8.053  68.231  1.00  0.00    -0.023 A  
HETATM   15  C   UNL     1      -6.054  12.810  69.982  1.00  0.00    -0.112 C  
HETATM   16  C   UNL     1      -6.275  11.319  69.709  1.00  0.00    -0.124 C  
HETATM   17  O   UNL     1     -11.309   6.841  68.416  1.00  0.00    -0.538 OA 
HETATM   18  C   UNL     1     -10.533   8.859  69.346  1.00  0.00    -0.228 A  
HETATM   19  H   UNL     1     -11.594   6.552  69.276  1.00  0.00     0.000 HD 
HETATM   20  C   UNL     1      -6.411  10.917  68.243  1.00  0.00    -0.056 C  
HETATM   21  C   UNL     1      -9.913  10.100  69.207  1.00  0.00    -0.234 A  
ENDBRANCH   2   4
TORSDOF 1
ENDMDL
MODEL       75
REMARK 921   NORMALIZED FREE ENERGY PREDICTED BY IDOCK:   -3.95 KCAL/MOL
REMARK 922        TOTAL FREE ENERGY PREDICTED BY IDOCK:   -4.36 KCAL/MOL
REMARK 923 INTER-LIGAND FREE ENERGY PREDICTED BY IDOCK:   -4.18 KCAL/MOL
REMARK 924 INTRA-LIGAND FREE ENERGY PREDICTED BY IDOCK:   -0.18 KCAL/MOL
REMARK 927      BINDING AFFINITY PREDICTED BY RF-SCORE:    0.00 PKD
ROOT
HETATM    1  C   UNL     1      -9.041   9.605  62.560  1.00  0.00    -0.265 C  
HETATM    2  N   UNL     1      -8.605   9.362  63.935  1.00  0.00    -0.204 NA 
HETATM    3  C   UNL     1      -7.316   8.660  63.932  1.00  0.00    -0.100 C  
ENDROOT
BRANCH   2   4
HETATM    4  C   UNL     1      -8.498  10.615  64.720  1.00  0.00    -0.100 C  
HETATM    5  C   UNL     1      -9.553  10.807  65.858  1.00  0.00    -0.252 C  
HETATM    6  C   UNL     1      -9.410   9.713  66.919  1.00  0.00    -0.183 A  
HETATM    7  C   UNL     1      -9.562  12.287  66.436  1.00  0.00    -0.237 C  
HETATM    8  O   UNL     1      -8.270  12.634  66.949  1.00  0.00    -0.331 OA 
HETATM    9  C   UNL     1      -8.246   9.558  67.687  1.00  0.00    -0.121 A  
HETATM   10  C   UNL     1      -9.940  13.331  65.363  1.00  0.00    -0.205 C  
HETATM   11  C   UNL     1     -11.323  13.097  64.776  1.00  0.00    -0.352 C  
HETATM   12  C   UNL     1      -8.145   8.535  68.635  1.00  0.00    -0.121 A  
HETATM   13  H   UNL     1      -8.276  13.519  67.295  1.00  0.00     0.000 HD 
HETATM   14  C   UNL     1      -9.212   7.664  68.821  1.00  0.00    -0.142 A  
HETATM   15  C   UNL     1     -12.420  12.972  65.831  1.00  0.00    -0.323 C  
HETATM   16  C   UNL     1     -12.030  12.345  67.173  1.00  0.00    -0.248 C  
HETATM   17  O   UNL     1      -9.167   6.667  69.748  1.00  0.00    -0.146 OA 
HETATM   18  C   UNL     1     -10.368   7.787  68.063  1.00  0.00    -0.263 A  
HETATM   19  H   UNL     1      -9.896   6.072  69.875  1.00  0.00     0.000 HD 
HETATM   20  C   UNL     1     -10.568  12.497  67.585  1.00  0.00    -0.234 C  
HETATM   21  C   UNL     1     -10.466   8.806  67.115  1.00  0.00    -0.354 A  
ENDBRANCH   2   4
TORSDOF 1
ENDMDL
MODEL       76
REMARK 921   NORMALIZED FREE ENERGY PREDICTED BY IDOCK:   -3.95 KCAL/MOL
REMARK 922        TOTAL FREE ENERGY PREDICTED BY IDOCK:   -4.35 KCAL/MOL
REMARK 923 INTER-LIGAND FREE ENERGY PREDICTED BY IDOCK:   -4.19 KCAL/MOL
REMARK 924 INTRA-LIGAND FREE ENERGY PREDICTED BY IDOCK:   -0.16 KCAL/MOL
REMARK 927      BINDING AFFINITY PREDICTED BY RF-SCORE:    0.00 PKD
ROOT
HETATM    1  C   UNL     1     -10.763   8.988  68.697  1.00  0.00    -0.097 C  
HETATM    2  N   UNL     1     -10.797  10.432  68.928  1.00  0.00    -0.221 NA 
HETATM    3  C   UNL     1     -11.365  10.712  70.251  1.00  0.00    -0.319 C  
ENDROOT
BRANCH   2   4
HETATM    4  C   UNL     1      -9.455  11.051  68.810  1.00  0.00    -0.183 C  
HETATM    5  C   UNL     1      -8.693  10.794  67.468  1.00  0.00    -0.125 C  
HETATM    6  C   UNL     1      -9.462  11.389  66.286  1.00  0.00    -0.229 A  
HETATM    7  C   UNL     1      -7.166  11.225  67.544  1.00  0.00    -0.100 C  
HETATM    8  O   UNL     1      -7.051  12.614  67.873  1.00  0.00    -0.088 OA 
HETATM    9  C   UNL     1      -9.710  12.765  66.167  1.00  0.00    -0.246 A  
HETATM   10  C   UNL     1      -6.384  10.421  68.606  1.00  0.00    -0.051 C  
HETATM   11  C   UNL     1      -6.389   8.925  68.334  1.00  0.00    -0.055 C  
HETATM   12  C   UNL     1     -10.433  13.270  65.081  1.00  0.00    -0.346 A  
HETATM   13  H   UNL     1      -6.138  12.871  67.918  1.00  0.00     0.000 HD 
HETATM   14  C   UNL     1     -10.905  12.399  64.107  1.00  0.00    -0.372 A  
HETATM   15  C   UNL     1      -5.932   8.560  66.923  1.00  0.00    -0.053 C  
HETATM   16  C   UNL     1      -6.260   9.554  65.805  1.00  0.00    -0.064 C  
HETATM   17  O   UNL     1     -11.594  12.849  63.021  1.00  0.00    -0.804 OA 
HETATM   18  C   UNL     1     -10.686  11.033  64.209  1.00  0.00    -0.348 A  
HETATM   19  H   UNL     1     -11.917  12.253  62.354  1.00  0.00     0.000 HD 
HETATM   20  C   UNL     1      -6.397  11.015  66.224  1.00  0.00    -0.119 C  
HETATM   21  C   UNL     1      -9.969  10.530  65.295  1.00  0.00    -0.364 A  
ENDBRANCH   2   4
TORSDOF 1
ENDMDL
MODEL       77
REMARK 921   NORMALIZED FREE ENERGY PREDICTED BY IDOCK:   -3.93 KCAL/MOL
REMARK 922        TOTAL FREE ENERGY PREDICTED BY IDOCK:   -4.34 KCAL/MOL
REMARK 923 INTER-LIGAND FREE ENERGY PREDICTED BY IDOCK:   -4.16 KCAL/MOL
REMARK 924 INTRA-LIGAND FREE ENERGY PREDICTED BY IDOCK:   -0.18 KCAL/MOL
REMARK 927      BINDING AFFINITY PREDICTED BY RF-SCORE:    0.00 PKD
ROOT
HETATM    1  C   UNL     1     -11.143   4.227  73.716  1.00  0.00    -0.234 C  
HETATM    2  N   UNL     1     -10.050   4.252  72.744  1.00  0.00    -0.153 NA 
HETATM    3  C   UNL     1      -9.801   2.896  72.241  1.00  0.00    -0.164 C  
ENDROOT
BRANCH   2   4
HETATM    4  C   UNL     1     -10.324   5.171  71.614  1.00  0.00    -0.207 C  
HETATM    5  C   UNL     1     -10.511   6.679  71.983  1.00  0.00    -0.227 C  
HETATM    6  C   UNL     1      -9.231   7.249  72.600  1.00  0.00    -0.172 A  
HETATM    7  C   UNL     1     -11.096   7.533  70.777  1.00  0.00    -0.265 C  
HETATM    8  O   UNL     1     -10.235   7.446  69.635  1.00  0.00    -0.199 OA 
HETATM    9  C   UNL     1      -8.021   7.318  71.891  1.00  0.00    -0.091 A  
HETATM   10  C   UNL     1     -12.499   7.050  70.348  1.00  0.00     0.027 C  
HETATM   11  C   UNL     1     -13.522   7.144  71.469  1.00  0.00    -0.411 C  
HETATM   12  C   UNL     1      -6.867   7.829  72.495  1.00  0.00    -0.070 A  
HETATM   13  H   UNL     1     -10.585   7.957  68.915  1.00  0.00     0.000 HD 
HETATM   14  C   UNL     1      -6.921   8.277  73.809  1.00  0.00    -0.128 A  
HETATM   15  C   UNL     1     -13.591   8.525  72.118  1.00  0.00    -0.402 C  
HETATM   16  C   UNL     1     -12.290   9.329  72.186  1.00  0.00    -0.398 C  
HETATM   17  O   UNL     1      -5.828   8.802  74.430  1.00  0.00    -0.117 OA 
HETATM   18  C   UNL     1      -8.101   8.205  74.535  1.00  0.00    -0.265 A  
HETATM   19  H   UNL     1      -5.865   9.109  75.328  1.00  0.00     0.000 HD 
HETATM   20  C   UNL     1     -11.259   9.031  71.100  1.00  0.00    -0.375 C  
HETATM   21  C   UNL     1      -9.251   7.692  73.934  1.00  0.00    -0.303 A  
ENDBRANCH   2   4
TORSDOF 1
ENDMDL
MODEL       78
REMARK 921   NORMALIZED FREE ENERGY PREDICTED BY IDOCK:   -3.87 KCAL/MOL
REMARK 922        TOTAL FREE ENERGY PREDICTED BY IDOCK:   -4.27 KCAL/MOL
REMARK 923 INTER-LIGAND FREE ENERGY PREDICTED BY IDOCK:   -4.26 KCAL/MOL
REMARK 924 INTRA-LIGAND FREE ENERGY PREDICTED BY IDOCK:   -0.01 KCAL/MOL
REMARK 927      BINDING AFFINITY PREDICTED BY RF-SCORE:    0.00 PKD
ROOT
HETATM    1  C   UNL     1     -11.127  12.325  67.594  1.00  0.00    -0.268 C  
HETATM    2  N   UNL     1     -11.031  11.218  68.546  1.00  0.00    -0.202 NA 
HETATM    3  C   UNL     1     -12.231  11.183  69.391  1.00  0.00    -0.259 C  
ENDROOT
BRANCH   2   4
HETATM    4  C   UNL     1     -10.847   9.912  67.871  1.00  0.00    -0.258 C  
HETATM    5  C   UNL     1      -9.753   8.972  68.476  1.00  0.00    -0.171 C  
HETATM    6  C   UNL     1     -10.109   8.580  69.912  1.00  0.00    -0.195 A  
HETATM    7  C   UNL     1      -9.411   7.745  67.525  1.00  0.00    -0.139 C  
HETATM    8  O   UNL     1     -10.585   6.968  67.265  1.00  0.00    -0.251 OA 
HETATM    9  C   UNL     1     -11.264   7.847  70.227  1.00  0.00    -0.206 A  
HETATM   10  C   UNL     1      -8.836   8.203  66.167  1.00  0.00    -0.194 C  
HETATM   11  C   UNL     1      -7.549   9.000  66.310  1.00  0.00    -0.092 C  
HETATM   12  C   UNL     1     -11.566   7.523  71.554  1.00  0.00    -0.301 A  
HETATM   13  H   UNL     1     -10.380   6.235  66.697  1.00  0.00     0.000 HD 
HETATM   14  C   UNL     1     -10.710   7.928  72.571  1.00  0.00    -0.328 A  
HETATM   15  C   UNL     1      -6.484   8.293  67.147  1.00  0.00    -0.058 C  
HETATM   16  C   UNL     1      -6.975   7.399  68.289  1.00  0.00    -0.079 C  
HETATM   17  O   UNL     1     -10.953   7.617  73.875  1.00  0.00    -0.463 OA 
HETATM   18  C   UNL     1      -9.570   8.667  72.287  1.00  0.00    -0.348 A  
HETATM   19  H   UNL     1     -10.367   7.894  74.570  1.00  0.00     0.000 HD 
HETATM   20  C   UNL     1      -8.360   6.782  68.111  1.00  0.00    -0.118 C  
HETATM   21  C   UNL     1      -9.272   8.993  70.964  1.00  0.00    -0.331 A  
ENDBRANCH   2   4
TORSDOF 1
ENDMDL
MODEL       79
REMARK 921   NORMALIZED FREE ENERGY PREDICTED BY IDOCK:   -3.86 KCAL/MOL
REMARK 922        TOTAL FREE ENERGY PREDICTED BY IDOCK:   -4.26 KCAL/MOL
REMARK 923 INTER-LIGAND FREE ENERGY PREDICTED BY IDOCK:   -4.09 KCAL/MOL
REMARK 924 INTRA-LIGAND FREE ENERGY PREDICTED BY IDOCK:   -0.16 KCAL/MOL
REMARK 927      BINDING AFFINITY PREDICTED BY RF-SCORE:    0.00 PKD
ROOT
HETATM    1  C   UNL     1      -5.935   7.086  67.607  1.00  0.00    -0.028 C  
HETATM    2  N   UNL     1      -6.927   7.726  66.743  1.00  0.00    -0.071 NA 
HETATM    3  C   UNL     1      -6.381   7.887  65.391  1.00  0.00    -0.041 C  
ENDROOT
BRANCH   2   4
HETATM    4  C   UNL     1      -8.199   6.967  66.690  1.00  0.00    -0.115 C  
HETATM    5  C   UNL     1      -9.200   7.216  67.865  1.00  0.00    -0.129 C  
HETATM    6  C   UNL     1      -9.661   8.676  67.884  1.00  0.00    -0.173 A  
HETATM    7  C   UNL     1     -10.381   6.153  67.895  1.00  0.00    -0.203 C  
HETATM    8  O   UNL     1     -11.110   6.177  66.663  1.00  0.00    -0.675 OA 
HETATM    9  C   UNL     1     -10.380   9.250  66.824  1.00  0.00    -0.296 A  
HETATM   10  C   UNL     1      -9.864   4.713  68.111  1.00  0.00    -0.170 C  
HETATM   11  C   UNL     1      -9.111   4.548  69.421  1.00  0.00    -0.167 C  
HETATM   12  C   UNL     1     -10.768  10.593  66.868  1.00  0.00    -0.297 A  
HETATM   13  H   UNL     1     -11.816   5.541  66.681  1.00  0.00     0.000 HD 
HETATM   14  C   UNL     1     -10.443  11.365  67.977  1.00  0.00    -0.188 A  
HETATM   15  C   UNL     1      -9.892   5.039  70.639  1.00  0.00    -0.282 C  
HETATM   16  C   UNL     1     -10.835   6.227  70.430  1.00  0.00    -0.360 C  
HETATM   17  O   UNL     1     -10.820  12.671  68.074  1.00  0.00    -0.212 OA 
HETATM   18  C   UNL     1      -9.721  10.824  69.031  1.00  0.00    -0.201 A  
HETATM   19  H   UNL     1     -10.598  13.198  68.832  1.00  0.00     0.000 HD 
HETATM   20  C   UNL     1     -11.403   6.394  69.023  1.00  0.00    -0.332 C  
HETATM   21  C   UNL     1      -9.330   9.486  68.984  1.00  0.00    -0.155 A  
ENDBRANCH   2   4
TORSDOF 1
ENDMDL
MODEL       80
REMARK 921   NORMALIZED FREE ENERGY PREDICTED BY IDOCK:   -3.77 KCAL/MOL
REMARK 922        TOTAL FREE ENERGY PREDICTED BY IDOCK:   -4.17 KCAL/MOL
REMARK 923 INTER-LIGAND FREE ENERGY PREDICTED BY IDOCK:   -4.00 KCAL/MOL
REMARK 924 INTRA-LIGAND FREE ENERGY PREDICTED BY IDOCK:   -0.17 KCAL/MOL
REMARK 927      BINDING AFFINITY PREDICTED BY RF-SCORE:    0.00 PKD
ROOT
HETATM    1  C   UNL     1      -6.141   8.426  69.175  1.00  0.00    -0.042 C  
HETATM    2  N   UNL     1      -7.551   8.457  69.561  1.00  0.00    -0.088 NA 
HETATM    3  C   UNL     1      -7.863   9.738  70.206  1.00  0.00    -0.171 C  
ENDROOT
BRANCH   2   4
HETATM    4  C   UNL     1      -8.454   8.236  68.407  1.00  0.00    -0.129 C  
HETATM    5  C   UNL     1      -9.132   6.829  68.321  1.00  0.00    -0.124 C  
HETATM    6  C   UNL     1     -10.039   6.589  69.530  1.00  0.00    -0.203 A  
HETATM    7  C   UNL     1      -9.827   6.573  66.915  1.00  0.00    -0.164 C  
HETATM    8  O   UNL     1     -10.820   7.572  66.656  1.00  0.00    -0.446 OA 
HETATM    9  C   UNL     1     -11.163   7.386  69.795  1.00  0.00    -0.110 A  
HETATM   10  C   UNL     1      -8.814   6.600  65.749  1.00  0.00    -0.093 C  
HETATM   11  C   UNL     1      -7.732   5.540  65.885  1.00  0.00    -0.091 C  
HETATM   12  C   UNL     1     -11.959   7.149  70.921  1.00  0.00    -0.375 A  
HETATM   13  H   UNL     1     -11.235   7.419  65.816  1.00  0.00     0.000 HD 
HETATM   14  C   UNL     1     -11.635   6.108  71.783  1.00  0.00    -0.275 A  
HETATM   15  C   UNL     1      -8.281   4.132  66.104  1.00  0.00    -0.105 C  
HETATM   16  C   UNL     1      -9.591   4.008  66.886  1.00  0.00    -0.232 C  
HETATM   17  O   UNL     1     -12.393   5.826  72.879  1.00  0.00    -0.519 OA 
HETATM   18  C   UNL     1     -10.520   5.316  71.550  1.00  0.00    -0.279 A  
HETATM   19  H   UNL     1     -12.172   5.115  73.468  1.00  0.00     0.000 HD 
HETATM   20  C   UNL     1     -10.533   5.206  66.813  1.00  0.00    -0.306 C  
HETATM   21  C   UNL     1      -9.724   5.556  70.430  1.00  0.00    -0.242 A  
ENDBRANCH   2   4
TORSDOF 1
ENDMDL
MODEL       81
REMARK 921   NORMALIZED FREE ENERGY PREDICTED BY IDOCK:   -3.76 KCAL/MOL
REMARK 922        TOTAL FREE ENERGY PREDICTED BY IDOCK:   -4.16 KCAL/MOL
REMARK 923 INTER-LIGAND FREE ENERGY PREDICTED BY IDOCK:   -4.01 KCAL/MOL
REMARK 924 INTRA-LIGAND FREE ENERGY PREDICTED BY IDOCK:   -0.15 KCAL/MOL
REMARK 927      BINDING AFFINITY PREDICTED BY RF-SCORE:    0.00 PKD
ROOT
HETATM    1  C   UNL     1      -8.960   8.580  71.936  1.00  0.00    -0.231 C  
HETATM    2  N   UNL     1      -9.426   7.938  70.707  1.00  0.00    -0.158 NA 
HETATM    3  C   UNL     1     -10.316   6.819  71.036  1.00  0.00    -0.206 C  
ENDROOT
BRANCH   2   4
HETATM    4  C   UNL     1     -10.117   8.889  69.804  1.00  0.00    -0.199 C  
HETATM    5  C   UNL     1      -9.529   9.021  68.361  1.00  0.00    -0.154 C  
HETATM    6  C   UNL     1      -9.626   7.689  67.613  1.00  0.00    -0.175 A  
HETATM    7  C   UNL     1     -10.125  10.264  67.572  1.00  0.00    -0.198 C  
HETATM    8  O   UNL     1     -11.550  10.161  67.475  1.00  0.00    -0.503 OA 
HETATM    9  C   UNL     1     -10.856   7.079  67.321  1.00  0.00    -0.403 A  
HETATM   10  C   UNL     1      -9.794  11.606  68.261  1.00  0.00    -0.199 C  
HETATM   11  C   UNL     1      -8.298  11.855  68.376  1.00  0.00    -0.157 C  
HETATM   12  C   UNL     1     -10.905   5.852  66.652  1.00  0.00    -0.292 A  
HETATM   13  H   UNL     1     -11.906  10.905  67.003  1.00  0.00     0.000 HD 
HETATM   14  C   UNL     1      -9.722   5.233  66.266  1.00  0.00    -0.169 A  
HETATM   15  C   UNL     1      -7.553  11.721  67.049  1.00  0.00    -0.147 C  
HETATM   16  C   UNL     1      -8.095  10.698  66.046  1.00  0.00    -0.159 C  
HETATM   17  O   UNL     1      -9.723   4.049  65.593  1.00  0.00    -0.176 OA 
HETATM   18  C   UNL     1      -8.494   5.809  66.556  1.00  0.00    -0.116 A  
HETATM   19  H   UNL     1      -8.914   3.625  65.329  1.00  0.00     0.000 HD 
HETATM   20  C   UNL     1      -9.589  10.399  66.132  1.00  0.00    -0.245 C  
HETATM   21  C   UNL     1      -8.445   7.030  67.228  1.00  0.00    -0.121 A  
ENDBRANCH   2   4
TORSDOF 1
ENDMDL
MODEL       82
REMARK 921   NORMALIZED FREE ENERGY PREDICTED BY IDOCK:   -3.76 KCAL/MOL
REMARK 922        TOTAL FREE ENERGY PREDICTED BY IDOCK:   -4.15 KCAL/MOL
REMARK 923 INTER-LIGAND FREE ENERGY PREDICTED BY IDOCK:   -4.76 KCAL/MOL
REMARK 924 INTRA-LIGAND FREE ENERGY PREDICTED BY IDOCK:    0.61 KCAL/MOL
REMARK 927      BINDING AFFINITY PREDICTED BY RF-SCORE:    0.00 PKD
ROOT
HETATM    1  C   UNL     1     -10.067  18.523  68.510  1.00  0.00    -0.378 C  
HETATM    2  N   UNL     1     -10.962  18.007  67.474  1.00  0.00    -0.221 NA 
HETATM    3  C   UNL     1     -10.318  18.116  66.160  1.00  0.00    -0.385 C  
ENDROOT
BRANCH   2   4
HETATM    4  C   UNL     1     -11.365  16.604  67.727  1.00  0.00     0.058 C  
HETATM    5  C   UNL     1     -10.453  15.500  67.098  1.00  0.00    -0.286 C  
HETATM    6  C   UNL     1      -9.038  15.572  67.677  1.00  0.00    -0.183 A  
HETATM    7  C   UNL     1     -11.115  14.057  67.155  1.00  0.00    -0.303 C  
HETATM    8  O   UNL     1     -11.405  13.690  68.509  1.00  0.00    -0.254 OA 
HETATM    9  C   UNL     1      -8.772  15.361  69.039  1.00  0.00    -0.231 A  
HETATM   10  C   UNL     1     -12.435  13.988  66.354  1.00  0.00    -0.395 C  
HETATM   11  C   UNL     1     -12.246  14.310  64.880  1.00  0.00    -0.449 C  
HETATM   12  C   UNL     1      -7.467  15.453  69.535  1.00  0.00    -0.211 A  
HETATM   13  H   UNL     1     -11.801  12.827  68.542  1.00  0.00     0.000 HD 
HETATM   14  C   UNL     1      -6.423  15.751  68.668  1.00  0.00    -0.111 A  
HETATM   15  C   UNL     1     -11.153  13.480  64.210  1.00  0.00    -0.371 C  
HETATM   16  C   UNL     1      -9.956  13.074  65.075  1.00  0.00    -0.158 C  
HETATM   17  O   UNL     1      -5.134  15.828  69.103  1.00  0.00    -0.100 OA 
HETATM   18  C   UNL     1      -6.662  15.977  67.320  1.00  0.00    -0.232 A  
HETATM   19  H   UNL     1      -4.420  16.031  68.510  1.00  0.00     0.000 HD 
HETATM   20  C   UNL     1     -10.224  12.943  66.572  1.00  0.00    -0.264 C  
HETATM   21  C   UNL     1      -7.964  15.891  66.827  1.00  0.00    -0.287 A  
ENDBRANCH   2   4
TORSDOF 1
ENDMDL
MODEL       83
REMARK 921   NORMALIZED FREE ENERGY PREDICTED BY IDOCK:   -3.76 KCAL/MOL
REMARK 922        TOTAL FREE ENERGY PREDICTED BY IDOCK:   -4.15 KCAL/MOL
REMARK 923 INTER-LIGAND FREE ENERGY PREDICTED BY IDOCK:   -4.00 KCAL/MOL
REMARK 924 INTRA-LIGAND FREE ENERGY PREDICTED BY IDOCK:   -0.15 KCAL/MOL
REMARK 927      BINDING AFFINITY PREDICTED BY RF-SCORE:    0.00 PKD
ROOT
HETATM    1  C   UNL     1     -10.863  12.379  69.014  1.00  0.00    -0.148 C  
HETATM    2  N   UNL     1     -11.217  11.295  68.098  1.00  0.00    -0.261 NA 
HETATM    3  C   UNL     1     -11.782  11.851  66.863  1.00  0.00    -0.212 C  
ENDROOT
BRANCH   2   4
HETATM    4  C   UNL     1     -10.058  10.427  67.781  1.00  0.00    -0.181 C  
HETATM    5  C   UNL     1      -9.284   9.837  69.005  1.00  0.00    -0.165 C  
HETATM    6  C   UNL     1     -10.193   8.926  69.833  1.00  0.00    -0.209 A  
HETATM    7  C   UNL     1      -7.897   9.183  68.590  1.00  0.00    -0.097 C  
HETATM    8  O   UNL     1      -8.101   8.137  67.633  1.00  0.00    -0.123 OA 
HETATM    9  C   UNL     1     -10.756   7.751  69.310  1.00  0.00    -0.156 A  
HETATM   10  C   UNL     1      -6.929  10.212  67.965  1.00  0.00    -0.082 C  
HETATM   11  C   UNL     1      -6.593  11.354  68.911  1.00  0.00    -0.071 C  
HETATM   12  C   UNL     1     -11.597   6.951  70.091  1.00  0.00    -0.340 A  
HETATM   13  H   UNL     1      -7.272   7.745  67.385  1.00  0.00     0.000 HD 
HETATM   14  C   UNL     1     -11.874   7.323  71.401  1.00  0.00    -0.305 A  
HETATM   15  C   UNL     1      -6.091  10.887  70.276  1.00  0.00    -0.142 C  
HETATM   16  C   UNL     1      -6.662   9.573  70.817  1.00  0.00    -0.105 C  
HETATM   17  O   UNL     1     -12.669   6.564  72.206  1.00  0.00    -0.552 OA 
HETATM   18  C   UNL     1     -11.341   8.487  71.936  1.00  0.00    -0.399 A  
HETATM   19  H   UNL     1     -12.858   6.817  73.102  1.00  0.00     0.000 HD 
HETATM   20  C   UNL     1      -7.126   8.562  69.772  1.00  0.00    -0.051 C  
HETATM   21  C   UNL     1     -10.506   9.286  71.155  1.00  0.00    -0.401 A  
ENDBRANCH   2   4
TORSDOF 1
ENDMDL
MODEL       84
REMARK 921   NORMALIZED FREE ENERGY PREDICTED BY IDOCK:   -3.75 KCAL/MOL
REMARK 922        TOTAL FREE ENERGY PREDICTED BY IDOCK:   -4.14 KCAL/MOL
REMARK 923 INTER-LIGAND FREE ENERGY PREDICTED BY IDOCK:   -4.32 KCAL/MOL
REMARK 924 INTRA-LIGAND FREE ENERGY PREDICTED BY IDOCK:    0.18 KCAL/MOL
REMARK 927      BINDING AFFINITY PREDICTED BY RF-SCORE:    0.00 PKD
ROOT
HETATM    1  C   UNL     1     -13.026  12.359  71.475  1.00  0.00    -0.285 C  
HETATM    2  N   UNL     1     -12.057  11.539  70.747  1.00  0.00    -0.354 NA 
HETATM    3  C   UNL     1     -12.468  10.131  70.784  1.00  0.00    -0.326 C  
ENDROOT
BRANCH   2   4
HETATM    4  C   UNL     1     -11.889  11.983  69.343  1.00  0.00    -0.324 C  
HETATM    5  C   UNL     1     -10.444  11.871  68.753  1.00  0.00    -0.207 C  
HETATM    6  C   UNL     1      -9.984  10.412  68.720  1.00  0.00    -0.196 A  
HETATM    7  C   UNL     1     -10.290  12.642  67.372  1.00  0.00    -0.220 C  
HETATM    8  O   UNL     1     -11.217  12.132  66.406  1.00  0.00    -0.298 OA 
HETATM    9  C   UNL     1     -10.638   9.435  67.953  1.00  0.00    -0.293 A  
HETATM   10  C   UNL     1     -10.545  14.158  67.517  1.00  0.00    -0.257 C  
HETATM   11  C   UNL     1      -9.581  14.826  68.486  1.00  0.00    -0.218 C  
HETATM   12  C   UNL     1     -10.199   8.107  67.962  1.00  0.00    -0.263 A  
HETATM   13  H   UNL     1     -11.124  12.593  65.580  1.00  0.00     0.000 HD 
HETATM   14  C   UNL     1      -9.100   7.752  68.735  1.00  0.00    -0.140 A  
HETATM   15  C   UNL     1      -8.112  14.544  68.177  1.00  0.00    -0.137 C  
HETATM   16  C   UNL     1      -7.778  13.179  67.567  1.00  0.00    -0.168 C  
HETATM   17  O   UNL     1      -8.625   6.476  68.758  1.00  0.00    -0.121 OA 
HETATM   18  C   UNL     1      -8.446   8.697  69.513  1.00  0.00    -0.129 A  
HETATM   19  H   UNL     1      -7.873   6.234  69.286  1.00  0.00     0.000 HD 
HETATM   20  C   UNL     1      -8.885  12.520  66.749  1.00  0.00    -0.177 C  
HETATM   21  C   UNL     1      -8.887  10.020  69.507  1.00  0.00    -0.209 A  
ENDBRANCH   2   4
TORSDOF 1
ENDMDL
MODEL       85
REMARK 921   NORMALIZED FREE ENERGY PREDICTED BY IDOCK:   -3.73 KCAL/MOL
REMARK 922        TOTAL FREE ENERGY PREDICTED BY IDOCK:   -4.12 KCAL/MOL
REMARK 923 INTER-LIGAND FREE ENERGY PREDICTED BY IDOCK:   -3.95 KCAL/MOL
REMARK 924 INTRA-LIGAND FREE ENERGY PREDICTED BY IDOCK:   -0.17 KCAL/MOL
REMARK 927      BINDING AFFINITY PREDICTED BY RF-SCORE:    0.00 PKD
ROOT
HETATM    1  C   UNL     1      -7.468  10.060  69.009  1.00  0.00    -0.087 C  
HETATM    2  N   UNL     1      -6.695   9.695  67.823  1.00  0.00    -0.066 NA 
HETATM    3  C   UNL     1      -5.262   9.871  68.089  1.00  0.00    -0.036 C  
ENDROOT
BRANCH   2   4
HETATM    4  C   UNL     1      -6.963   8.305  67.383  1.00  0.00    -0.075 C  
HETATM    5  C   UNL     1      -8.456   7.955  67.078  1.00  0.00    -0.124 C  
HETATM    6  C   UNL     1      -8.984   8.800  65.917  1.00  0.00    -0.240 A  
HETATM    7  C   UNL     1      -8.693   6.392  66.916  1.00  0.00    -0.115 C  
HETATM    8  O   UNL     1      -7.878   5.867  65.862  1.00  0.00    -0.099 OA 
HETATM    9  C   UNL     1      -8.445   8.721  64.624  1.00  0.00    -0.169 A  
HETATM   10  C   UNL     1      -8.357   5.613  68.206  1.00  0.00    -0.102 C  
HETATM   11  C   UNL     1      -9.201   6.049  69.394  1.00  0.00    -0.140 C  
HETATM   12  C   UNL     1      -8.942   9.524  63.592  1.00  0.00    -0.207 A  
HETATM   13  H   UNL     1      -8.020   4.932  65.765  1.00  0.00     0.000 HD 
HETATM   14  C   UNL     1      -9.986  10.405  63.849  1.00  0.00    -0.200 A  
HETATM   15  C   UNL     1     -10.703   6.027  69.115  1.00  0.00    -0.399 C  
HETATM   16  C   UNL     1     -11.151   6.344  67.686  1.00  0.00    -0.388 C  
HETATM   17  O   UNL     1     -10.516  11.189  62.870  1.00  0.00    -0.712 OA 
HETATM   18  C   UNL     1     -10.526  10.511  65.123  1.00  0.00    -0.225 A  
HETATM   19  H   UNL     1     -11.230  11.792  63.046  1.00  0.00     0.000 HD 
HETATM   20  C   UNL     1     -10.151   6.018  66.580  1.00  0.00    -0.226 C  
HETATM   21  C   UNL     1     -10.026   9.715  66.153  1.00  0.00    -0.346 A  
ENDBRANCH   2   4
TORSDOF 1
ENDMDL
MODEL       86
REMARK 921   NORMALIZED FREE ENERGY PREDICTED BY IDOCK:   -3.73 KCAL/MOL
REMARK 922        TOTAL FREE ENERGY PREDICTED BY IDOCK:   -4.12 KCAL/MOL
REMARK 923 INTER-LIGAND FREE ENERGY PREDICTED BY IDOCK:   -3.94 KCAL/MOL
REMARK 924 INTRA-LIGAND FREE ENERGY PREDICTED BY IDOCK:   -0.18 KCAL/MOL
REMARK 927      BINDING AFFINITY PREDICTED BY RF-SCORE:    0.00 PKD
ROOT
HETATM    1  C   UNL     1      -6.538   6.992  71.328  1.00  0.00    -0.045 C  
HETATM    2  N   UNL     1      -6.705   5.617  71.800  1.00  0.00    -0.056 NA 
HETATM    3  C   UNL     1      -5.539   5.219  72.598  1.00  0.00    -0.018 C  
ENDROOT
BRANCH   2   4
HETATM    4  C   UNL     1      -7.946   5.441  72.591  1.00  0.00    -0.103 C  
HETATM    5  C   UNL     1      -9.289   5.544  71.798  1.00  0.00    -0.162 C  
HETATM    6  C   UNL     1      -9.382   4.438  70.744  1.00  0.00    -0.224 A  
HETATM    7  C   UNL     1     -10.554   5.651  72.754  1.00  0.00    -0.228 C  
HETATM    8  O   UNL     1     -10.624   4.515  73.623  1.00  0.00    -0.194 OA 
HETATM    9  C   UNL     1      -9.402   3.076  71.085  1.00  0.00    -0.212 A  
HETATM   10  C   UNL     1     -10.514   6.918  73.636  1.00  0.00    -0.400 C  
HETATM   11  C   UNL     1     -10.489   8.202  72.820  1.00  0.00    -0.385 C  
HETATM   12  C   UNL     1      -9.470   2.092  70.093  1.00  0.00    -0.136 A  
HETATM   13  H   UNL     1     -11.381   4.579  74.194  1.00  0.00     0.000 HD 
HETATM   14  C   UNL     1      -9.523   2.468  68.756  1.00  0.00    -0.113 A  
HETATM   15  C   UNL     1     -11.609   8.288  71.785  1.00  0.00    -0.356 C  
HETATM   16  C   UNL     1     -12.075   6.975  71.151  1.00  0.00    -0.412 C  
HETATM   17  O   UNL     1      -9.611   1.545  67.758  1.00  0.00    -0.352 OA 
HETATM   18  C   UNL     1      -9.489   3.807  68.394  1.00  0.00    -0.211 A  
HETATM   19  H   UNL     1      -9.648   1.802  66.844  1.00  0.00     0.000 HD 
HETATM   20  C   UNL     1     -11.897   5.719  71.999  1.00  0.00    -0.109 C  
HETATM   21  C   UNL     1      -9.417   4.787  69.383  1.00  0.00    -0.229 A  
ENDBRANCH   2   4
TORSDOF 1
ENDMDL
MODEL       87
REMARK 921   NORMALIZED FREE ENERGY PREDICTED BY IDOCK:   -3.71 KCAL/MOL
REMARK 922        TOTAL FREE ENERGY PREDICTED BY IDOCK:   -4.10 KCAL/MOL
REMARK 923 INTER-LIGAND FREE ENERGY PREDICTED BY IDOCK:   -3.92 KCAL/MOL
REMARK 924 INTRA-LIGAND FREE ENERGY PREDICTED BY IDOCK:   -0.18 KCAL/MOL
REMARK 927      BINDING AFFINITY PREDICTED BY RF-SCORE:    0.00 PKD
ROOT
HETATM    1  C   UNL     1     -10.352   6.746  66.877  1.00  0.00    -0.254 C  
HETATM    2  N   UNL     1      -9.486   6.172  67.908  1.00  0.00    -0.116 NA 
HETATM    3  C   UNL     1      -8.305   5.564  67.284  1.00  0.00    -0.104 C  
ENDROOT
BRANCH   2   4
HETATM    4  C   UNL     1      -9.068   7.178  68.913  1.00  0.00    -0.131 C  
HETATM    5  C   UNL     1      -9.655   6.999  70.352  1.00  0.00    -0.169 C  
HETATM    6  C   UNL     1      -9.193   5.675  70.964  1.00  0.00    -0.173 A  
HETATM    7  C   UNL     1      -9.409   8.271  71.272  1.00  0.00    -0.173 C  
HETATM    8  O   UNL     1      -8.007   8.548  71.383  1.00  0.00    -0.113 OA 
HETATM    9  C   UNL     1      -7.841   5.393  71.214  1.00  0.00    -0.109 A  
HETATM   10  C   UNL     1     -10.097   9.537  70.715  1.00  0.00    -0.352 C  
HETATM   11  C   UNL     1     -11.606   9.383  70.600  1.00  0.00    -0.330 C  
HETATM   12  C   UNL     1      -7.455   4.164  71.758  1.00  0.00    -0.064 A  
HETATM   13  H   UNL     1      -7.860   9.308  71.933  1.00  0.00     0.000 HD 
HETATM   14  C   UNL     1      -8.423   3.213  72.059  1.00  0.00    -0.073 A  
HETATM   15  C   UNL     1     -12.272   8.919  71.893  1.00  0.00    -0.445 C  
HETATM   16  C   UNL     1     -11.464   7.984  72.798  1.00  0.00    -0.420 C  
HETATM   17  O   UNL     1      -8.096   2.011  72.611  1.00  0.00    -0.052 OA 
HETATM   18  C   UNL     1      -9.765   3.462  71.808  1.00  0.00    -0.236 A  
HETATM   19  H   UNL     1      -8.757   1.361  72.817  1.00  0.00     0.000 HD 
HETATM   20  C   UNL     1      -9.946   8.110  72.708  1.00  0.00    -0.361 C  
HETATM   21  C   UNL     1     -10.148   4.686  71.261  1.00  0.00    -0.245 A  
ENDBRANCH   2   4
TORSDOF 1
ENDMDL
MODEL       88
REMARK 921   NORMALIZED FREE ENERGY PREDICTED BY IDOCK:   -3.69 KCAL/MOL
REMARK 922        TOTAL FREE ENERGY PREDICTED BY IDOCK:   -4.08 KCAL/MOL
REMARK 923 INTER-LIGAND FREE ENERGY PREDICTED BY IDOCK:   -3.90 KCAL/MOL
REMARK 924 INTRA-LIGAND FREE ENERGY PREDICTED BY IDOCK:   -0.18 KCAL/MOL
REMARK 927      BINDING AFFINITY PREDICTED BY RF-SCORE:    0.00 PKD
ROOT
HETATM    1  C   UNL     1      -9.737  12.288  67.557  1.00  0.00    -0.190 C  
HETATM    2  N   UNL     1     -10.637  11.447  66.769  1.00  0.00    -0.244 NA 
HETATM    3  C   UNL     1     -11.602  12.287  66.050  1.00  0.00    -0.393 C  
ENDROOT
BRANCH   2   4
HETATM    4  C   UNL     1      -9.905  10.582  65.813  1.00  0.00    -0.237 C  
HETATM    5  C   UNL     1      -8.866   9.593  66.435  1.00  0.00    -0.168 C  
HETATM    6  C   UNL     1      -9.560   8.589  67.359  1.00  0.00    -0.204 A  
HETATM    7  C   UNL     1      -7.921   8.935  65.341  1.00  0.00    -0.110 C  
HETATM    8  O   UNL     1      -8.697   8.227  64.366  1.00  0.00    -0.403 OA 
HETATM    9  C   UNL     1     -10.519   7.676  66.892  1.00  0.00    -0.388 A  
HETATM   10  C   UNL     1      -7.071   9.987  64.595  1.00  0.00    -0.140 C  
HETATM   11  C   UNL     1      -6.160  10.774  65.524  1.00  0.00    -0.062 C  
HETATM   12  C   UNL     1     -11.146   6.786  67.770  1.00  0.00    -0.285 A  
HETATM   13  H   UNL     1      -8.131   7.834  63.712  1.00  0.00     0.000 HD 
HETATM   14  C   UNL     1     -10.812   6.802  69.119  1.00  0.00    -0.258 A  
HETATM   15  C   UNL     1      -5.285   9.891  66.412  1.00  0.00    -0.043 C  
HETATM   16  C   UNL     1      -5.873   8.548  66.855  1.00  0.00    -0.049 C  
HETATM   17  O   UNL     1     -11.380   5.939  70.006  1.00  0.00    -0.352 OA 
HETATM   18  C   UNL     1      -9.878   7.705  69.607  1.00  0.00    -0.181 A  
HETATM   19  H   UNL     1     -11.151   5.950  70.929  1.00  0.00     0.000 HD 
HETATM   20  C   UNL     1      -6.908   7.927  65.921  1.00  0.00    -0.057 C  
HETATM   21  C   UNL     1      -9.257   8.596  68.732  1.00  0.00    -0.142 A  
ENDBRANCH   2   4
TORSDOF 1
ENDMDL
MODEL       89
REMARK 921   NORMALIZED FREE ENERGY PREDICTED BY IDOCK:   -3.69 KCAL/MOL
REMARK 922        TOTAL FREE ENERGY PREDICTED BY IDOCK:   -4.07 KCAL/MOL
REMARK 923 INTER-LIGAND FREE ENERGY PREDICTED BY IDOCK:   -3.90 KCAL/MOL
REMARK 924 INTRA-LIGAND FREE ENERGY PREDICTED BY IDOCK:   -0.17 KCAL/MOL
REMARK 927      BINDING AFFINITY PREDICTED BY RF-SCORE:    0.00 PKD
ROOT
HETATM    1  C   UNL     1     -10.186   5.619  74.478  1.00  0.00    -0.268 C  
HETATM    2  N   UNL     1      -9.659   5.109  73.212  1.00  0.00    -0.140 NA 
HETATM    3  C   UNL     1      -9.498   3.652  73.292  1.00  0.00    -0.105 C  
ENDROOT
BRANCH   2   4
HETATM    4  C   UNL     1     -10.523   5.463  72.061  1.00  0.00    -0.221 C  
HETATM    5  C   UNL     1     -10.495   6.961  71.614  1.00  0.00    -0.224 C  
HETATM    6  C   UNL     1      -9.095   7.358  71.140  1.00  0.00    -0.148 A  
HETATM    7  C   UNL     1     -11.661   7.313  70.592  1.00  0.00    -0.290 C  
HETATM    8  O   UNL     1     -11.572   6.487  69.425  1.00  0.00    -0.619 OA 
HETATM    9  C   UNL     1      -8.479   6.760  70.030  1.00  0.00    -0.140 A  
HETATM   10  C   UNL     1     -13.061   7.108  71.211  1.00  0.00    -0.361 C  
HETATM   11  C   UNL     1     -13.295   7.976  72.437  1.00  0.00    -0.033 C  
HETATM   12  C   UNL     1      -7.191   7.136  69.637  1.00  0.00    -0.076 A  
HETATM   13  H   UNL     1     -12.269   6.698  68.815  1.00  0.00     0.000 HD 
HETATM   14  C   UNL     1      -6.515   8.118  70.352  1.00  0.00    -0.036 A  
HETATM   15  C   UNL     1     -13.012   9.458  72.198  1.00  0.00    -0.503 C  
HETATM   16  C   UNL     1     -11.900   9.804  71.203  1.00  0.00    -0.466 C  
HETATM   17  O   UNL     1      -5.268   8.533  69.993  1.00  0.00    -0.025 OA 
HETATM   18  C   UNL     1      -7.097   8.715  71.462  1.00  0.00    -0.098 A  
HETATM   19  H   UNL     1      -4.807   9.204  70.481  1.00  0.00     0.000 HD 
HETATM   20  C   UNL     1     -11.637   8.776  70.106  1.00  0.00     0.058 C  
HETATM   21  C   UNL     1      -8.380   8.335  71.855  1.00  0.00    -0.206 A  
ENDBRANCH   2   4
TORSDOF 1
ENDMDL
MODEL       90
REMARK 921   NORMALIZED FREE ENERGY PREDICTED BY IDOCK:   -3.66 KCAL/MOL
REMARK 922        TOTAL FREE ENERGY PREDICTED BY IDOCK:   -4.05 KCAL/MOL
REMARK 923 INTER-LIGAND FREE ENERGY PREDICTED BY IDOCK:   -4.25 KCAL/MOL
REMARK 924 INTRA-LIGAND FREE ENERGY PREDICTED BY IDOCK:    0.20 KCAL/MOL
REMARK 927      BINDING AFFINITY PREDICTED BY RF-SCORE:    0.00 PKD
ROOT
HETATM    1  C   UNL     1      -5.892  12.676  67.165  1.00  0.00     0.050 C  
HETATM    2  N   UNL     1      -7.025  13.541  67.494  1.00  0.00    -0.166 NA 
HETATM    3  C   UNL     1      -7.930  12.847  68.418  1.00  0.00    -0.137 C  
ENDROOT
BRANCH   2   4
HETATM    4  C   UNL     1      -6.594  14.832  68.080  1.00  0.00    -0.147 C  
HETATM    5  C   UNL     1      -7.459  16.081  67.707  1.00  0.00    -0.153 C  
HETATM    6  C   UNL     1      -8.891  15.921  68.222  1.00  0.00    -0.179 A  
HETATM    7  C   UNL     1      -6.761  17.449  68.117  1.00  0.00    -0.178 C  
HETATM    8  O   UNL     1      -6.501  17.478  69.525  1.00  0.00    -0.251 OA 
HETATM    9  C   UNL     1      -9.191  15.814  69.589  1.00  0.00    -0.144 A  
HETATM   10  C   UNL     1      -5.418  17.662  67.384  1.00  0.00    -0.146 C  
HETATM   11  C   UNL     1      -5.573  17.701  65.872  1.00  0.00    -0.184 C  
HETATM   12  C   UNL     1     -10.510  15.650  70.022  1.00  0.00    -0.333 A  
HETATM   13  H   UNL     1      -6.084  18.296  69.770  1.00  0.00     0.000 HD 
HETATM   14  C   UNL     1     -11.537  15.597  69.087  1.00  0.00    -0.383 A  
HETATM   15  C   UNL     1      -6.624  18.700  65.392  1.00  0.00    -0.270 C  
HETATM   16  C   UNL     1      -7.834  18.929  66.302  1.00  0.00    -0.299 C  
HETATM   17  O   UNL     1     -12.840  15.461  69.463  1.00  0.00    -0.548 OA 
HETATM   18  C   UNL     1     -11.265  15.686  67.729  1.00  0.00    -0.297 A  
HETATM   19  H   UNL     1     -13.541  15.425  68.823  1.00  0.00     0.000 HD 
HETATM   20  C   UNL     1      -7.607  18.697  67.793  1.00  0.00    -0.247 C  
HETATM   21  C   UNL     1      -9.948  15.845  67.298  1.00  0.00    -0.240 A  
ENDBRANCH   2   4
TORSDOF 1
ENDMDL
MODEL       91
REMARK 921   NORMALIZED FREE ENERGY PREDICTED BY IDOCK:   -3.57 KCAL/MOL
REMARK 922        TOTAL FREE ENERGY PREDICTED BY IDOCK:   -3.95 KCAL/MOL
REMARK 923 INTER-LIGAND FREE ENERGY PREDICTED BY IDOCK:   -3.78 KCAL/MOL
REMARK 924 INTRA-LIGAND FREE ENERGY PREDICTED BY IDOCK:   -0.16 KCAL/MOL
REMARK 927      BINDING AFFINITY PREDICTED BY RF-SCORE:    0.00 PKD
ROOT
HETATM    1  C   UNL     1      -9.558  13.481  66.634  1.00  0.00    -0.278 C  
HETATM    2  N   UNL     1     -10.264  12.456  67.404  1.00  0.00    -0.207 NA 
HETATM    3  C   UNL     1     -11.619  12.920  67.724  1.00  0.00    -0.343 C  
ENDROOT
BRANCH   2   4
HETATM    4  C   UNL     1     -10.326  11.160  66.688  1.00  0.00    -0.241 C  
HETATM    5  C   UNL     1      -9.076  10.232  66.832  1.00  0.00    -0.159 C  
HETATM    6  C   UNL     1      -8.873   9.820  68.293  1.00  0.00    -0.119 A  
HETATM    7  C   UNL     1      -9.094   9.022  65.803  1.00  0.00    -0.219 C  
HETATM    8  O   UNL     1     -10.273   8.228  65.982  1.00  0.00    -0.410 OA 
HETATM    9  C   UNL     1      -9.822   9.064  68.999  1.00  0.00    -0.178 A  
HETATM   10  C   UNL     1      -9.066   9.502  64.336  1.00  0.00    -0.234 C  
HETATM   11  C   UNL     1      -7.825  10.319  64.008  1.00  0.00    -0.114 C  
HETATM   12  C   UNL     1      -9.610   8.722  70.338  1.00  0.00    -0.210 A  
HETATM   13  H   UNL     1     -10.283   7.504  65.366  1.00  0.00     0.000 HD 
HETATM   14  C   UNL     1      -8.444   9.131  70.975  1.00  0.00    -0.165 A  
HETATM   15  C   UNL     1      -6.519   9.621  64.382  1.00  0.00    -0.102 C  
HETATM   16  C   UNL     1      -6.544   8.707  65.611  1.00  0.00    -0.060 C  
HETATM   17  O   UNL     1      -8.186   8.802  72.271  1.00  0.00    -0.360 OA 
HETATM   18  C   UNL     1      -7.498   9.891  70.302  1.00  0.00    -0.173 A  
HETATM   19  H   UNL     1      -7.388   9.081  72.707  1.00  0.00     0.000 HD 
HETATM   20  C   UNL     1      -7.890   8.069  65.946  1.00  0.00    -0.099 C  
HETATM   21  C   UNL     1      -7.712  10.236  68.968  1.00  0.00    -0.110 A  
ENDBRANCH   2   4
TORSDOF 1
ENDMDL
MODEL       92
REMARK 921   NORMALIZED FREE ENERGY PREDICTED BY IDOCK:   -3.54 KCAL/MOL
REMARK 922        TOTAL FREE ENERGY PREDICTED BY IDOCK:   -3.92 KCAL/MOL
REMARK 923 INTER-LIGAND FREE ENERGY PREDICTED BY IDOCK:   -3.76 KCAL/MOL
REMARK 924 INTRA-LIGAND FREE ENERGY PREDICTED BY IDOCK:   -0.16 KCAL/MOL
REMARK 927      BINDING AFFINITY PREDICTED BY RF-SCORE:    0.00 PKD
ROOT
HETATM    1  C   UNL     1      -5.590  12.924  68.200  1.00  0.00    -0.088 C  
HETATM    2  N   UNL     1      -7.039  12.776  68.331  1.00  0.00    -0.094 NA 
HETATM    3  C   UNL     1      -7.628  14.036  68.801  1.00  0.00    -0.113 C  
ENDROOT
BRANCH   2   4
HETATM    4  C   UNL     1      -7.678  12.360  67.060  1.00  0.00    -0.063 C  
HETATM    5  C   UNL     1      -8.461  11.006  67.094  1.00  0.00    -0.137 C  
HETATM    6  C   UNL     1      -9.636  11.084  68.071  1.00  0.00    -0.175 A  
HETATM    7  C   UNL     1      -8.846  10.490  65.641  1.00  0.00    -0.182 C  
HETATM    8  O   UNL     1      -9.646  11.462  64.958  1.00  0.00    -0.230 OA 
HETATM    9  C   UNL     1     -10.703  11.979  67.894  1.00  0.00    -0.243 A  
HETATM   10  C   UNL     1      -7.600  10.209  64.772  1.00  0.00    -0.139 C  
HETATM   11  C   UNL     1      -6.692   9.147  65.372  1.00  0.00    -0.073 C  
HETATM   12  C   UNL     1     -11.751  12.035  68.819  1.00  0.00    -0.377 A  
HETATM   13  H   UNL     1      -9.876  11.153  64.090  1.00  0.00     0.000 HD 
HETATM   14  C   UNL     1     -11.738  11.190  69.922  1.00  0.00    -0.355 A  
HETATM   15  C   UNL     1      -7.419   7.851  65.726  1.00  0.00    -0.078 C  
HETATM   16  C   UNL     1      -8.877   7.971  66.178  1.00  0.00    -0.198 C  
HETATM   17  O   UNL     1     -12.748  11.194  70.836  1.00  0.00    -0.357 OA 
HETATM   18  C   UNL     1     -10.688  10.306  70.126  1.00  0.00    -0.334 A  
HETATM   19  H   UNL     1     -12.739  10.616  71.590  1.00  0.00     0.000 HD 
HETATM   20  C   UNL     1      -9.649   9.174  65.644  1.00  0.00    -0.287 C  
HETATM   21  C   UNL     1      -9.640  10.255  69.207  1.00  0.00    -0.239 A  
ENDBRANCH   2   4
TORSDOF 1
ENDMDL
MODEL       93
REMARK 921   NORMALIZED FREE ENERGY PREDICTED BY IDOCK:   -3.54 KCAL/MOL
REMARK 922        TOTAL FREE ENERGY PREDICTED BY IDOCK:   -3.92 KCAL/MOL
REMARK 923 INTER-LIGAND FREE ENERGY PREDICTED BY IDOCK:   -3.74 KCAL/MOL
REMARK 924 INTRA-LIGAND FREE ENERGY PREDICTED BY IDOCK:   -0.18 KCAL/MOL
REMARK 927      BINDING AFFINITY PREDICTED BY RF-SCORE:    0.00 PKD
ROOT
HETATM    1  C   UNL     1     -11.872   9.815  70.676  1.00  0.00    -0.281 C  
HETATM    2  N   UNL     1     -11.829   8.676  71.593  1.00  0.00    -0.302 NA 
HETATM    3  C   UNL     1     -13.097   8.577  72.325  1.00  0.00    -0.334 C  
ENDROOT
BRANCH   2   4
HETATM    4  C   UNL     1     -11.547   7.401  70.892  1.00  0.00    -0.291 C  
HETATM    5  C   UNL     1     -10.138   7.279  70.224  1.00  0.00    -0.196 C  
HETATM    6  C   UNL     1      -9.030   7.356  71.278  1.00  0.00    -0.140 A  
HETATM    7  C   UNL     1     -10.033   6.029  69.248  1.00  0.00    -0.163 C  
HETATM    8  O   UNL     1     -10.308   4.815  69.956  1.00  0.00    -0.249 OA 
HETATM    9  C   UNL     1      -8.899   6.403  72.301  1.00  0.00    -0.135 A  
HETATM   10  C   UNL     1     -11.026   6.124  68.069  1.00  0.00    -0.399 C  
HETATM   11  C   UNL     1     -10.799   7.355  67.206  1.00  0.00    -0.326 C  
HETATM   12  C   UNL     1      -7.886   6.516  73.257  1.00  0.00    -0.096 A  
HETATM   13  H   UNL     1     -10.245   4.068  69.372  1.00  0.00     0.000 HD 
HETATM   14  C   UNL     1      -6.994   7.581  73.190  1.00  0.00    -0.068 A  
HETATM   15  C   UNL     1      -9.357   7.505  66.724  1.00  0.00    -0.209 C  
HETATM   16  C   UNL     1      -8.254   6.996  67.655  1.00  0.00    -0.117 C  
HETATM   17  O   UNL     1      -5.978   7.719  74.087  1.00  0.00    -0.071 OA 
HETATM   18  C   UNL     1      -7.112   8.543  72.197  1.00  0.00    -0.102 A  
HETATM   19  H   UNL     1      -5.369   8.447  74.041  1.00  0.00     0.000 HD 
HETATM   20  C   UNL     1      -8.643   5.863  68.601  1.00  0.00    -0.110 C  
HETATM   21  C   UNL     1      -8.126   8.432  71.246  1.00  0.00    -0.152 A  
ENDBRANCH   2   4
TORSDOF 1
ENDMDL
MODEL       94
REMARK 921   NORMALIZED FREE ENERGY PREDICTED BY IDOCK:   -3.53 KCAL/MOL
REMARK 922        TOTAL FREE ENERGY PREDICTED BY IDOCK:   -3.91 KCAL/MOL
REMARK 923 INTER-LIGAND FREE ENERGY PREDICTED BY IDOCK:   -3.72 KCAL/MOL
REMARK 924 INTRA-LIGAND FREE ENERGY PREDICTED BY IDOCK:   -0.18 KCAL/MOL
REMARK 927      BINDING AFFINITY PREDICTED BY RF-SCORE:    0.00 PKD
ROOT
HETATM    1  C   UNL     1     -10.370   6.988  66.727  1.00  0.00    -0.221 C  
HETATM    2  N   UNL     1     -10.182   6.476  68.084  1.00  0.00    -0.154 NA 
HETATM    3  C   UNL     1     -10.132   5.010  68.061  1.00  0.00    -0.106 C  
ENDROOT
BRANCH   2   4
HETATM    4  C   UNL     1      -8.959   7.017  68.723  1.00  0.00    -0.131 C  
HETATM    5  C   UNL     1      -8.942   8.558  68.985  1.00  0.00    -0.146 C  
HETATM    6  C   UNL     1     -10.054   8.954  69.960  1.00  0.00    -0.207 A  
HETATM    7  C   UNL     1      -7.499   9.093  69.381  1.00  0.00    -0.077 C  
HETATM    8  O   UNL     1      -7.021   8.426  70.555  1.00  0.00    -0.036 OA 
HETATM    9  C   UNL     1     -10.099   8.482  71.281  1.00  0.00    -0.286 A  
HETATM   10  C   UNL     1      -6.464   8.868  68.256  1.00  0.00    -0.059 C  
HETATM   11  C   UNL     1      -6.838   9.576  66.963  1.00  0.00    -0.084 C  
HETATM   12  C   UNL     1     -11.141   8.851  72.137  1.00  0.00    -0.355 A  
HETATM   13  H   UNL     1      -6.158   8.746  70.792  1.00  0.00     0.000 HD 
HETATM   14  C   UNL     1     -12.140   9.700  71.675  1.00  0.00    -0.402 A  
HETATM   15  C   UNL     1      -7.137  11.063  67.146  1.00  0.00    -0.104 C  
HETATM   16  C   UNL     1      -7.768  11.489  68.475  1.00  0.00    -0.134 C  
HETATM   17  O   UNL     1     -13.163  10.104  72.481  1.00  0.00    -0.542 OA 
HETATM   18  C   UNL     1     -12.126  10.169  70.369  1.00  0.00    -0.332 A  
HETATM   19  H   UNL     1     -13.846  10.684  72.165  1.00  0.00     0.000 HD 
HETATM   20  C   UNL     1      -7.458  10.605  69.679  1.00  0.00    -0.121 C  
HETATM   21  C   UNL     1     -11.089   9.796  69.515  1.00  0.00    -0.226 A  
ENDBRANCH   2   4
TORSDOF 1
ENDMDL
MODEL       95
REMARK 921   NORMALIZED FREE ENERGY PREDICTED BY IDOCK:   -3.52 KCAL/MOL
REMARK 922        TOTAL FREE ENERGY PREDICTED BY IDOCK:   -3.90 KCAL/MOL
REMARK 923 INTER-LIGAND FREE ENERGY PREDICTED BY IDOCK:   -3.74 KCAL/MOL
REMARK 924 INTRA-LIGAND FREE ENERGY PREDICTED BY IDOCK:   -0.17 KCAL/MOL
REMARK 927      BINDING AFFINITY PREDICTED BY RF-SCORE:    0.00 PKD
ROOT
HETATM    1  C   UNL     1      -5.968   7.904  70.285  1.00  0.00    -0.029 C  
HETATM    2  N   UNL     1      -7.162   7.743  71.115  1.00  0.00    -0.060 NA 
HETATM    3  C   UNL     1      -7.005   8.496  72.364  1.00  0.00    -0.056 C  
ENDROOT
BRANCH   2   4
HETATM    4  C   UNL     1      -8.395   8.171  70.414  1.00  0.00    -0.120 C  
HETATM    5  C   UNL     1      -9.250   7.034  69.765  1.00  0.00    -0.147 C  
HETATM    6  C   UNL     1      -9.768   6.069  70.834  1.00  0.00    -0.207 A  
HETATM    7  C   UNL     1     -10.369   7.595  68.787  1.00  0.00    -0.204 C  
HETATM    8  O   UNL     1     -11.249   8.483  69.487  1.00  0.00    -0.445 OA 
HETATM    9  C   UNL     1     -10.640   6.478  71.856  1.00  0.00    -0.239 A  
HETATM   10  C   UNL     1      -9.767   8.371  67.594  1.00  0.00    -0.201 C  
HETATM   11  C   UNL     1      -8.848   7.513  66.739  1.00  0.00    -0.153 C  
HETATM   12  C   UNL     1     -11.078   5.571  72.827  1.00  0.00    -0.340 A  
HETATM   13  H   UNL     1     -11.918   8.819  68.902  1.00  0.00     0.000 HD 
HETATM   14  C   UNL     1     -10.650   4.250  72.776  1.00  0.00    -0.165 A  
HETATM   15  C   UNL     1      -9.490   6.206  66.276  1.00  0.00    -0.144 C  
HETATM   16  C   UNL     1     -10.503   5.553  67.222  1.00  0.00    -0.300 C  
HETATM   17  O   UNL     1     -11.069   3.328  73.687  1.00  0.00    -0.219 OA 
HETATM   18  C   UNL     1      -9.777   3.826  71.784  1.00  0.00    -0.245 A  
HETATM   19  H   UNL     1     -10.776   2.424  73.651  1.00  0.00     0.000 HD 
HETATM   20  C   UNL     1     -11.251   6.498  68.159  1.00  0.00    -0.250 C  
HETATM   21  C   UNL     1      -9.337   4.731  70.819  1.00  0.00    -0.210 A  
ENDBRANCH   2   4
TORSDOF 1
ENDMDL
MODEL       96
REMARK 921   NORMALIZED FREE ENERGY PREDICTED BY IDOCK:   -3.51 KCAL/MOL
REMARK 922        TOTAL FREE ENERGY PREDICTED BY IDOCK:   -3.89 KCAL/MOL
REMARK 923 INTER-LIGAND FREE ENERGY PREDICTED BY IDOCK:   -3.72 KCAL/MOL
REMARK 924 INTRA-LIGAND FREE ENERGY PREDICTED BY IDOCK:   -0.16 KCAL/MOL
REMARK 927      BINDING AFFINITY PREDICTED BY RF-SCORE:    0.00 PKD
ROOT
HETATM    1  C   UNL     1     -12.283   7.074  70.947  1.00  0.00    -0.342 C  
HETATM    2  N   UNL     1     -11.226   8.056  70.705  1.00  0.00    -0.264 NA 
HETATM    3  C   UNL     1     -11.219   9.056  71.779  1.00  0.00    -0.378 C  
ENDROOT
BRANCH   2   4
HETATM    4  C   UNL     1      -9.890   7.425  70.590  1.00  0.00    -0.179 C  
HETATM    5  C   UNL     1      -9.430   7.041  69.145  1.00  0.00    -0.143 C  
HETATM    6  C   UNL     1      -9.309   8.288  68.267  1.00  0.00    -0.138 A  
HETATM    7  C   UNL     1      -8.145   6.106  69.143  1.00  0.00    -0.109 C  
HETATM    8  O   UNL     1      -7.054   6.751  69.812  1.00  0.00    -0.064 OA 
HETATM    9  C   UNL     1      -8.399   9.319  68.547  1.00  0.00    -0.119 A  
HETATM   10  C   UNL     1      -8.403   4.758  69.851  1.00  0.00    -0.072 C  
HETATM   11  C   UNL     1      -9.514   3.952  69.196  1.00  0.00    -0.246 C  
HETATM   12  C   UNL     1      -8.329  10.453  67.731  1.00  0.00    -0.114 A  
HETATM   13  H   UNL     1      -6.286   6.191  69.810  1.00  0.00     0.000 HD 
HETATM   14  C   UNL     1      -9.167  10.556  66.627  1.00  0.00    -0.156 A  
HETATM   15  C   UNL     1      -9.320   3.756  67.693  1.00  0.00    -0.240 C  
HETATM   16  C   UNL     1      -8.623   4.884  66.927  1.00  0.00    -0.104 C  
HETATM   17  O   UNL     1      -9.118  11.632  65.792  1.00  0.00    -0.308 OA 
HETATM   18  C   UNL     1     -10.085   9.557  66.337  1.00  0.00    -0.328 A  
HETATM   19  H   UNL     1      -9.691  11.702  65.037  1.00  0.00     0.000 HD 
HETATM   20  C   UNL     1      -7.649   5.739  67.731  1.00  0.00    -0.085 C  
HETATM   21  C   UNL     1     -10.157   8.429  67.154  1.00  0.00    -0.335 A  
ENDBRANCH   2   4
TORSDOF 1
ENDMDL
MODEL       97
REMARK 921   NORMALIZED FREE ENERGY PREDICTED BY IDOCK:   -3.47 KCAL/MOL
REMARK 922        TOTAL FREE ENERGY PREDICTED BY IDOCK:   -3.84 KCAL/MOL
REMARK 923 INTER-LIGAND FREE ENERGY PREDICTED BY IDOCK:   -3.68 KCAL/MOL
REMARK 924 INTRA-LIGAND FREE ENERGY PREDICTED BY IDOCK:   -0.16 KCAL/MOL
REMARK 927      BINDING AFFINITY PREDICTED BY RF-SCORE:    0.00 PKD
ROOT
HETATM    1  C   UNL     1     -11.003   6.418  67.107  1.00  0.00    -0.399 C  
HETATM    2  N   UNL     1     -10.573   7.627  67.810  1.00  0.00    -0.219 NA 
HETATM    3  C   UNL     1     -10.661   7.417  69.260  1.00  0.00    -0.213 C  
ENDROOT
BRANCH   2   4
HETATM    4  C   UNL     1      -9.197   8.034  67.438  1.00  0.00    -0.134 C  
HETATM    5  C   UNL     1      -9.078   9.103  66.303  1.00  0.00    -0.222 C  
HETATM    6  C   UNL     1      -9.733  10.420  66.728  1.00  0.00    -0.224 A  
HETATM    7  C   UNL     1      -7.592   9.252  65.761  1.00  0.00    -0.098 C  
HETATM    8  O   UNL     1      -6.703   9.616  66.824  1.00  0.00    -0.073 OA 
HETATM    9  C   UNL     1      -9.272  11.170  67.821  1.00  0.00    -0.153 A  
HETATM   10  C   UNL     1      -7.066   7.943  65.132  1.00  0.00    -0.060 C  
HETATM   11  C   UNL     1      -7.903   7.480  63.950  1.00  0.00    -0.114 C  
HETATM   12  C   UNL     1      -9.907  12.360  68.191  1.00  0.00    -0.213 A  
HETATM   13  H   UNL     1      -5.815   9.705  66.499  1.00  0.00     0.000 HD 
HETATM   14  C   UNL     1     -11.005  12.806  67.465  1.00  0.00    -0.249 A  
HETATM   15  C   UNL     1      -8.106   8.557  62.887  1.00  0.00    -0.176 C  
HETATM   16  C   UNL     1      -8.181  10.009  63.370  1.00  0.00    -0.164 C  
HETATM   17  O   UNL     1     -11.641  13.970  67.775  1.00  0.00    -0.305 OA 
HETATM   18  C   UNL     1     -11.489  12.074  66.390  1.00  0.00    -0.417 A  
HETATM   19  H   UNL     1     -12.392  14.275  67.279  1.00  0.00     0.000 HD 
HETATM   20  C   UNL     1      -7.437  10.325  64.664  1.00  0.00    -0.093 C  
HETATM   21  C   UNL     1     -10.857  10.886  66.024  1.00  0.00    -0.155 A  
ENDBRANCH   2   4
TORSDOF 1
ENDMDL
MODEL       98
REMARK 921   NORMALIZED FREE ENERGY PREDICTED BY IDOCK:   -3.45 KCAL/MOL
REMARK 922        TOTAL FREE ENERGY PREDICTED BY IDOCK:   -3.82 KCAL/MOL
REMARK 923 INTER-LIGAND FREE ENERGY PREDICTED BY IDOCK:   -4.41 KCAL/MOL
REMARK 924 INTRA-LIGAND FREE ENERGY PREDICTED BY IDOCK:    0.59 KCAL/MOL
REMARK 927      BINDING AFFINITY PREDICTED BY RF-SCORE:    0.00 PKD
ROOT
HETATM    1  C   UNL     1     -12.170  11.991  63.943  1.00  0.00    -0.453 C  
HETATM    2  N   UNL     1     -10.937  11.295  63.574  1.00  0.00    -0.339 NA 
HETATM    3  C   UNL     1      -9.935  12.264  63.117  1.00  0.00     0.143 C  
ENDROOT
BRANCH   2   4
HETATM    4  C   UNL     1     -10.391  10.490  64.693  1.00  0.00    -0.220 C  
HETATM    5  C   UNL     1      -9.466  11.248  65.700  1.00  0.00    -0.254 C  
HETATM    6  C   UNL     1     -10.237  12.362  66.411  1.00  0.00    -0.253 A  
HETATM    7  C   UNL     1      -8.688  10.261  66.673  1.00  0.00    -0.127 C  
HETATM    8  O   UNL     1      -9.612   9.459  67.418  1.00  0.00    -0.139 OA 
HETATM    9  C   UNL     1     -11.340  12.102  67.240  1.00  0.00    -0.398 A  
HETATM   10  C   UNL     1      -7.746   9.307  65.907  1.00  0.00    -0.098 C  
HETATM   11  C   UNL     1      -6.680  10.046  65.112  1.00  0.00    -0.126 C  
HETATM   12  C   UNL     1     -12.032  13.149  67.858  1.00  0.00    -0.347 A  
HETATM   13  H   UNL     1      -9.147   8.869  68.000  1.00  0.00     0.000 HD 
HETATM   14  C   UNL     1     -11.619  14.460  67.654  1.00  0.00    -0.370 A  
HETATM   15  C   UNL     1      -5.886  11.051  65.944  1.00  0.00    -0.098 C  
HETATM   16  C   UNL     1      -6.628  11.751  67.086  1.00  0.00    -0.143 C  
HETATM   17  O   UNL     1     -12.248  15.509  68.254  1.00  0.00    -0.462 OA 
HETATM   18  C   UNL     1     -10.540  14.743  66.828  1.00  0.00    -0.302 A  
HETATM   19  H   UNL     1     -11.966  16.405  68.114  1.00  0.00     0.000 HD 
HETATM   20  C   UNL     1      -7.794  10.982  67.701  1.00  0.00    -0.114 C  
HETATM   21  C   UNL     1      -9.854  13.700  66.208  1.00  0.00    -0.310 A  
ENDBRANCH   2   4
TORSDOF 1
ENDMDL
MODEL       99
REMARK 921   NORMALIZED FREE ENERGY PREDICTED BY IDOCK:   -3.45 KCAL/MOL
REMARK 922        TOTAL FREE ENERGY PREDICTED BY IDOCK:   -3.82 KCAL/MOL
REMARK 923 INTER-LIGAND FREE ENERGY PREDICTED BY IDOCK:   -4.28 KCAL/MOL
REMARK 924 INTRA-LIGAND FREE ENERGY PREDICTED BY IDOCK:    0.45 KCAL/MOL
REMARK 927      BINDING AFFINITY PREDICTED BY RF-SCORE:    0.00 PKD
ROOT
HETATM    1  C   UNL     1     -12.511  10.821  69.860  1.00  0.00    -0.209 C  
HETATM    2  N   UNL     1     -12.152  12.103  69.253  1.00  0.00    -0.230 NA 
HETATM    3  C   UNL     1     -11.695  13.035  70.290  1.00  0.00    -0.114 C  
ENDROOT
BRANCH   2   4
HETATM    4  C   UNL     1     -11.112  11.957  68.207  1.00  0.00    -0.239 C  
HETATM    5  C   UNL     1     -11.102  13.049  67.088  1.00  0.00    -0.304 C  
HETATM    6  C   UNL     1     -10.816  14.430  67.681  1.00  0.00    -0.276 A  
HETATM    7  C   UNL     1     -10.174  12.654  65.860  1.00  0.00    -0.274 C  
HETATM    8  O   UNL     1      -8.827  12.439  66.298  1.00  0.00    -0.402 OA 
HETATM    9  C   UNL     1      -9.608  14.734  68.329  1.00  0.00    -0.215 A  
HETATM   10  C   UNL     1     -10.653  11.365  65.156  1.00  0.00    -0.352 C  
HETATM   11  C   UNL     1     -12.063  11.489  64.599  1.00  0.00     0.203 C  
HETATM   12  C   UNL     1      -9.389  16.003  68.875  1.00  0.00    -0.231 A  
HETATM   13  H   UNL     1      -8.272  12.203  65.563  1.00  0.00     0.000 HD 
HETATM   14  C   UNL     1     -10.377  16.975  68.769  1.00  0.00    -0.336 A  
HETATM   15  C   UNL     1     -12.259  12.710  63.702  1.00  0.00    -0.624 C  
HETATM   16  C   UNL     1     -11.446  13.963  64.042  1.00  0.00    -0.183 C  
HETATM   17  O   UNL     1     -10.199  18.231  69.266  1.00  0.00    -0.423 OA 
HETATM   18  C   UNL     1     -11.584  16.695  68.146  1.00  0.00     0.193 A  
HETATM   19  H   UNL     1     -10.874  18.896  69.194  1.00  0.00     0.000 HD 
HETATM   20  C   UNL     1     -10.117  13.728  64.755  1.00  0.00    -0.259 C  
HETATM   21  C   UNL     1     -11.804  15.428  67.606  1.00  0.00    -0.001 A  
ENDBRANCH   2   4
TORSDOF 1
ENDMDL
MODEL      100
REMARK 921   NORMALIZED FREE ENERGY PREDICTED BY IDOCK:   -3.44 KCAL/MOL
REMARK 922        TOTAL FREE ENERGY PREDICTED BY IDOCK:   -3.81 KCAL/MOL
REMARK 923 INTER-LIGAND FREE ENERGY PREDICTED BY IDOCK:   -3.65 KCAL/MOL
REMARK 924 INTRA-LIGAND FREE ENERGY PREDICTED BY IDOCK:   -0.16 KCAL/MOL
REMARK 927      BINDING AFFINITY PREDICTED BY RF-SCORE:    0.00 PKD
ROOT
HETATM    1  C   UNL     1     -11.677  11.758  69.778  1.00  0.00    -0.335 C  
HETATM    2  N   UNL     1     -11.564  13.134  69.294  1.00  0.00    -0.298 NA 
HETATM    3  C   UNL     1     -12.542  13.985  69.982  1.00  0.00    -0.194 C  
ENDROOT
BRANCH   2   4
HETATM    4  C   UNL     1     -10.199  13.682  69.473  1.00  0.00     0.529 C  
HETATM    5  C   UNL     1      -9.249  13.582  68.235  1.00  0.00    -0.195 C  
HETATM    6  C   UNL     1      -9.803  14.391  67.060  1.00  0.00    -0.252 A  
HETATM    7  C   UNL     1      -7.736  13.904  68.600  1.00  0.00    -0.128 C  
HETATM    8  O   UNL     1      -7.623  15.219  69.156  1.00  0.00    -0.158 OA 
HETATM    9  C   UNL     1      -9.979  15.782  67.122  1.00  0.00    -0.242 A  
HETATM   10  C   UNL     1      -7.159  12.905  69.627  1.00  0.00     0.384 C  
HETATM   11  C   UNL     1      -7.177  11.469  69.127  1.00  0.00    -0.084 C  
HETATM   12  C   UNL     1     -10.506  16.486  66.034  1.00  0.00    -0.320 A  
HETATM   13  H   UNL     1      -6.718  15.411  69.374  1.00  0.00     0.000 HD 
HETATM   14  C   UNL     1     -10.854  15.800  64.877  1.00  0.00    -0.413 A  
HETATM   15  C   UNL     1      -6.521  11.292  67.759  1.00  0.00    -0.060 C  
HETATM   16  C   UNL     1      -6.635  12.459  66.774  1.00  0.00     0.342 C  
HETATM   17  O   UNL     1     -11.350  16.446  63.785  1.00  0.00    -1.487 OA 
HETATM   18  C   UNL     1     -10.704  14.423  64.796  1.00  0.00    -0.423 A  
HETATM   19  H   UNL     1     -11.588  15.977  62.994  1.00  0.00     0.000 HD 
HETATM   20  C   UNL     1      -6.781  13.847  67.391  1.00  0.00     0.007 C  
HETATM   21  C   UNL     1     -10.183  13.721  65.883  1.00  0.00    -0.322 A  
ENDBRANCH   2   4
TORSDOF 1
ENDMDL
MODEL      101
REMARK 921   NORMALIZED FREE ENERGY PREDICTED BY IDOCK:   -3.42 KCAL/MOL
REMARK 922        TOTAL FREE ENERGY PREDICTED BY IDOCK:   -3.79 KCAL/MOL
REMARK 923 INTER-LIGAND FREE ENERGY PREDICTED BY IDOCK:   -3.61 KCAL/MOL
REMARK 924 INTRA-LIGAND FREE ENERGY PREDICTED BY IDOCK:   -0.18 KCAL/MOL
REMARK 927      BINDING AFFINITY PREDICTED BY RF-SCORE:    0.00 PKD
ROOT
HETATM    1  C   UNL     1     -10.521   4.511  65.959  1.00  0.00    -0.198 C  
HETATM    2  N   UNL     1      -9.732   3.979  67.071  1.00  0.00    -0.209 NA 
HETATM    3  C   UNL     1      -9.259   2.629  66.744  1.00  0.00    -0.083 C  
ENDROOT
BRANCH   2   4
HETATM    4  C   UNL     1      -8.584   4.851  67.413  1.00  0.00    -0.104 C  
HETATM    5  C   UNL     1      -8.937   6.271  67.966  1.00  0.00    -0.114 C  
HETATM    6  C   UNL     1      -9.704   6.163  69.286  1.00  0.00    -0.163 A  
HETATM    7  C   UNL     1      -7.676   7.236  68.014  1.00  0.00    -0.117 C  
HETATM    8  O   UNL     1      -6.643   6.673  68.832  1.00  0.00    -0.047 OA 
HETATM    9  C   UNL     1      -9.143   5.585  70.436  1.00  0.00    -0.164 A  
HETATM   10  C   UNL     1      -7.082   7.491  66.612  1.00  0.00    -0.078 C  
HETATM   11  C   UNL     1      -8.075   8.140  65.660  1.00  0.00    -0.119 C  
HETATM   12  C   UNL     1      -9.881   5.487  71.620  1.00  0.00    -0.221 A  
HETATM   13  H   UNL     1      -5.890   7.251  68.861  1.00  0.00     0.000 HD 
HETATM   14  C   UNL     1     -11.183   5.972  71.659  1.00  0.00    -0.268 A  
HETATM   15  C   UNL     1      -8.720   9.405  66.222  1.00  0.00    -0.157 C  
HETATM   16  C   UNL     1      -8.945   9.461  67.736  1.00  0.00    -0.127 C  
HETATM   17  O   UNL     1     -11.931   5.918  72.796  1.00  0.00    -0.524 OA 
HETATM   18  C   UNL     1     -11.764   6.535  70.531  1.00  0.00    -0.438 A  
HETATM   19  H   UNL     1     -12.821   6.250  72.823  1.00  0.00     0.000 HD 
HETATM   20  C   UNL     1      -7.987   8.633  68.588  1.00  0.00    -0.115 C  
HETATM   21  C   UNL     1     -11.029   6.627  69.350  1.00  0.00    -0.361 A  
ENDBRANCH   2   4
TORSDOF 1
ENDMDL
MODEL      102
REMARK 921   NORMALIZED FREE ENERGY PREDICTED BY IDOCK:   -3.41 KCAL/MOL
REMARK 922        TOTAL FREE ENERGY PREDICTED BY IDOCK:   -3.78 KCAL/MOL
REMARK 923 INTER-LIGAND FREE ENERGY PREDICTED BY IDOCK:   -3.60 KCAL/MOL
REMARK 924 INTRA-LIGAND FREE ENERGY PREDICTED BY IDOCK:   -0.18 KCAL/MOL
REMARK 927      BINDING AFFINITY PREDICTED BY RF-SCORE:    0.00 PKD
ROOT
HETATM    1  C   UNL     1     -11.005   6.949  70.762  1.00  0.00    -0.259 C  
HETATM    2  N   UNL     1     -11.088   8.409  70.713  1.00  0.00    -0.254 NA 
HETATM    3  C   UNL     1     -12.045   8.888  71.717  1.00  0.00    -0.362 C  
ENDROOT
BRANCH   2   4
HETATM    4  C   UNL     1      -9.769   9.054  70.920  1.00  0.00    -0.264 C  
HETATM    5  C   UNL     1      -8.692   8.788  69.818  1.00  0.00    -0.133 C  
HETATM    6  C   UNL     1      -9.149   9.344  68.467  1.00  0.00    -0.131 A  
HETATM    7  C   UNL     1      -7.239   9.252  70.263  1.00  0.00    -0.087 C  
HETATM    8  O   UNL     1      -7.232  10.649  70.578  1.00  0.00    -0.463 OA 
HETATM    9  C   UNL     1      -9.381  10.713  68.258  1.00  0.00    -0.156 A  
HETATM   10  C   UNL     1      -6.736   8.485  71.506  1.00  0.00    -0.073 C  
HETATM   11  C   UNL     1      -6.649   6.984  71.276  1.00  0.00    -0.045 C  
HETATM   12  C   UNL     1      -9.816  11.182  67.015  1.00  0.00    -0.212 A  
HETATM   13  H   UNL     1      -6.363  10.927  70.844  1.00  0.00     0.000 HD 
HETATM   14  C   UNL     1     -10.017  10.283  65.973  1.00  0.00    -0.245 A  
HETATM   15  C   UNL     1      -5.847   6.603  70.033  1.00  0.00    -0.023 C  
HETATM   16  C   UNL     1      -5.900   7.569  68.845  1.00  0.00    -0.023 C  
HETATM   17  O   UNL     1     -10.418  10.698  64.739  1.00  0.00    -0.325 OA 
HETATM   18  C   UNL     1      -9.808   8.924  66.160  1.00  0.00    -0.326 A  
HETATM   19  H   UNL     1     -10.555  10.083  64.028  1.00  0.00     0.000 HD 
HETATM   20  C   UNL     1      -6.161   9.034  69.183  1.00  0.00    -0.042 C  
HETATM   21  C   UNL     1      -9.379   8.456  67.402  1.00  0.00    -0.178 A  
ENDBRANCH   2   4
TORSDOF 1
ENDMDL
MODEL      103
REMARK 921   NORMALIZED FREE ENERGY PREDICTED BY IDOCK:   -3.40 KCAL/MOL
REMARK 922        TOTAL FREE ENERGY PREDICTED BY IDOCK:   -3.77 KCAL/MOL
REMARK 923 INTER-LIGAND FREE ENERGY PREDICTED BY IDOCK:   -3.59 KCAL/MOL
REMARK 924 INTRA-LIGAND FREE ENERGY PREDICTED BY IDOCK:   -0.18 KCAL/MOL
REMARK 927      BINDING AFFINITY PREDICTED BY RF-SCORE:    0.00 PKD
ROOT
HETATM    1  C   UNL     1      -9.443   5.323  73.703  1.00  0.00    -0.133 C  
HETATM    2  N   UNL     1      -9.557   4.732  72.369  1.00  0.00    -0.141 NA 
HETATM    3  C   UNL     1     -10.117   3.379  72.470  1.00  0.00    -0.162 C  
ENDROOT
BRANCH   2   4
HETATM    4  C   UNL     1     -10.385   5.558  71.458  1.00  0.00    -0.222 C  
HETATM    5  C   UNL     1      -9.638   6.212  70.251  1.00  0.00    -0.188 C  
HETATM    6  C   UNL     1      -9.058   5.139  69.326  1.00  0.00    -0.140 A  
HETATM    7  C   UNL     1     -10.517   7.311  69.513  1.00  0.00    -0.230 C  
HETATM    8  O   UNL     1     -11.740   6.738  69.035  1.00  0.00    -0.586 OA 
HETATM    9  C   UNL     1      -9.868   4.219  68.643  1.00  0.00    -0.118 A  
HETATM   10  C   UNL     1     -10.880   8.489  70.444  1.00  0.00    -0.251 C  
HETATM   11  C   UNL     1      -9.656   9.216  70.978  1.00  0.00    -0.350 C  
HETATM   12  C   UNL     1      -9.301   3.240  67.820  1.00  0.00    -0.246 A  
HETATM   13  H   UNL     1     -12.266   7.395  68.594  1.00  0.00     0.000 HD 
HETATM   14  C   UNL     1      -7.920   3.182  67.675  1.00  0.00    -0.076 A  
HETATM   15  C   UNL     1      -8.683   9.658  69.886  1.00  0.00    -0.236 C  
HETATM   16  C   UNL     1      -8.577   8.767  68.645  1.00  0.00    -0.134 C  
HETATM   17  O   UNL     1      -7.325   2.260  66.867  1.00  0.00    -0.058 OA 
HETATM   18  C   UNL     1      -7.097   4.071  68.351  1.00  0.00    -0.055 A  
HETATM   19  H   UNL     1      -6.381   2.220  66.767  1.00  0.00     0.000 HD 
HETATM   20  C   UNL     1      -9.819   7.950  68.297  1.00  0.00    -0.187 C  
HETATM   21  C   UNL     1      -7.663   5.044  69.175  1.00  0.00    -0.076 A  
ENDBRANCH   2   4
TORSDOF 1
ENDMDL
MODEL      104
REMARK 921   NORMALIZED FREE ENERGY PREDICTED BY IDOCK:   -3.38 KCAL/MOL
REMARK 922        TOTAL FREE ENERGY PREDICTED BY IDOCK:   -3.75 KCAL/MOL
REMARK 923 INTER-LIGAND FREE ENERGY PREDICTED BY IDOCK:   -3.58 KCAL/MOL
REMARK 924 INTRA-LIGAND FREE ENERGY PREDICTED BY IDOCK:   -0.17 KCAL/MOL
REMARK 927      BINDING AFFINITY PREDICTED BY RF-SCORE:    0.00 PKD
ROOT
HETATM    1  C   UNL     1     -11.110   5.973  69.256  1.00  0.00    -0.354 C  
HETATM    2  N   UNL     1     -10.497   6.598  70.428  1.00  0.00    -0.205 NA 
HETATM    3  C   UNL     1     -10.927   7.997  70.529  1.00  0.00    -0.247 C  
ENDROOT
BRANCH   2   4
HETATM    4  C   UNL     1     -10.818   5.875  71.682  1.00  0.00    -0.263 C  
HETATM    5  C   UNL     1      -9.606   5.250  72.447  1.00  0.00    -0.175 C  
HETATM    6  C   UNL     1      -8.634   6.341  72.906  1.00  0.00    -0.122 A  
HETATM    7  C   UNL     1     -10.060   4.248  73.593  1.00  0.00    -0.145 C  
HETATM    8  O   UNL     1     -10.901   4.917  74.541  1.00  0.00    -0.343 OA 
HETATM    9  C   UNL     1      -9.006   7.344  73.814  1.00  0.00    -0.275 A  
HETATM   10  C   UNL     1     -10.845   3.041  73.036  1.00  0.00    -0.187 C  
HETATM   11  C   UNL     1     -10.033   2.216  72.050  1.00  0.00    -0.225 C  
HETATM   12  C   UNL     1      -8.097   8.335  74.197  1.00  0.00    -0.284 A  
HETATM   13  H   UNL     1     -11.173   4.318  75.226  1.00  0.00     0.000 HD 
HETATM   14  C   UNL     1      -6.809   8.323  73.675  1.00  0.00    -0.124 A  
HETATM   15  C   UNL     1      -8.672   1.783  72.592  1.00  0.00    -0.066 C  
HETATM   16  C   UNL     1      -7.974   2.737  73.565  1.00  0.00    -0.060 C  
HETATM   17  O   UNL     1      -5.883   9.254  74.037  1.00  0.00    -0.269 OA 
HETATM   18  C   UNL     1      -6.422   7.350  72.765  1.00  0.00    -0.059 A  
HETATM   19  H   UNL     1      -5.002   9.246  73.680  1.00  0.00     0.000 HD 
HETATM   20  C   UNL     1      -8.887   3.643  74.388  1.00  0.00    -0.092 C  
HETATM   21  C   UNL     1      -7.331   6.365  72.380  1.00  0.00    -0.088 A  
ENDBRANCH   2   4
TORSDOF 1
ENDMDL
MODEL      105
REMARK 921   NORMALIZED FREE ENERGY PREDICTED BY IDOCK:   -3.38 KCAL/MOL
REMARK 922        TOTAL FREE ENERGY PREDICTED BY IDOCK:   -3.75 KCAL/MOL
REMARK 923 INTER-LIGAND FREE ENERGY PREDICTED BY IDOCK:   -3.58 KCAL/MOL
REMARK 924 INTRA-LIGAND FREE ENERGY PREDICTED BY IDOCK:   -0.17 KCAL/MOL
REMARK 927      BINDING AFFINITY PREDICTED BY RF-SCORE:    0.00 PKD
ROOT
HETATM    1  C   UNL     1      -7.726  10.493  68.747  1.00  0.00    -0.109 C  
HETATM    2  N   UNL     1      -9.154  10.320  69.012  1.00  0.00    -0.173 NA 
HETATM    3  C   UNL     1      -9.884  11.533  68.622  1.00  0.00    -0.177 C  
ENDROOT
BRANCH   2   4
HETATM    4  C   UNL     1      -9.717   9.142  68.311  1.00  0.00    -0.154 C  
HETATM    5  C   UNL     1      -9.943   7.864  69.184  1.00  0.00    -0.184 C  
HETATM    6  C   UNL     1     -10.964   8.137  70.291  1.00  0.00    -0.240 A  
HETATM    7  C   UNL     1     -10.251   6.575  68.308  1.00  0.00    -0.172 C  
HETATM    8  O   UNL     1     -11.413   6.784  67.498  1.00  0.00    -0.690 OA 
HETATM    9  C   UNL     1     -12.296   8.484  70.015  1.00  0.00     1.043 A  
HETATM   10  C   UNL     1      -9.079   6.213  67.368  1.00  0.00    -0.110 C  
HETATM   11  C   UNL     1      -7.792   5.916  68.121  1.00  0.00    -0.105 C  
HETATM   12  C   UNL     1     -13.197   8.745  71.053  1.00  0.00     0.034 A  
HETATM   13  H   UNL     1     -11.598   6.013  66.974  1.00  0.00     0.000 HD 
HETATM   14  C   UNL     1     -12.768   8.654  72.372  1.00  0.00    -0.362 A  
HETATM   15  C   UNL     1      -7.956   4.870  69.221  1.00  0.00    -0.075 C  
HETATM   16  C   UNL     1      -9.305   4.823  69.944  1.00  0.00    -0.207 C  
HETATM   17  O   UNL     1     -13.616   8.878  73.415  1.00  0.00    -0.970 OA 
HETATM   18  C   UNL     1     -11.453   8.328  72.670  1.00  0.00    -0.423 A  
HETATM   19  H   UNL     1     -13.323   8.816  74.316  1.00  0.00     0.000 HD 
HETATM   20  C   UNL     1     -10.512   5.306  69.143  1.00  0.00    -0.227 C  
HETATM   21  C   UNL     1     -10.554   8.073  71.634  1.00  0.00    -0.280 A  
ENDBRANCH   2   4
TORSDOF 1
ENDMDL
MODEL      106
REMARK 921   NORMALIZED FREE ENERGY PREDICTED BY IDOCK:   -3.37 KCAL/MOL
REMARK 922        TOTAL FREE ENERGY PREDICTED BY IDOCK:   -3.74 KCAL/MOL
REMARK 923 INTER-LIGAND FREE ENERGY PREDICTED BY IDOCK:   -3.62 KCAL/MOL
REMARK 924 INTRA-LIGAND FREE ENERGY PREDICTED BY IDOCK:   -0.12 KCAL/MOL
REMARK 927      BINDING AFFINITY PREDICTED BY RF-SCORE:    0.00 PKD
ROOT
HETATM    1  C   UNL     1     -11.922   8.559  72.105  1.00  0.00    -0.383 C  
HETATM    2  N   UNL     1     -11.279   7.441  71.415  1.00  0.00    -0.243 NA 
HETATM    3  C   UNL     1     -11.854   6.173  71.878  1.00  0.00    -0.257 C  
ENDROOT
BRANCH   2   4
HETATM    4  C   UNL     1     -11.401   7.545  69.941  1.00  0.00    -0.037 C  
HETATM    5  C   UNL     1     -10.064   7.473  69.132  1.00  0.00    -0.192 C  
HETATM    6  C   UNL     1      -9.382   6.118  69.335  1.00  0.00    -0.147 A  
HETATM    7  C   UNL     1     -10.249   7.896  67.612  1.00  0.00    -0.226 C  
HETATM    8  O   UNL     1     -11.216   7.055  66.971  1.00  0.00    -0.564 OA 
HETATM    9  C   UNL     1      -9.975   4.910  68.936  1.00  0.00    -0.220 A  
HETATM   10  C   UNL     1     -10.724   9.358  67.466  1.00  0.00    -0.290 C  
HETATM   11  C   UNL     1      -9.748  10.357  68.068  1.00  0.00    -0.166 C  
HETATM   12  C   UNL     1      -9.329   3.689  69.155  1.00  0.00    -0.244 A  
HETATM   13  H   UNL     1     -11.326   7.308  66.061  1.00  0.00     0.000 HD 
HETATM   14  C   UNL     1      -8.082   3.673  69.769  1.00  0.00    -0.053 A  
HETATM   15  C   UNL     1      -8.316  10.191  67.562  1.00  0.00    -0.118 C  
HETATM   16  C   UNL     1      -7.859   8.771  67.214  1.00  0.00    -0.097 C  
HETATM   17  O   UNL     1      -7.406   2.510  69.982  1.00  0.00    -0.043 OA 
HETATM   18  C   UNL     1      -7.481   4.853  70.185  1.00  0.00    -0.059 A  
HETATM   19  H   UNL     1      -6.553   2.499  70.401  1.00  0.00     0.000 HD 
HETATM   20  C   UNL     1      -8.954   7.801  66.781  1.00  0.00    -0.163 C  
HETATM   21  C   UNL     1      -8.129   6.069  69.971  1.00  0.00    -0.114 A  
ENDBRANCH   2   4
TORSDOF 1
ENDMDL
MODEL      107
REMARK 921   NORMALIZED FREE ENERGY PREDICTED BY IDOCK:   -3.37 KCAL/MOL
REMARK 922        TOTAL FREE ENERGY PREDICTED BY IDOCK:   -3.74 KCAL/MOL
REMARK 923 INTER-LIGAND FREE ENERGY PREDICTED BY IDOCK:   -4.61 KCAL/MOL
REMARK 924 INTRA-LIGAND FREE ENERGY PREDICTED BY IDOCK:    0.88 KCAL/MOL
REMARK 927      BINDING AFFINITY PREDICTED BY RF-SCORE:    0.00 PKD
ROOT
HETATM    1  C   UNL     1     -12.275  15.744  69.105  1.00  0.00    -0.072 C  
HETATM    2  N   UNL     1     -11.126  16.155  69.911  1.00  0.00    -0.341 NA 
HETATM    3  C   UNL     1     -10.914  15.196  71.001  1.00  0.00    -0.169 C  
ENDROOT
BRANCH   2   4
HETATM    4  C   UNL     1      -9.890  16.287  69.103  1.00  0.00    -0.258 C  
HETATM    5  C   UNL     1      -9.292  14.957  68.537  1.00  0.00    -0.196 C  
HETATM    6  C   UNL     1     -10.275  14.288  67.573  1.00  0.00    -0.240 A  
HETATM    7  C   UNL     1      -7.826  15.149  67.954  1.00  0.00    -0.135 C  
HETATM    8  O   UNL     1      -7.825  16.130  66.910  1.00  0.00    -0.197 OA 
HETATM    9  C   UNL     1     -10.690  14.899  66.379  1.00  0.00    -0.316 A  
HETATM   10  C   UNL     1      -6.824  15.608  69.035  1.00  0.00    -0.140 C  
HETATM   11  C   UNL     1      -6.698  14.616  70.181  1.00  0.00    -0.106 C  
HETATM   12  C   UNL     1     -11.604  14.264  65.532  1.00  0.00    -0.338 A  
HETATM   13  H   UNL     1      -6.948  16.244  66.562  1.00  0.00     0.000 HD 
HETATM   14  C   UNL     1     -12.103  13.013  65.874  1.00  0.00    -0.444 A  
HETATM   15  C   UNL     1      -6.396  13.190  69.722  1.00  0.00    -0.065 C  
HETATM   16  C   UNL     1      -6.981  12.752  68.377  1.00  0.00    -0.095 C  
HETATM   17  O   UNL     1     -12.979  12.349  65.069  1.00  0.00    -0.705 OA 
HETATM   18  C   UNL     1     -11.720  12.396  67.056  1.00  0.00    -0.423 A  
HETATM   19  H   UNL     1     -13.320  11.493  65.303  1.00  0.00     0.000 HD 
HETATM   20  C   UNL     1      -7.224  13.862  67.357  1.00  0.00    -0.113 C  
HETATM   21  C   UNL     1     -10.812  13.032  67.903  1.00  0.00    -0.260 A  
ENDBRANCH   2   4
TORSDOF 1
ENDMDL
MODEL      108
REMARK 921   NORMALIZED FREE ENERGY PREDICTED BY IDOCK:   -3.36 KCAL/MOL
REMARK 922        TOTAL FREE ENERGY PREDICTED BY IDOCK:   -3.73 KCAL/MOL
REMARK 923 INTER-LIGAND FREE ENERGY PREDICTED BY IDOCK:   -3.56 KCAL/MOL
REMARK 924 INTRA-LIGAND FREE ENERGY PREDICTED BY IDOCK:   -0.17 KCAL/MOL
REMARK 927      BINDING AFFINITY PREDICTED BY RF-SCORE:    0.00 PKD
ROOT
HETATM    1  C   UNL     1      -7.540   8.032  73.571  1.00  0.00    -0.154 C  
HETATM    2  N   UNL     1      -6.937   7.738  72.271  1.00  0.00    -0.066 NA 
HETATM    3  C   UNL     1      -5.531   7.355  72.449  1.00  0.00    -0.037 C  
ENDROOT
BRANCH   2   4
HETATM    4  C   UNL     1      -7.665   6.674  71.541  1.00  0.00    -0.098 C  
HETATM    5  C   UNL     1      -9.045   7.079  70.927  1.00  0.00    -0.153 C  
HETATM    6  C   UNL     1      -8.868   8.173  69.871  1.00  0.00    -0.139 A  
HETATM    7  C   UNL     1      -9.887   5.823  70.439  1.00  0.00    -0.186 C  
HETATM    8  O   UNL     1      -9.154   5.077  69.459  1.00  0.00    -0.103 OA 
HETATM    9  C   UNL     1      -8.127   7.970  68.696  1.00  0.00    -0.125 A  
HETATM   10  C   UNL     1     -10.233   4.865  71.600  1.00  0.00    -0.267 C  
HETATM   11  C   UNL     1     -11.061   5.533  72.687  1.00  0.00    -0.334 C  
HETATM   12  C   UNL     1      -7.971   8.999  67.762  1.00  0.00    -0.101 A  
HETATM   13  H   UNL     1      -9.658   4.326  69.168  1.00  0.00     0.000 HD 
HETATM   14  C   UNL     1      -8.561  10.235  67.999  1.00  0.00    -0.118 A  
HETATM   15  C   UNL     1     -12.313   6.231  72.158  1.00  0.00    -0.193 C  
HETATM   16  C   UNL     1     -12.230   6.845  70.757  1.00  0.00    -0.364 C  
HETATM   17  O   UNL     1      -8.455  11.259  67.107  1.00  0.00    -0.139 OA 
HETATM   18  C   UNL     1      -9.286  10.465  69.159  1.00  0.00    -0.211 A  
HETATM   19  H   UNL     1      -8.859  12.104  67.268  1.00  0.00     0.000 HD 
HETATM   20  C   UNL     1     -11.238   6.194  69.797  1.00  0.00    -0.494 C  
HETATM   21  C   UNL     1      -9.437   9.439  70.093  1.00  0.00    -0.276 A  
ENDBRANCH   2   4
TORSDOF 1
ENDMDL
MODEL      109
REMARK 921   NORMALIZED FREE ENERGY PREDICTED BY IDOCK:   -3.36 KCAL/MOL
REMARK 922        TOTAL FREE ENERGY PREDICTED BY IDOCK:   -3.73 KCAL/MOL
REMARK 923 INTER-LIGAND FREE ENERGY PREDICTED BY IDOCK:   -3.93 KCAL/MOL
REMARK 924 INTRA-LIGAND FREE ENERGY PREDICTED BY IDOCK:    0.20 KCAL/MOL
REMARK 927      BINDING AFFINITY PREDICTED BY RF-SCORE:    0.00 PKD
ROOT
HETATM    1  C   UNL     1      -5.204  11.697  67.352  1.00  0.00    -0.069 C  
HETATM    2  N   UNL     1      -6.655  11.811  67.499  1.00  0.00    -0.085 NA 
HETATM    3  C   UNL     1      -7.089  13.161  67.118  1.00  0.00     0.123 C  
ENDROOT
BRANCH   2   4
HETATM    4  C   UNL     1      -7.382  10.799  66.697  1.00  0.00    -0.134 C  
HETATM    5  C   UNL     1      -8.700  10.238  67.325  1.00  0.00    -0.125 C  
HETATM    6  C   UNL     1      -9.732  11.354  67.505  1.00  0.00    -0.191 A  
HETATM    7  C   UNL     1      -9.243   8.957  66.559  1.00  0.00    -0.183 C  
HETATM    8  O   UNL     1      -9.490   9.262  65.181  1.00  0.00    -0.409 OA 
HETATM    9  C   UNL     1     -10.263  12.068  66.419  1.00  0.00    -0.243 A  
HETATM   10  C   UNL     1      -8.244   7.779  66.610  1.00  0.00    -0.123 C  
HETATM   11  C   UNL     1      -7.941   7.327  68.030  1.00  0.00    -0.119 C  
HETATM   12  C   UNL     1     -11.191  13.094  66.624  1.00  0.00    -0.335 A  
HETATM   13  H   UNL     1      -9.814   8.496  64.723  1.00  0.00     0.000 HD 
HETATM   14  C   UNL     1     -11.595  13.407  67.916  1.00  0.00    -0.339 A  
HETATM   15  C   UNL     1      -9.190   7.023  68.854  1.00  0.00    -0.136 C  
HETATM   16  C   UNL     1     -10.441   7.855  68.555  1.00  0.00    -0.202 C  
HETATM   17  O   UNL     1     -12.513  14.383  68.161  1.00  0.00    -0.579 OA 
HETATM   18  C   UNL     1     -11.074  12.725  69.006  1.00  0.00    -0.285 A  
HETATM   19  H   UNL     1     -12.790  14.596  69.045  1.00  0.00     0.000 HD 
HETATM   20  C   UNL     1     -10.560   8.402  67.135  1.00  0.00    -0.326 C  
HETATM   21  C   UNL     1     -10.145  11.705  68.802  1.00  0.00    -0.169 A  
ENDBRANCH   2   4
TORSDOF 1
ENDMDL
MODEL      110
REMARK 921   NORMALIZED FREE ENERGY PREDICTED BY IDOCK:   -3.33 KCAL/MOL
REMARK 922        TOTAL FREE ENERGY PREDICTED BY IDOCK:   -3.69 KCAL/MOL
REMARK 923 INTER-LIGAND FREE ENERGY PREDICTED BY IDOCK:   -3.78 KCAL/MOL
REMARK 924 INTRA-LIGAND FREE ENERGY PREDICTED BY IDOCK:    0.08 KCAL/MOL
REMARK 927      BINDING AFFINITY PREDICTED BY RF-SCORE:    0.00 PKD
ROOT
HETATM    1  C   UNL     1     -10.736   8.927  71.793  1.00  0.00    -0.362 C  
HETATM    2  N   UNL     1      -9.288   9.032  71.975  1.00  0.00    -0.347 NA 
HETATM    3  C   UNL     1      -8.907   8.456  73.270  1.00  0.00    -0.126 C  
ENDROOT
BRANCH   2   4
HETATM    4  C   UNL     1      -8.535   8.370  70.883  1.00  0.00    -0.140 C  
HETATM    5  C   UNL     1      -9.125   8.530  69.444  1.00  0.00    -0.150 C  
HETATM    6  C   UNL     1      -9.137  10.002  69.024  1.00  0.00    -0.172 A  
HETATM    7  C   UNL     1      -8.444   7.551  68.394  1.00  0.00    -0.125 C  
HETATM    8  O   UNL     1      -7.031   7.782  68.336  1.00  0.00    -0.068 OA 
HETATM    9  C   UNL     1      -7.959  10.755  68.891  1.00  0.00    -0.143 A  
HETATM   10  C   UNL     1      -8.665   6.065  68.753  1.00  0.00    -0.111 C  
HETATM   11  C   UNL     1     -10.136   5.683  68.795  1.00  0.00    -0.245 C  
HETATM   12  C   UNL     1      -8.010  12.103  68.523  1.00  0.00    -0.119 A  
HETATM   13  H   UNL     1      -6.624   7.197  67.708  1.00  0.00     0.000 HD 
HETATM   14  C   UNL     1      -9.240  12.702  68.280  1.00  0.00    -0.184 A  
HETATM   15  C   UNL     1     -10.902   6.062  67.529  1.00  0.00    -0.393 C  
HETATM   16  C   UNL     1     -10.449   7.327  66.793  1.00  0.00    -0.311 C  
HETATM   17  O   UNL     1      -9.337  14.006  67.898  1.00  0.00    -0.193 OA 
HETATM   18  C   UNL     1     -10.419  11.983  68.419  1.00  0.00    -0.231 A  
HETATM   19  H   UNL     1     -10.178  14.416  67.732  1.00  0.00     0.000 HD 
HETATM   20  C   UNL     1      -8.981   7.711  66.958  1.00  0.00    -0.148 C  
HETATM   21  C   UNL     1     -10.368  10.640  68.791  1.00  0.00    -0.210 A  
ENDBRANCH   2   4
TORSDOF 1
ENDMDL
MODEL      111
REMARK 921   NORMALIZED FREE ENERGY PREDICTED BY IDOCK:   -3.32 KCAL/MOL
REMARK 922        TOTAL FREE ENERGY PREDICTED BY IDOCK:   -3.69 KCAL/MOL
REMARK 923 INTER-LIGAND FREE ENERGY PREDICTED BY IDOCK:   -4.28 KCAL/MOL
REMARK 924 INTRA-LIGAND FREE ENERGY PREDICTED BY IDOCK:    0.59 KCAL/MOL
REMARK 927      BINDING AFFINITY PREDICTED BY RF-SCORE:    0.00 PKD
ROOT
HETATM    1  C   UNL     1     -10.622   4.596  74.218  1.00  0.00    -0.274 C  
HETATM    2  N   UNL     1      -9.204   4.533  73.864  1.00  0.00    -0.110 NA 
HETATM    3  C   UNL     1      -9.045   3.877  72.561  1.00  0.00    -0.109 C  
ENDROOT
BRANCH   2   4
HETATM    4  C   UNL     1      -8.572   5.874  73.838  1.00  0.00    -0.117 C  
HETATM    5  C   UNL     1      -8.663   6.653  72.485  1.00  0.00    -0.126 C  
HETATM    6  C   UNL     1     -10.121   6.943  72.124  1.00  0.00    -0.198 A  
HETATM    7  C   UNL     1      -7.710   7.924  72.450  1.00  0.00    -0.109 C  
HETATM    8  O   UNL     1      -8.034   8.824  73.516  1.00  0.00    -0.409 OA 
HETATM    9  C   UNL     1     -10.948   7.746  72.925  1.00  0.00    -0.467 A  
HETATM   10  C   UNL     1      -6.220   7.541  72.590  1.00  0.00    -0.054 C  
HETATM   11  C   UNL     1      -5.741   6.622  71.478  1.00  0.00    -0.036 C  
HETATM   12  C   UNL     1     -12.282   7.975  72.572  1.00  0.00    -0.294 A  
HETATM   13  H   UNL     1      -7.464   9.584  73.494  1.00  0.00     0.000 HD 
HETATM   14  C   UNL     1     -12.793   7.403  71.412  1.00  0.00    -0.365 A  
HETATM   15  C   UNL     1      -6.043   7.151  70.077  1.00  0.00    -0.024 C  
HETATM   16  C   UNL     1      -7.319   7.979  69.904  1.00  0.00    -0.066 C  
HETATM   17  O   UNL     1     -14.079   7.616  71.018  1.00  0.00    -0.655 OA 
HETATM   18  C   UNL     1     -11.999   6.594  70.612  1.00  0.00    -0.404 A  
HETATM   19  H   UNL     1     -14.428   7.226  70.225  1.00  0.00     0.000 HD 
HETATM   20  C   UNL     1      -7.804   8.732  71.140  1.00  0.00    -0.161 C  
HETATM   21  C   UNL     1     -10.670   6.363  70.967  1.00  0.00    -0.301 A  
ENDBRANCH   2   4
TORSDOF 1
ENDMDL
MODEL      112
REMARK 921   NORMALIZED FREE ENERGY PREDICTED BY IDOCK:   -3.31 KCAL/MOL
REMARK 922        TOTAL FREE ENERGY PREDICTED BY IDOCK:   -3.67 KCAL/MOL
REMARK 923 INTER-LIGAND FREE ENERGY PREDICTED BY IDOCK:   -3.68 KCAL/MOL
REMARK 924 INTRA-LIGAND FREE ENERGY PREDICTED BY IDOCK:    0.01 KCAL/MOL
REMARK 927      BINDING AFFINITY PREDICTED BY RF-SCORE:    0.00 PKD
ROOT
HETATM    1  C   UNL     1      -9.941   5.382  68.832  1.00  0.00    -0.180 C  
HETATM    2  N   UNL     1      -9.909   6.597  68.018  1.00  0.00    -0.129 NA 
HETATM    3  C   UNL     1     -11.150   6.711  67.244  1.00  0.00    -0.345 C  
ENDROOT
BRANCH   2   4
HETATM    4  C   UNL     1      -9.707   7.816  68.837  1.00  0.00    -0.160 C  
HETATM    5  C   UNL     1      -8.679   8.856  68.283  1.00  0.00    -0.134 C  
HETATM    6  C   UNL     1      -9.142   9.410  66.933  1.00  0.00    -0.160 A  
HETATM    7  C   UNL     1      -8.299   9.967  69.354  1.00  0.00    -0.156 C  
HETATM    8  O   UNL     1      -9.470  10.670  69.786  1.00  0.00    -0.415 OA 
HETATM    9  C   UNL     1     -10.332  10.141  66.788  1.00  0.00    -0.285 A  
HETATM   10  C   UNL     1      -7.622   9.364  70.605  1.00  0.00    -0.163 C  
HETATM   11  C   UNL     1      -6.331   8.630  70.278  1.00  0.00    -0.038 C  
HETATM   12  C   UNL     1     -10.732  10.615  65.535  1.00  0.00    -0.105 A  
HETATM   13  H   UNL     1      -9.243  11.334  70.426  1.00  0.00     0.000 HD 
HETATM   14  C   UNL     1      -9.940  10.364  64.421  1.00  0.00    -0.318 A  
HETATM   15  C   UNL     1      -5.342   9.467  69.468  1.00  0.00    -0.035 C  
HETATM   16  C   UNL     1      -5.930  10.479  68.481  1.00  0.00    -0.043 C  
HETATM   17  O   UNL     1     -10.278  10.825  63.185  1.00  0.00    -0.550 OA 
HETATM   18  C   UNL     1      -8.767   9.631  64.536  1.00  0.00    -0.227 A  
HETATM   19  H   UNL     1      -9.736  10.654  62.424  1.00  0.00     0.000 HD 
HETATM   20  C   UNL     1      -7.313  11.027  68.825  1.00  0.00    -0.111 C  
HETATM   21  C   UNL     1      -8.371   9.154  65.785  1.00  0.00    -0.131 A  
ENDBRANCH   2   4
TORSDOF 1
ENDMDL
MODEL      113
REMARK 921   NORMALIZED FREE ENERGY PREDICTED BY IDOCK:   -3.30 KCAL/MOL
REMARK 922        TOTAL FREE ENERGY PREDICTED BY IDOCK:   -3.67 KCAL/MOL
REMARK 923 INTER-LIGAND FREE ENERGY PREDICTED BY IDOCK:   -3.51 KCAL/MOL
REMARK 924 INTRA-LIGAND FREE ENERGY PREDICTED BY IDOCK:   -0.16 KCAL/MOL
REMARK 927      BINDING AFFINITY PREDICTED BY RF-SCORE:    0.00 PKD
ROOT
HETATM    1  C   UNL     1     -10.595  12.650  63.230  1.00  0.00     0.083 C  
HETATM    2  N   UNL     1     -11.303  11.923  64.283  1.00  0.00    -0.350 NA 
HETATM    3  C   UNL     1     -12.706  11.730  63.898  1.00  0.00    -0.207 C  
ENDROOT
BRANCH   2   4
HETATM    4  C   UNL     1     -10.675  10.614  64.583  1.00  0.00     0.039 C  
HETATM    5  C   UNL     1      -9.564  10.620  65.685  1.00  0.00    -0.268 C  
HETATM    6  C   UNL     1     -10.142  11.052  67.034  1.00  0.00    -0.232 A  
HETATM    7  C   UNL     1      -8.741   9.261  65.725  1.00  0.00    -0.156 C  
HETATM    8  O   UNL     1      -9.614   8.151  65.965  1.00  0.00    -0.401 OA 
HETATM    9  C   UNL     1     -11.139  10.316  67.695  1.00  0.00    -0.319 A  
HETATM   10  C   UNL     1      -7.989   8.994  64.403  1.00  0.00    -0.133 C  
HETATM   11  C   UNL     1      -6.987  10.087  64.065  1.00  0.00    -0.124 C  
HETATM   12  C   UNL     1     -11.656  10.752  68.919  1.00  0.00    -0.361 A  
HETATM   13  H   UNL     1      -9.122   7.339  65.989  1.00  0.00     0.000 HD 
HETATM   14  C   UNL     1     -11.174  11.924  69.490  1.00  0.00    -0.166 A  
HETATM   15  C   UNL     1      -6.011  10.392  65.200  1.00  0.00    -0.133 C  
HETATM   16  C   UNL     1      -6.534  10.234  66.630  1.00  0.00    -0.076 C  
HETATM   17  O   UNL     1     -11.633  12.374  70.691  1.00  0.00    -0.407 OA 
HETATM   18  C   UNL     1     -10.200  12.676  68.849  1.00  0.00    -0.004 A  
HETATM   19  H   UNL     1     -11.302  13.175  71.081  1.00  0.00     0.000 HD 
HETATM   20  C   UNL     1      -7.661   9.224  66.825  1.00  0.00    -0.094 C  
HETATM   21  C   UNL     1      -9.688  12.243  67.626  1.00  0.00    -0.194 A  
ENDBRANCH   2   4
TORSDOF 1
ENDMDL
MODEL      114
REMARK 921   NORMALIZED FREE ENERGY PREDICTED BY IDOCK:   -3.26 KCAL/MOL
REMARK 922        TOTAL FREE ENERGY PREDICTED BY IDOCK:   -3.62 KCAL/MOL
REMARK 923 INTER-LIGAND FREE ENERGY PREDICTED BY IDOCK:   -4.21 KCAL/MOL
REMARK 924 INTRA-LIGAND FREE ENERGY PREDICTED BY IDOCK:    0.59 KCAL/MOL
REMARK 927      BINDING AFFINITY PREDICTED BY RF-SCORE:    0.00 PKD
ROOT
HETATM    1  C   UNL     1      -9.626  10.199  64.590  1.00  0.00    -0.315 C  
HETATM    2  N   UNL     1      -8.865   9.102  65.190  1.00  0.00    -0.198 NA 
HETATM    3  C   UNL     1      -7.525   9.570  65.561  1.00  0.00    -0.102 C  
ENDROOT
BRANCH   2   4
HETATM    4  C   UNL     1      -9.548   8.526  66.372  1.00  0.00    -0.245 C  
HETATM    5  C   UNL     1      -9.290   9.247  67.736  1.00  0.00    -0.145 C  
HETATM    6  C   UNL     1      -9.810  10.686  67.695  1.00  0.00    -0.191 A  
HETATM    7  C   UNL     1      -9.800   8.398  68.979  1.00  0.00    -0.183 C  
HETATM    8  O   UNL     1     -11.202   8.130  68.863  1.00  0.00    -0.386 OA 
HETATM    9  C   UNL     1     -11.168  10.989  67.510  1.00  0.00    -0.372 A  
HETATM   10  C   UNL     1      -9.069   7.043  69.100  1.00  0.00    -0.136 C  
HETATM   11  C   UNL     1      -7.567   7.199  69.281  1.00  0.00    -0.102 C  
HETATM   12  C   UNL     1     -11.604  12.317  67.459  1.00  0.00    -0.422 A  
HETATM   13  H   UNL     1     -11.507   7.623  69.607  1.00  0.00     0.000 HD 
HETATM   14  C   UNL     1     -10.681  13.348  67.599  1.00  0.00    -0.247 A  
HETATM   15  C   UNL     1      -7.184   8.134  70.427  1.00  0.00    -0.048 C  
HETATM   16  C   UNL     1      -8.127   9.306  70.714  1.00  0.00    -0.194 C  
HETATM   17  O   UNL     1     -11.063  14.655  67.578  1.00  0.00    -0.292 OA 
HETATM   18  C   UNL     1      -9.332  13.073  67.768  1.00  0.00    -0.199 A  
HETATM   19  H   UNL     1     -10.433  15.360  67.674  1.00  0.00     0.000 HD 
HETATM   20  C   UNL     1      -9.590   9.099  70.336  1.00  0.00    -0.268 C  
HETATM   21  C   UNL     1      -8.898  11.749  67.813  1.00  0.00    -0.163 A  
ENDBRANCH   2   4
TORSDOF 1
ENDMDL
MODEL      115
REMARK 921   NORMALIZED FREE ENERGY PREDICTED BY IDOCK:   -3.23 KCAL/MOL
REMARK 922        TOTAL FREE ENERGY PREDICTED BY IDOCK:   -3.58 KCAL/MOL
REMARK 923 INTER-LIGAND FREE ENERGY PREDICTED BY IDOCK:   -3.42 KCAL/MOL
REMARK 924 INTRA-LIGAND FREE ENERGY PREDICTED BY IDOCK:   -0.17 KCAL/MOL
REMARK 927      BINDING AFFINITY PREDICTED BY RF-SCORE:    0.00 PKD
ROOT
HETATM    1  C   UNL     1      -6.307  18.211  68.893  1.00  0.00    -0.224 C  
HETATM    2  N   UNL     1      -7.659  17.679  68.723  1.00  0.00    -0.267 NA 
HETATM    3  C   UNL     1      -8.551  18.735  68.228  1.00  0.00    -0.327 C  
ENDROOT
BRANCH   2   4
HETATM    4  C   UNL     1      -7.693  16.514  67.806  1.00  0.00    -0.152 C  
HETATM    5  C   UNL     1      -8.189  15.166  68.424  1.00  0.00    -0.145 C  
HETATM    6  C   UNL     1      -9.640  15.288  68.895  1.00  0.00    -0.220 A  
HETATM    7  C   UNL     1      -7.906  13.922  67.477  1.00  0.00    -0.181 C  
HETATM    8  O   UNL     1      -8.544  14.103  66.206  1.00  0.00    -0.392 OA 
HETATM    9  C   UNL     1     -10.697  15.556  68.011  1.00  0.00    -0.283 A  
HETATM   10  C   UNL     1      -6.397  13.713  67.223  1.00  0.00     0.292 C  
HETATM   11  C   UNL     1      -5.615  13.458  68.502  1.00  0.00    -0.086 C  
HETATM   12  C   UNL     1     -12.009  15.678  68.481  1.00  0.00    -0.145 A  
HETATM   13  H   UNL     1      -8.374  13.359  65.640  1.00  0.00     0.000 HD 
HETATM   14  C   UNL     1     -12.269  15.527  69.838  1.00  0.00    -0.325 A  
HETATM   15  C   UNL     1      -6.191  12.328  69.354  1.00  0.00    -0.110 C  
HETATM   16  C   UNL     1      -7.710  12.134  69.321  1.00  0.00     0.352 C  
HETATM   17  O   UNL     1     -13.533  15.616  70.337  1.00  0.00    -0.804 OA 
HETATM   18  C   UNL     1     -11.239  15.276  70.733  1.00  0.00    -0.353 A  
HETATM   19  H   UNL     1     -13.711  15.512  71.265  1.00  0.00     0.000 HD 
HETATM   20  C   UNL     1      -8.416  12.582  68.044  1.00  0.00    -0.173 C  
HETATM   21  C   UNL     1      -9.931  15.159  70.265  1.00  0.00     0.125 A  
ENDBRANCH   2   4
TORSDOF 1
ENDMDL
MODEL      116
REMARK 921   NORMALIZED FREE ENERGY PREDICTED BY IDOCK:   -3.22 KCAL/MOL
REMARK 922        TOTAL FREE ENERGY PREDICTED BY IDOCK:   -3.57 KCAL/MOL
REMARK 923 INTER-LIGAND FREE ENERGY PREDICTED BY IDOCK:   -3.41 KCAL/MOL
REMARK 924 INTRA-LIGAND FREE ENERGY PREDICTED BY IDOCK:   -0.16 KCAL/MOL
REMARK 927      BINDING AFFINITY PREDICTED BY RF-SCORE:    0.00 PKD
ROOT
HETATM    1  C   UNL     1      -6.705   5.161  70.835  1.00  0.00    -0.043 C  
HETATM    2  N   UNL     1      -7.863   4.642  70.107  1.00  0.00    -0.060 NA 
HETATM    3  C   UNL     1      -8.182   3.289  70.578  1.00  0.00    -0.052 C  
ENDROOT
BRANCH   2   4
HETATM    4  C   UNL     1      -9.050   5.519  70.241  1.00  0.00    -0.138 C  
HETATM    5  C   UNL     1      -9.185   6.662  69.182  1.00  0.00    -0.136 C  
HETATM    6  C   UNL     1      -9.332   6.081  67.774  1.00  0.00    -0.106 A  
HETATM    7  C   UNL     1     -10.297   7.727  69.575  1.00  0.00    -0.219 C  
HETATM    8  O   UNL     1     -11.572   7.091  69.723  1.00  0.00    -0.529 OA 
HETATM    9  C   UNL     1     -10.420   5.275  67.403  1.00  0.00    -0.213 A  
HETATM   10  C   UNL     1      -9.973   8.449  70.901  1.00  0.00    -0.230 C  
HETATM   11  C   UNL     1      -8.657   9.209  70.851  1.00  0.00    -0.259 C  
HETATM   12  C   UNL     1     -10.511   4.747  66.112  1.00  0.00    -0.332 A  
HETATM   13  H   UNL     1     -12.237   7.728  69.957  1.00  0.00     0.000 HD 
HETATM   14  C   UNL     1      -9.516   5.028  65.183  1.00  0.00    -0.002 A  
HETATM   15  C   UNL     1      -8.551  10.166  69.664  1.00  0.00    -0.170 C  
HETATM   16  C   UNL     1      -9.260   9.755  68.371  1.00  0.00    -0.130 C  
HETATM   17  O   UNL     1      -9.574   4.554  63.908  1.00  0.00    -0.318 OA 
HETATM   18  C   UNL     1      -8.424   5.811  65.530  1.00  0.00    -0.150 A  
HETATM   19  H   UNL     1      -8.894   4.747  63.273  1.00  0.00     0.000 HD 
HETATM   20  C   UNL     1     -10.477   8.848  68.532  1.00  0.00    -0.218 C  
HETATM   21  C   UNL     1      -8.331   6.333  66.820  1.00  0.00    -0.110 A  
ENDBRANCH   2   4
TORSDOF 1
ENDMDL
MODEL      117
REMARK 921   NORMALIZED FREE ENERGY PREDICTED BY IDOCK:   -3.20 KCAL/MOL
REMARK 922        TOTAL FREE ENERGY PREDICTED BY IDOCK:   -3.56 KCAL/MOL
REMARK 923 INTER-LIGAND FREE ENERGY PREDICTED BY IDOCK:   -4.26 KCAL/MOL
REMARK 924 INTRA-LIGAND FREE ENERGY PREDICTED BY IDOCK:    0.70 KCAL/MOL
REMARK 927      BINDING AFFINITY PREDICTED BY RF-SCORE:    0.00 PKD
ROOT
HETATM    1  C   UNL     1     -11.890  15.454  66.990  1.00  0.00     0.204 C  
HETATM    2  N   UNL     1     -12.218  14.111  66.512  1.00  0.00    -0.457 NA 
HETATM    3  C   UNL     1     -11.766  13.951  65.126  1.00  0.00    -0.350 C  
ENDROOT
BRANCH   2   4
HETATM    4  C   UNL     1     -11.627  13.052  67.365  1.00  0.00    -0.356 C  
HETATM    5  C   UNL     1     -10.091  12.813  67.201  1.00  0.00    -0.234 C  
HETATM    6  C   UNL     1      -9.303  14.065  67.594  1.00  0.00    -0.203 A  
HETATM    7  C   UNL     1      -9.603  11.478  67.911  1.00  0.00    -0.177 C  
HETATM    8  O   UNL     1      -9.912  11.511  69.309  1.00  0.00    -0.418 OA 
HETATM    9  C   UNL     1      -9.331  14.593  68.895  1.00  0.00    -0.160 A  
HETATM   10  C   UNL     1     -10.269  10.220  67.310  1.00  0.00    -0.267 C  
HETATM   11  C   UNL     1      -9.968  10.047  65.829  1.00  0.00    -0.346 C  
HETATM   12  C   UNL     1      -8.612  15.749  69.213  1.00  0.00    -0.259 A  
HETATM   13  H   UNL     1      -9.620  10.713  69.734  1.00  0.00     0.000 HD 
HETATM   14  C   UNL     1      -7.857  16.380  68.231  1.00  0.00    -0.168 A  
HETATM   15  C   UNL     1      -8.477  10.090  65.500  1.00  0.00    -0.155 C  
HETATM   16  C   UNL     1      -7.597  10.991  66.370  1.00  0.00    -0.135 C  
HETATM   17  O   UNL     1      -7.123  17.496  68.501  1.00  0.00    -0.206 OA 
HETATM   18  C   UNL     1      -7.824  15.886  66.935  1.00  0.00    -0.282 A  
HETATM   19  H   UNL     1      -6.607  17.926  67.830  1.00  0.00     0.000 HD 
HETATM   20  C   UNL     1      -8.085  11.233  67.796  1.00  0.00    -0.119 C  
HETATM   21  C   UNL     1      -8.546  14.735  66.617  1.00  0.00    -0.170 A  
ENDBRANCH   2   4
TORSDOF 1
ENDMDL
MODEL      118
REMARK 921   NORMALIZED FREE ENERGY PREDICTED BY IDOCK:   -3.20 KCAL/MOL
REMARK 922        TOTAL FREE ENERGY PREDICTED BY IDOCK:   -3.55 KCAL/MOL
REMARK 923 INTER-LIGAND FREE ENERGY PREDICTED BY IDOCK:   -3.39 KCAL/MOL
REMARK 924 INTRA-LIGAND FREE ENERGY PREDICTED BY IDOCK:   -0.17 KCAL/MOL
REMARK 927      BINDING AFFINITY PREDICTED BY RF-SCORE:    0.00 PKD
ROOT
HETATM    1  C   UNL     1     -12.389   8.215  72.408  1.00  0.00    -0.294 C  
HETATM    2  N   UNL     1     -11.374   8.413  71.372  1.00  0.00    -0.252 NA 
HETATM    3  C   UNL     1     -11.155   9.848  71.158  1.00  0.00    -0.289 C  
ENDROOT
BRANCH   2   4
HETATM    4  C   UNL     1     -10.093   7.747  71.707  1.00  0.00    -0.179 C  
HETATM    5  C   UNL     1      -9.620   6.629  70.722  1.00  0.00    -0.183 C  
HETATM    6  C   UNL     1      -9.363   7.208  69.328  1.00  0.00    -0.146 A  
HETATM    7  C   UNL     1      -8.419   5.769  71.308  1.00  0.00    -0.128 C  
HETATM    8  O   UNL     1      -7.300   6.611  71.614  1.00  0.00    -0.084 OA 
HETATM    9  C   UNL     1      -8.379   8.180  69.087  1.00  0.00    -0.131 A  
HETATM   10  C   UNL     1      -8.813   5.021  72.600  1.00  0.00    -0.124 C  
HETATM   11  C   UNL     1      -9.966   4.051  72.390  1.00  0.00    -0.229 C  
HETATM   12  C   UNL     1      -8.186   8.699  67.803  1.00  0.00    -0.118 A  
HETATM   13  H   UNL     1      -6.583   6.097  71.964  1.00  0.00     0.000 HD 
HETATM   14  C   UNL     1      -8.974   8.244  66.753  1.00  0.00    -0.147 A  
HETATM   15  C   UNL     1      -9.739   3.075  71.237  1.00  0.00    -0.208 C  
HETATM   16  C   UNL     1      -8.923   3.582  70.044  1.00  0.00    -0.171 C  
HETATM   17  O   UNL     1      -8.807   8.705  65.482  1.00  0.00    -0.183 OA 
HETATM   18  C   UNL     1      -9.963   7.295  66.969  1.00  0.00    -0.293 A  
HETATM   19  H   UNL     1      -9.346   8.393  64.764  1.00  0.00     0.000 HD 
HETATM   20  C   UNL     1      -7.907   4.681  70.344  1.00  0.00    -0.054 C  
HETATM   21  C   UNL     1     -10.159   6.781  68.250  1.00  0.00    -0.173 A  
ENDBRANCH   2   4
TORSDOF 1
ENDMDL
MODEL      119
REMARK 921   NORMALIZED FREE ENERGY PREDICTED BY IDOCK:   -3.17 KCAL/MOL
REMARK 922        TOTAL FREE ENERGY PREDICTED BY IDOCK:   -3.53 KCAL/MOL
REMARK 923 INTER-LIGAND FREE ENERGY PREDICTED BY IDOCK:   -3.36 KCAL/MOL
REMARK 924 INTRA-LIGAND FREE ENERGY PREDICTED BY IDOCK:   -0.17 KCAL/MOL
REMARK 927      BINDING AFFINITY PREDICTED BY RF-SCORE:    0.00 PKD
ROOT
HETATM    1  C   UNL     1      -8.300   2.853  69.757  1.00  0.00    -0.051 C  
HETATM    2  N   UNL     1      -8.389   3.423  68.412  1.00  0.00    -0.080 NA 
HETATM    3  C   UNL     1      -8.409   2.347  67.415  1.00  0.00    -0.083 C  
ENDROOT
BRANCH   2   4
HETATM    4  C   UNL     1      -9.579   4.291  68.247  1.00  0.00    -0.135 C  
HETATM    5  C   UNL     1      -9.327   5.832  68.340  1.00  0.00    -0.130 C  
HETATM    6  C   UNL     1      -8.393   6.297  67.221  1.00  0.00    -0.109 A  
HETATM    7  C   UNL     1     -10.676   6.663  68.460  1.00  0.00    -0.256 C  
HETATM    8  O   UNL     1     -11.525   6.408  67.334  1.00  0.00    -0.705 OA 
HETATM    9  C   UNL     1      -8.733   6.186  65.863  1.00  0.00    -0.158 A  
HETATM   10  C   UNL     1     -11.468   6.310  69.738  1.00  0.00    -0.449 C  
HETATM   11  C   UNL     1     -10.684   6.589  71.011  1.00  0.00    -0.289 C  
HETATM   12  C   UNL     1      -7.846   6.605  64.867  1.00  0.00    -0.115 A  
HETATM   13  H   UNL     1     -12.331   6.905  67.406  1.00  0.00     0.000 HD 
HETATM   14  C   UNL     1      -6.615   7.142  65.226  1.00  0.00    -0.047 A  
HETATM   15  C   UNL     1     -10.125   8.009  71.085  1.00  0.00    -0.221 C  
HETATM   16  C   UNL     1      -9.720   8.668  69.764  1.00  0.00    -0.176 C  
HETATM   17  O   UNL     1      -5.728   7.583  64.290  1.00  0.00    -0.036 OA 
HETATM   18  C   UNL     1      -6.250   7.248  66.560  1.00  0.00    -0.040 A  
HETATM   19  H   UNL     1      -4.887   7.951  64.536  1.00  0.00     0.000 HD 
HETATM   20  C   UNL     1     -10.461   8.188  68.519  1.00  0.00    -0.199 C  
HETATM   21  C   UNL     1      -7.133   6.826  67.553  1.00  0.00    -0.085 A  
ENDBRANCH   2   4
TORSDOF 1
ENDMDL
MODEL      120
REMARK 921   NORMALIZED FREE ENERGY PREDICTED BY IDOCK:   -3.11 KCAL/MOL
REMARK 922        TOTAL FREE ENERGY PREDICTED BY IDOCK:   -3.46 KCAL/MOL
REMARK 923 INTER-LIGAND FREE ENERGY PREDICTED BY IDOCK:   -3.29 KCAL/MOL
REMARK 924 INTRA-LIGAND FREE ENERGY PREDICTED BY IDOCK:   -0.17 KCAL/MOL
REMARK 927      BINDING AFFINITY PREDICTED BY RF-SCORE:    0.00 PKD
ROOT
HETATM    1  C   UNL     1     -13.045   8.873  71.523  1.00  0.00    -0.329 C  
HETATM    2  N   UNL     1     -11.915   7.947  71.432  1.00  0.00    -0.297 NA 
HETATM    3  C   UNL     1     -12.325   6.615  71.890  1.00  0.00    -0.318 C  
ENDROOT
BRANCH   2   4
HETATM    4  C   UNL     1     -11.366   7.865  70.058  1.00  0.00    -0.027 C  
HETATM    5  C   UNL     1      -9.988   8.567  69.824  1.00  0.00    -0.191 C  
HETATM    6  C   UNL     1      -8.898   7.919  70.680  1.00  0.00    -0.140 A  
HETATM    7  C   UNL     1      -9.625   8.696  68.282  1.00  0.00    -0.147 C  
HETATM    8  O   UNL     1      -9.589   7.404  67.664  1.00  0.00    -0.134 OA 
HETATM    9  C   UNL     1      -8.518   6.576  70.523  1.00  0.00    -0.138 A  
HETATM   10  C   UNL     1     -10.648   9.560  67.512  1.00  0.00    -0.338 C  
HETATM   11  C   UNL     1     -10.740  10.980  68.046  1.00  0.00    -0.260 C  
HETATM   12  C   UNL     1      -7.530   6.013  71.337  1.00  0.00    -0.093 A  
HETATM   13  H   UNL     1      -9.372   7.482  66.743  1.00  0.00     0.000 HD 
HETATM   14  C   UNL     1      -6.913   6.793  72.307  1.00  0.00    -0.067 A  
HETATM   15  C   UNL     1      -9.388  11.685  68.141  1.00  0.00    -0.188 C  
HETATM   16  C   UNL     1      -8.168  10.814  68.457  1.00  0.00    -0.136 C  
HETATM   17  O   UNL     1      -5.930   6.293  73.107  1.00  0.00    -0.051 OA 
HETATM   18  C   UNL     1      -7.280   8.119  72.491  1.00  0.00    -0.123 A  
HETATM   19  H   UNL     1      -5.508   6.827  73.770  1.00  0.00     0.000 HD 
HETATM   20  C   UNL     1      -8.255   9.354  68.021  1.00  0.00    -0.114 C  
HETATM   21  C   UNL     1      -8.270   8.678  71.682  1.00  0.00    -0.199 A  
ENDBRANCH   2   4
TORSDOF 1
ENDMDL
MODEL      121
REMARK 921   NORMALIZED FREE ENERGY PREDICTED BY IDOCK:   -3.11 KCAL/MOL
REMARK 922        TOTAL FREE ENERGY PREDICTED BY IDOCK:   -3.46 KCAL/MOL
REMARK 923 INTER-LIGAND FREE ENERGY PREDICTED BY IDOCK:   -3.29 KCAL/MOL
REMARK 924 INTRA-LIGAND FREE ENERGY PREDICTED BY IDOCK:   -0.17 KCAL/MOL
REMARK 927      BINDING AFFINITY PREDICTED BY RF-SCORE:    0.00 PKD
ROOT
HETATM    1  C   UNL     1     -12.763   7.475  71.536  1.00  0.00    -0.359 C  
HETATM    2  N   UNL     1     -11.458   7.427  70.877  1.00  0.00    -0.280 NA 
HETATM    3  C   UNL     1     -11.010   8.788  70.558  1.00  0.00    -0.239 C  
ENDROOT
BRANCH   2   4
HETATM    4  C   UNL     1     -10.438   6.736  71.701  1.00  0.00    -0.209 C  
HETATM    5  C   UNL     1     -10.057   5.287  71.254  1.00  0.00    -0.278 C  
HETATM    6  C   UNL     1      -9.435   5.296  69.856  1.00  0.00    -0.211 A  
HETATM    7  C   UNL     1      -9.202   4.517  72.350  1.00  0.00    -0.125 C  
HETATM    8  O   UNL     1      -7.997   5.234  72.643  1.00  0.00    -0.100 OA 
HETATM    9  C   UNL     1      -8.232   5.963  69.573  1.00  0.00    -0.113 A  
HETATM   10  C   UNL     1      -9.977   4.336  73.674  1.00  0.00    -0.171 C  
HETATM   11  C   UNL     1     -11.260   3.538  73.501  1.00  0.00    -0.279 C  
HETATM   12  C   UNL     1      -7.703   5.965  68.279  1.00  0.00    -0.101 A  
HETATM   13  H   UNL     1      -7.486   4.774  73.298  1.00  0.00     0.000 HD 
HETATM   14  C   UNL     1      -8.373   5.295  67.262  1.00  0.00    -0.107 A  
HETATM   15  C   UNL     1     -11.054   2.198  72.797  1.00  0.00    -0.013 C  
HETATM   16  C   UNL     1      -9.947   2.128  71.740  1.00  0.00    -0.209 C  
HETATM   17  O   UNL     1      -7.883   5.252  65.992  1.00  0.00    -0.100 OA 
HETATM   18  C   UNL     1      -9.570   4.641  67.514  1.00  0.00    -0.198 A  
HETATM   19  H   UNL     1      -8.341   4.793  65.297  1.00  0.00     0.000 HD 
HETATM   20  C   UNL     1      -8.782   3.096  71.923  1.00  0.00    -0.113 C  
HETATM   21  C   UNL     1     -10.100   4.643  68.804  1.00  0.00    -0.085 A  
ENDBRANCH   2   4
TORSDOF 1
ENDMDL
MODEL      122
REMARK 921   NORMALIZED FREE ENERGY PREDICTED BY IDOCK:   -3.09 KCAL/MOL
REMARK 922        TOTAL FREE ENERGY PREDICTED BY IDOCK:   -3.44 KCAL/MOL
REMARK 923 INTER-LIGAND FREE ENERGY PREDICTED BY IDOCK:   -3.31 KCAL/MOL
REMARK 924 INTRA-LIGAND FREE ENERGY PREDICTED BY IDOCK:   -0.13 KCAL/MOL
REMARK 927      BINDING AFFINITY PREDICTED BY RF-SCORE:    0.00 PKD
ROOT
HETATM    1  C   UNL     1      -5.714   8.894  67.719  1.00  0.00    -0.039 C  
HETATM    2  N   UNL     1      -6.627   7.801  67.384  1.00  0.00    -0.062 NA 
HETATM    3  C   UNL     1      -6.315   7.282  66.048  1.00  0.00    -0.041 C  
ENDROOT
BRANCH   2   4
HETATM    4  C   UNL     1      -6.578   6.704  68.380  1.00  0.00    -0.059 C  
HETATM    5  C   UNL     1      -7.942   6.300  69.029  1.00  0.00    -0.110 C  
HETATM    6  C   UNL     1      -8.912   5.772  67.969  1.00  0.00    -0.111 A  
HETATM    7  C   UNL     1      -7.760   5.347  70.287  1.00  0.00    -0.077 C  
HETATM    8  O   UNL     1      -7.062   4.153  69.915  1.00  0.00    -0.041 OA 
HETATM    9  C   UNL     1      -8.647   4.617  67.217  1.00  0.00    -0.104 A  
HETATM   10  C   UNL     1      -6.963   6.025  71.423  1.00  0.00    -0.072 C  
HETATM   11  C   UNL     1      -7.636   7.287  71.941  1.00  0.00    -0.085 C  
HETATM   12  C   UNL     1      -9.548   4.174  66.244  1.00  0.00    -0.209 A  
HETATM   13  H   UNL     1      -6.953   3.583  70.667  1.00  0.00     0.000 HD 
HETATM   14  C   UNL     1     -10.722   4.885  66.022  1.00  0.00    -0.190 A  
HETATM   15  C   UNL     1      -9.095   7.079  72.342  1.00  0.00    -0.147 C  
HETATM   16  C   UNL     1      -9.896   6.043  71.548  1.00  0.00    -0.197 C  
HETATM   17  O   UNL     1     -11.639   4.479  65.100  1.00  0.00    -1.102 OA 
HETATM   18  C   UNL     1     -10.999   6.039  66.741  1.00  0.00    -0.305 A  
HETATM   19  H   UNL     1     -12.441   4.965  64.948  1.00  0.00     0.000 HD 
HETATM   20  C   UNL     1      -9.090   4.905  70.927  1.00  0.00    -0.184 C  
HETATM   21  C   UNL     1     -10.097   6.482  67.709  1.00  0.00    -0.176 A  
ENDBRANCH   2   4
TORSDOF 1
ENDMDL
MODEL      123
REMARK 921   NORMALIZED FREE ENERGY PREDICTED BY IDOCK:   -3.09 KCAL/MOL
REMARK 922        TOTAL FREE ENERGY PREDICTED BY IDOCK:   -3.44 KCAL/MOL
REMARK 923 INTER-LIGAND FREE ENERGY PREDICTED BY IDOCK:   -3.33 KCAL/MOL
REMARK 924 INTRA-LIGAND FREE ENERGY PREDICTED BY IDOCK:   -0.10 KCAL/MOL
REMARK 927      BINDING AFFINITY PREDICTED BY RF-SCORE:    0.00 PKD
ROOT
HETATM    1  C   UNL     1     -10.202  10.286  70.351  1.00  0.00     0.078 C  
HETATM    2  N   UNL     1     -11.336   9.997  69.473  1.00  0.00    -0.206 NA 
HETATM    3  C   UNL     1     -12.512  10.756  69.911  1.00  0.00    -0.209 C  
ENDROOT
BRANCH   2   4
HETATM    4  C   UNL     1     -11.037  10.298  68.052  1.00  0.00    -0.274 C  
HETATM    5  C   UNL     1      -9.690   9.731  67.496  1.00  0.00    -0.192 C  
HETATM    6  C   UNL     1      -9.687   8.201  67.540  1.00  0.00    -0.207 A  
HETATM    7  C   UNL     1      -9.307  10.350  66.083  1.00  0.00    -0.172 C  
HETATM    8  O   UNL     1     -10.340  10.092  65.125  1.00  0.00    -0.257 OA 
HETATM    9  C   UNL     1     -10.600   7.426  66.808  1.00  0.00    -0.281 A  
HETATM   10  C   UNL     1      -9.097  11.878  66.152  1.00  0.00    -0.162 C  
HETATM   11  C   UNL     1      -7.982  12.277  67.106  1.00  0.00    -0.161 C  
HETATM   12  C   UNL     1     -10.579   6.030  66.888  1.00  0.00    -0.384 A  
HETATM   13  H   UNL     1     -10.110  10.462  64.280  1.00  0.00     0.000 HD 
HETATM   14  C   UNL     1      -9.639   5.404  67.698  1.00  0.00    -0.127 A  
HETATM   15  C   UNL     1      -6.663  11.553  66.839  1.00  0.00    -0.139 C  
HETATM   16  C   UNL     1      -6.750  10.122  66.300  1.00  0.00    -0.102 C  
HETATM   17  O   UNL     1      -9.567   4.046  67.789  1.00  0.00    -0.177 OA 
HETATM   18  C   UNL     1      -8.735   6.148  68.442  1.00  0.00    -0.115 A  
HETATM   19  H   UNL     1      -8.924   3.618  68.343  1.00  0.00     0.000 HD 
HETATM   20  C   UNL     1      -8.000   9.783  65.493  1.00  0.00    -0.123 C  
HETATM   21  C   UNL     1      -8.761   7.541  68.366  1.00  0.00    -0.123 A  
ENDBRANCH   2   4
TORSDOF 1
ENDMDL
MODEL      124
REMARK 921   NORMALIZED FREE ENERGY PREDICTED BY IDOCK:   -3.06 KCAL/MOL
REMARK 922        TOTAL FREE ENERGY PREDICTED BY IDOCK:   -3.41 KCAL/MOL
REMARK 923 INTER-LIGAND FREE ENERGY PREDICTED BY IDOCK:   -3.39 KCAL/MOL
REMARK 924 INTRA-LIGAND FREE ENERGY PREDICTED BY IDOCK:   -0.02 KCAL/MOL
REMARK 927      BINDING AFFINITY PREDICTED BY RF-SCORE:    0.00 PKD
ROOT
HETATM    1  C   UNL     1     -11.455  15.522  70.368  1.00  0.00    -0.345 C  
HETATM    2  N   UNL     1     -11.100  14.326  69.605  1.00  0.00    -0.217 NA 
HETATM    3  C   UNL     1     -12.304  13.744  69.001  1.00  0.00    -0.068 C  
ENDROOT
BRANCH   2   4
HETATM    4  C   UNL     1     -10.091  14.608  68.556  1.00  0.00    -0.238 C  
HETATM    5  C   UNL     1      -8.900  13.600  68.456  1.00  0.00    -0.099 C  
HETATM    6  C   UNL     1      -9.403  12.201  68.095  1.00  0.00    -0.204 A  
HETATM    7  C   UNL     1      -7.724  14.136  67.531  1.00  0.00    -0.185 C  
HETATM    8  O   UNL     1      -8.207  14.403  66.209  1.00  0.00    -0.100 OA 
HETATM    9  C   UNL     1     -10.057  11.927  66.883  1.00  0.00    -0.229 A  
HETATM   10  C   UNL     1      -7.099  15.439  68.077  1.00  0.00    -0.136 C  
HETATM   11  C   UNL     1      -6.502  15.268  69.465  1.00  0.00    -0.152 C  
HETATM   12  C   UNL     1     -10.520  10.639  66.595  1.00  0.00    -0.296 A  
HETATM   13  H   UNL     1      -7.504  14.723  65.656  1.00  0.00     0.000 HD 
HETATM   14  C   UNL     1     -10.324   9.618  67.518  1.00  0.00    -0.241 A  
HETATM   15  C   UNL     1      -5.519  14.103  69.567  1.00  0.00    -0.091 C  
HETATM   16  C   UNL     1      -5.791  12.882  68.683  1.00  0.00    -0.069 C  
HETATM   17  O   UNL     1     -10.738   8.343  67.270  1.00  0.00    -0.422 OA 
HETATM   18  C   UNL     1      -9.693   9.866  68.728  1.00  0.00    -0.164 A  
HETATM   19  H   UNL     1     -10.604   7.645  67.901  1.00  0.00     0.000 HD 
HETATM   20  C   UNL     1      -6.550  13.148  67.386  1.00  0.00    -0.092 C  
HETATM   21  C   UNL     1      -9.237  11.152  69.017  1.00  0.00    -0.045 A  
ENDBRANCH   2   4
TORSDOF 1
ENDMDL
MODEL      125
REMARK 921   NORMALIZED FREE ENERGY PREDICTED BY IDOCK:   -3.05 KCAL/MOL
REMARK 922        TOTAL FREE ENERGY PREDICTED BY IDOCK:   -3.40 KCAL/MOL
REMARK 923 INTER-LIGAND FREE ENERGY PREDICTED BY IDOCK:   -3.24 KCAL/MOL
REMARK 924 INTRA-LIGAND FREE ENERGY PREDICTED BY IDOCK:   -0.16 KCAL/MOL
REMARK 927      BINDING AFFINITY PREDICTED BY RF-SCORE:    0.00 PKD
ROOT
HETATM    1  C   UNL     1      -6.767  10.429  65.298  1.00  0.00    -0.100 C  
HETATM    2  N   UNL     1      -7.932   9.821  65.941  1.00  0.00    -0.109 NA 
HETATM    3  C   UNL     1      -7.672   8.401  66.204  1.00  0.00    -0.097 C  
ENDROOT
BRANCH   2   4
HETATM    4  C   UNL     1      -8.302  10.511  67.200  1.00  0.00    -0.127 C  
HETATM    5  C   UNL     1      -8.567  12.049  67.090  1.00  0.00    -0.182 C  
HETATM    6  C   UNL     1      -9.757  12.330  66.170  1.00  0.00    -0.256 A  
HETATM    7  C   UNL     1      -8.652  12.754  68.512  1.00  0.00    -0.048 C  
HETATM    8  O   UNL     1      -9.694  12.168  69.301  1.00  0.00    -0.284 OA 
HETATM    9  C   UNL     1     -11.054  11.878  66.460  1.00  0.00    -0.357 A  
HETATM   10  C   UNL     1      -7.333  12.632  69.305  1.00  0.00     0.232 C  
HETATM   11  C   UNL     1      -6.153  13.269  68.586  1.00  0.00    -0.085 C  
HETATM   12  C   UNL     1     -12.114  12.138  65.586  1.00  0.00    -0.180 A  
HETATM   13  H   UNL     1      -9.745  12.590  70.151  1.00  0.00     0.000 HD 
HETATM   14  C   UNL     1     -11.881  12.857  64.419  1.00  0.00    -0.383 A  
HETATM   15  C   UNL     1      -6.407  14.714  68.160  1.00  0.00    -0.144 C  
HETATM   16  C   UNL     1      -7.842  15.087  67.778  1.00  0.00    -0.161 C  
HETATM   17  O   UNL     1     -12.887  13.153  63.550  1.00  0.00    -0.638 OA 
HETATM   18  C   UNL     1     -10.605  13.302  64.103  1.00  0.00    -0.331 A  
HETATM   19  H   UNL     1     -12.727  13.645  62.752  1.00  0.00     0.000 HD 
HETATM   20  C   UNL     1      -8.947  14.266  68.437  1.00  0.00    -0.189 C  
HETATM   21  C   UNL     1      -9.547  13.037  64.973  1.00  0.00     0.201 A  
ENDBRANCH   2   4
TORSDOF 1
ENDMDL
MODEL      126
REMARK 921   NORMALIZED FREE ENERGY PREDICTED BY IDOCK:   -3.04 KCAL/MOL
REMARK 922        TOTAL FREE ENERGY PREDICTED BY IDOCK:   -3.39 KCAL/MOL
REMARK 923 INTER-LIGAND FREE ENERGY PREDICTED BY IDOCK:   -3.22 KCAL/MOL
REMARK 924 INTRA-LIGAND FREE ENERGY PREDICTED BY IDOCK:   -0.17 KCAL/MOL
REMARK 927      BINDING AFFINITY PREDICTED BY RF-SCORE:    0.00 PKD
ROOT
HETATM    1  C   UNL     1      -6.591  11.655  67.047  1.00  0.00    -0.144 C  
HETATM    2  N   UNL     1      -8.049  11.738  66.968  1.00  0.00    -0.164 NA 
HETATM    3  C   UNL     1      -8.484  13.114  67.235  1.00  0.00    -0.198 C  
ENDROOT
BRANCH   2   4
HETATM    4  C   UNL     1      -8.568  11.287  65.655  1.00  0.00    -0.023 C  
HETATM    5  C   UNL     1      -8.160   9.843  65.213  1.00  0.00    -0.139 C  
HETATM    6  C   UNL     1      -8.714   8.802  66.188  1.00  0.00    -0.184 A  
HETATM    7  C   UNL     1      -8.493   9.558  63.686  1.00  0.00    -0.196 C  
HETATM    8  O   UNL     1      -9.893   9.733  63.435  1.00  0.00    -0.472 OA 
HETATM    9  C   UNL     1     -10.091   8.617  66.389  1.00  0.00    -0.294 A  
HETATM   10  C   UNL     1      -7.722  10.499  62.734  1.00  0.00    -0.118 C  
HETATM   11  C   UNL     1      -6.213  10.366  62.870  1.00  0.00    -0.136 C  
HETATM   12  C   UNL     1     -10.559   7.667  67.302  1.00  0.00    -0.388 A  
HETATM   13  H   UNL     1     -10.092   9.562  62.522  1.00  0.00     0.000 HD 
HETATM   14  C   UNL     1      -9.650   6.894  68.015  1.00  0.00    -0.123 A  
HETATM   15  C   UNL     1      -5.714   8.928  62.745  1.00  0.00    -0.082 C  
HETATM   16  C   UNL     1      -6.640   7.821  63.257  1.00  0.00    -0.067 C  
HETATM   17  O   UNL     1     -10.061   5.942  68.899  1.00  0.00    -0.154 OA 
HETATM   18  C   UNL     1      -8.284   7.068  67.845  1.00  0.00    -0.115 A  
HETATM   19  H   UNL     1      -9.440   5.414  69.386  1.00  0.00     0.000 HD 
HETATM   20  C   UNL     1      -8.134   8.130  63.229  1.00  0.00    -0.121 C  
HETATM   21  C   UNL     1      -7.818   8.019  66.937  1.00  0.00    -0.103 A  
ENDBRANCH   2   4
TORSDOF 1
ENDMDL
MODEL      127
REMARK 921   NORMALIZED FREE ENERGY PREDICTED BY IDOCK:   -3.04 KCAL/MOL
REMARK 922        TOTAL FREE ENERGY PREDICTED BY IDOCK:   -3.38 KCAL/MOL
REMARK 923 INTER-LIGAND FREE ENERGY PREDICTED BY IDOCK:   -3.25 KCAL/MOL
REMARK 924 INTRA-LIGAND FREE ENERGY PREDICTED BY IDOCK:   -0.14 KCAL/MOL
REMARK 927      BINDING AFFINITY PREDICTED BY RF-SCORE:    0.00 PKD
ROOT
HETATM    1  C   UNL     1     -10.993   6.094  67.664  1.00  0.00    -0.302 C  
HETATM    2  N   UNL     1     -10.870   7.009  68.799  1.00  0.00    -0.190 NA 
HETATM    3  C   UNL     1     -11.494   6.415  69.987  1.00  0.00    -0.428 C  
ENDROOT
BRANCH   2   4
HETATM    4  C   UNL     1      -9.460   7.360  69.087  1.00  0.00    -0.149 C  
HETATM    5  C   UNL     1      -8.617   7.879  67.876  1.00  0.00    -0.125 C  
HETATM    6  C   UNL     1      -9.201   9.184  67.329  1.00  0.00    -0.157 A  
HETATM    7  C   UNL     1      -7.062   7.937  68.197  1.00  0.00    -0.089 C  
HETATM    8  O   UNL     1      -6.813   8.788  69.322  1.00  0.00    -0.049 OA 
HETATM    9  C   UNL     1      -9.272  10.356  68.098  1.00  0.00    -0.145 A  
HETATM   10  C   UNL     1      -6.479   6.544  68.520  1.00  0.00    -0.049 C  
HETATM   11  C   UNL     1      -6.638   5.559  67.372  1.00  0.00    -0.053 C  
HETATM   12  C   UNL     1      -9.829  11.525  67.570  1.00  0.00    -0.203 A  
HETATM   13  H   UNL     1      -5.883   8.823  69.514  1.00  0.00     0.000 HD 
HETATM   14  C   UNL     1     -10.314  11.527  66.267  1.00  0.00    -0.239 A  
HETATM   15  C   UNL     1      -6.103   6.083  66.040  1.00  0.00    -0.032 C  
HETATM   16  C   UNL     1      -6.210   7.590  65.791  1.00  0.00    -0.038 C  
HETATM   17  O   UNL     1     -10.845  12.648  65.704  1.00  0.00    -0.266 OA 
HETATM   18  C   UNL     1     -10.268  10.376  65.492  1.00  0.00    -0.316 A  
HETATM   19  H   UNL     1     -11.176  12.649  64.813  1.00  0.00     0.000 HD 
HETATM   20  C   UNL     1      -6.209   8.478  67.032  1.00  0.00    -0.056 C  
HETATM   21  C   UNL     1      -9.717   9.210  66.021  1.00  0.00    -0.358 A  
ENDBRANCH   2   4
TORSDOF 1
ENDMDL
MODEL      128
REMARK 921   NORMALIZED FREE ENERGY PREDICTED BY IDOCK:   -3.03 KCAL/MOL
REMARK 922        TOTAL FREE ENERGY PREDICTED BY IDOCK:   -3.38 KCAL/MOL
REMARK 923 INTER-LIGAND FREE ENERGY PREDICTED BY IDOCK:   -3.97 KCAL/MOL
REMARK 924 INTRA-LIGAND FREE ENERGY PREDICTED BY IDOCK:    0.60 KCAL/MOL
REMARK 927      BINDING AFFINITY PREDICTED BY RF-SCORE:    0.00 PKD
ROOT
HETATM    1  C   UNL     1      -9.598   8.493  72.293  1.00  0.00    -0.307 C  
HETATM    2  N   UNL     1      -9.493   9.172  71.002  1.00  0.00    -0.272 NA 
HETATM    3  C   UNL     1      -8.087   9.246  70.589  1.00  0.00    -0.176 C  
ENDROOT
BRANCH   2   4
HETATM    4  C   UNL     1     -10.297   8.505  69.950  1.00  0.00    -0.210 C  
HETATM    5  C   UNL     1      -9.630   7.277  69.248  1.00  0.00    -0.156 C  
HETATM    6  C   UNL     1      -9.364   6.155  70.255  1.00  0.00    -0.172 A  
HETATM    7  C   UNL     1     -10.416   6.819  67.945  1.00  0.00    -0.218 C  
HETATM    8  O   UNL     1     -11.769   6.479  68.268  1.00  0.00    -0.488 OA 
HETATM    9  C   UNL     1     -10.399   5.508  70.949  1.00  0.00    -0.310 A  
HETATM   10  C   UNL     1     -10.451   7.924  66.866  1.00  0.00    -0.388 C  
HETATM   11  C   UNL     1      -9.063   8.337  66.401  1.00  0.00    -0.226 C  
HETATM   12  C   UNL     1     -10.117   4.500  71.876  1.00  0.00    -0.258 A  
HETATM   13  H   UNL     1     -12.239   6.205  67.489  1.00  0.00     0.000 HD 
HETATM   14  C   UNL     1      -8.797   4.131  72.108  1.00  0.00    -0.107 A  
HETATM   15  C   UNL     1      -8.195   7.162  65.956  1.00  0.00    -0.129 C  
HETATM   16  C   UNL     1      -8.407   5.826  66.673  1.00  0.00    -0.109 C  
HETATM   17  O   UNL     1      -8.477   3.139  72.985  1.00  0.00    -0.079 OA 
HETATM   18  C   UNL     1      -7.756   4.766  71.446  1.00  0.00    -0.090 A  
HETATM   19  H   UNL     1      -7.574   2.887  73.144  1.00  0.00     0.000 HD 
HETATM   20  C   UNL     1      -9.800   5.588  67.251  1.00  0.00    -0.169 C  
HETATM   21  C   UNL     1      -8.038   5.775  70.525  1.00  0.00    -0.110 A  
ENDBRANCH   2   4
TORSDOF 1
ENDMDL
MODEL      129
REMARK 921   NORMALIZED FREE ENERGY PREDICTED BY IDOCK:   -3.03 KCAL/MOL
REMARK 922        TOTAL FREE ENERGY PREDICTED BY IDOCK:   -3.37 KCAL/MOL
REMARK 923 INTER-LIGAND FREE ENERGY PREDICTED BY IDOCK:   -3.19 KCAL/MOL
REMARK 924 INTRA-LIGAND FREE ENERGY PREDICTED BY IDOCK:   -0.18 KCAL/MOL
REMARK 927      BINDING AFFINITY PREDICTED BY RF-SCORE:    0.00 PKD
ROOT
HETATM    1  C   UNL     1     -11.468   9.157  71.806  1.00  0.00    -0.381 C  
HETATM    2  N   UNL     1     -10.980   9.819  70.596  1.00  0.00    -0.307 NA 
HETATM    3  C   UNL     1     -11.387  11.229  70.602  1.00  0.00     0.357 C  
ENDROOT
BRANCH   2   4
HETATM    4  C   UNL     1      -9.509   9.715  70.454  1.00  0.00    -0.222 C  
HETATM    5  C   UNL     1      -8.927   8.267  70.348  1.00  0.00    -0.146 C  
HETATM    6  C   UNL     1      -9.454   7.561  69.096  1.00  0.00    -0.150 A  
HETATM    7  C   UNL     1      -7.346   8.233  70.507  1.00  0.00    -0.056 C  
HETATM    8  O   UNL     1      -6.723   9.048  69.508  1.00  0.00    -0.046 OA 
HETATM    9  C   UNL     1      -9.183   8.029  67.801  1.00  0.00    -0.142 A  
HETATM   10  C   UNL     1      -6.887   8.747  71.890  1.00  0.00    -0.060 C  
HETATM   11  C   UNL     1      -7.447   7.923  73.039  1.00  0.00    -0.146 C  
HETATM   12  C   UNL     1      -9.697   7.368  66.680  1.00  0.00    -0.262 A  
HETATM   13  H   UNL     1      -5.778   9.027  69.603  1.00  0.00     0.000 HD 
HETATM   14  C   UNL     1     -10.480   6.233  66.852  1.00  0.00    -0.272 A  
HETATM   15  C   UNL     1      -7.189   6.424  72.897  1.00  0.00    -0.082 C  
HETATM   16  C   UNL     1      -7.158   5.853  71.477  1.00  0.00    -0.078 C  
HETATM   17  O   UNL     1     -10.983   5.544  65.790  1.00  0.00    -0.626 OA 
HETATM   18  C   UNL     1     -10.773   5.759  68.123  1.00  0.00    -0.288 A  
HETATM   19  H   UNL     1     -11.518   4.768  65.908  1.00  0.00     0.000 HD 
HETATM   20  C   UNL     1      -6.740   6.821  70.373  1.00  0.00    -0.057 C  
HETATM   21  C   UNL     1     -10.265   6.422  69.240  1.00  0.00    -0.229 A  
ENDBRANCH   2   4
TORSDOF 1
ENDMDL
MODEL      130
REMARK 921   NORMALIZED FREE ENERGY PREDICTED BY IDOCK:   -3.01 KCAL/MOL
REMARK 922        TOTAL FREE ENERGY PREDICTED BY IDOCK:   -3.35 KCAL/MOL
REMARK 923 INTER-LIGAND FREE ENERGY PREDICTED BY IDOCK:   -3.18 KCAL/MOL
REMARK 924 INTRA-LIGAND FREE ENERGY PREDICTED BY IDOCK:   -0.17 KCAL/MOL
REMARK 927      BINDING AFFINITY PREDICTED BY RF-SCORE:    0.00 PKD
ROOT
HETATM    1  C   UNL     1      -6.046  13.070  67.537  1.00  0.00    -0.125 C  
HETATM    2  N   UNL     1      -7.263  12.282  67.729  1.00  0.00    -0.102 NA 
HETATM    3  C   UNL     1      -6.927  10.982  68.321  1.00  0.00    -0.069 C  
ENDROOT
BRANCH   2   4
HETATM    4  C   UNL     1      -8.259  12.983  68.573  1.00  0.00    -0.067 C  
HETATM    5  C   UNL     1      -8.990  14.198  67.913  1.00  0.00    -0.185 C  
HETATM    6  C   UNL     1      -9.810  13.744  66.703  1.00  0.00    -0.286 A  
HETATM    7  C   UNL     1      -9.799  15.069  68.967  1.00  0.00    -0.236 C  
HETATM    8  O   UNL     1     -10.773  14.264  69.642  1.00  0.00    -0.427 OA 
HETATM    9  C   UNL     1     -10.882  12.846  66.816  1.00  0.00    -0.288 A  
HETATM   10  C   UNL     1      -8.878  15.693  70.039  1.00  0.00     0.420 C  
HETATM   11  C   UNL     1      -7.826  16.616  69.445  1.00  0.00     0.049 C  
HETATM   12  C   UNL     1     -11.598  12.439  65.685  1.00  0.00    -0.441 A  
HETATM   13  H   UNL     1     -11.256  14.784  70.272  1.00  0.00     0.000 HD 
HETATM   14  C   UNL     1     -11.245  12.935  64.436  1.00  0.00    -0.351 A  
HETATM   15  C   UNL     1      -8.406  17.690  68.526  1.00  0.00    -0.291 C  
HETATM   16  C   UNL     1      -9.656  17.320  67.724  1.00  0.00    -0.262 C  
HETATM   17  O   UNL     1     -11.928  12.584  63.310  1.00  0.00    -0.643 OA 
HETATM   18  C   UNL     1     -10.180  13.813  64.296  1.00  0.00     0.213 A  
HETATM   19  H   UNL     1     -11.687  12.924  62.456  1.00  0.00     0.000 HD 
HETATM   20  C   UNL     1     -10.558  16.254  68.339  1.00  0.00    -0.301 C  
HETATM   21  C   UNL     1      -9.464  14.214  65.424  1.00  0.00     0.212 A  
ENDBRANCH   2   4
TORSDOF 1
ENDMDL
MODEL      131
REMARK 921   NORMALIZED FREE ENERGY PREDICTED BY IDOCK:   -2.98 KCAL/MOL
REMARK 922        TOTAL FREE ENERGY PREDICTED BY IDOCK:   -3.32 KCAL/MOL
REMARK 923 INTER-LIGAND FREE ENERGY PREDICTED BY IDOCK:   -3.23 KCAL/MOL
REMARK 924 INTRA-LIGAND FREE ENERGY PREDICTED BY IDOCK:   -0.09 KCAL/MOL
REMARK 927      BINDING AFFINITY PREDICTED BY RF-SCORE:    0.00 PKD
ROOT
HETATM    1  C   UNL     1      -9.128  11.322  66.041  1.00  0.00    -0.209 C  
HETATM    2  N   UNL     1      -9.540  10.466  67.154  1.00  0.00    -0.162 NA 
HETATM    3  C   UNL     1     -10.953  10.708  67.470  1.00  0.00    -0.310 C  
ENDROOT
BRANCH   2   4
HETATM    4  C   UNL     1      -9.322   9.029  66.867  1.00  0.00    -0.158 C  
HETATM    5  C   UNL     1      -8.540   8.220  67.954  1.00  0.00    -0.132 C  
HETATM    6  C   UNL     1      -9.311   8.204  69.276  1.00  0.00    -0.151 A  
HETATM    7  C   UNL     1      -8.088   6.787  67.438  1.00  0.00    -0.118 C  
HETATM    8  O   UNL     1      -9.225   6.018  67.029  1.00  0.00    -0.118 OA 
HETATM    9  C   UNL     1     -10.580   7.616  69.399  1.00  0.00    -0.217 A  
HETATM   10  C   UNL     1      -7.122   6.877  66.236  1.00  0.00    -0.074 C  
HETATM   11  C   UNL     1      -5.843   7.632  66.564  1.00  0.00    -0.040 C  
HETATM   12  C   UNL     1     -11.262   7.637  70.619  1.00  0.00    -0.280 A  
HETATM   13  H   UNL     1      -8.955   5.161  66.721  1.00  0.00     0.000 HD 
HETATM   14  C   UNL     1     -10.675   8.242  71.724  1.00  0.00    -0.266 A  
HETATM   15  C   UNL     1      -5.127   7.107  67.807  1.00  0.00    -0.019 C  
HETATM   16  C   UNL     1      -6.002   6.537  68.928  1.00  0.00    -0.022 C  
HETATM   17  O   UNL     1     -11.293   8.266  72.938  1.00  0.00    -0.342 OA 
HETATM   18  C   UNL     1      -9.428   8.842  71.624  1.00  0.00    -0.351 A  
HETATM   19  H   UNL     1     -10.891   8.680  73.693  1.00  0.00     0.000 HD 
HETATM   20  C   UNL     1      -7.345   5.952  68.500  1.00  0.00    -0.085 C  
HETATM   21  C   UNL     1      -8.750   8.826  70.405  1.00  0.00    -0.181 A  
ENDBRANCH   2   4
TORSDOF 1
ENDMDL
MODEL      132
REMARK 921   NORMALIZED FREE ENERGY PREDICTED BY IDOCK:   -2.98 KCAL/MOL
REMARK 922        TOTAL FREE ENERGY PREDICTED BY IDOCK:   -3.32 KCAL/MOL
REMARK 923 INTER-LIGAND FREE ENERGY PREDICTED BY IDOCK:   -3.16 KCAL/MOL
REMARK 924 INTRA-LIGAND FREE ENERGY PREDICTED BY IDOCK:   -0.17 KCAL/MOL
REMARK 927      BINDING AFFINITY PREDICTED BY RF-SCORE:    0.00 PKD
ROOT
HETATM    1  C   UNL     1      -5.149   8.838  69.558  1.00  0.00    -0.031 C  
HETATM    2  N   UNL     1      -6.119   9.895  69.845  1.00  0.00    -0.044 NA 
HETATM    3  C   UNL     1      -5.536  10.865  70.779  1.00  0.00    -0.113 C  
ENDROOT
BRANCH   2   4
HETATM    4  C   UNL     1      -6.578  10.584  68.617  1.00  0.00    -0.052 C  
HETATM    5  C   UNL     1      -7.663   9.838  67.772  1.00  0.00    -0.091 C  
HETATM    6  C   UNL     1      -8.950   9.660  68.580  1.00  0.00    -0.124 A  
HETATM    7  C   UNL     1      -7.870  10.488  66.337  1.00  0.00    -0.138 C  
HETATM    8  O   UNL     1      -8.254  11.863  66.459  1.00  0.00    -0.323 OA 
HETATM    9  C   UNL     1      -9.706  10.750  69.040  1.00  0.00    -0.201 A  
HETATM   10  C   UNL     1      -6.587  10.431  65.479  1.00  0.00    -0.125 C  
HETATM   11  C   UNL     1      -6.106   9.009  65.234  1.00  0.00    -0.059 C  
HETATM   12  C   UNL     1     -10.868  10.548  69.791  1.00  0.00    -0.335 A  
HETATM   13  H   UNL     1      -8.379  12.251  65.601  1.00  0.00     0.000 HD 
HETATM   14  C   UNL     1     -11.282   9.253  70.080  1.00  0.00    -0.208 A  
HETATM   15  C   UNL     1      -7.186   8.088  64.670  1.00  0.00    -0.079 C  
HETATM   16  C   UNL     1      -8.629   8.355  65.108  1.00  0.00    -0.159 C  
HETATM   17  O   UNL     1     -12.419   9.009  70.790  1.00  0.00    -0.492 OA 
HETATM   18  C   UNL     1     -10.545   8.160  69.649  1.00  0.00    -0.223 A  
HETATM   19  H   UNL     1     -12.702   8.124  70.987  1.00  0.00     0.000 HD 
HETATM   20  C   UNL     1      -8.959   9.795  65.494  1.00  0.00    -0.214 C  
HETATM   21  C   UNL     1      -9.383   8.362  68.904  1.00  0.00    -0.147 A  
ENDBRANCH   2   4
TORSDOF 1
ENDMDL
MODEL      133
REMARK 921   NORMALIZED FREE ENERGY PREDICTED BY IDOCK:   -2.94 KCAL/MOL
REMARK 922        TOTAL FREE ENERGY PREDICTED BY IDOCK:   -3.28 KCAL/MOL
REMARK 923 INTER-LIGAND FREE ENERGY PREDICTED BY IDOCK:   -3.11 KCAL/MOL
REMARK 924 INTRA-LIGAND FREE ENERGY PREDICTED BY IDOCK:   -0.17 KCAL/MOL
REMARK 927      BINDING AFFINITY PREDICTED BY RF-SCORE:    0.00 PKD
ROOT
HETATM    1  C   UNL     1     -11.074   8.156  72.178  1.00  0.00    -0.321 C  
HETATM    2  N   UNL     1      -9.646   7.949  72.416  1.00  0.00    -0.189 NA 
HETATM    3  C   UNL     1      -9.434   7.474  73.789  1.00  0.00    -0.276 C  
ENDROOT
BRANCH   2   4
HETATM    4  C   UNL     1      -9.048   6.997  71.451  1.00  0.00    -0.147 C  
HETATM    5  C   UNL     1      -8.783   7.550  70.012  1.00  0.00    -0.140 C  
HETATM    6  C   UNL     1      -7.770   8.698  70.051  1.00  0.00    -0.080 A  
HETATM    7  C   UNL     1      -8.435   6.400  68.972  1.00  0.00    -0.124 C  
HETATM    8  O   UNL     1      -7.279   5.670  69.399  1.00  0.00    -0.062 OA 
HETATM    9  C   UNL     1      -6.450   8.520  70.492  1.00  0.00    -0.037 A  
HETATM   10  C   UNL     1      -9.594   5.394  68.805  1.00  0.00    -0.182 C  
HETATM   11  C   UNL     1     -10.872   6.047  68.302  1.00  0.00    -0.366 C  
HETATM   12  C   UNL     1      -5.558   9.597  70.530  1.00  0.00    -0.048 A  
HETATM   13  H   UNL     1      -7.071   4.982  68.777  1.00  0.00     0.000 HD 
HETATM   14  C   UNL     1      -5.983  10.855  70.122  1.00  0.00    -0.120 A  
HETATM   15  C   UNL     1     -10.676   6.875  67.034  1.00  0.00    -0.432 C  
HETATM   16  C   UNL     1      -9.326   7.576  66.861  1.00  0.00    -0.197 C  
HETATM   17  O   UNL     1      -5.143  11.928  70.122  1.00  0.00    -0.070 OA 
HETATM   18  C   UNL     1      -7.288  11.059  69.696  1.00  0.00    -0.021 A  
HETATM   19  H   UNL     1      -5.434  12.788  69.843  1.00  0.00     0.000 HD 
HETATM   20  C   UNL     1      -8.134   6.919  67.552  1.00  0.00    -0.116 C  
HETATM   21  C   UNL     1      -8.178   9.986  69.662  1.00  0.00    -0.185 A  
ENDBRANCH   2   4
TORSDOF 1
ENDMDL
MODEL      134
REMARK 921   NORMALIZED FREE ENERGY PREDICTED BY IDOCK:   -2.87 KCAL/MOL
REMARK 922        TOTAL FREE ENERGY PREDICTED BY IDOCK:   -3.21 KCAL/MOL
REMARK 923 INTER-LIGAND FREE ENERGY PREDICTED BY IDOCK:   -3.04 KCAL/MOL
REMARK 924 INTRA-LIGAND FREE ENERGY PREDICTED BY IDOCK:   -0.17 KCAL/MOL
REMARK 927      BINDING AFFINITY PREDICTED BY RF-SCORE:    0.00 PKD
ROOT
HETATM    1  C   UNL     1      -5.752   7.730  69.415  1.00  0.00    -0.026 C  
HETATM    2  N   UNL     1      -6.728   7.123  70.319  1.00  0.00    -0.051 NA 
HETATM    3  C   UNL     1      -6.282   7.274  71.709  1.00  0.00    -0.037 C  
ENDROOT
BRANCH   2   4
HETATM    4  C   UNL     1      -8.082   7.702  70.154  1.00  0.00    -0.118 C  
HETATM    5  C   UNL     1      -8.698   7.617  68.719  1.00  0.00    -0.128 C  
HETATM    6  C   UNL     1      -8.884   6.159  68.295  1.00  0.00    -0.112 A  
HETATM    7  C   UNL     1      -9.997   8.520  68.560  1.00  0.00    -0.184 C  
HETATM    8  O   UNL     1     -10.997   8.133  69.508  1.00  0.00    -0.399 OA 
HETATM    9  C   UNL     1      -9.738   5.280  68.980  1.00  0.00    -0.217 A  
HETATM   10  C   UNL     1      -9.695  10.019  68.776  1.00  0.00    -0.174 C  
HETATM   11  C   UNL     1      -8.677  10.564  67.786  1.00  0.00    -0.122 C  
HETATM   12  C   UNL     1      -9.868   3.948  68.574  1.00  0.00    -0.005 A  
HETATM   13  H   UNL     1     -11.773   8.673  69.413  1.00  0.00     0.000 HD 
HETATM   14  C   UNL     1      -9.149   3.491  67.477  1.00  0.00    -0.167 A  
HETATM   15  C   UNL     1      -9.031  10.279  66.328  1.00  0.00    -0.172 C  
HETATM   16  C   UNL     1      -9.780   8.976  66.033  1.00  0.00    -0.339 C  
HETATM   17  O   UNL     1      -9.261   2.208  67.032  1.00  0.00    -0.263 OA 
HETATM   18  C   UNL     1      -8.288   4.337  66.792  1.00  0.00    -0.101 A  
HETATM   19  H   UNL     1      -8.769   1.896  66.282  1.00  0.00     0.000 HD 
HETATM   20  C   UNL     1     -10.646   8.430  67.164  1.00  0.00    -0.326 C  
HETATM   21  C   UNL     1      -8.154   5.664  67.200  1.00  0.00    -0.102 A  
ENDBRANCH   2   4
TORSDOF 1
ENDMDL
MODEL      135
REMARK 921   NORMALIZED FREE ENERGY PREDICTED BY IDOCK:   -2.86 KCAL/MOL
REMARK 922        TOTAL FREE ENERGY PREDICTED BY IDOCK:   -3.19 KCAL/MOL
REMARK 923 INTER-LIGAND FREE ENERGY PREDICTED BY IDOCK:   -4.10 KCAL/MOL
REMARK 924 INTRA-LIGAND FREE ENERGY PREDICTED BY IDOCK:    0.91 KCAL/MOL
REMARK 927      BINDING AFFINITY PREDICTED BY RF-SCORE:    0.00 PKD
ROOT
HETATM    1  C   UNL     1     -10.941  15.034  70.676  1.00  0.00    -0.153 C  
HETATM    2  N   UNL     1     -11.726  15.121  69.445  1.00  0.00    -0.312 NA 
HETATM    3  C   UNL     1     -11.237  16.231  68.618  1.00  0.00    -0.354 C  
ENDROOT
BRANCH   2   4
HETATM    4  C   UNL     1     -11.695  13.858  68.669  1.00  0.00    -0.361 C  
HETATM    5  C   UNL     1     -10.808  13.862  67.381  1.00  0.00    -0.291 C  
HETATM    6  C   UNL     1      -9.338  14.094  67.737  1.00  0.00    -0.200 A  
HETATM    7  C   UNL     1     -11.070  12.595  66.458  1.00  0.00    -0.280 C  
HETATM    8  O   UNL     1     -10.817  11.385  67.182  1.00  0.00    -0.238 OA 
HETATM    9  C   UNL     1      -8.607  13.200  68.535  1.00  0.00    -0.056 A  
HETATM   10  C   UNL     1     -12.524  12.540  65.940  1.00  0.00     0.059 C  
HETATM   11  C   UNL     1     -12.898  13.756  65.107  1.00  0.00    -0.386 C  
HETATM   12  C   UNL     1      -7.270  13.455  68.854  1.00  0.00    -0.062 A  
HETATM   13  H   UNL     1     -10.973  10.628  66.630  1.00  0.00     0.000 HD 
HETATM   14  C   UNL     1      -6.656  14.605  68.371  1.00  0.00    -0.102 A  
HETATM   15  C   UNL     1     -11.920  14.040  63.969  1.00  0.00    -0.388 C  
HETATM   16  C   UNL     1     -10.449  13.686  64.208  1.00  0.00    -0.180 C  
HETATM   17  O   UNL     1      -5.350  14.883  68.638  1.00  0.00    -0.086 OA 
HETATM   18  C   UNL     1      -7.362  15.511  67.593  1.00  0.00    -0.197 A  
HETATM   19  H   UNL     1      -4.930  15.669  68.308  1.00  0.00     0.000 HD 
HETATM   20  C   UNL     1     -10.184  12.554  65.197  1.00  0.00    -0.299 C  
HETATM   21  C   UNL     1      -8.697  15.259  67.279  1.00  0.00    -0.216 A  
ENDBRANCH   2   4
TORSDOF 1
ENDMDL
MODEL      136
REMARK 921   NORMALIZED FREE ENERGY PREDICTED BY IDOCK:   -2.85 KCAL/MOL
REMARK 922        TOTAL FREE ENERGY PREDICTED BY IDOCK:   -3.19 KCAL/MOL
REMARK 923 INTER-LIGAND FREE ENERGY PREDICTED BY IDOCK:   -3.01 KCAL/MOL
REMARK 924 INTRA-LIGAND FREE ENERGY PREDICTED BY IDOCK:   -0.17 KCAL/MOL
REMARK 927      BINDING AFFINITY PREDICTED BY RF-SCORE:    0.00 PKD
ROOT
HETATM    1  C   UNL     1      -8.284  10.475  68.834  1.00  0.00    -0.141 C  
HETATM    2  N   UNL     1      -9.578   9.794  68.870  1.00  0.00    -0.161 NA 
HETATM    3  C   UNL     1     -10.662  10.781  68.813  1.00  0.00    -0.208 C  
ENDROOT
BRANCH   2   4
HETATM    4  C   UNL     1      -9.727   8.812  67.771  1.00  0.00    -0.158 C  
HETATM    5  C   UNL     1      -8.882   7.502  67.898  1.00  0.00    -0.126 C  
HETATM    6  C   UNL     1      -9.296   6.708  69.139  1.00  0.00    -0.134 A  
HETATM    7  C   UNL     1      -8.862   6.657  66.552  1.00  0.00    -0.139 C  
HETATM    8  O   UNL     1     -10.194   6.303  66.162  1.00  0.00    -0.412 OA 
HETATM    9  C   UNL     1     -10.588   6.182  69.298  1.00  0.00    -0.348 A  
HETATM   10  C   UNL     1      -8.218   7.435  65.383  1.00  0.00    -0.135 C  
HETATM   11  C   UNL     1      -6.774   7.824  65.660  1.00  0.00    -0.045 C  
HETATM   12  C   UNL     1     -10.936   5.478  70.455  1.00  0.00    -0.199 A  
HETATM   13  H   UNL     1     -10.182   5.798  65.357  1.00  0.00     0.000 HD 
HETATM   14  C   UNL     1      -9.990   5.292  71.456  1.00  0.00    -0.182 A  
HETATM   15  C   UNL     1      -5.897   6.648  66.087  1.00  0.00    -0.025 C  
HETATM   16  C   UNL     1      -6.569   5.534  66.894  1.00  0.00    -0.056 C  
HETATM   17  O   UNL     1     -10.277   4.593  72.589  1.00  0.00    -0.171 OA 
HETATM   18  C   UNL     1      -8.710   5.814  71.328  1.00  0.00    -0.132 A  
HETATM   19  H   UNL     1      -9.630   4.466  73.274  1.00  0.00     0.000 HD 
HETATM   20  C   UNL     1      -8.065   5.342  66.658  1.00  0.00    -0.105 C  
HETATM   21  C   UNL     1      -8.366   6.521  70.176  1.00  0.00    -0.134 A  
ENDBRANCH   2   4
TORSDOF 1
ENDMDL
MODEL      137
REMARK 921   NORMALIZED FREE ENERGY PREDICTED BY IDOCK:   -2.83 KCAL/MOL
REMARK 922        TOTAL FREE ENERGY PREDICTED BY IDOCK:   -3.17 KCAL/MOL
REMARK 923 INTER-LIGAND FREE ENERGY PREDICTED BY IDOCK:   -3.14 KCAL/MOL
REMARK 924 INTRA-LIGAND FREE ENERGY PREDICTED BY IDOCK:   -0.03 KCAL/MOL
REMARK 927      BINDING AFFINITY PREDICTED BY RF-SCORE:    0.00 PKD
ROOT
HETATM    1  C   UNL     1     -12.400  14.488  68.428  1.00  0.00     0.024 C  
HETATM    2  N   UNL     1     -11.339  14.532  69.433  1.00  0.00    -0.266 NA 
HETATM    3  C   UNL     1     -11.921  14.447  70.777  1.00  0.00    -0.323 C  
ENDROOT
BRANCH   2   4
HETATM    4  C   UNL     1     -10.340  13.454  69.243  1.00  0.00     0.244 C  
HETATM    5  C   UNL     1      -9.870  13.201  67.773  1.00  0.00    -0.228 C  
HETATM    6  C   UNL     1      -9.166  14.438  67.210  1.00  0.00    -0.214 A  
HETATM    7  C   UNL     1      -9.048  11.849  67.620  1.00  0.00    -0.179 C  
HETATM    8  O   UNL     1      -7.896  11.863  68.471  1.00  0.00    -0.134 OA 
HETATM    9  C   UNL     1      -7.979  14.944  67.763  1.00  0.00    -0.161 A  
HETATM   10  C   UNL     1      -9.892  10.609  67.987  1.00  0.00    -0.177 C  
HETATM   11  C   UNL     1     -11.126  10.457  67.111  1.00  0.00    -0.195 C  
HETATM   12  C   UNL     1      -7.374  16.088  67.232  1.00  0.00    -0.243 A  
HETATM   13  H   UNL     1      -7.405  11.054  68.379  1.00  0.00     0.000 HD 
HETATM   14  C   UNL     1      -7.951  16.727  66.142  1.00  0.00    -0.238 A  
HETATM   15  C   UNL     1     -10.820  10.490  65.615  1.00  0.00     0.054 C  
HETATM   16  C   UNL     1      -9.650  11.368  65.162  1.00  0.00    -0.258 C  
HETATM   17  O   UNL     1      -7.385  17.831  65.578  1.00  0.00    -0.489 OA 
HETATM   18  C   UNL     1      -9.132  16.254  65.586  1.00  0.00     0.075 A  
HETATM   19  H   UNL     1      -7.780  18.267  64.832  1.00  0.00     0.000 HD 
HETATM   20  C   UNL     1      -8.542  11.591  66.187  1.00  0.00    -0.094 C  
HETATM   21  C   UNL     1      -9.737  15.116  66.119  1.00  0.00    -0.338 A  
ENDBRANCH   2   4
TORSDOF 1
ENDMDL
MODEL      138
REMARK 921   NORMALIZED FREE ENERGY PREDICTED BY IDOCK:   -2.81 KCAL/MOL
REMARK 922        TOTAL FREE ENERGY PREDICTED BY IDOCK:   -3.15 KCAL/MOL
REMARK 923 INTER-LIGAND FREE ENERGY PREDICTED BY IDOCK:   -2.99 KCAL/MOL
REMARK 924 INTRA-LIGAND FREE ENERGY PREDICTED BY IDOCK:   -0.16 KCAL/MOL
REMARK 927      BINDING AFFINITY PREDICTED BY RF-SCORE:    0.00 PKD
ROOT
HETATM    1  C   UNL     1      -7.165   7.154  66.842  1.00  0.00    -0.087 C  
HETATM    2  N   UNL     1      -8.623   7.053  66.774  1.00  0.00    -0.117 NA 
HETATM    3  C   UNL     1      -9.005   5.983  65.845  1.00  0.00    -0.133 C  
ENDROOT
BRANCH   2   4
HETATM    4  C   UNL     1      -9.231   6.813  68.103  1.00  0.00    -0.121 C  
HETATM    5  C   UNL     1      -8.868   7.842  69.224  1.00  0.00    -0.139 C  
HETATM    6  C   UNL     1      -9.364   9.242  68.855  1.00  0.00    -0.150 A  
HETATM    7  C   UNL     1      -9.305   7.348  70.669  1.00  0.00    -0.160 C  
HETATM    8  O   UNL     1     -10.716   7.108  70.713  1.00  0.00    -0.224 OA 
HETATM    9  C   UNL     1     -10.726   9.536  68.686  1.00  0.00    -0.218 A  
HETATM   10  C   UNL     1      -8.591   6.042  71.081  1.00  0.00    -0.129 C  
HETATM   11  C   UNL     1      -7.077   6.187  71.122  1.00  0.00    -0.074 C  
HETATM   12  C   UNL     1     -11.141  10.823  68.331  1.00  0.00    -0.323 A  
HETATM   13  H   UNL     1     -10.977   6.812  71.577  1.00  0.00     0.000 HD 
HETATM   14  C   UNL     1     -10.194  11.824  68.149  1.00  0.00    -0.203 A  
HETATM   15  C   UNL     1      -6.600   7.364  71.970  1.00  0.00    -0.050 C  
HETATM   16  C   UNL     1      -7.500   8.603  72.013  1.00  0.00    -0.078 C  
HETATM   17  O   UNL     1     -10.554  13.098  67.825  1.00  0.00    -0.228 OA 
HETATM   18  C   UNL     1      -8.841  11.555  68.297  1.00  0.00    -0.166 A  
HETATM   19  H   UNL     1      -9.906  13.782  67.701  1.00  0.00     0.000 HD 
HETATM   20  C   UNL     1      -8.990   8.358  71.791  1.00  0.00    -0.262 C  
HETATM   21  C   UNL     1      -8.428  10.269  68.646  1.00  0.00    -0.127 A  
ENDBRANCH   2   4
TORSDOF 1
ENDMDL
MODEL      139
REMARK 921   NORMALIZED FREE ENERGY PREDICTED BY IDOCK:   -2.80 KCAL/MOL
REMARK 922        TOTAL FREE ENERGY PREDICTED BY IDOCK:   -3.14 KCAL/MOL
REMARK 923 INTER-LIGAND FREE ENERGY PREDICTED BY IDOCK:   -2.99 KCAL/MOL
REMARK 924 INTRA-LIGAND FREE ENERGY PREDICTED BY IDOCK:   -0.15 KCAL/MOL
REMARK 927      BINDING AFFINITY PREDICTED BY RF-SCORE:    0.00 PKD
ROOT
HETATM    1  C   UNL     1     -11.458  19.227  67.652  1.00  0.00     0.763 C  
HETATM    2  N   UNL     1     -10.495  18.128  67.606  1.00  0.00    -0.402 NA 
HETATM    3  C   UNL     1     -11.183  16.876  67.268  1.00  0.00     0.231 C  
ENDROOT
BRANCH   2   4
HETATM    4  C   UNL     1      -9.399  18.382  66.641  1.00  0.00    -0.305 C  
HETATM    5  C   UNL     1      -7.948  18.354  67.223  1.00  0.00    -0.239 C  
HETATM    6  C   UNL     1      -7.613  16.968  67.780  1.00  0.00    -0.180 A  
HETATM    7  C   UNL     1      -6.872  18.931  66.205  1.00  0.00    -0.238 C  
HETATM    8  O   UNL     1      -6.887  18.185  64.982  1.00  0.00    -0.306 OA 
HETATM    9  C   UNL     1      -7.574  15.822  66.970  1.00  0.00    -0.257 A  
HETATM   10  C   UNL     1      -7.134  20.413  65.857  1.00  0.00    -0.243 C  
HETATM   11  C   UNL     1      -7.093  21.320  67.076  1.00  0.00    -0.174 C  
HETATM   12  C   UNL     1      -7.283  14.569  67.518  1.00  0.00    -0.210 A  
HETATM   13  H   UNL     1      -6.244  18.530  64.374  1.00  0.00     0.000 HD 
HETATM   14  C   UNL     1      -7.024  14.459  68.879  1.00  0.00    -0.105 A  
HETATM   15  C   UNL     1      -5.820  21.168  67.907  1.00  0.00    -0.402 C  
HETATM   16  C   UNL     1      -5.178  19.778  67.951  1.00  0.00    -0.184 C  
HETATM   17  O   UNL     1      -6.714  13.263  69.453  1.00  0.00    -0.197 OA 
HETATM   18  C   UNL     1      -7.071  15.575  69.703  1.00  0.00    -0.170 A  
HETATM   19  H   UNL     1      -6.537  13.187  70.383  1.00  0.00     0.000 HD 
HETATM   20  C   UNL     1      -5.427  18.885  66.738  1.00  0.00    -0.154 C  
HETATM   21  C   UNL     1      -7.367  16.823  69.156  1.00  0.00    -0.213 A  
ENDBRANCH   2   4
TORSDOF 1
ENDMDL
MODEL      140
REMARK 921   NORMALIZED FREE ENERGY PREDICTED BY IDOCK:   -2.80 KCAL/MOL
REMARK 922        TOTAL FREE ENERGY PREDICTED BY IDOCK:   -3.14 KCAL/MOL
REMARK 923 INTER-LIGAND FREE ENERGY PREDICTED BY IDOCK:   -2.96 KCAL/MOL
REMARK 924 INTRA-LIGAND FREE ENERGY PREDICTED BY IDOCK:   -0.18 KCAL/MOL
REMARK 927      BINDING AFFINITY PREDICTED BY RF-SCORE:    0.00 PKD
ROOT
HETATM    1  C   UNL     1      -7.529   8.738  68.880  1.00  0.00    -0.083 C  
HETATM    2  N   UNL     1      -8.904   8.466  69.296  1.00  0.00    -0.141 NA 
HETATM    3  C   UNL     1      -9.835   9.282  68.508  1.00  0.00    -0.158 C  
ENDROOT
BRANCH   2   4
HETATM    4  C   UNL     1      -9.255   7.031  69.171  1.00  0.00    -0.138 C  
HETATM    5  C   UNL     1      -9.533   6.270  70.509  1.00  0.00    -0.175 C  
HETATM    6  C   UNL     1     -10.742   6.867  71.231  1.00  0.00    -0.249 A  
HETATM    7  C   UNL     1      -9.596   4.694  70.311  1.00  0.00    -0.200 C  
HETATM    8  O   UNL     1     -10.618   4.347  69.369  1.00  0.00     0.427 OA 
HETATM    9  C   UNL     1     -12.030   6.859  70.673  1.00  0.00    -0.400 A  
HETATM   10  C   UNL     1      -8.260   4.117  69.793  1.00  0.00    -0.068 C  
HETATM   11  C   UNL     1      -7.100   4.378  70.740  1.00  0.00    -0.037 C  
HETATM   12  C   UNL     1     -13.109   7.431  71.355  1.00  0.00    -0.401 A  
HETATM   13  H   UNL     1     -10.656   3.405  69.251  1.00  0.00     0.000 HD 
HETATM   14  C   UNL     1     -12.903   8.010  72.602  1.00  0.00     0.104 A  
HETATM   15  C   UNL     1      -7.372   3.932  72.176  1.00  0.00    -0.056 C  
HETATM   16  C   UNL     1      -8.817   4.028  72.674  1.00  0.00    -0.114 C  
HETATM   17  O   UNL     1     -13.928   8.559  73.312  1.00  0.00    -0.831 OA 
HETATM   18  C   UNL     1     -11.637   8.043  73.168  1.00  0.00     0.127 A  
HETATM   19  H   UNL     1     -13.788   8.954  74.165  1.00  0.00     0.000 HD 
HETATM   20  C   UNL     1      -9.903   3.919  71.607  1.00  0.00    -0.247 C  
HETATM   21  C   UNL     1     -10.561   7.477  72.485  1.00  0.00    -0.321 A  
ENDBRANCH   2   4
TORSDOF 1
ENDMDL
MODEL      141
REMARK 921   NORMALIZED FREE ENERGY PREDICTED BY IDOCK:   -2.79 KCAL/MOL
REMARK 922        TOTAL FREE ENERGY PREDICTED BY IDOCK:   -3.12 KCAL/MOL
REMARK 923 INTER-LIGAND FREE ENERGY PREDICTED BY IDOCK:   -2.96 KCAL/MOL
REMARK 924 INTRA-LIGAND FREE ENERGY PREDICTED BY IDOCK:   -0.17 KCAL/MOL
REMARK 927      BINDING AFFINITY PREDICTED BY RF-SCORE:    0.00 PKD
ROOT
HETATM    1  C   UNL     1      -8.754   6.702  70.856  1.00  0.00    -0.138 C  
HETATM    2  N   UNL     1      -9.598   6.274  69.741  1.00  0.00    -0.150 NA 
HETATM    3  C   UNL     1     -10.917   5.869  70.240  1.00  0.00    -0.320 C  
ENDROOT
BRANCH   2   4
HETATM    4  C   UNL     1      -9.746   7.330  68.711  1.00  0.00    -0.151 C  
HETATM    5  C   UNL     1      -8.821   7.204  67.456  1.00  0.00    -0.119 C  
HETATM    6  C   UNL     1      -9.124   5.916  66.687  1.00  0.00    -0.138 A  
HETATM    7  C   UNL     1      -8.823   8.519  66.565  1.00  0.00    -0.140 C  
HETATM    8  O   UNL     1     -10.151   8.825  66.123  1.00  0.00    -0.405 OA 
HETATM    9  C   UNL     1     -10.373   5.670  66.096  1.00  0.00    -0.091 A  
HETATM   10  C   UNL     1      -8.286   9.747  67.333  1.00  0.00    -0.114 C  
HETATM   11  C   UNL     1      -6.855   9.561  67.813  1.00  0.00    -0.078 C  
HETATM   12  C   UNL     1     -10.620   4.472  65.417  1.00  0.00    -0.195 A  
HETATM   13  H   UNL     1     -10.151   9.611  65.589  1.00  0.00     0.000 HD 
HETATM   14  C   UNL     1      -9.614   3.518  65.321  1.00  0.00    -0.140 A  
HETATM   15  C   UNL     1      -5.890   9.142  66.705  1.00  0.00    -0.058 C  
HETATM   16  C   UNL     1      -6.454   8.263  65.585  1.00  0.00    -0.052 C  
HETATM   17  O   UNL     1      -9.801   2.348  64.650  1.00  0.00    -0.323 OA 
HETATM   18  C   UNL     1      -8.375   3.732  65.909  1.00  0.00    -0.109 A  
HETATM   19  H   UNL     1      -9.113   1.695  64.584  1.00  0.00     0.000 HD 
HETATM   20  C   UNL     1      -7.946   8.412  65.301  1.00  0.00    -0.125 C  
HETATM   21  C   UNL     1      -8.132   4.924  66.591  1.00  0.00    -0.107 A  
ENDBRANCH   2   4
TORSDOF 1
ENDMDL
MODEL      142
REMARK 921   NORMALIZED FREE ENERGY PREDICTED BY IDOCK:   -2.77 KCAL/MOL
REMARK 922        TOTAL FREE ENERGY PREDICTED BY IDOCK:   -3.10 KCAL/MOL
REMARK 923 INTER-LIGAND FREE ENERGY PREDICTED BY IDOCK:   -2.93 KCAL/MOL
REMARK 924 INTRA-LIGAND FREE ENERGY PREDICTED BY IDOCK:   -0.17 KCAL/MOL
REMARK 927      BINDING AFFINITY PREDICTED BY RF-SCORE:    0.00 PKD
ROOT
HETATM    1  C   UNL     1      -9.092   9.689  66.520  1.00  0.00    -0.154 C  
HETATM    2  N   UNL     1      -9.722   8.783  67.481  1.00  0.00    -0.159 NA 
HETATM    3  C   UNL     1     -10.975   9.368  67.970  1.00  0.00    -0.059 C  
ENDROOT
BRANCH   2   4
HETATM    4  C   UNL     1      -9.979   7.442  66.902  1.00  0.00    -0.236 C  
HETATM    5  C   UNL     1      -9.054   6.286  67.405  1.00  0.00    -0.111 C  
HETATM    6  C   UNL     1      -9.234   6.062  68.908  1.00  0.00    -0.125 A  
HETATM    7  C   UNL     1      -9.189   4.971  66.523  1.00  0.00    -0.135 C  
HETATM    8  O   UNL     1     -10.543   4.504  66.523  1.00  0.00    -0.317 OA 
HETATM    9  C   UNL     1     -10.457   5.658  69.467  1.00  0.00    -0.372 A  
HETATM   10  C   UNL     1      -8.771   5.207  65.055  1.00  0.00    -0.148 C  
HETATM   11  C   UNL     1      -7.326   5.660  64.920  1.00  0.00    -0.071 C  
HETATM   12  C   UNL     1     -10.588   5.481  70.848  1.00  0.00    -0.309 A  
HETATM   13  H   UNL     1     -10.624   3.717  65.995  1.00  0.00     0.000 HD 
HETATM   14  C   UNL     1      -9.495   5.704  71.675  1.00  0.00    -0.150 A  
HETATM   15  C   UNL     1      -6.331   4.747  65.635  1.00  0.00    -0.035 C  
HETATM   16  C   UNL     1      -6.813   4.057  66.915  1.00  0.00    -0.055 C  
HETATM   17  O   UNL     1      -9.571   5.523  73.024  1.00  0.00    -0.150 OA 
HETATM   18  C   UNL     1      -8.279   6.118  71.149  1.00  0.00    -0.123 A  
HETATM   19  H   UNL     1      -8.822   5.675  73.589  1.00  0.00     0.000 HD 
HETATM   20  C   UNL     1      -8.314   3.802  67.015  1.00  0.00    -0.099 C  
HETATM   21  C   UNL     1      -8.150   6.299  69.772  1.00  0.00    -0.120 A  
ENDBRANCH   2   4
TORSDOF 1
ENDMDL
MODEL      143
REMARK 921   NORMALIZED FREE ENERGY PREDICTED BY IDOCK:   -2.69 KCAL/MOL
REMARK 922        TOTAL FREE ENERGY PREDICTED BY IDOCK:   -3.02 KCAL/MOL
REMARK 923 INTER-LIGAND FREE ENERGY PREDICTED BY IDOCK:   -3.27 KCAL/MOL
REMARK 924 INTRA-LIGAND FREE ENERGY PREDICTED BY IDOCK:    0.25 KCAL/MOL
REMARK 927      BINDING AFFINITY PREDICTED BY RF-SCORE:    0.00 PKD
ROOT
HETATM    1  C   UNL     1     -10.790   5.954  66.582  1.00  0.00    -0.217 C  
HETATM    2  N   UNL     1     -10.420   6.580  67.851  1.00  0.00    -0.195 NA 
HETATM    3  C   UNL     1     -10.628   5.634  68.953  1.00  0.00    -0.233 C  
ENDROOT
BRANCH   2   4
HETATM    4  C   UNL     1      -9.017   7.060  67.852  1.00  0.00    -0.122 C  
HETATM    5  C   UNL     1      -8.732   8.353  68.684  1.00  0.00    -0.133 C  
HETATM    6  C   UNL     1      -9.026   8.118  70.168  1.00  0.00    -0.146 A  
HETATM    7  C   UNL     1      -7.295   8.964  68.386  1.00  0.00    -0.082 C  
HETATM    8  O   UNL     1      -6.272   8.003  68.672  1.00  0.00    -0.042 OA 
HETATM    9  C   UNL     1      -8.323   7.175  70.933  1.00  0.00    -0.121 A  
HETATM   10  C   UNL     1      -7.138   9.396  66.912  1.00  0.00    -0.086 C  
HETATM   11  C   UNL     1      -8.145  10.459  66.500  1.00  0.00    -0.122 C  
HETATM   12  C   UNL     1      -8.632   6.975  72.282  1.00  0.00    -0.129 A  
HETATM   13  H   UNL     1      -5.413   8.368  68.494  1.00  0.00     0.000 HD 
HETATM   14  C   UNL     1      -9.643   7.724  72.873  1.00  0.00    -0.242 A  
HETATM   15  C   UNL     1      -8.164  11.672  67.429  1.00  0.00    -0.153 C  
HETATM   16  C   UNL     1      -7.860  11.422  68.909  1.00  0.00    -0.096 C  
HETATM   17  O   UNL     1      -9.964   7.579  74.189  1.00  0.00    -0.393 OA 
HETATM   18  C   UNL     1     -10.362   8.653  72.133  1.00  0.00    -0.403 A  
HETATM   19  H   UNL     1     -10.655   8.091  74.593  1.00  0.00     0.000 HD 
HETATM   20  C   UNL     1      -6.971  10.220  69.218  1.00  0.00    -0.073 C  
HETATM   21  C   UNL     1     -10.056   8.847  70.787  1.00  0.00    -0.282 A  
ENDBRANCH   2   4
TORSDOF 1
ENDMDL
MODEL      144
REMARK 921   NORMALIZED FREE ENERGY PREDICTED BY IDOCK:   -2.67 KCAL/MOL
REMARK 922        TOTAL FREE ENERGY PREDICTED BY IDOCK:   -3.00 KCAL/MOL
REMARK 923 INTER-LIGAND FREE ENERGY PREDICTED BY IDOCK:   -2.82 KCAL/MOL
REMARK 924 INTRA-LIGAND FREE ENERGY PREDICTED BY IDOCK:   -0.18 KCAL/MOL
REMARK 927      BINDING AFFINITY PREDICTED BY RF-SCORE:    0.00 PKD
ROOT
HETATM    1  C   UNL     1      -5.625   7.771  70.130  1.00  0.00    -0.023 C  
HETATM    2  N   UNL     1      -7.052   7.851  70.441  1.00  0.00    -0.046 NA 
HETATM    3  C   UNL     1      -7.263   7.633  71.877  1.00  0.00    -0.065 C  
ENDROOT
BRANCH   2   4
HETATM    4  C   UNL     1      -7.644   9.147  70.032  1.00  0.00    -0.080 C  
HETATM    5  C   UNL     1      -7.783   9.385  68.492  1.00  0.00    -0.085 C  
HETATM    6  C   UNL     1      -8.725   8.354  67.868  1.00  0.00    -0.138 A  
HETATM    7  C   UNL     1      -8.133  10.895  68.139  1.00  0.00    -0.119 C  
HETATM    8  O   UNL     1      -9.355  11.289  68.774  1.00  0.00    -0.242 OA 
HETATM    9  C   UNL     1     -10.080   8.260  68.224  1.00  0.00    -0.231 A  
HETATM   10  C   UNL     1      -7.027  11.872  68.596  1.00  0.00    -0.095 C  
HETATM   11  C   UNL     1      -5.683  11.585  67.945  1.00  0.00    -0.045 C  
HETATM   12  C   UNL     1     -10.906   7.292  67.645  1.00  0.00    -0.251 A  
HETATM   13  H   UNL     1      -9.564  12.192  68.562  1.00  0.00     0.000 HD 
HETATM   14  C   UNL     1     -10.381   6.417  66.701  1.00  0.00    -0.155 A  
HETATM   15  C   UNL     1      -5.748  11.502  66.421  1.00  0.00    -0.061 C  
HETATM   16  C   UNL     1      -7.040  10.956  65.807  1.00  0.00     0.014 C  
HETATM   17  O   UNL     1     -11.154   5.473  66.095  1.00  0.00    -0.747 OA 
HETATM   18  C   UNL     1      -9.042   6.480  66.343  1.00  0.00    -0.172 A  
HETATM   19  H   UNL     1     -10.795   4.875  65.449  1.00  0.00     0.000 HD 
HETATM   20  C   UNL     1      -8.310  11.153  66.630  1.00  0.00    -0.160 C  
HETATM   21  C   UNL     1      -8.218   7.443  66.925  1.00  0.00    -0.121 A  
ENDBRANCH   2   4
TORSDOF 1
ENDMDL
MODEL      145
REMARK 921   NORMALIZED FREE ENERGY PREDICTED BY IDOCK:   -2.67 KCAL/MOL
REMARK 922        TOTAL FREE ENERGY PREDICTED BY IDOCK:   -2.99 KCAL/MOL
REMARK 923 INTER-LIGAND FREE ENERGY PREDICTED BY IDOCK:   -3.63 KCAL/MOL
REMARK 924 INTRA-LIGAND FREE ENERGY PREDICTED BY IDOCK:    0.64 KCAL/MOL
REMARK 927      BINDING AFFINITY PREDICTED BY RF-SCORE:    0.00 PKD
ROOT
HETATM    1  C   UNL     1     -10.056  12.665  67.759  1.00  0.00    -0.220 C  
HETATM    2  N   UNL     1     -10.734  11.956  68.844  1.00  0.00    -0.219 NA 
HETATM    3  C   UNL     1     -11.955  11.319  68.336  1.00  0.00    -0.185 C  
ENDROOT
BRANCH   2   4
HETATM    4  C   UNL     1      -9.862  10.943  69.483  1.00  0.00     0.068 C  
HETATM    5  C   UNL     1      -9.691   9.593  68.711  1.00  0.00    -0.167 C  
HETATM    6  C   UNL     1      -9.025   9.827  67.353  1.00  0.00    -0.144 A  
HETATM    7  C   UNL     1      -9.004   8.468  69.597  1.00  0.00    -0.145 C  
HETATM    8  O   UNL     1      -7.714   8.900  70.048  1.00  0.00    -0.068 OA 
HETATM    9  C   UNL     1      -7.725  10.344  67.233  1.00  0.00    -0.099 A  
HETATM   10  C   UNL     1      -9.844   8.110  70.843  1.00  0.00    -0.203 C  
HETATM   11  C   UNL     1     -11.227   7.585  70.489  1.00  0.00    -0.287 C  
HETATM   12  C   UNL     1      -7.156  10.561  65.974  1.00  0.00    -0.137 A  
HETATM   13  H   UNL     1      -7.304   8.227  70.577  1.00  0.00     0.000 HD 
HETATM   14  C   UNL     1      -7.883  10.256  64.830  1.00  0.00    -0.134 A  
HETATM   15  C   UNL     1     -11.203   6.428  69.492  1.00  0.00    -0.477 C  
HETATM   16  C   UNL     1     -10.083   6.430  68.448  1.00  0.00    -0.173 C  
HETATM   17  O   UNL     1      -7.361  10.430  63.584  1.00  0.00    -0.275 OA 
HETATM   18  C   UNL     1      -9.175   9.758  64.923  1.00  0.00    -0.314 A  
HETATM   19  H   UNL     1      -7.858  10.222  62.802  1.00  0.00     0.000 HD 
HETATM   20  C   UNL     1      -8.791   7.135  68.851  1.00  0.00    -0.130 C  
HETATM   21  C   UNL     1      -9.744   9.546  66.178  1.00  0.00    -0.324 A  
ENDBRANCH   2   4
TORSDOF 1
ENDMDL
MODEL      146
REMARK 921   NORMALIZED FREE ENERGY PREDICTED BY IDOCK:   -2.66 KCAL/MOL
REMARK 922        TOTAL FREE ENERGY PREDICTED BY IDOCK:   -2.99 KCAL/MOL
REMARK 923 INTER-LIGAND FREE ENERGY PREDICTED BY IDOCK:   -2.83 KCAL/MOL
REMARK 924 INTRA-LIGAND FREE ENERGY PREDICTED BY IDOCK:   -0.16 KCAL/MOL
REMARK 927      BINDING AFFINITY PREDICTED BY RF-SCORE:    0.00 PKD
ROOT
HETATM    1  C   UNL     1      -9.183   8.682  71.822  1.00  0.00    -0.268 C  
HETATM    2  N   UNL     1      -8.499   8.184  70.628  1.00  0.00    -0.124 NA 
HETATM    3  C   UNL     1      -7.615   9.224  70.090  1.00  0.00    -0.111 C  
ENDROOT
BRANCH   2   4
HETATM    4  C   UNL     1      -7.726   6.949  70.898  1.00  0.00    -0.092 C  
HETATM    5  C   UNL     1      -8.455   5.599  70.593  1.00  0.00    -0.126 C  
HETATM    6  C   UNL     1      -8.789   5.488  69.104  1.00  0.00    -0.106 A  
HETATM    7  C   UNL     1      -7.686   4.343  71.191  1.00  0.00    -0.068 C  
HETATM    8  O   UNL     1      -6.355   4.272  70.664  1.00  0.00    -0.021 OA 
HETATM    9  C   UNL     1      -7.797   5.460  68.111  1.00  0.00    -0.092 A  
HETATM   10  C   UNL     1      -7.581   4.401  72.730  1.00  0.00    -0.081 C  
HETATM   11  C   UNL     1      -8.940   4.428  73.412  1.00  0.00    -0.111 C  
HETATM   12  C   UNL     1      -8.141   5.376  66.758  1.00  0.00    -0.105 A  
HETATM   13  H   UNL     1      -5.896   3.521  71.021  1.00  0.00     0.000 HD 
HETATM   14  C   UNL     1      -9.481   5.315  66.393  1.00  0.00    -0.153 A  
HETATM   15  C   UNL     1      -9.869   3.300  72.966  1.00  0.00    -0.193 C  
HETATM   16  C   UNL     1      -9.736   2.818  71.519  1.00  0.00    -0.225 C  
HETATM   17  O   UNL     1      -9.862   5.210  65.090  1.00  0.00    -0.368 OA 
HETATM   18  C   UNL     1     -10.480   5.355  67.355  1.00  0.00    -0.253 A  
HETATM   19  H   UNL     1     -10.778   5.168  64.840  1.00  0.00     0.000 HD 
HETATM   20  C   UNL     1      -8.363   2.994  70.876  1.00  0.00    -0.084 C  
HETATM   21  C   UNL     1     -10.136   5.444  68.704  1.00  0.00    -0.246 A  
ENDBRANCH   2   4
TORSDOF 1
ENDMDL
MODEL      147
REMARK 921   NORMALIZED FREE ENERGY PREDICTED BY IDOCK:   -2.66 KCAL/MOL
REMARK 922        TOTAL FREE ENERGY PREDICTED BY IDOCK:   -2.98 KCAL/MOL
REMARK 923 INTER-LIGAND FREE ENERGY PREDICTED BY IDOCK:   -2.81 KCAL/MOL
REMARK 924 INTRA-LIGAND FREE ENERGY PREDICTED BY IDOCK:   -0.17 KCAL/MOL
REMARK 927      BINDING AFFINITY PREDICTED BY RF-SCORE:    0.00 PKD
ROOT
HETATM    1  C   UNL     1      -9.309   4.914  65.383  1.00  0.00    -0.140 C  
HETATM    2  N   UNL     1      -8.544   5.517  66.474  1.00  0.00    -0.116 NA 
HETATM    3  C   UNL     1      -7.766   4.484  67.169  1.00  0.00    -0.090 C  
ENDROOT
BRANCH   2   4
HETATM    4  C   UNL     1      -7.645   6.596  66.000  1.00  0.00    -0.086 C  
HETATM    5  C   UNL     1      -8.331   7.953  65.632  1.00  0.00    -0.146 C  
HETATM    6  C   UNL     1      -9.006   8.569  66.860  1.00  0.00    -0.166 A  
HETATM    7  C   UNL     1      -7.356   8.937  64.854  1.00  0.00    -0.093 C  
HETATM    8  O   UNL     1      -6.190   9.214  65.639  1.00  0.00    -0.055 OA 
HETATM    9  C   UNL     1      -8.283   8.961  67.998  1.00  0.00    -0.110 A  
HETATM   10  C   UNL     1      -6.888   8.348  63.505  1.00  0.00    -0.084 C  
HETATM   11  C   UNL     1      -8.041   8.058  62.557  1.00  0.00    -0.157 C  
HETATM   12  C   UNL     1      -8.936   9.504  69.109  1.00  0.00    -0.148 A  
HETATM   13  H   UNL     1      -5.607   9.803  65.173  1.00  0.00     0.000 HD 
HETATM   14  C   UNL     1     -10.317   9.662  69.083  1.00  0.00    -0.207 A  
HETATM   15  C   UNL     1      -8.970   9.251  62.343  1.00  0.00    -0.216 C  
HETATM   16  C   UNL     1      -9.157  10.210  63.523  1.00  0.00    -0.302 C  
HETATM   17  O   UNL     1     -10.993  10.207  70.133  1.00  0.00    -0.273 OA 
HETATM   18  C   UNL     1     -11.055   9.269  67.976  1.00  0.00     0.055 A  
HETATM   19  H   UNL     1     -11.936  10.315  70.116  1.00  0.00     0.000 HD 
HETATM   20  C   UNL     1      -7.994  10.297  64.508  1.00  0.00    -0.133 C  
HETATM   21  C   UNL     1     -10.403   8.723  66.871  1.00  0.00    -0.344 A  
ENDBRANCH   2   4
TORSDOF 1
ENDMDL
MODEL      148
REMARK 921   NORMALIZED FREE ENERGY PREDICTED BY IDOCK:   -2.65 KCAL/MOL
REMARK 922        TOTAL FREE ENERGY PREDICTED BY IDOCK:   -2.98 KCAL/MOL
REMARK 923 INTER-LIGAND FREE ENERGY PREDICTED BY IDOCK:   -2.83 KCAL/MOL
REMARK 924 INTRA-LIGAND FREE ENERGY PREDICTED BY IDOCK:   -0.15 KCAL/MOL
REMARK 927      BINDING AFFINITY PREDICTED BY RF-SCORE:    0.00 PKD
ROOT
HETATM    1  C   UNL     1     -10.081  10.856  67.802  1.00  0.00    -0.177 C  
HETATM    2  N   UNL     1      -9.071   9.815  67.990  1.00  0.00    -0.125 NA 
HETATM    3  C   UNL     1      -7.864  10.146  67.224  1.00  0.00    -0.103 C  
ENDROOT
BRANCH   2   4
HETATM    4  C   UNL     1      -8.728   9.617  69.419  1.00  0.00    -0.171 C  
HETATM    5  C   UNL     1      -8.928   8.172  69.982  1.00  0.00    -0.143 C  
HETATM    6  C   UNL     1      -8.016   7.178  69.259  1.00  0.00    -0.119 A  
HETATM    7  C   UNL     1      -8.834   8.119  71.567  1.00  0.00    -0.154 C  
HETATM    8  O   UNL     1      -7.564   8.609  72.013  1.00  0.00    -0.214 OA 
HETATM    9  C   UNL     1      -6.616   7.269  69.309  1.00  0.00    -0.041 A  
HETATM   10  C   UNL     1      -9.932   8.966  72.246  1.00  0.00    -0.182 C  
HETATM   11  C   UNL     1     -11.337   8.505  71.889  1.00  0.00    -0.399 C  
HETATM   12  C   UNL     1      -5.815   6.353  68.620  1.00  0.00    -0.020 A  
HETATM   13  H   UNL     1      -7.508   8.577  72.960  1.00  0.00     0.000 HD 
HETATM   14  C   UNL     1      -6.412   5.338  67.882  1.00  0.00    -0.048 A  
HETATM   15  C   UNL     1     -11.568   7.014  72.127  1.00  0.00    -0.320 C  
HETATM   16  C   UNL     1     -10.370   6.082  71.926  1.00  0.00    -0.251 C  
HETATM   17  O   UNL     1      -5.672   4.410  67.214  1.00  0.00    -0.020 OA 
HETATM   18  C   UNL     1      -7.794   5.235  67.806  1.00  0.00    -0.092 A  
HETATM   19  H   UNL     1      -6.081   3.716  66.710  1.00  0.00     0.000 HD 
HETATM   20  C   UNL     1      -8.993   6.700  72.150  1.00  0.00    -0.138 C  
HETATM   21  C   UNL     1      -8.592   6.153  68.489  1.00  0.00    -0.113 A  
ENDBRANCH   2   4
TORSDOF 1
ENDMDL
MODEL      149
REMARK 921   NORMALIZED FREE ENERGY PREDICTED BY IDOCK:   -2.64 KCAL/MOL
REMARK 922        TOTAL FREE ENERGY PREDICTED BY IDOCK:   -2.97 KCAL/MOL
REMARK 923 INTER-LIGAND FREE ENERGY PREDICTED BY IDOCK:   -3.56 KCAL/MOL
REMARK 924 INTRA-LIGAND FREE ENERGY PREDICTED BY IDOCK:    0.60 KCAL/MOL
REMARK 927      BINDING AFFINITY PREDICTED BY RF-SCORE:    0.00 PKD
ROOT
HETATM    1  C   UNL     1      -7.035   8.369  72.113  1.00  0.00    -0.090 C  
HETATM    2  N   UNL     1      -7.528   9.461  71.273  1.00  0.00    -0.332 NA 
HETATM    3  C   UNL     1      -6.584   9.712  70.178  1.00  0.00    -0.081 C  
ENDROOT
BRANCH   2   4
HETATM    4  C   UNL     1      -8.877   9.184  70.726  1.00  0.00    -0.239 C  
HETATM    5  C   UNL     1      -8.925   8.422  69.361  1.00  0.00    -0.153 C  
HETATM    6  C   UNL     1      -8.306   7.029  69.497  1.00  0.00    -0.133 A  
HETATM    7  C   UNL     1     -10.373   8.439  68.705  1.00  0.00    -0.206 C  
HETATM    8  O   UNL     1     -11.332   7.848  69.590  1.00  0.00    -0.454 OA 
HETATM    9  C   UNL     1      -8.843   6.047  70.344  1.00  0.00    -0.148 A  
HETATM   10  C   UNL     1     -10.850   9.871  68.379  1.00  0.00    -0.263 C  
HETATM   11  C   UNL     1      -9.933  10.588  67.401  1.00  0.00    -0.214 C  
HETATM   12  C   UNL     1      -8.239   4.790  70.455  1.00  0.00    -0.090 A  
HETATM   13  H   UNL     1     -12.197   7.858  69.198  1.00  0.00     0.000 HD 
HETATM   14  C   UNL     1      -7.097   4.510  69.714  1.00  0.00    -0.050 A  
HETATM   15  C   UNL     1      -9.664   9.795  66.124  1.00  0.00    -0.309 C  
HETATM   16  C   UNL     1      -9.628   8.268  66.245  1.00  0.00    -0.266 C  
HETATM   17  O   UNL     1      -6.488   3.293  69.774  1.00  0.00    -0.031 OA 
HETATM   18  C   UNL     1      -6.539   5.469  68.881  1.00  0.00    -0.051 A  
HETATM   19  H   UNL     1      -5.708   3.101  69.267  1.00  0.00     0.000 HD 
HETATM   20  C   UNL     1     -10.458   7.665  67.375  1.00  0.00    -0.367 C  
HETATM   21  C   UNL     1      -7.140   6.723  68.774  1.00  0.00    -0.086 A  
ENDBRANCH   2   4
TORSDOF 1
ENDMDL
MODEL      150
REMARK 921   NORMALIZED FREE ENERGY PREDICTED BY IDOCK:   -2.61 KCAL/MOL
REMARK 922        TOTAL FREE ENERGY PREDICTED BY IDOCK:   -2.94 KCAL/MOL
REMARK 923 INTER-LIGAND FREE ENERGY PREDICTED BY IDOCK:   -3.53 KCAL/MOL
REMARK 924 INTRA-LIGAND FREE ENERGY PREDICTED BY IDOCK:    0.59 KCAL/MOL
REMARK 927      BINDING AFFINITY PREDICTED BY RF-SCORE:    0.00 PKD
ROOT
HETATM    1  C   UNL     1     -10.805   7.735  72.834  1.00  0.00    -0.392 C  
HETATM    2  N   UNL     1     -10.397   6.479  73.463  1.00  0.00    -0.254 NA 
HETATM    3  C   UNL     1     -11.357   5.420  73.130  1.00  0.00    -0.263 C  
ENDROOT
BRANCH   2   4
HETATM    4  C   UNL     1      -9.030   6.070  73.064  1.00  0.00    -0.127 C  
HETATM    5  C   UNL     1      -8.918   5.226  71.752  1.00  0.00    -0.147 C  
HETATM    6  C   UNL     1      -9.413   6.029  70.547  1.00  0.00    -0.191 A  
HETATM    7  C   UNL     1      -7.480   4.577  71.566  1.00  0.00    -0.069 C  
HETATM    8  O   UNL     1      -6.470   5.593  71.540  1.00  0.00    -0.041 OA 
HETATM    9  C   UNL     1      -8.790   7.215  70.128  1.00  0.00    -0.145 A  
HETATM   10  C   UNL     1      -7.131   3.593  72.704  1.00  0.00    -0.045 C  
HETATM   11  C   UNL     1      -8.109   2.433  72.799  1.00  0.00    -0.055 C  
HETATM   12  C   UNL     1      -9.281   7.933  69.033  1.00  0.00    -0.147 A  
HETATM   13  H   UNL     1      -5.610   5.205  71.428  1.00  0.00     0.000 HD 
HETATM   14  C   UNL     1     -10.396   7.463  68.348  1.00  0.00    -0.194 A  
HETATM   15  C   UNL     1      -8.310   1.695  71.477  1.00  0.00    -0.056 C  
HETATM   16  C   UNL     1      -8.212   2.524  70.193  1.00  0.00    -0.064 C  
HETATM   17  O   UNL     1     -10.895   8.117  67.263  1.00  0.00    -0.484 OA 
HETATM   18  C   UNL     1     -11.037   6.301  68.752  1.00  0.00    -0.424 A  
HETATM   19  H   UNL     1     -11.657   7.795  66.795  1.00  0.00     0.000 HD 
HETATM   20  C   UNL     1      -7.329   3.767  70.263  1.00  0.00    -0.041 C  
HETATM   21  C   UNL     1     -10.550   5.588  69.847  1.00  0.00    -0.387 A  
ENDBRANCH   2   4
TORSDOF 1
ENDMDL
MODEL      151
REMARK 921   NORMALIZED FREE ENERGY PREDICTED BY IDOCK:   -2.58 KCAL/MOL
REMARK 922        TOTAL FREE ENERGY PREDICTED BY IDOCK:   -2.90 KCAL/MOL
REMARK 923 INTER-LIGAND FREE ENERGY PREDICTED BY IDOCK:   -3.98 KCAL/MOL
REMARK 924 INTRA-LIGAND FREE ENERGY PREDICTED BY IDOCK:    1.08 KCAL/MOL
REMARK 927      BINDING AFFINITY PREDICTED BY RF-SCORE:    0.00 PKD
ROOT
HETATM    1  C   UNL     1      -8.461   5.891  67.267  1.00  0.00    -0.103 C  
HETATM    2  N   UNL     1      -9.199   6.771  66.361  1.00  0.00    -0.163 NA 
HETATM    3  C   UNL     1     -10.542   7.024  66.897  1.00  0.00    -0.301 C  
ENDROOT
BRANCH   2   4
HETATM    4  C   UNL     1      -8.496   8.055  66.127  1.00  0.00    -0.135 C  
HETATM    5  C   UNL     1      -9.167   9.329  66.737  1.00  0.00    -0.185 C  
HETATM    6  C   UNL     1      -9.227   9.232  68.263  1.00  0.00    -0.134 A  
HETATM    7  C   UNL     1      -8.526  10.676  66.187  1.00  0.00    -0.159 C  
HETATM    8  O   UNL     1      -7.123  10.718  66.473  1.00  0.00    -0.123 OA 
HETATM    9  C   UNL     1      -8.072   9.160  69.057  1.00  0.00    -0.102 A  
HETATM   10  C   UNL     1      -8.702  10.825  64.660  1.00  0.00    -0.105 C  
HETATM   11  C   UNL     1     -10.162  10.845  64.234  1.00  0.00    -0.430 C  
HETATM   12  C   UNL     1      -8.166   9.053  70.449  1.00  0.00    -0.163 A  
HETATM   13  H   UNL     1      -6.741  11.524  66.145  1.00  0.00     0.000 HD 
HETATM   14  C   UNL     1      -9.418   9.025  71.051  1.00  0.00    -0.274 A  
HETATM   15  C   UNL     1     -11.002  11.875  64.987  1.00  0.00    -0.365 C  
HETATM   16  C   UNL     1     -10.612  12.166  66.439  1.00  0.00    -0.275 C  
HETATM   17  O   UNL     1      -9.558   8.945  72.404  1.00  0.00    -0.278 OA 
HETATM   18  C   UNL     1     -10.575   9.081  70.287  1.00  0.00    -0.250 A  
HETATM   19  H   UNL     1     -10.414   8.925  72.816  1.00  0.00     0.000 HD 
HETATM   20  C   UNL     1      -9.144  11.950  66.797  1.00  0.00    -0.197 C  
HETATM   21  C   UNL     1     -10.479   9.182  68.899  1.00  0.00    -0.239 A  
ENDBRANCH   2   4
TORSDOF 1
ENDMDL
MODEL      152
REMARK 921   NORMALIZED FREE ENERGY PREDICTED BY IDOCK:   -2.53 KCAL/MOL
REMARK 922        TOTAL FREE ENERGY PREDICTED BY IDOCK:   -2.85 KCAL/MOL
REMARK 923 INTER-LIGAND FREE ENERGY PREDICTED BY IDOCK:   -2.72 KCAL/MOL
REMARK 924 INTRA-LIGAND FREE ENERGY PREDICTED BY IDOCK:   -0.13 KCAL/MOL
REMARK 927      BINDING AFFINITY PREDICTED BY RF-SCORE:    0.00 PKD
ROOT
HETATM    1  C   UNL     1      -5.629  10.127  65.238  1.00  0.00    -0.089 C  
HETATM    2  N   UNL     1      -6.401   9.103  65.943  1.00  0.00    -0.059 NA 
HETATM    3  C   UNL     1      -5.606   7.875  66.064  1.00  0.00    -0.033 C  
ENDROOT
BRANCH   2   4
HETATM    4  C   UNL     1      -6.843   9.556  67.283  1.00  0.00    -0.084 C  
HETATM    5  C   UNL     1      -8.377   9.464  67.570  1.00  0.00    -0.122 C  
HETATM    6  C   UNL     1      -8.853   8.010  67.514  1.00  0.00    -0.129 A  
HETATM    7  C   UNL     1      -8.798  10.244  68.889  1.00  0.00    -0.157 C  
HETATM    8  O   UNL     1      -8.091   9.729  70.023  1.00  0.00    -0.161 OA 
HETATM    9  C   UNL     1      -8.379   7.030  68.400  1.00  0.00    -0.124 A  
HETATM   10  C   UNL     1      -8.500  11.757  68.793  1.00  0.00     0.005 C  
HETATM   11  C   UNL     1      -9.240  12.431  67.648  1.00  0.00    -0.185 C  
HETATM   12  C   UNL     1      -8.823   5.707  68.306  1.00  0.00    -0.108 A  
HETATM   13  H   UNL     1      -8.343  10.196  70.812  1.00  0.00     0.000 HD 
HETATM   14  C   UNL     1      -9.748   5.361  67.328  1.00  0.00    -0.144 A  
HETATM   15  C   UNL     1     -10.745  12.166  67.655  1.00  0.00    -0.252 C  
HETATM   16  C   UNL     1     -11.212  10.809  68.189  1.00  0.00    -0.365 C  
HETATM   17  O   UNL     1     -10.225   4.090  67.214  1.00  0.00    -0.144 OA 
HETATM   18  C   UNL     1     -10.220   6.309  66.432  1.00  0.00    -0.081 A  
HETATM   19  H   UNL     1     -10.858   3.854  66.546  1.00  0.00     0.000 HD 
HETATM   20  C   UNL     1     -10.301  10.142  69.216  1.00  0.00    -0.242 C  
HETATM   21  C   UNL     1      -9.773   7.627  66.522  1.00  0.00    -0.251 A  
ENDBRANCH   2   4
TORSDOF 1
ENDMDL
MODEL      153
REMARK 921   NORMALIZED FREE ENERGY PREDICTED BY IDOCK:   -2.51 KCAL/MOL
REMARK 922        TOTAL FREE ENERGY PREDICTED BY IDOCK:   -2.83 KCAL/MOL
REMARK 923 INTER-LIGAND FREE ENERGY PREDICTED BY IDOCK:   -3.42 KCAL/MOL
REMARK 924 INTRA-LIGAND FREE ENERGY PREDICTED BY IDOCK:    0.59 KCAL/MOL
REMARK 927      BINDING AFFINITY PREDICTED BY RF-SCORE:    0.00 PKD
ROOT
HETATM    1  C   UNL     1     -11.602   9.922  70.240  1.00  0.00    -0.250 C  
HETATM    2  N   UNL     1     -12.018   8.946  71.247  1.00  0.00    -0.297 NA 
HETATM    3  C   UNL     1     -12.318   7.662  70.602  1.00  0.00     0.065 C  
ENDROOT
BRANCH   2   4
HETATM    4  C   UNL     1     -10.994   8.757  72.302  1.00  0.00    -0.266 C  
HETATM    5  C   UNL     1      -9.856   7.733  71.983  1.00  0.00    -0.226 C  
HETATM    6  C   UNL     1      -9.037   8.192  70.774  1.00  0.00    -0.159 A  
HETATM    7  C   UNL     1      -8.991   7.366  73.264  1.00  0.00    -0.165 C  
HETATM    8  O   UNL     1      -8.399   8.544  73.825  1.00  0.00    -0.362 OA 
HETATM    9  C   UNL     1      -8.298   9.386  70.777  1.00  0.00    -0.180 A  
HETATM   10  C   UNL     1      -9.836   6.692  74.367  1.00  0.00    -0.349 C  
HETATM   11  C   UNL     1     -10.479   5.393  73.904  1.00  0.00    -0.313 C  
HETATM   12  C   UNL     1      -7.576   9.783  69.647  1.00  0.00    -0.120 A  
HETATM   13  H   UNL     1      -7.881   8.324  74.590  1.00  0.00     0.000 HD 
HETATM   14  C   UNL     1      -7.586   8.983  68.511  1.00  0.00    -0.093 A  
HETATM   15  C   UNL     1      -9.487   4.406  73.291  1.00  0.00    -0.135 C  
HETATM   16  C   UNL     1      -8.295   4.996  72.532  1.00  0.00    -0.117 C  
HETATM   17  O   UNL     1      -6.880   9.318  67.395  1.00  0.00    -0.075 OA 
HETATM   18  C   UNL     1      -8.320   7.806  68.478  1.00  0.00    -0.129 A  
HETATM   19  H   UNL     1      -6.887   8.771  66.618  1.00  0.00     0.000 HD 
HETATM   20  C   UNL     1      -7.838   6.384  72.973  1.00  0.00    -0.105 C  
HETATM   21  C   UNL     1      -9.044   7.413  69.604  1.00  0.00    -0.140 A  
ENDBRANCH   2   4
TORSDOF 1
ENDMDL
MODEL      154
REMARK 921   NORMALIZED FREE ENERGY PREDICTED BY IDOCK:   -2.50 KCAL/MOL
REMARK 922        TOTAL FREE ENERGY PREDICTED BY IDOCK:   -2.82 KCAL/MOL
REMARK 923 INTER-LIGAND FREE ENERGY PREDICTED BY IDOCK:   -2.73 KCAL/MOL
REMARK 924 INTRA-LIGAND FREE ENERGY PREDICTED BY IDOCK:   -0.09 KCAL/MOL
REMARK 927      BINDING AFFINITY PREDICTED BY RF-SCORE:    0.00 PKD
ROOT
HETATM    1  C   UNL     1     -11.140   6.730  68.685  1.00  0.00    -0.153 C  
HETATM    2  N   UNL     1      -9.728   7.109  68.636  1.00  0.00    -0.140 NA 
HETATM    3  C   UNL     1      -9.607   8.557  68.429  1.00  0.00    -0.147 C  
ENDROOT
BRANCH   2   4
HETATM    4  C   UNL     1      -8.996   6.707  69.861  1.00  0.00    -0.144 C  
HETATM    5  C   UNL     1      -9.221   5.238  70.348  1.00  0.00    -0.190 C  
HETATM    6  C   UNL     1      -8.728   4.239  69.298  1.00  0.00    -0.121 A  
HETATM    7  C   UNL     1      -8.655   4.989  71.811  1.00  0.00    -0.128 C  
HETATM    8  O   UNL     1      -7.253   5.276  71.864  1.00  0.00    -0.079 OA 
HETATM    9  C   UNL     1      -7.383   4.163  68.906  1.00  0.00    -0.055 A  
HETATM   10  C   UNL     1      -9.358   5.870  72.867  1.00  0.00    -0.147 C  
HETATM   11  C   UNL     1     -10.855   5.617  72.943  1.00  0.00    -0.303 C  
HETATM   12  C   UNL     1      -6.973   3.249  67.930  1.00  0.00    -0.050 A  
HETATM   13  H   UNL     1      -6.915   5.127  72.739  1.00  0.00     0.000 HD 
HETATM   14  C   UNL     1      -7.908   2.402  67.347  1.00  0.00    -0.065 A  
HETATM   15  C   UNL     1     -11.216   4.144  73.129  1.00  0.00    -0.244 C  
HETATM   16  C   UNL     1     -10.285   3.112  72.486  1.00  0.00    -0.216 C  
HETATM   17  O   UNL     1      -7.550   1.481  66.409  1.00  0.00    -0.059 OA 
HETATM   18  C   UNL     1      -9.246   2.467  67.708  1.00  0.00    -0.240 A  
HETATM   19  H   UNL     1      -8.190   0.902  66.011  1.00  0.00     0.000 HD 
HETATM   20  C   UNL     1      -8.831   3.539  72.305  1.00  0.00    -0.118 C  
HETATM   21  C   UNL     1      -9.655   3.383  68.678  1.00  0.00    -0.127 A  
ENDBRANCH   2   4
TORSDOF 1
ENDMDL
MODEL      155
REMARK 921   NORMALIZED FREE ENERGY PREDICTED BY IDOCK:   -2.49 KCAL/MOL
REMARK 922        TOTAL FREE ENERGY PREDICTED BY IDOCK:   -2.81 KCAL/MOL
REMARK 923 INTER-LIGAND FREE ENERGY PREDICTED BY IDOCK:   -2.64 KCAL/MOL
REMARK 924 INTRA-LIGAND FREE ENERGY PREDICTED BY IDOCK:   -0.17 KCAL/MOL
REMARK 927      BINDING AFFINITY PREDICTED BY RF-SCORE:    0.00 PKD
ROOT
HETATM    1  C   UNL     1      -8.518  10.951  68.018  1.00  0.00    -0.130 C  
HETATM    2  N   UNL     1      -7.682   9.804  67.664  1.00  0.00    -0.094 NA 
HETATM    3  C   UNL     1      -6.333  10.261  67.309  1.00  0.00    -0.066 C  
ENDROOT
BRANCH   2   4
HETATM    4  C   UNL     1      -7.609   8.804  68.756  1.00  0.00    -0.095 C  
HETATM    5  C   UNL     1      -8.554   7.566  68.620  1.00  0.00    -0.129 C  
HETATM    6  C   UNL     1      -8.204   6.752  67.372  1.00  0.00    -0.122 A  
HETATM    7  C   UNL     1      -8.638   6.714  69.959  1.00  0.00    -0.140 C  
HETATM    8  O   UNL     1      -7.337   6.255  70.344  1.00  0.00    -0.083 OA 
HETATM    9  C   UNL     1      -6.958   6.128  67.206  1.00  0.00    -0.069 A  
HETATM   10  C   UNL     1      -9.218   7.531  71.135  1.00  0.00    -0.151 C  
HETATM   11  C   UNL     1     -10.627   8.034  70.864  1.00  0.00    -0.233 C  
HETATM   12  C   UNL     1      -6.667   5.407  66.044  1.00  0.00    -0.056 A  
HETATM   13  H   UNL     1      -7.387   5.746  71.145  1.00  0.00     0.000 HD 
HETATM   14  C   UNL     1      -7.627   5.304  65.043  1.00  0.00    -0.082 A  
HETATM   15  C   UNL     1     -11.594   6.933  70.430  1.00  0.00    -0.385 C  
HETATM   16  C   UNL     1     -11.012   5.776  69.613  1.00  0.00    -0.385 C  
HETATM   17  O   UNL     1      -7.396   4.593  63.904  1.00  0.00    -0.053 OA 
HETATM   18  C   UNL     1      -8.861   5.923  65.177  1.00  0.00     0.017 A  
HETATM   19  H   UNL     1      -8.052   4.522  63.220  1.00  0.00     0.000 HD 
HETATM   20  C   UNL     1      -9.536   5.466  69.845  1.00  0.00    -0.210 C  
HETATM   21  C   UNL     1      -9.148   6.646  66.335  1.00  0.00    -0.172 A  
ENDBRANCH   2   4
TORSDOF 1
ENDMDL
MODEL      156
REMARK 921   NORMALIZED FREE ENERGY PREDICTED BY IDOCK:   -2.45 KCAL/MOL
REMARK 922        TOTAL FREE ENERGY PREDICTED BY IDOCK:   -2.76 KCAL/MOL
REMARK 923 INTER-LIGAND FREE ENERGY PREDICTED BY IDOCK:   -2.60 KCAL/MOL
REMARK 924 INTRA-LIGAND FREE ENERGY PREDICTED BY IDOCK:   -0.17 KCAL/MOL
REMARK 927      BINDING AFFINITY PREDICTED BY RF-SCORE:    0.00 PKD
ROOT
HETATM    1  C   UNL     1      -9.907   4.358  67.037  1.00  0.00    -0.194 C  
HETATM    2  N   UNL     1      -9.134   3.918  68.198  1.00  0.00    -0.130 NA 
HETATM    3  C   UNL     1      -8.272   2.791  67.825  1.00  0.00    -0.079 C  
ENDROOT
BRANCH   2   4
HETATM    4  C   UNL     1      -8.318   5.012  68.776  1.00  0.00    -0.084 C  
HETATM    5  C   UNL     1      -8.881   5.680  70.073  1.00  0.00    -0.136 C  
HETATM    6  C   UNL     1      -8.966   4.663  71.214  1.00  0.00    -0.164 A  
HETATM    7  C   UNL     1      -8.119   7.024  70.446  1.00  0.00    -0.119 C  
HETATM    8  O   UNL     1      -6.721   6.773  70.633  1.00  0.00    -0.051 OA 
HETATM    9  C   UNL     1      -7.831   4.026  71.739  1.00  0.00    -0.071 A  
HETATM   10  C   UNL     1      -8.263   8.101  69.348  1.00  0.00    -0.121 C  
HETATM   11  C   UNL     1      -9.711   8.491  69.094  1.00  0.00    -0.170 C  
HETATM   12  C   UNL     1      -7.950   3.087  72.769  1.00  0.00    -0.063 A  
HETATM   13  H   UNL     1      -6.265   7.577  70.856  1.00  0.00     0.000 HD 
HETATM   14  C   UNL     1      -9.206   2.786  73.281  1.00  0.00    -0.088 A  
HETATM   15  C   UNL     1     -10.466   8.893  70.360  1.00  0.00    -0.245 C  
HETATM   16  C   UNL     1     -10.068   8.190  71.661  1.00  0.00    -0.259 C  
HETATM   17  O   UNL     1      -9.368   1.896  74.299  1.00  0.00    -0.070 OA 
HETATM   18  C   UNL     1     -10.345   3.392  72.769  1.00  0.00    -0.240 A  
HETATM   19  H   UNL     1     -10.227   1.690  74.650  1.00  0.00     0.000 HD 
HETATM   20  C   UNL     1      -8.629   7.687  71.740  1.00  0.00    -0.130 C  
HETATM   21  C   UNL     1     -10.226   4.324  71.738  1.00  0.00    -0.182 A  
ENDBRANCH   2   4
TORSDOF 1
ENDMDL
MODEL      157
REMARK 921   NORMALIZED FREE ENERGY PREDICTED BY IDOCK:   -2.45 KCAL/MOL
REMARK 922        TOTAL FREE ENERGY PREDICTED BY IDOCK:   -2.76 KCAL/MOL
REMARK 923 INTER-LIGAND FREE ENERGY PREDICTED BY IDOCK:   -2.63 KCAL/MOL
REMARK 924 INTRA-LIGAND FREE ENERGY PREDICTED BY IDOCK:   -0.13 KCAL/MOL
REMARK 927      BINDING AFFINITY PREDICTED BY RF-SCORE:    0.00 PKD
ROOT
HETATM    1  C   UNL     1      -8.649   3.166  69.257  1.00  0.00    -0.068 C  
HETATM    2  N   UNL     1      -8.987   4.580  69.092  1.00  0.00    -0.095 NA 
HETATM    3  C   UNL     1      -9.928   4.740  67.977  1.00  0.00    -0.091 C  
ENDROOT
BRANCH   2   4
HETATM    4  C   UNL     1      -9.557   5.169  70.326  1.00  0.00    -0.184 C  
HETATM    5  C   UNL     1      -8.836   6.442  70.879  1.00  0.00    -0.136 C  
HETATM    6  C   UNL     1      -8.916   7.590  69.870  1.00  0.00    -0.141 A  
HETATM    7  C   UNL     1      -9.311   6.822  72.347  1.00  0.00    -0.137 C  
HETATM    8  O   UNL     1     -10.724   7.051  72.374  1.00  0.00    -0.215 OA 
HETATM    9  C   UNL     1     -10.137   8.155  69.469  1.00  0.00    -0.193 A  
HETATM   10  C   UNL     1      -8.993   5.709  73.369  1.00  0.00    -0.129 C  
HETATM   11  C   UNL     1      -7.505   5.409  73.469  1.00  0.00    -0.095 C  
HETATM   12  C   UNL     1     -10.171   9.191  68.530  1.00  0.00    -0.223 A  
HETATM   13  H   UNL     1     -11.008   7.278  73.252  1.00  0.00     0.000 HD 
HETATM   14  C   UNL     1      -8.983   9.671  67.993  1.00  0.00    -0.122 A  
HETATM   15  C   UNL     1      -6.649   6.648  73.722  1.00  0.00    -0.072 C  
HETATM   16  C   UNL     1      -7.136   7.968  73.117  1.00  0.00    -0.126 C  
HETATM   17  O   UNL     1      -8.967  10.693  67.093  1.00  0.00    -0.137 OA 
HETATM   18  C   UNL     1      -7.764   9.119  68.363  1.00  0.00    -0.094 A  
HETATM   19  H   UNL     1      -8.154  11.021  66.726  1.00  0.00     0.000 HD 
HETATM   20  C   UNL     1      -8.642   8.094  72.905  1.00  0.00    -0.269 C  
HETATM   21  C   UNL     1      -7.731   8.083  69.295  1.00  0.00    -0.102 A  
ENDBRANCH   2   4
TORSDOF 1
ENDMDL
MODEL      158
REMARK 921   NORMALIZED FREE ENERGY PREDICTED BY IDOCK:   -2.40 KCAL/MOL
REMARK 922        TOTAL FREE ENERGY PREDICTED BY IDOCK:   -2.71 KCAL/MOL
REMARK 923 INTER-LIGAND FREE ENERGY PREDICTED BY IDOCK:   -2.56 KCAL/MOL
REMARK 924 INTRA-LIGAND FREE ENERGY PREDICTED BY IDOCK:   -0.15 KCAL/MOL
REMARK 927      BINDING AFFINITY PREDICTED BY RF-SCORE:    0.00 PKD
ROOT
HETATM    1  C   UNL     1     -11.144   6.497  67.604  1.00  0.00    -0.287 C  
HETATM    2  N   UNL     1     -10.794   6.583  69.022  1.00  0.00    -0.278 NA 
HETATM    3  C   UNL     1     -11.882   7.230  69.765  1.00  0.00     0.276 C  
ENDROOT
BRANCH   2   4
HETATM    4  C   UNL     1     -10.499   5.254  69.608  1.00  0.00    -0.250 C  
HETATM    5  C   UNL     1      -9.084   5.083  70.251  1.00  0.00    -0.164 C  
HETATM    6  C   UNL     1      -8.907   6.038  71.434  1.00  0.00    -0.136 A  
HETATM    7  C   UNL     1      -8.741   3.565  70.574  1.00  0.00    -0.074 C  
HETATM    8  O   UNL     1      -9.715   3.008  71.464  1.00  0.00    -0.148 OA 
HETATM    9  C   UNL     1      -9.708   5.967  72.584  1.00  0.00    -0.166 A  
HETATM   10  C   UNL     1      -8.709   2.691  69.301  1.00  0.00    -0.134 C  
HETATM   11  C   UNL     1      -7.669   3.155  68.294  1.00  0.00    -0.059 C  
HETATM   12  C   UNL     1      -9.530   6.869  73.637  1.00  0.00    -0.218 A  
HETATM   13  H   UNL     1      -9.510   2.101  71.657  1.00  0.00     0.000 HD 
HETATM   14  C   UNL     1      -8.544   7.844  73.546  1.00  0.00    -0.243 A  
HETATM   15  C   UNL     1      -6.271   3.311  68.889  1.00  0.00    -0.029 C  
HETATM   16  C   UNL     1      -6.181   3.746  70.354  1.00  0.00    -0.023 C  
HETATM   17  O   UNL     1      -8.319   8.730  74.556  1.00  0.00    -0.359 OA 
HETATM   18  C   UNL     1      -7.748   7.944  72.413  1.00  0.00    -0.134 A  
HETATM   19  H   UNL     1      -7.644   9.396  74.494  1.00  0.00     0.000 HD 
HETATM   20  C   UNL     1      -7.365   3.369  71.240  1.00  0.00    -0.033 C  
HETATM   21  C   UNL     1      -7.931   7.047  71.361  1.00  0.00    -0.103 A  
ENDBRANCH   2   4
TORSDOF 1
ENDMDL
MODEL      159
REMARK 921   NORMALIZED FREE ENERGY PREDICTED BY IDOCK:   -2.36 KCAL/MOL
REMARK 922        TOTAL FREE ENERGY PREDICTED BY IDOCK:   -2.67 KCAL/MOL
REMARK 923 INTER-LIGAND FREE ENERGY PREDICTED BY IDOCK:   -2.89 KCAL/MOL
REMARK 924 INTRA-LIGAND FREE ENERGY PREDICTED BY IDOCK:    0.22 KCAL/MOL
REMARK 927      BINDING AFFINITY PREDICTED BY RF-SCORE:    0.00 PKD
ROOT
HETATM    1  C   UNL     1      -5.293  12.593  68.132  1.00  0.00    -0.073 C  
HETATM    2  N   UNL     1      -6.424  12.341  67.239  1.00  0.00    -0.156 NA 
HETATM    3  C   UNL     1      -6.297  11.008  66.638  1.00  0.00    -0.124 C  
ENDROOT
BRANCH   2   4
HETATM    4  C   UNL     1      -7.727  12.462  67.936  1.00  0.00    -0.135 C  
HETATM    5  C   UNL     1      -8.911  13.034  67.089  1.00  0.00    -0.218 C  
HETATM    6  C   UNL     1      -9.226  12.113  65.908  1.00  0.00    -0.069 A  
HETATM    7  C   UNL     1     -10.169  13.415  67.982  1.00  0.00    -0.243 C  
HETATM    8  O   UNL     1     -10.637  12.270  68.704  1.00  0.00    -0.228 OA 
HETATM    9  C   UNL     1      -9.666  10.791  66.082  1.00  0.00    -0.253 A  
HETATM   10  C   UNL     1      -9.843  14.521  69.009  1.00  0.00    -0.142 C  
HETATM   11  C   UNL     1      -9.381  15.814  68.355  1.00  0.00    -0.196 C  
HETATM   12  C   UNL     1      -9.927   9.974  64.978  1.00  0.00    -0.320 A  
HETATM   13  H   UNL     1     -11.390  12.498  69.237  1.00  0.00     0.000 HD 
HETATM   14  C   UNL     1      -9.754  10.477  63.694  1.00  0.00    -0.318 A  
HETATM   15  C   UNL     1     -10.335  16.328  67.279  1.00  0.00    -0.285 C  
HETATM   16  C   UNL     1     -11.102  15.279  66.468  1.00  0.00    -0.271 C  
HETATM   17  O   UNL     1     -10.018   9.724  62.590  1.00  0.00    -0.443 OA 
HETATM   18  C   UNL     1      -9.307  11.776  63.497  1.00  0.00    -0.043 A  
HETATM   19  H   UNL     1      -9.900  10.069  61.712  1.00  0.00     0.000 HD 
HETATM   20  C   UNL     1     -11.365  13.949  67.170  1.00  0.00    -0.346 C  
HETATM   21  C   UNL     1      -9.042  12.589  64.598  1.00  0.00     0.970 A  
ENDBRANCH   2   4
TORSDOF 1
ENDMDL
MODEL      160
REMARK 921   NORMALIZED FREE ENERGY PREDICTED BY IDOCK:   -2.28 KCAL/MOL
REMARK 922        TOTAL FREE ENERGY PREDICTED BY IDOCK:   -2.58 KCAL/MOL
REMARK 923 INTER-LIGAND FREE ENERGY PREDICTED BY IDOCK:   -2.41 KCAL/MOL
REMARK 924 INTRA-LIGAND FREE ENERGY PREDICTED BY IDOCK:   -0.17 KCAL/MOL
REMARK 927      BINDING AFFINITY PREDICTED BY RF-SCORE:    0.00 PKD
ROOT
HETATM    1  C   UNL     1      -8.826   8.289  72.866  1.00  0.00    -0.232 C  
HETATM    2  N   UNL     1      -7.546   8.606  72.232  1.00  0.00    -0.315 NA 
HETATM    3  C   UNL     1      -6.506   8.755  73.256  1.00  0.00     0.036 C  
ENDROOT
BRANCH   2   4
HETATM    4  C   UNL     1      -7.140   7.580  71.242  1.00  0.00    -0.058 C  
HETATM    5  C   UNL     1      -7.960   7.545  69.910  1.00  0.00    -0.123 C  
HETATM    6  C   UNL     1      -7.801   8.859  69.142  1.00  0.00    -0.093 A  
HETATM    7  C   UNL     1      -7.669   6.240  69.051  1.00  0.00    -0.100 C  
HETATM    8  O   UNL     1      -6.276   6.150  68.731  1.00  0.00    -0.032 OA 
HETATM    9  C   UNL     1      -6.560   9.299  68.655  1.00  0.00    -0.053 A  
HETATM   10  C   UNL     1      -8.067   4.948  69.798  1.00  0.00    -0.069 C  
HETATM   11  C   UNL     1      -9.546   4.904  70.149  1.00  0.00    -0.263 C  
HETATM   12  C   UNL     1      -6.450  10.515  67.973  1.00  0.00    -0.059 A  
HETATM   13  H   UNL     1      -6.102   5.370  68.217  1.00  0.00     0.000 HD 
HETATM   14  C   UNL     1      -7.584  11.293  67.771  1.00  0.00    -0.104 A  
HETATM   15  C   UNL     1     -10.464   5.153  68.953  1.00  0.00    -0.131 C  
HETATM   16  C   UNL     1      -9.953   6.103  67.867  1.00  0.00    -0.149 C  
HETATM   17  O   UNL     1      -7.528  12.474  67.092  1.00  0.00    -0.264 OA 
HETATM   18  C   UNL     1      -8.819  10.887  68.255  1.00  0.00    -0.140 A  
HETATM   19  H   UNL     1      -8.303  13.006  66.954  1.00  0.00     0.000 HD 
HETATM   20  C   UNL     1      -8.437   6.195  67.715  1.00  0.00    -0.115 C  
HETATM   21  C   UNL     1      -8.926   9.676  68.940  1.00  0.00    -0.144 A  
ENDBRANCH   2   4
TORSDOF 1
ENDMDL
MODEL      161
REMARK 921   NORMALIZED FREE ENERGY PREDICTED BY IDOCK:   -2.27 KCAL/MOL
REMARK 922        TOTAL FREE ENERGY PREDICTED BY IDOCK:   -2.57 KCAL/MOL
REMARK 923 INTER-LIGAND FREE ENERGY PREDICTED BY IDOCK:   -2.40 KCAL/MOL
REMARK 924 INTRA-LIGAND FREE ENERGY PREDICTED BY IDOCK:   -0.17 KCAL/MOL
REMARK 927      BINDING AFFINITY PREDICTED BY RF-SCORE:    0.00 PKD
ROOT
HETATM    1  C   UNL     1     -10.628   4.985  65.696  1.00  0.00    -0.032 C  
HETATM    2  N   UNL     1      -9.666   5.029  66.798  1.00  0.00    -0.157 NA 
HETATM    3  C   UNL     1      -8.959   3.746  66.893  1.00  0.00    -0.142 C  
ENDROOT
BRANCH   2   4
HETATM    4  C   UNL     1      -8.692   6.136  66.649  1.00  0.00    -0.124 C  
HETATM    5  C   UNL     1      -8.710   7.225  67.771  1.00  0.00    -0.126 C  
HETATM    6  C   UNL     1      -8.345   6.613  69.126  1.00  0.00    -0.124 A  
HETATM    7  C   UNL     1      -7.866   8.514  67.382  1.00  0.00    -0.098 C  
HETATM    8  O   UNL     1      -6.504   8.160  67.113  1.00  0.00    -0.055 OA 
HETATM    9  C   UNL     1      -7.094   6.027  69.373  1.00  0.00    -0.066 A  
HETATM   10  C   UNL     1      -8.426   9.223  66.130  1.00  0.00    -0.135 C  
HETATM   11  C   UNL     1      -9.860   9.695  66.313  1.00  0.00    -0.323 C  
HETATM   12  C   UNL     1      -6.803   5.462  70.619  1.00  0.00    -0.048 A  
HETATM   13  H   UNL     1      -6.000   8.931  66.881  1.00  0.00     0.000 HD 
HETATM   14  C   UNL     1      -7.762   5.484  71.624  1.00  0.00    -0.107 A  
HETATM   15  C   UNL     1     -10.067  10.546  67.565  1.00  0.00    -0.225 C  
HETATM   16  C   UNL     1      -9.195  10.221  68.781  1.00  0.00    -0.166 C  
HETATM   17  O   UNL     1      -7.515   4.965  72.859  1.00  0.00    -0.087 OA 
HETATM   18  C   UNL     1      -9.011   6.045  71.399  1.00  0.00    -0.145 A  
HETATM   19  H   UNL     1      -8.171   4.981  73.546  1.00  0.00     0.000 HD 
HETATM   20  C   UNL     1      -7.837   9.592  68.485  1.00  0.00    -0.085 C  
HETATM   21  C   UNL     1      -9.303   6.605  70.155  1.00  0.00    -0.159 A  
ENDBRANCH   2   4
TORSDOF 1
ENDMDL
MODEL      162
REMARK 921   NORMALIZED FREE ENERGY PREDICTED BY IDOCK:   -2.26 KCAL/MOL
REMARK 922        TOTAL FREE ENERGY PREDICTED BY IDOCK:   -2.57 KCAL/MOL
REMARK 923 INTER-LIGAND FREE ENERGY PREDICTED BY IDOCK:   -2.40 KCAL/MOL
REMARK 924 INTRA-LIGAND FREE ENERGY PREDICTED BY IDOCK:   -0.16 KCAL/MOL
REMARK 927      BINDING AFFINITY PREDICTED BY RF-SCORE:    0.00 PKD
ROOT
HETATM    1  C   UNL     1      -5.509   6.897  67.559  1.00  0.00    -0.012 C  
HETATM    2  N   UNL     1      -6.967   6.787  67.504  1.00  0.00    -0.080 NA 
HETATM    3  C   UNL     1      -7.468   7.417  66.277  1.00  0.00    -0.083 C  
ENDROOT
BRANCH   2   4
HETATM    4  C   UNL     1      -7.427   5.379  67.576  1.00  0.00    -0.084 C  
HETATM    5  C   UNL     1      -7.744   4.830  69.006  1.00  0.00    -0.071 C  
HETATM    6  C   UNL     1      -8.896   5.611  69.642  1.00  0.00    -0.121 A  
HETATM    7  C   UNL     1      -7.929   3.252  69.025  1.00  0.00    -0.053 C  
HETATM    8  O   UNL     1      -8.986   2.860  68.141  1.00  0.00    -0.116 OA 
HETATM    9  C   UNL     1     -10.188   5.626  69.093  1.00  0.00    -0.305 A  
HETATM   10  C   UNL     1      -6.648   2.509  68.588  1.00  0.00    -0.029 C  
HETATM   11  C   UNL     1      -5.459   2.807  69.488  1.00  0.00    -0.017 C  
HETATM   12  C   UNL     1     -11.212   6.366  69.693  1.00  0.00    -0.483 A  
HETATM   13  H   UNL     1      -9.096   1.916  68.153  1.00  0.00     0.000 HD 
HETATM   14  C   UNL     1     -10.948   7.091  70.849  1.00  0.00    -0.253 A  
HETATM   15  C   UNL     1      -5.746   2.582  70.971  1.00  0.00    -0.013 C  
HETATM   16  C   UNL     1      -7.173   2.855  71.455  1.00  0.00    -0.033 C  
HETATM   17  O   UNL     1     -11.919   7.809  71.480  1.00  0.00    -0.281 OA 
HETATM   18  C   UNL     1      -9.675   7.104  71.403  1.00  0.00    -0.170 A  
HETATM   19  H   UNL     1     -11.738   8.304  72.270  1.00  0.00     0.000 HD 
HETATM   20  C   UNL     1      -8.277   2.686  70.415  1.00  0.00    -0.064 C  
HETATM   21  C   UNL     1      -8.654   6.370  70.801  1.00  0.00    -0.135 A  
ENDBRANCH   2   4
TORSDOF 1
ENDMDL
MODEL      163
REMARK 921   NORMALIZED FREE ENERGY PREDICTED BY IDOCK:   -2.26 KCAL/MOL
REMARK 922        TOTAL FREE ENERGY PREDICTED BY IDOCK:   -2.56 KCAL/MOL
REMARK 923 INTER-LIGAND FREE ENERGY PREDICTED BY IDOCK:   -2.39 KCAL/MOL
REMARK 924 INTRA-LIGAND FREE ENERGY PREDICTED BY IDOCK:   -0.17 KCAL/MOL
REMARK 927      BINDING AFFINITY PREDICTED BY RF-SCORE:    0.00 PKD
ROOT
HETATM    1  C   UNL     1      -9.888   4.705  67.278  1.00  0.00    -0.180 C  
HETATM    2  N   UNL     1      -8.914   4.834  68.361  1.00  0.00    -0.107 NA 
HETATM    3  C   UNL     1      -7.875   3.807  68.222  1.00  0.00    -0.072 C  
ENDROOT
BRANCH   2   4
HETATM    4  C   UNL     1      -8.295   6.180  68.402  1.00  0.00    -0.114 C  
HETATM    5  C   UNL     1      -8.586   7.034  69.680  1.00  0.00    -0.134 C  
HETATM    6  C   UNL     1      -8.025   6.349  70.928  1.00  0.00    -0.112 A  
HETATM    7  C   UNL     1      -8.150   8.552  69.510  1.00  0.00    -0.111 C  
HETATM    8  O   UNL     1      -6.752   8.643  69.211  1.00  0.00    -0.048 OA 
HETATM    9  C   UNL     1      -6.653   6.109  71.101  1.00  0.00    -0.050 A  
HETATM   10  C   UNL     1      -8.923   9.259  68.375  1.00  0.00    -0.129 C  
HETATM   11  C   UNL     1     -10.425   9.273  68.606  1.00  0.00    -0.236 C  
HETATM   12  C   UNL     1      -6.179   5.464  72.248  1.00  0.00    -0.035 A  
HETATM   13  H   UNL     1      -6.491   9.551  69.109  1.00  0.00     0.000 HD 
HETATM   14  C   UNL     1      -7.076   5.060  73.229  1.00  0.00    -0.081 A  
HETATM   15  C   UNL     1     -10.827   9.828  69.972  1.00  0.00    -0.319 C  
HETATM   16  C   UNL     1      -9.864   9.578  71.136  1.00  0.00    -0.177 C  
HETATM   17  O   UNL     1      -6.658   4.448  74.372  1.00  0.00    -0.054 OA 
HETATM   18  C   UNL     1      -8.439   5.273  73.074  1.00  0.00    -0.111 A  
HETATM   19  H   UNL     1      -7.272   4.172  75.043  1.00  0.00     0.000 HD 
HETATM   20  C   UNL     1      -8.393   9.411  70.767  1.00  0.00    -0.180 C  
HETATM   21  C   UNL     1      -8.911   5.912  71.929  1.00  0.00    -0.139 A  
ENDBRANCH   2   4
TORSDOF 1
ENDMDL
MODEL      164
REMARK 921   NORMALIZED FREE ENERGY PREDICTED BY IDOCK:   -2.26 KCAL/MOL
REMARK 922        TOTAL FREE ENERGY PREDICTED BY IDOCK:   -2.56 KCAL/MOL
REMARK 923 INTER-LIGAND FREE ENERGY PREDICTED BY IDOCK:   -3.15 KCAL/MOL
REMARK 924 INTRA-LIGAND FREE ENERGY PREDICTED BY IDOCK:    0.59 KCAL/MOL
REMARK 927      BINDING AFFINITY PREDICTED BY RF-SCORE:    0.00 PKD
ROOT
HETATM    1  C   UNL     1     -10.582   5.395  67.420  1.00  0.00    -0.153 C  
HETATM    2  N   UNL     1      -9.434   4.537  67.712  1.00  0.00    -0.147 NA 
HETATM    3  C   UNL     1      -8.191   5.308  67.589  1.00  0.00    -0.099 C  
ENDROOT
BRANCH   2   4
HETATM    4  C   UNL     1      -9.520   3.923  69.059  1.00  0.00    -0.170 C  
HETATM    5  C   UNL     1      -9.026   4.806  70.251  1.00  0.00    -0.147 C  
HETATM    6  C   UNL     1      -9.883   6.067  70.383  1.00  0.00    -0.222 A  
HETATM    7  C   UNL     1      -8.865   3.976  71.597  1.00  0.00    -0.108 C  
HETATM    8  O   UNL     1     -10.109   3.369  71.965  1.00  0.00    -0.164 OA 
HETATM    9  C   UNL     1     -11.257   6.016  70.668  1.00  0.00    -0.347 A  
HETATM   10  C   UNL     1      -7.811   2.854  71.469  1.00  0.00    -0.052 C  
HETATM   11  C   UNL     1      -6.427   3.384  71.129  1.00  0.00    -0.019 C  
HETATM   12  C   UNL     1     -12.012   7.189  70.762  1.00  0.00    -0.352 A  
HETATM   13  H   UNL     1     -10.013   2.873  72.769  1.00  0.00     0.000 HD 
HETATM   14  C   UNL     1     -11.394   8.420  70.577  1.00  0.00    -0.216 A  
HETATM   15  C   UNL     1      -5.946   4.484  72.074  1.00  0.00    -0.016 C  
HETATM   16  C   UNL     1      -7.011   5.416  72.659  1.00  0.00    -0.082 C  
HETATM   17  O   UNL     1     -12.084   9.589  70.681  1.00  0.00    -0.394 OA 
HETATM   18  C   UNL     1     -10.040   8.496  70.279  1.00  0.00    -0.199 A  
HETATM   19  H   UNL     1     -11.662  10.431  70.554  1.00  0.00     0.000 HD 
HETATM   20  C   UNL     1      -8.413   4.828  72.800  1.00  0.00    -0.112 C  
HETATM   21  C   UNL     1      -9.289   7.325  70.181  1.00  0.00    -0.155 A  
ENDBRANCH   2   4
TORSDOF 1
ENDMDL
MODEL      165
REMARK 921   NORMALIZED FREE ENERGY PREDICTED BY IDOCK:   -2.23 KCAL/MOL
REMARK 922        TOTAL FREE ENERGY PREDICTED BY IDOCK:   -2.53 KCAL/MOL
REMARK 923 INTER-LIGAND FREE ENERGY PREDICTED BY IDOCK:   -2.49 KCAL/MOL
REMARK 924 INTRA-LIGAND FREE ENERGY PREDICTED BY IDOCK:   -0.03 KCAL/MOL
REMARK 927      BINDING AFFINITY PREDICTED BY RF-SCORE:    0.00 PKD
ROOT
HETATM    1  C   UNL     1     -11.123   6.725  67.144  1.00  0.00    -0.333 C  
HETATM    2  N   UNL     1     -10.509   5.947  68.220  1.00  0.00    -0.215 NA 
HETATM    3  C   UNL     1     -11.292   6.096  69.452  1.00  0.00    -0.331 C  
ENDROOT
BRANCH   2   4
HETATM    4  C   UNL     1     -10.378   4.512  67.870  1.00  0.00     0.212 C  
HETATM    5  C   UNL     1      -8.991   3.855  68.166  1.00  0.00    -0.158 C  
HETATM    6  C   UNL     1      -8.686   3.883  69.665  1.00  0.00    -0.124 A  
HETATM    7  C   UNL     1      -8.838   2.425  67.489  1.00  0.00    -0.136 C  
HETATM    8  O   UNL     1      -9.868   1.540  67.947  1.00  0.00    -0.399 OA 
HETATM    9  C   UNL     1      -9.481   3.209  70.606  1.00  0.00    -0.233 A  
HETATM   10  C   UNL     1      -8.926   2.495  65.949  1.00  0.00    -0.122 C  
HETATM   11  C   UNL     1      -7.844   3.371  65.337  1.00  0.00    -0.082 C  
HETATM   12  C   UNL     1      -9.182   3.273  71.971  1.00  0.00    -0.173 A  
HETATM   13  H   UNL     1      -9.777   0.685  67.543  1.00  0.00     0.000 HD 
HETATM   14  C   UNL     1      -8.082   4.006  72.399  1.00  0.00    -0.086 A  
HETATM   15  C   UNL     1      -6.433   3.002  65.790  1.00  0.00    -0.032 C  
HETATM   16  C   UNL     1      -6.277   2.456  67.213  1.00  0.00    -0.028 C  
HETATM   17  O   UNL     1      -7.740   4.078  73.716  1.00  0.00    -0.077 OA 
HETATM   18  C   UNL     1      -7.290   4.692  71.490  1.00  0.00    -0.068 A  
HETATM   19  H   UNL     1      -6.988   4.579  74.009  1.00  0.00     0.000 HD 
HETATM   20  C   UNL     1      -7.492   1.736  67.792  1.00  0.00    -0.054 C  
HETATM   21  C   UNL     1      -7.591   4.633  70.130  1.00  0.00    -0.054 A  
ENDBRANCH   2   4
TORSDOF 1
ENDMDL
MODEL      166
REMARK 921   NORMALIZED FREE ENERGY PREDICTED BY IDOCK:   -2.22 KCAL/MOL
REMARK 922        TOTAL FREE ENERGY PREDICTED BY IDOCK:   -2.52 KCAL/MOL
REMARK 923 INTER-LIGAND FREE ENERGY PREDICTED BY IDOCK:   -3.21 KCAL/MOL
REMARK 924 INTRA-LIGAND FREE ENERGY PREDICTED BY IDOCK:    0.69 KCAL/MOL
REMARK 927      BINDING AFFINITY PREDICTED BY RF-SCORE:    0.00 PKD
ROOT
HETATM    1  C   UNL     1      -9.620  10.935  64.860  1.00  0.00    -0.248 C  
HETATM    2  N   UNL     1     -10.385  12.176  64.989  1.00  0.00    -0.279 NA 
HETATM    3  C   UNL     1     -11.706  11.889  65.559  1.00  0.00    -0.157 C  
ENDROOT
BRANCH   2   4
HETATM    4  C   UNL     1      -9.682  13.185  65.816  1.00  0.00    -0.138 C  
HETATM    5  C   UNL     1     -10.088  13.243  67.325  1.00  0.00    -0.234 C  
HETATM    6  C   UNL     1      -9.760  11.922  68.025  1.00  0.00    -0.191 A  
HETATM    7  C   UNL     1      -9.524  14.535  68.058  1.00  0.00    -0.209 C  
HETATM    8  O   UNL     1      -8.095  14.579  67.969  1.00  0.00    -0.122 OA 
HETATM    9  C   UNL     1      -8.447  11.440  68.143  1.00  0.00    -0.152 A  
HETATM   10  C   UNL     1     -10.075  15.841  67.447  1.00  0.00    -0.246 C  
HETATM   11  C   UNL     1     -11.591  15.935  67.530  1.00  0.00     0.097 C  
HETATM   12  C   UNL     1      -8.187  10.219  68.774  1.00  0.00    -0.119 A  
HETATM   13  H   UNL     1      -7.757  15.351  68.408  1.00  0.00     0.000 HD 
HETATM   14  C   UNL     1      -9.241   9.478  69.294  1.00  0.00    -0.169 A  
HETATM   15  C   UNL     1     -12.140  15.713  68.938  1.00  0.00    -0.183 C  
HETATM   16  C   UNL     1     -11.372  14.743  69.841  1.00  0.00    -0.310 C  
HETATM   17  O   UNL     1      -9.034   8.294  69.937  1.00  0.00    -0.138 OA 
HETATM   18  C   UNL     1     -10.549   9.926  69.177  1.00  0.00    -0.240 A  
HETATM   19  H   UNL     1      -9.755   7.787  70.292  1.00  0.00     0.000 HD 
HETATM   20  C   UNL     1      -9.879  14.601  69.557  1.00  0.00     0.072 C  
HETATM   21  C   UNL     1     -10.808  11.141  68.544  1.00  0.00    -0.243 A  
ENDBRANCH   2   4
TORSDOF 1
ENDMDL
MODEL      167
REMARK 921   NORMALIZED FREE ENERGY PREDICTED BY IDOCK:   -2.17 KCAL/MOL
REMARK 922        TOTAL FREE ENERGY PREDICTED BY IDOCK:   -2.47 KCAL/MOL
REMARK 923 INTER-LIGAND FREE ENERGY PREDICTED BY IDOCK:   -2.30 KCAL/MOL
REMARK 924 INTRA-LIGAND FREE ENERGY PREDICTED BY IDOCK:   -0.17 KCAL/MOL
REMARK 927      BINDING AFFINITY PREDICTED BY RF-SCORE:    0.00 PKD
ROOT
HETATM    1  C   UNL     1      -9.901   3.875  65.877  1.00  0.00    -0.128 C  
HETATM    2  N   UNL     1      -8.889   3.912  66.933  1.00  0.00    -0.119 NA 
HETATM    3  C   UNL     1      -8.467   2.547  67.267  1.00  0.00    -0.098 C  
ENDROOT
BRANCH   2   4
HETATM    4  C   UNL     1      -7.713   4.730  66.555  1.00  0.00    -0.091 C  
HETATM    5  C   UNL     1      -8.004   6.215  66.160  1.00  0.00    -0.108 C  
HETATM    6  C   UNL     1      -8.603   6.983  67.342  1.00  0.00    -0.121 A  
HETATM    7  C   UNL     1      -6.753   6.922  65.483  1.00  0.00    -0.051 C  
HETATM    8  O   UNL     1      -5.624   6.898  66.364  1.00  0.00    -0.021 OA 
HETATM    9  C   UNL     1      -7.901   7.181  68.542  1.00  0.00    -0.122 A  
HETATM   10  C   UNL     1      -6.336   6.234  64.164  1.00  0.00    -0.030 C  
HETATM   11  C   UNL     1      -7.443   6.242  63.121  1.00  0.00    -0.071 C  
HETATM   12  C   UNL     1      -8.488   7.872  69.607  1.00  0.00    -0.132 A  
HETATM   13  H   UNL     1      -4.876   7.321  65.959  1.00  0.00     0.000 HD 
HETATM   14  C   UNL     1      -9.777   8.371  69.474  1.00  0.00    -0.177 A  
HETATM   15  C   UNL     1      -8.022   7.630  62.857  1.00  0.00    -0.120 C  
HETATM   16  C   UNL     1      -8.060   8.606  64.037  1.00  0.00    -0.163 C  
HETATM   17  O   UNL     1     -10.380   9.069  70.476  1.00  0.00    -0.193 OA 
HETATM   18  C   UNL     1     -10.497   8.176  68.303  1.00  0.00    -0.210 A  
HETATM   19  H   UNL     1     -11.262   9.411  70.385  1.00  0.00     0.000 HD 
HETATM   20  C   UNL     1      -6.999   8.399  65.114  1.00  0.00    -0.074 C  
HETATM   21  C   UNL     1      -9.913   7.483  67.243  1.00  0.00    -0.273 A  
ENDBRANCH   2   4
TORSDOF 1
ENDMDL
MODEL      168
REMARK 921   NORMALIZED FREE ENERGY PREDICTED BY IDOCK:   -2.09 KCAL/MOL
REMARK 922        TOTAL FREE ENERGY PREDICTED BY IDOCK:   -2.39 KCAL/MOL
REMARK 923 INTER-LIGAND FREE ENERGY PREDICTED BY IDOCK:   -2.22 KCAL/MOL
REMARK 924 INTRA-LIGAND FREE ENERGY PREDICTED BY IDOCK:   -0.16 KCAL/MOL
REMARK 927      BINDING AFFINITY PREDICTED BY RF-SCORE:    0.00 PKD
ROOT
HETATM    1  C   UNL     1      -5.639   6.570  66.885  1.00  0.00    -0.013 C  
HETATM    2  N   UNL     1      -6.311   7.820  66.528  1.00  0.00    -0.045 NA 
HETATM    3  C   UNL     1      -6.273   8.008  65.073  1.00  0.00    -0.045 C  
ENDROOT
BRANCH   2   4
HETATM    4  C   UNL     1      -7.712   7.862  67.009  1.00  0.00    -0.100 C  
HETATM    5  C   UNL     1      -7.944   8.550  68.395  1.00  0.00    -0.118 C  
HETATM    6  C   UNL     1      -7.544  10.026  68.341  1.00  0.00    -0.083 A  
HETATM    7  C   UNL     1      -9.401   8.282  68.970  1.00  0.00    -0.147 C  
HETATM    8  O   UNL     1     -10.397   8.755  68.055  1.00  0.00    -0.208 OA 
HETATM    9  C   UNL     1      -8.186  10.948  67.500  1.00  0.00    -0.116 A  
HETATM   10  C   UNL     1      -9.664   6.781  69.221  1.00  0.00    -0.153 C  
HETATM   11  C   UNL     1      -8.695   6.173  70.223  1.00  0.00    -0.145 C  
HETATM   12  C   UNL     1      -7.781  12.286  67.464  1.00  0.00    -0.158 A  
HETATM   13  H   UNL     1     -11.268   8.595  68.399  1.00  0.00     0.000 HD 
HETATM   14  C   UNL     1      -6.734  12.708  68.275  1.00  0.00    -0.081 A  
HETATM   15  C   UNL     1      -8.615   6.944  71.539  1.00  0.00    -0.122 C  
HETATM   16  C   UNL     1      -8.812   8.462  71.472  1.00  0.00    -0.239 C  
HETATM   17  O   UNL     1      -6.321  14.006  68.290  1.00  0.00    -0.091 OA 
HETATM   18  C   UNL     1      -6.075  11.813  69.105  1.00  0.00    -0.076 A  
HETATM   19  H   UNL     1      -5.605  14.295  68.845  1.00  0.00     0.000 HD 
HETATM   20  C   UNL     1      -9.671   8.977  70.320  1.00  0.00    -0.229 C  
HETATM   21  C   UNL     1      -6.476  10.477  69.136  1.00  0.00    -0.054 A  
ENDBRANCH   2   4
TORSDOF 1
ENDMDL
MODEL      169
REMARK 921   NORMALIZED FREE ENERGY PREDICTED BY IDOCK:   -2.01 KCAL/MOL
REMARK 922        TOTAL FREE ENERGY PREDICTED BY IDOCK:   -2.30 KCAL/MOL
REMARK 923 INTER-LIGAND FREE ENERGY PREDICTED BY IDOCK:   -2.33 KCAL/MOL
REMARK 924 INTRA-LIGAND FREE ENERGY PREDICTED BY IDOCK:    0.03 KCAL/MOL
REMARK 927      BINDING AFFINITY PREDICTED BY RF-SCORE:    0.00 PKD
ROOT
HETATM    1  C   UNL     1     -10.359  12.775  66.963  1.00  0.00    -0.234 C  
HETATM    2  N   UNL     1     -10.283  12.233  68.319  1.00  0.00    -0.216 NA 
HETATM    3  C   UNL     1     -11.575  11.645  68.694  1.00  0.00    -0.312 C  
ENDROOT
BRANCH   2   4
HETATM    4  C   UNL     1      -9.207  11.224  68.461  1.00  0.00    -0.181 C  
HETATM    5  C   UNL     1      -7.859  11.549  67.737  1.00  0.00    -0.126 C  
HETATM    6  C   UNL     1      -7.229  12.821  68.310  1.00  0.00    -0.114 A  
HETATM    7  C   UNL     1      -6.881  10.298  67.682  1.00  0.00    -0.075 C  
HETATM    8  O   UNL     1      -6.587   9.831  69.004  1.00  0.00    -0.048 OA 
HETATM    9  C   UNL     1      -6.818  12.919  69.649  1.00  0.00     0.179 A  
HETATM   10  C   UNL     1      -7.485   9.119  66.888  1.00  0.00    -0.091 C  
HETATM   11  C   UNL     1      -7.794   9.479  65.443  1.00  0.00    -0.109 C  
HETATM   12  C   UNL     1      -6.263  14.104  70.142  1.00  0.00    -0.151 A  
HETATM   13  H   UNL     1      -6.002   9.083  68.970  1.00  0.00     0.000 HD 
HETATM   14  C   UNL     1      -6.113  15.195  69.295  1.00  0.00    -0.109 A  
HETATM   15  C   UNL     1      -6.608  10.091  64.700  1.00  0.00    -0.128 C  
HETATM   16  C   UNL     1      -5.634  10.941  65.521  1.00  0.00    -0.097 C  
HETATM   17  O   UNL     1      -5.557  16.362  69.725  1.00  0.00    -0.146 OA 
HETATM   18  C   UNL     1      -6.524  15.128  67.971  1.00  0.00    -0.156 A  
HETATM   19  H   UNL     1      -5.454  17.108  69.146  1.00  0.00     0.000 HD 
HETATM   20  C   UNL     1      -5.529  10.597  67.004  1.00  0.00    -0.044 C  
HETATM   21  C   UNL     1      -7.082  13.947  67.482  1.00  0.00    -0.175 A  
ENDBRANCH   2   4
TORSDOF 1
ENDMDL
MODEL      170
REMARK 921   NORMALIZED FREE ENERGY PREDICTED BY IDOCK:   -1.91 KCAL/MOL
REMARK 922        TOTAL FREE ENERGY PREDICTED BY IDOCK:   -2.19 KCAL/MOL
REMARK 923 INTER-LIGAND FREE ENERGY PREDICTED BY IDOCK:   -2.85 KCAL/MOL
REMARK 924 INTRA-LIGAND FREE ENERGY PREDICTED BY IDOCK:    0.66 KCAL/MOL
REMARK 927      BINDING AFFINITY PREDICTED BY RF-SCORE:    0.00 PKD
ROOT
HETATM    1  C   UNL     1      -8.652   4.766  70.519  1.00  0.00    -0.095 C  
HETATM    2  N   UNL     1      -9.199   6.064  70.914  1.00  0.00    -0.153 NA 
HETATM    3  C   UNL     1      -8.107   6.975  71.276  1.00  0.00    -0.108 C  
ENDROOT
BRANCH   2   4
HETATM    4  C   UNL     1     -10.033   6.669  69.849  1.00  0.00    -0.171 C  
HETATM    5  C   UNL     1      -9.262   7.326  68.658  1.00  0.00    -0.136 C  
HETATM    6  C   UNL     1      -8.433   6.280  67.907  1.00  0.00    -0.117 A  
HETATM    7  C   UNL     1     -10.206   8.207  67.732  1.00  0.00    -0.228 C  
HETATM    8  O   UNL     1     -11.272   7.411  67.201  1.00  0.00    -0.539 OA 
HETATM    9  C   UNL     1      -9.020   5.190  67.246  1.00  0.00    -0.112 A  
HETATM   10  C   UNL     1     -10.837   9.390  68.499  1.00  0.00    -0.149 C  
HETATM   11  C   UNL     1      -9.798  10.341  69.071  1.00  0.00    -0.215 C  
HETATM   12  C   UNL     1      -8.230   4.244  66.586  1.00  0.00    -0.102 A  
HETATM   13  H   UNL     1     -11.836   7.938  66.647  1.00  0.00     0.000 HD 
HETATM   14  C   UNL     1      -6.848   4.389  66.579  1.00  0.00    -0.055 A  
HETATM   15  C   UNL     1      -8.787  10.833  68.037  1.00  0.00    -0.132 C  
HETATM   16  C   UNL     1      -8.416   9.866  66.909  1.00  0.00    -0.125 C  
HETATM   17  O   UNL     1      -6.040   3.505  65.930  1.00  0.00    -0.026 OA 
HETATM   18  C   UNL     1      -6.243   5.451  67.237  1.00  0.00    -0.031 A  
HETATM   19  H   UNL     1      -5.095   3.605  65.925  1.00  0.00     0.000 HD 
HETATM   20  C   UNL     1      -9.479   8.839  66.529  1.00  0.00    -0.281 C  
HETATM   21  C   UNL     1      -7.032   6.391  67.900  1.00  0.00    -0.076 A  
ENDBRANCH   2   4
TORSDOF 1
ENDMDL
MODEL      171
REMARK 921   NORMALIZED FREE ENERGY PREDICTED BY IDOCK:   -1.81 KCAL/MOL
REMARK 922        TOTAL FREE ENERGY PREDICTED BY IDOCK:   -2.08 KCAL/MOL
REMARK 923 INTER-LIGAND FREE ENERGY PREDICTED BY IDOCK:   -2.67 KCAL/MOL
REMARK 924 INTRA-LIGAND FREE ENERGY PREDICTED BY IDOCK:    0.59 KCAL/MOL
REMARK 927      BINDING AFFINITY PREDICTED BY RF-SCORE:    0.00 PKD
ROOT
HETATM    1  C   UNL     1     -10.265   4.006  64.801  1.00  0.00    -0.212 C  
HETATM    2  N   UNL     1      -9.108   3.196  65.184  1.00  0.00    -0.142 NA 
HETATM    3  C   UNL     1      -7.869   3.888  64.809  1.00  0.00    -0.085 C  
ENDROOT
BRANCH   2   4
HETATM    4  C   UNL     1      -9.097   2.883  66.633  1.00  0.00    -0.145 C  
HETATM    5  C   UNL     1      -8.419   3.944  67.561  1.00  0.00    -0.104 C  
HETATM    6  C   UNL     1      -9.165   5.279  67.494  1.00  0.00    -0.119 A  
HETATM    7  C   UNL     1      -8.179   3.398  69.034  1.00  0.00    -0.060 C  
HETATM    8  O   UNL     1      -9.418   2.997  69.630  1.00  0.00    -0.154 OA 
HETATM    9  C   UNL     1     -10.501   5.414  67.902  1.00  0.00    -0.202 A  
HETATM   10  C   UNL     1      -7.227   2.181  69.058  1.00  0.00    -0.043 C  
HETATM   11  C   UNL     1      -5.851   2.499  68.494  1.00  0.00    -0.023 C  
HETATM   12  C   UNL     1     -11.156   6.646  67.808  1.00  0.00    -0.332 A  
HETATM   13  H   UNL     1      -9.274   2.670  70.511  1.00  0.00     0.000 HD 
HETATM   14  C   UNL     1     -10.473   7.750  67.310  1.00  0.00    -0.322 A  
HETATM   15  C   UNL     1      -5.197   3.721  69.136  1.00  0.00    -0.011 C  
HETATM   16  C   UNL     1      -6.125   4.848  69.598  1.00  0.00    -0.022 C  
HETATM   17  O   UNL     1     -11.064   8.975  67.222  1.00  0.00    -0.365 OA 
HETATM   18  C   UNL     1      -9.157   7.638  66.887  1.00  0.00    -0.171 A  
HETATM   19  H   UNL     1     -10.597   9.729  66.882  1.00  0.00     0.000 HD 
HETATM   20  C   UNL     1      -7.543   4.434  69.983  1.00  0.00    -0.050 C  
HETATM   21  C   UNL     1      -8.506   6.408  66.977  1.00  0.00    -0.112 A  
ENDBRANCH   2   4
TORSDOF 1
ENDMDL
MODEL      172
REMARK 921   NORMALIZED FREE ENERGY PREDICTED BY IDOCK:   -1.78 KCAL/MOL
REMARK 922        TOTAL FREE ENERGY PREDICTED BY IDOCK:   -2.06 KCAL/MOL
REMARK 923 INTER-LIGAND FREE ENERGY PREDICTED BY IDOCK:   -2.78 KCAL/MOL
REMARK 924 INTRA-LIGAND FREE ENERGY PREDICTED BY IDOCK:    0.72 KCAL/MOL
REMARK 927      BINDING AFFINITY PREDICTED BY RF-SCORE:    0.00 PKD
ROOT
HETATM    1  C   UNL     1     -10.056   9.330  66.662  1.00  0.00    -0.271 C  
HETATM    2  N   UNL     1     -10.388   7.979  67.116  1.00  0.00    -0.298 NA 
HETATM    3  C   UNL     1      -9.269   7.071  66.837  1.00  0.00    -0.150 C  
ENDROOT
BRANCH   2   4
HETATM    4  C   UNL     1     -10.727   7.939  68.558  1.00  0.00    -0.024 C  
HETATM    5  C   UNL     1      -9.577   7.504  69.525  1.00  0.00    -0.156 C  
HETATM    6  C   UNL     1      -8.413   8.497  69.463  1.00  0.00    -0.127 A  
HETATM    7  C   UNL     1     -10.100   7.194  70.993  1.00  0.00    -0.192 C  
HETATM    8  O   UNL     1     -10.751   8.343  71.547  1.00  0.00    -0.221 OA 
HETATM    9  C   UNL     1      -8.552   9.842  69.837  1.00  0.00    -0.216 A  
HETATM   10  C   UNL     1     -11.107   6.023  71.019  1.00  0.00    -0.348 C  
HETATM   11  C   UNL     1     -10.511   4.724  70.498  1.00  0.00    -0.082 C  
HETATM   12  C   UNL     1      -7.471  10.725  69.750  1.00  0.00    -0.028 A  
HETATM   13  H   UNL     1     -11.064   8.158  72.425  1.00  0.00     0.000 HD 
HETATM   14  C   UNL     1      -6.243  10.262  69.292  1.00  0.00    -0.045 A  
HETATM   15  C   UNL     1      -9.201   4.337  71.180  1.00  0.00    -0.203 C  
HETATM   16  C   UNL     1      -8.290   5.480  71.639  1.00  0.00    -0.123 C  
HETATM   17  O   UNL     1      -5.156  11.079  69.212  1.00  0.00    -0.042 OA 
HETATM   18  C   UNL     1      -6.084   8.939  68.903  1.00  0.00    -0.044 A  
HETATM   19  H   UNL     1      -4.317  10.762  68.899  1.00  0.00     0.000 HD 
HETATM   20  C   UNL     1      -8.983   6.796  71.978  1.00  0.00    -0.138 C  
HETATM   21  C   UNL     1      -7.165   8.061  68.985  1.00  0.00    -0.078 A  
ENDBRANCH   2   4
TORSDOF 1
ENDMDL
MODEL      173
REMARK 921   NORMALIZED FREE ENERGY PREDICTED BY IDOCK:   -1.78 KCAL/MOL
REMARK 922        TOTAL FREE ENERGY PREDICTED BY IDOCK:   -2.05 KCAL/MOL
REMARK 923 INTER-LIGAND FREE ENERGY PREDICTED BY IDOCK:   -2.94 KCAL/MOL
REMARK 924 INTRA-LIGAND FREE ENERGY PREDICTED BY IDOCK:    0.89 KCAL/MOL
REMARK 927      BINDING AFFINITY PREDICTED BY RF-SCORE:    0.00 PKD
ROOT
HETATM    1  C   UNL     1     -11.540   9.852  71.254  1.00  0.00    -0.379 C  
HETATM    2  N   UNL     1     -10.680   8.669  71.289  1.00  0.00    -0.236 NA 
HETATM    3  C   UNL     1     -11.357   7.541  70.639  1.00  0.00    -0.281 C  
ENDROOT
BRANCH   2   4
HETATM    4  C   UNL     1      -9.366   8.912  70.646  1.00  0.00    -0.212 C  
HETATM    5  C   UNL     1      -9.385   9.128  69.098  1.00  0.00    -0.152 C  
HETATM    6  C   UNL     1     -10.192  10.377  68.735  1.00  0.00    -0.201 A  
HETATM    7  C   UNL     1      -7.932   9.073  68.457  1.00  0.00    -0.103 C  
HETATM    8  O   UNL     1      -7.086  10.069  69.045  1.00  0.00    -0.064 OA 
HETATM    9  C   UNL     1      -9.816  11.662  69.157  1.00  0.00     0.144 A  
HETATM   10  C   UNL     1      -7.256   7.699  68.659  1.00  0.00    -0.082 C  
HETATM   11  C   UNL     1      -8.040   6.559  68.029  1.00  0.00    -0.113 C  
HETATM   12  C   UNL     1     -10.589  12.779  68.821  1.00  0.00    -0.216 A  
HETATM   13  H   UNL     1      -6.218  10.036  68.662  1.00  0.00     0.000 HD 
HETATM   14  C   UNL     1     -11.738  12.614  68.057  1.00  0.00    -0.350 A  
HETATM   15  C   UNL     1      -8.380   6.793  66.558  1.00  0.00    -0.121 C  
HETATM   16  C   UNL     1      -8.627   8.240  66.120  1.00  0.00    -0.156 C  
HETATM   17  O   UNL     1     -12.508  13.676  67.688  1.00  0.00    -0.332 OA 
HETATM   18  C   UNL     1     -12.137  11.353  67.640  1.00  0.00     0.243 A  
HETATM   19  H   UNL     1     -13.293  13.563  67.165  1.00  0.00     0.000 HD 
HETATM   20  C   UNL     1      -7.916   9.318  66.935  1.00  0.00    -0.105 C  
HETATM   21  C   UNL     1     -11.369  10.239  67.979  1.00  0.00    -0.219 A  
ENDBRANCH   2   4
TORSDOF 1
ENDMDL
MODEL      174
REMARK 921   NORMALIZED FREE ENERGY PREDICTED BY IDOCK:   -1.76 KCAL/MOL
REMARK 922        TOTAL FREE ENERGY PREDICTED BY IDOCK:   -2.03 KCAL/MOL
REMARK 923 INTER-LIGAND FREE ENERGY PREDICTED BY IDOCK:   -1.87 KCAL/MOL
REMARK 924 INTRA-LIGAND FREE ENERGY PREDICTED BY IDOCK:   -0.16 KCAL/MOL
REMARK 927      BINDING AFFINITY PREDICTED BY RF-SCORE:    0.00 PKD
ROOT
HETATM    1  C   UNL     1     -10.584   4.930  66.154  1.00  0.00    -0.271 C  
HETATM    2  N   UNL     1      -9.401   4.709  66.985  1.00  0.00    -0.132 NA 
HETATM    3  C   UNL     1      -9.235   3.274  67.244  1.00  0.00    -0.192 C  
ENDROOT
BRANCH   2   4
HETATM    4  C   UNL     1      -8.171   5.260  66.369  1.00  0.00    -0.109 C  
HETATM    5  C   UNL     1      -7.812   6.735  66.746  1.00  0.00    -0.107 C  
HETATM    6  C   UNL     1      -7.542   6.860  68.247  1.00  0.00    -0.107 A  
HETATM    7  C   UNL     1      -6.672   7.340  65.819  1.00  0.00    -0.052 C  
HETATM    8  O   UNL     1      -5.483   6.547  65.903  1.00  0.00    -0.016 OA 
HETATM    9  C   UNL     1      -6.488   6.183  68.880  1.00  0.00    -0.046 A  
HETATM   10  C   UNL     1      -7.097   7.400  64.335  1.00  0.00    -0.062 C  
HETATM   11  C   UNL     1      -8.329   8.262  64.109  1.00  0.00    -0.050 C  
HETATM   12  C   UNL     1      -6.283   6.307  70.258  1.00  0.00    -0.035 A  
HETATM   13  H   UNL     1      -4.801   6.909  65.349  1.00  0.00     0.000 HD 
HETATM   14  C   UNL     1      -7.129   7.115  71.007  1.00  0.00    -0.069 A  
HETATM   15  C   UNL     1      -8.208   9.664  64.703  1.00  0.00    -0.149 C  
HETATM   16  C   UNL     1      -7.382   9.811  65.984  1.00  0.00    -0.102 C  
HETATM   17  O   UNL     1      -6.954   7.284  72.348  1.00  0.00    -0.063 OA 
HETATM   18  C   UNL     1      -8.187   7.783  70.407  1.00  0.00    -0.121 A  
HETATM   19  H   UNL     1      -7.533   7.836  72.860  1.00  0.00     0.000 HD 
HETATM   20  C   UNL     1      -6.273   8.782  66.189  1.00  0.00    -0.059 C  
HETATM   21  C   UNL     1      -8.394   7.655  69.034  1.00  0.00    -0.128 A  
ENDBRANCH   2   4
TORSDOF 1
ENDMDL
MODEL      175
REMARK 921   NORMALIZED FREE ENERGY PREDICTED BY IDOCK:   -1.64 KCAL/MOL
REMARK 922        TOTAL FREE ENERGY PREDICTED BY IDOCK:   -1.91 KCAL/MOL
REMARK 923 INTER-LIGAND FREE ENERGY PREDICTED BY IDOCK:   -1.73 KCAL/MOL
REMARK 924 INTRA-LIGAND FREE ENERGY PREDICTED BY IDOCK:   -0.18 KCAL/MOL
REMARK 927      BINDING AFFINITY PREDICTED BY RF-SCORE:    0.00 PKD
ROOT
HETATM    1  C   UNL     1     -11.150   7.065  68.892  1.00  0.00    -0.050 C  
HETATM    2  N   UNL     1     -10.141   7.194  67.841  1.00  0.00    -0.164 NA 
HETATM    3  C   UNL     1     -10.584   8.175  66.843  1.00  0.00    -0.241 C  
ENDROOT
BRANCH   2   4
HETATM    4  C   UNL     1      -8.816   7.581  68.379  1.00  0.00    -0.126 C  
HETATM    5  C   UNL     1      -8.137   6.553  69.343  1.00  0.00    -0.119 C  
HETATM    6  C   UNL     1      -7.853   5.236  68.618  1.00  0.00    -0.086 A  
HETATM    7  C   UNL     1      -6.885   7.169  70.105  1.00  0.00    -0.060 C  
HETATM    8  O   UNL     1      -5.905   7.631  69.169  1.00  0.00    -0.028 OA 
HETATM    9  C   UNL     1      -6.981   5.155  67.521  1.00  0.00    -0.065 A  
HETATM   10  C   UNL     1      -7.278   8.361  71.005  1.00  0.00    -0.063 C  
HETATM   11  C   UNL     1      -8.283   7.980  72.081  1.00  0.00    -0.178 C  
HETATM   12  C   UNL     1      -6.760   3.936  66.872  1.00  0.00    -0.047 A  
HETATM   13  H   UNL     1      -5.156   7.998  69.625  1.00  0.00     0.000 HD 
HETATM   14  C   UNL     1      -7.408   2.791  67.322  1.00  0.00    -0.057 A  
HETATM   15  C   UNL     1      -7.854   6.777  72.919  1.00  0.00    -0.098 C  
HETATM   16  C   UNL     1      -7.023   5.699  72.217  1.00  0.00    -0.082 C  
HETATM   17  O   UNL     1      -7.206   1.579  66.735  1.00  0.00    -0.045 OA 
HETATM   18  C   UNL     1      -8.285   2.849  68.395  1.00  0.00    -0.079 A  
HETATM   19  H   UNL     1      -7.648   0.796  67.043  1.00  0.00     0.000 HD 
HETATM   20  C   UNL     1      -6.174   6.168  71.038  1.00  0.00    -0.039 C  
HETATM   21  C   UNL     1      -8.509   4.066  69.039  1.00  0.00    -0.099 A  
ENDBRANCH   2   4
TORSDOF 1
ENDMDL
MODEL      176
REMARK 921   NORMALIZED FREE ENERGY PREDICTED BY IDOCK:   -1.63 KCAL/MOL
REMARK 922        TOTAL FREE ENERGY PREDICTED BY IDOCK:   -1.89 KCAL/MOL
REMARK 923 INTER-LIGAND FREE ENERGY PREDICTED BY IDOCK:   -2.33 KCAL/MOL
REMARK 924 INTRA-LIGAND FREE ENERGY PREDICTED BY IDOCK:    0.44 KCAL/MOL
REMARK 927      BINDING AFFINITY PREDICTED BY RF-SCORE:    0.00 PKD
ROOT
HETATM    1  C   UNL     1      -8.520   7.074  67.982  1.00  0.00    -0.125 C  
HETATM    2  N   UNL     1      -9.898   6.654  67.728  1.00  0.00    -0.122 NA 
HETATM    3  C   UNL     1     -10.690   7.799  67.265  1.00  0.00    -0.255 C  
ENDROOT
BRANCH   2   4
HETATM    4  C   UNL     1      -9.977   5.550  66.743  1.00  0.00    -0.183 C  
HETATM    5  C   UNL     1      -8.721   4.623  66.645  1.00  0.00    -0.111 C  
HETATM    6  C   UNL     1      -8.480   3.897  67.971  1.00  0.00    -0.105 A  
HETATM    7  C   UNL     1      -8.764   3.672  65.372  1.00  0.00    -0.118 C  
HETATM    8  O   UNL     1      -9.936   2.850  65.398  1.00  0.00    -0.369 OA 
HETATM    9  C   UNL     1      -9.408   2.995  68.514  1.00  0.00    -0.243 A  
HETATM   10  C   UNL     1      -8.775   4.469  64.049  1.00  0.00    -0.139 C  
HETATM   11  C   UNL     1      -7.545   5.347  63.881  1.00  0.00    -0.073 C  
HETATM   12  C   UNL     1      -9.161   2.364  69.737  1.00  0.00    -0.188 A  
HETATM   13  H   UNL     1      -9.961   2.282  64.637  1.00  0.00     0.000 HD 
HETATM   14  C   UNL     1      -7.980   2.629  70.420  1.00  0.00    -0.042 A  
HETATM   15  C   UNL     1      -6.228   4.594  64.057  1.00  0.00    -0.022 C  
HETATM   16  C   UNL     1      -6.219   3.428  65.051  1.00  0.00    -0.024 C  
HETATM   17  O   UNL     1      -7.687   2.021  71.603  1.00  0.00    -0.040 OA 
HETATM   18  C   UNL     1      -7.053   3.527  69.911  1.00  0.00    -0.041 A  
HETATM   19  H   UNL     1      -6.879   2.202  72.070  1.00  0.00     0.000 HD 
HETATM   20  C   UNL     1      -7.555   2.721  65.268  1.00  0.00    -0.076 C  
HETATM   21  C   UNL     1      -7.302   4.160  68.693  1.00  0.00    -0.055 A  
ENDBRANCH   2   4
TORSDOF 1
ENDMDL
MODEL      177
REMARK 921   NORMALIZED FREE ENERGY PREDICTED BY IDOCK:   -1.54 KCAL/MOL
REMARK 922        TOTAL FREE ENERGY PREDICTED BY IDOCK:   -1.80 KCAL/MOL
REMARK 923 INTER-LIGAND FREE ENERGY PREDICTED BY IDOCK:   -1.64 KCAL/MOL
REMARK 924 INTRA-LIGAND FREE ENERGY PREDICTED BY IDOCK:   -0.16 KCAL/MOL
REMARK 927      BINDING AFFINITY PREDICTED BY RF-SCORE:    0.00 PKD
ROOT
HETATM    1  C   UNL     1     -10.705   5.667  68.699  1.00  0.00    -0.179 C  
HETATM    2  N   UNL     1     -10.410   6.888  67.949  1.00  0.00    -0.179 NA 
HETATM    3  C   UNL     1     -11.519   7.193  67.038  1.00  0.00     0.746 C  
ENDROOT
BRANCH   2   4
HETATM    4  C   UNL     1     -10.151   8.044  68.840  1.00  0.00    -0.201 C  
HETATM    5  C   UNL     1      -8.668   8.244  69.296  1.00  0.00    -0.139 C  
HETATM    6  C   UNL     1      -7.763   8.515  68.092  1.00  0.00    -0.102 A  
HETATM    7  C   UNL     1      -8.531   9.301  70.474  1.00  0.00    -0.216 C  
HETATM    8  O   UNL     1      -9.059  10.571  70.073  1.00  0.00    -0.343 OA 
HETATM    9  C   UNL     1      -7.921   9.644  67.272  1.00  0.00    -0.106 A  
HETATM   10  C   UNL     1      -9.284   8.857  71.748  1.00  0.00    -0.279 C  
HETATM   11  C   UNL     1      -8.773   7.536  72.302  1.00  0.00    -0.148 C  
HETATM   12  C   UNL     1      -7.086   9.849  66.169  1.00  0.00    -0.103 A  
HETATM   13  H   UNL     1      -8.977  11.203  70.778  1.00  0.00     0.000 HD 
HETATM   14  C   UNL     1      -6.085   8.927  65.885  1.00  0.00    -0.052 A  
HETATM   15  C   UNL     1      -7.261   7.510  72.520  1.00  0.00    -0.078 C  
HETATM   16  C   UNL     1      -6.403   8.329  71.551  1.00  0.00    -0.047 C  
HETATM   17  O   UNL     1      -5.234   9.098  64.835  1.00  0.00    -0.040 OA 
HETATM   18  C   UNL     1      -5.918   7.797  66.672  1.00  0.00    -0.041 A  
HETATM   19  H   UNL     1      -4.550   8.468  64.641  1.00  0.00     0.000 HD 
HETATM   20  C   UNL     1      -7.076   9.545  70.922  1.00  0.00    -0.070 C  
HETATM   21  C   UNL     1      -6.755   7.590  67.769  1.00  0.00    -0.066 A  
ENDBRANCH   2   4
TORSDOF 1
ENDMDL
MODEL      178
REMARK 921   NORMALIZED FREE ENERGY PREDICTED BY IDOCK:   -1.34 KCAL/MOL
REMARK 922        TOTAL FREE ENERGY PREDICTED BY IDOCK:   -1.59 KCAL/MOL
REMARK 923 INTER-LIGAND FREE ENERGY PREDICTED BY IDOCK:   -2.33 KCAL/MOL
REMARK 924 INTRA-LIGAND FREE ENERGY PREDICTED BY IDOCK:    0.74 KCAL/MOL
REMARK 927      BINDING AFFINITY PREDICTED BY RF-SCORE:    0.00 PKD
ROOT
HETATM    1  C   UNL     1     -11.003   4.392  63.115  1.00  0.00     0.495 C  
HETATM    2  N   UNL     1      -9.714   3.699  63.125  1.00  0.00    -0.127 NA 
HETATM    3  C   UNL     1      -8.630   4.661  62.896  1.00  0.00    -0.114 C  
ENDROOT
BRANCH   2   4
HETATM    4  C   UNL     1      -9.482   2.964  64.391  1.00  0.00    -0.145 C  
HETATM    5  C   UNL     1      -8.584   3.682  65.451  1.00  0.00    -0.112 C  
HETATM    6  C   UNL     1      -9.234   4.988  65.915  1.00  0.00    -0.159 A  
HETATM    7  C   UNL     1      -8.140   2.713  66.629  1.00  0.00    -0.082 C  
HETATM    8  O   UNL     1      -9.287   2.173  67.295  1.00  0.00    -0.317 OA 
HETATM    9  C   UNL     1     -10.470   5.018  66.580  1.00  0.00    -0.301 A  
HETATM   10  C   UNL     1      -7.287   1.530  66.121  1.00  0.00    -0.056 C  
HETATM   11  C   UNL     1      -6.006   1.979  65.435  1.00  0.00    -0.018 C  
HETATM   12  C   UNL     1     -11.041   6.232  66.973  1.00  0.00    -0.379 A  
HETATM   13  H   UNL     1      -9.020   1.593  68.000  1.00  0.00     0.000 HD 
HETATM   14  C   UNL     1     -10.375   7.422  66.707  1.00  0.00    -0.251 A  
HETATM   15  C   UNL     1      -5.167   2.938  66.278  1.00  0.00    -0.008 C  
HETATM   16  C   UNL     1      -5.923   3.889  67.211  1.00  0.00    -0.024 C  
HETATM   17  O   UNL     1     -10.883   8.627  67.091  1.00  0.00    -0.399 OA 
HETATM   18  C   UNL     1      -9.159   7.420  66.038  1.00  0.00    -0.129 A  
HETATM   19  H   UNL     1     -10.427   9.440  66.908  1.00  0.00     0.000 HD 
HETATM   20  C   UNL     1      -7.281   3.403  67.708  1.00  0.00    -0.054 C  
HETATM   21  C   UNL     1      -8.592   6.209  65.642  1.00  0.00    -0.148 A  
ENDBRANCH   2   4
TORSDOF 1
ENDMDL
MODEL      179
REMARK 921   NORMALIZED FREE ENERGY PREDICTED BY IDOCK:   -1.29 KCAL/MOL
REMARK 922        TOTAL FREE ENERGY PREDICTED BY IDOCK:   -1.53 KCAL/MOL
REMARK 923 INTER-LIGAND FREE ENERGY PREDICTED BY IDOCK:   -2.13 KCAL/MOL
REMARK 924 INTRA-LIGAND FREE ENERGY PREDICTED BY IDOCK:    0.60 KCAL/MOL
REMARK 927      BINDING AFFINITY PREDICTED BY RF-SCORE:    0.00 PKD
ROOT
HETATM    1  C   UNL     1     -10.777   8.144  69.057  1.00  0.00    -0.080 C  
HETATM    2  N   UNL     1     -10.407   8.381  70.452  1.00  0.00    -0.201 NA 
HETATM    3  C   UNL     1     -10.920   7.295  71.295  1.00  0.00    -0.243 C  
ENDROOT
BRANCH   2   4
HETATM    4  C   UNL     1      -8.941   8.512  70.630  1.00  0.00    -0.160 C  
HETATM    5  C   UNL     1      -8.157   7.186  70.898  1.00  0.00    -0.111 C  
HETATM    6  C   UNL     1      -8.285   6.232  69.708  1.00  0.00    -0.125 A  
HETATM    7  C   UNL     1      -6.665   7.447  71.376  1.00  0.00    -0.050 C  
HETATM    8  O   UNL     1      -5.949   8.208  70.396  1.00  0.00    -0.029 OA 
HETATM    9  C   UNL     1      -7.795   6.552  68.432  1.00  0.00    -0.106 A  
HETATM   10  C   UNL     1      -6.605   8.221  72.711  1.00  0.00    -0.101 C  
HETATM   11  C   UNL     1      -7.292   7.483  73.850  1.00  0.00    -0.122 C  
HETATM   12  C   UNL     1      -7.946   5.662  67.364  1.00  0.00    -0.102 A  
HETATM   13  H   UNL     1      -5.057   8.364  70.682  1.00  0.00     0.000 HD 
HETATM   14  C   UNL     1      -8.584   4.444  67.570  1.00  0.00    -0.103 A  
HETATM   15  C   UNL     1      -6.806   6.046  74.026  1.00  0.00    -0.080 C  
HETATM   16  C   UNL     1      -6.376   5.295  72.763  1.00  0.00    -0.047 C  
HETATM   17  O   UNL     1      -8.734   3.537  66.565  1.00  0.00    -0.112 OA 
HETATM   18  C   UNL     1      -9.089   4.111  68.819  1.00  0.00    -0.188 A  
HETATM   19  H   UNL     1      -9.170   2.705  66.706  1.00  0.00     0.000 HD 
HETATM   20  C   UNL     1      -5.856   6.156  71.615  1.00  0.00    -0.031 C  
HETATM   21  C   UNL     1      -8.943   5.001  69.882  1.00  0.00    -0.142 A  
ENDBRANCH   2   4
TORSDOF 1
ENDMDL
MODEL      180
REMARK 921   NORMALIZED FREE ENERGY PREDICTED BY IDOCK:   -1.28 KCAL/MOL
REMARK 922        TOTAL FREE ENERGY PREDICTED BY IDOCK:   -1.52 KCAL/MOL
REMARK 923 INTER-LIGAND FREE ENERGY PREDICTED BY IDOCK:   -2.73 KCAL/MOL
REMARK 924 INTRA-LIGAND FREE ENERGY PREDICTED BY IDOCK:    1.21 KCAL/MOL
REMARK 927      BINDING AFFINITY PREDICTED BY RF-SCORE:    0.00 PKD
ROOT
HETATM    1  C   UNL     1     -10.228   4.761  73.068  1.00  0.00    -0.171 C  
HETATM    2  N   UNL     1      -8.937   4.168  72.719  1.00  0.00    -0.105 NA 
HETATM    3  C   UNL     1      -9.147   2.898  72.015  1.00  0.00    -0.092 C  
ENDROOT
BRANCH   2   4
HETATM    4  C   UNL     1      -8.106   5.076  71.893  1.00  0.00    -0.115 C  
HETATM    5  C   UNL     1      -8.726   5.528  70.530  1.00  0.00    -0.140 C  
HETATM    6  C   UNL     1     -10.008   6.331  70.758  1.00  0.00    -0.220 A  
HETATM    7  C   UNL     1      -7.664   6.237  69.584  1.00  0.00    -0.099 C  
HETATM    8  O   UNL     1      -7.101   7.384  70.231  1.00  0.00    -0.062 OA 
HETATM    9  C   UNL     1     -10.016   7.554  71.448  1.00  0.00    -0.200 A  
HETATM   10  C   UNL     1      -6.502   5.294  69.201  1.00  0.00    -0.042 C  
HETATM   11  C   UNL     1      -6.971   4.054  68.456  1.00  0.00    -0.048 C  
HETATM   12  C   UNL     1     -11.211   8.251  71.653  1.00  0.00    -0.330 A  
HETATM   13  H   UNL     1      -6.467   7.808  69.665  1.00  0.00     0.000 HD 
HETATM   14  C   UNL     1     -12.403   7.730  71.163  1.00  0.00    -0.247 A  
HETATM   15  C   UNL     1      -7.848   4.365  67.245  1.00  0.00    -0.096 C  
HETATM   16  C   UNL     1      -8.745   5.604  67.333  1.00  0.00    -0.107 C  
HETATM   17  O   UNL     1     -13.587   8.385  71.319  1.00  0.00    -0.526 OA 
HETATM   18  C   UNL     1     -12.422   6.516  70.490  1.00  0.00     0.202 A  
HETATM   19  H   UNL     1     -14.401   8.029  70.984  1.00  0.00     0.000 HD 
HETATM   20  C   UNL     1      -8.254   6.724  68.246  1.00  0.00    -0.115 C  
HETATM   21  C   UNL     1     -11.231   5.819  70.291  1.00  0.00    -0.221 A  
ENDBRANCH   2   4
TORSDOF 1
ENDMDL
MODEL      181
REMARK 921   NORMALIZED FREE ENERGY PREDICTED BY IDOCK:   -1.18 KCAL/MOL
REMARK 922        TOTAL FREE ENERGY PREDICTED BY IDOCK:   -1.42 KCAL/MOL
REMARK 923 INTER-LIGAND FREE ENERGY PREDICTED BY IDOCK:   -2.61 KCAL/MOL
REMARK 924 INTRA-LIGAND FREE ENERGY PREDICTED BY IDOCK:    1.19 KCAL/MOL
REMARK 927      BINDING AFFINITY PREDICTED BY RF-SCORE:    0.00 PKD
ROOT
HETATM    1  C   UNL     1      -6.522   6.328  68.217  1.00  0.00    -0.053 C  
HETATM    2  N   UNL     1      -7.970   6.321  68.430  1.00  0.00    -0.104 NA 
HETATM    3  C   UNL     1      -8.364   5.095  69.134  1.00  0.00    -0.087 C  
ENDROOT
BRANCH   2   4
HETATM    4  C   UNL     1      -8.432   7.511  69.184  1.00  0.00    -0.136 C  
HETATM    5  C   UNL     1      -9.021   7.238  70.607  1.00  0.00    -0.156 C  
HETATM    6  C   UNL     1      -7.960   6.629  71.525  1.00  0.00    -0.103 A  
HETATM    7  C   UNL     1      -9.764   8.507  71.211  1.00  0.00    -0.208 C  
HETATM    8  O   UNL     1      -8.869   9.621  71.294  1.00  0.00    -0.307 OA 
HETATM    9  C   UNL     1      -6.785   7.313  71.874  1.00  0.00    -0.055 A  
HETATM   10  C   UNL     1     -10.975   8.937  70.353  1.00  0.00    -0.275 C  
HETATM   11  C   UNL     1     -12.028   7.847  70.233  1.00  0.00     0.245 C  
HETATM   12  C   UNL     1      -5.828   6.716  72.701  1.00  0.00    -0.038 A  
HETATM   13  H   UNL     1      -9.313  10.379  71.656  1.00  0.00     0.000 HD 
HETATM   14  C   UNL     1      -6.047   5.433  73.188  1.00  0.00    -0.043 A  
HETATM   15  C   UNL     1     -12.480   7.284  71.579  1.00  0.00    -0.408 C  
HETATM   16  C   UNL     1     -11.439   7.236  72.700  1.00  0.00    -0.304 C  
HETATM   17  O   UNL     1      -5.154   4.821  74.015  1.00  0.00    -0.008 OA 
HETATM   18  C   UNL     1      -7.194   4.730  72.846  1.00  0.00    -0.080 A  
HETATM   19  H   UNL     1      -5.303   3.943  74.348  1.00  0.00     0.000 HD 
HETATM   20  C   UNL     1     -10.326   8.279  72.628  1.00  0.00    -0.374 C  
HETATM   21  C   UNL     1      -8.145   5.324  72.017  1.00  0.00    -0.114 A  
ENDBRANCH   2   4
TORSDOF 1
ENDMDL
MODEL      182
REMARK 921   NORMALIZED FREE ENERGY PREDICTED BY IDOCK:   -1.06 KCAL/MOL
REMARK 922        TOTAL FREE ENERGY PREDICTED BY IDOCK:   -1.30 KCAL/MOL
REMARK 923 INTER-LIGAND FREE ENERGY PREDICTED BY IDOCK:   -2.05 KCAL/MOL
REMARK 924 INTRA-LIGAND FREE ENERGY PREDICTED BY IDOCK:    0.75 KCAL/MOL
REMARK 927      BINDING AFFINITY PREDICTED BY RF-SCORE:    0.00 PKD
ROOT
HETATM    1  C   UNL     1     -10.136   4.737  67.580  1.00  0.00    -0.106 C  
HETATM    2  N   UNL     1     -10.666   6.080  67.812  1.00  0.00    -0.274 NA 
HETATM    3  C   UNL     1     -10.776   6.330  69.254  1.00  0.00    -0.305 C  
ENDROOT
BRANCH   2   4
HETATM    4  C   UNL     1      -9.835   7.130  67.176  1.00  0.00    -0.181 C  
HETATM    5  C   UNL     1      -8.456   7.421  67.854  1.00  0.00    -0.122 C  
HETATM    6  C   UNL     1      -7.558   6.182  67.809  1.00  0.00    -0.097 A  
HETATM    7  C   UNL     1      -7.775   8.747  67.305  1.00  0.00    -0.096 C  
HETATM    8  O   UNL     1      -7.577   8.661  65.889  1.00  0.00    -0.086 OA 
HETATM    9  C   UNL     1      -7.122   5.613  66.602  1.00  0.00    -0.069 A  
HETATM   10  C   UNL     1      -8.631  10.002  67.587  1.00  0.00    -0.118 C  
HETATM   11  C   UNL     1      -8.868  10.231  69.071  1.00  0.00    -0.170 C  
HETATM   12  C   UNL     1      -6.316   4.470  66.599  1.00  0.00    -0.037 A  
HETATM   13  H   UNL     1      -7.170   9.455  65.561  1.00  0.00     0.000 HD 
HETATM   14  C   UNL     1      -5.939   3.894  67.807  1.00  0.00    -0.027 A  
HETATM   15  C   UNL     1      -7.584  10.244  69.899  1.00  0.00    -0.153 C  
HETATM   16  C   UNL     1      -6.440   9.343  69.426  1.00  0.00    -0.044 C  
HETATM   17  O   UNL     1      -5.138   2.793  67.853  1.00  0.00    -0.007 OA 
HETATM   18  C   UNL     1      -6.369   4.429  69.013  1.00  0.00    -0.032 A  
HETATM   19  H   UNL     1      -4.880   2.399  68.679  1.00  0.00     0.000 HD 
HETATM   20  C   UNL     1      -6.397   9.042  67.930  1.00  0.00    -0.056 C  
HETATM   21  C   UNL     1      -7.176   5.566  69.014  1.00  0.00    -0.069 A  
ENDBRANCH   2   4
TORSDOF 1
ENDMDL
MODEL      183
REMARK 921   NORMALIZED FREE ENERGY PREDICTED BY IDOCK:    0.93 KCAL/MOL
REMARK 922        TOTAL FREE ENERGY PREDICTED BY IDOCK:    0.81 KCAL/MOL
REMARK 923 INTER-LIGAND FREE ENERGY PREDICTED BY IDOCK:    0.22 KCAL/MOL
REMARK 924 INTRA-LIGAND FREE ENERGY PREDICTED BY IDOCK:    0.59 KCAL/MOL
REMARK 927      BINDING AFFINITY PREDICTED BY RF-SCORE:    0.00 PKD
ROOT
HETATM    1  C   UNL     1     -11.309  16.059  69.419  1.00  0.00    -0.355 C  
HETATM    2  N   UNL     1     -11.343  17.515  69.276  1.00  0.00     0.990 NA 
HETATM    3  C   UNL     1     -10.457  18.135  70.268  1.00  0.00     1.552 C  
ENDROOT
BRANCH   2   4
HETATM    4  C   UNL     1     -10.965  17.954  67.912  1.00  0.00    -0.064 C  
HETATM    5  C   UNL     1      -9.438  18.170  67.656  1.00  0.00    -0.264 C  
HETATM    6  C   UNL     1      -8.668  16.858  67.831  1.00  0.00    -0.213 A  
HETATM    7  C   UNL     1      -9.150  18.924  66.287  1.00  0.00    -0.261 C  
HETATM    8  O   UNL     1      -9.697  18.190  65.185  1.00  0.00     0.594 OA 
HETATM    9  C   UNL     1      -8.897  15.738  67.017  1.00  0.00    -0.241 A  
HETATM   10  C   UNL     1      -9.763  20.341  66.261  1.00  0.00    -0.455 C  
HETATM   11  C   UNL     1      -9.217  21.238  67.362  1.00  0.00     0.139 C  
HETATM   12  C   UNL     1      -8.187  14.550  67.218  1.00  0.00    -0.230 A  
HETATM   13  H   UNL     1      -9.525  18.641  64.367  1.00  0.00     0.000 HD 
HETATM   14  C   UNL     1      -7.241  14.480  68.234  1.00  0.00    -0.119 A  
HETATM   15  C   UNL     1      -7.692  21.300  67.398  1.00  0.00     0.140 C  
HETATM   16  C   UNL     1      -6.932  20.038  66.977  1.00  0.00    -0.251 C  
HETATM   17  O   UNL     1      -6.510  13.352  68.453  1.00  0.00    -0.077 OA 
HETATM   18  C   UNL     1      -7.007  15.569  69.062  1.00  0.00    -0.141 A  
HETATM   19  H   UNL     1      -5.863  13.304  69.147  1.00  0.00     0.000 HD 
HETATM   20  C   UNL     1      -7.650  19.120  65.991  1.00  0.00    -0.281 C  
HETATM   21  C   UNL     1      -7.719  16.752  68.863  1.00  0.00    -0.242 A  
ENDBRANCH   2   4
TORSDOF 1
ENDMDL
MODEL      184
REMARK 921   NORMALIZED FREE ENERGY PREDICTED BY IDOCK:    1.74 KCAL/MOL
REMARK 922        TOTAL FREE ENERGY PREDICTED BY IDOCK:    1.67 KCAL/MOL
REMARK 923 INTER-LIGAND FREE ENERGY PREDICTED BY IDOCK:    1.71 KCAL/MOL
REMARK 924 INTRA-LIGAND FREE ENERGY PREDICTED BY IDOCK:   -0.04 KCAL/MOL
REMARK 927      BINDING AFFINITY PREDICTED BY RF-SCORE:    0.00 PKD
ROOT
HETATM    1  C   UNL     1      -6.311  13.188  67.505  1.00  0.00    -0.135 C  
HETATM    2  N   UNL     1      -6.649  11.883  66.936  1.00  0.00    -0.123 NA 
HETATM    3  C   UNL     1      -6.178  11.807  65.549  1.00  0.00     1.813 C  
ENDROOT
BRANCH   2   4
HETATM    4  C   UNL     1      -6.084  10.764  67.727  1.00  0.00    -0.047 C  
HETATM    5  C   UNL     1      -7.064   9.590  68.057  1.00  0.00    -0.080 C  
HETATM    6  C   UNL     1      -7.546   8.909  66.774  1.00  0.00    -0.086 A  
HETATM    7  C   UNL     1      -6.477   8.597  69.149  1.00  0.00    -0.043 C  
HETATM    8  O   UNL     1      -5.233   8.040  68.706  1.00  0.00    -0.023 OA 
HETATM    9  C   UNL     1      -6.668   8.255  65.895  1.00  0.00    -0.053 A  
HETATM   10  C   UNL     1      -6.225   9.298  70.502  1.00  0.00    -0.058 C  
HETATM   11  C   UNL     1      -7.490   9.889  71.103  1.00  0.00     0.660 C  
HETATM   12  C   UNL     1      -7.143   7.660  64.722  1.00  0.00    -0.064 A  
HETATM   13  H   UNL     1      -4.883   7.446  69.359  1.00  0.00     0.000 HD 
HETATM   14  C   UNL     1      -8.500   7.712  64.426  1.00  0.00     0.168 A  
HETATM   15  C   UNL     1      -8.640   8.888  71.209  1.00  0.00    -0.259 C  
HETATM   16  C   UNL     1      -8.725   7.807  70.128  1.00  0.00    -0.140 C  
HETATM   17  O   UNL     1      -9.010   7.127  63.307  1.00  0.00     0.196 OA 
HETATM   18  C   UNL     1      -9.385   8.365  65.272  1.00  0.00     0.246 A  
HETATM   19  H   UNL     1      -9.938   7.162  63.105  1.00  0.00     0.000 HD 
HETATM   20  C   UNL     1      -7.407   7.410  69.470  1.00  0.00    -0.085 C  
HETATM   21  C   UNL     1      -8.910   8.963  66.439  1.00  0.00    -0.178 A  
ENDBRANCH   2   4
TORSDOF 1
ENDMDL
MODEL      185
REMARK 921   NORMALIZED FREE ENERGY PREDICTED BY IDOCK:    8.29 KCAL/MOL
REMARK 922        TOTAL FREE ENERGY PREDICTED BY IDOCK:    8.60 KCAL/MOL
REMARK 923 INTER-LIGAND FREE ENERGY PREDICTED BY IDOCK:    8.77 KCAL/MOL
REMARK 924 INTRA-LIGAND FREE ENERGY PREDICTED BY IDOCK:   -0.17 KCAL/MOL
REMARK 927      BINDING AFFINITY PREDICTED BY RF-SCORE:    0.00 PKD
ROOT
HETATM    1  C   UNL     1     -10.166  18.552  70.673  1.00  0.00     2.202 C  
HETATM    2  N   UNL     1     -10.887  17.464  70.013  1.00  0.00     0.474 NA 
HETATM    3  C   UNL     1     -12.151  17.207  70.714  1.00  0.00     3.223 C  
ENDROOT
BRANCH   2   4
HETATM    4  C   UNL     1     -11.148  17.749  68.583  1.00  0.00     0.468 C  
HETATM    5  C   UNL     1     -10.248  16.991  67.553  1.00  0.00    -0.323 C  
HETATM    6  C   UNL     1     -10.462  15.479  67.656  1.00  0.00    -0.279 A  
HETATM    7  C   UNL     1     -10.380  17.576  66.082  1.00  0.00    -0.329 C  
HETATM    8  O   UNL     1     -11.740  17.508  65.635  1.00  0.00     1.359 OA 
HETATM    9  C   UNL     1     -11.701  14.876  67.389  1.00  0.00    -0.311 A  
HETATM   10  C   UNL     1      -9.929  19.051  65.996  1.00  0.00    -0.334 C  
HETATM   11  C   UNL     1      -8.475  19.245  66.400  1.00  0.00    -0.342 C  
HETATM   12  C   UNL     1     -11.864  13.492  67.511  1.00  0.00    -0.406 A  
HETATM   13  H   UNL     1     -11.819  17.858  64.755  1.00  0.00     0.000 HD 
HETATM   14  C   UNL     1     -10.785  12.706  67.897  1.00  0.00    -0.218 A  
HETATM   15  C   UNL     1      -7.507  18.330  65.653  1.00  0.00    -0.008 C  
HETATM   16  C   UNL     1      -8.024  16.944  65.255  1.00  0.00     2.435 C  
HETATM   17  O   UNL     1     -10.891  11.352  68.008  1.00  0.00    -0.193 OA 
HETATM   18  C   UNL     1      -9.554  13.280  68.181  1.00  0.00    -0.227 A  
HETATM   19  H   UNL     1     -10.153  10.815  68.271  1.00  0.00     0.000 HD 
HETATM   20  C   UNL     1      -9.530  16.826  65.037  1.00  0.00     1.780 C  
HETATM   21  C   UNL     1      -9.394  14.661  68.063  1.00  0.00    -0.198 A  
ENDBRANCH   2   4
TORSDOF 1
ENDMDL
MODEL      186
REMARK 921   NORMALIZED FREE ENERGY PREDICTED BY IDOCK:   18.59 KCAL/MOL
REMARK 922        TOTAL FREE ENERGY PREDICTED BY IDOCK:   19.51 KCAL/MOL
REMARK 923 INTER-LIGAND FREE ENERGY PREDICTED BY IDOCK:   19.09 KCAL/MOL
REMARK 924 INTRA-LIGAND FREE ENERGY PREDICTED BY IDOCK:    0.41 KCAL/MOL
REMARK 927      BINDING AFFINITY PREDICTED BY RF-SCORE:    0.00 PKD
ROOT
HETATM    1  C   UNL     1     -10.091  14.786  71.481  1.00  0.00     2.435 C  
HETATM    2  N   UNL     1      -9.333  15.989  71.138  1.00  0.00     2.952 NA 
HETATM    3  C   UNL     1      -8.985  16.724  72.360  1.00  0.00    13.594 C  
ENDROOT
BRANCH   2   4
HETATM    4  C   UNL     1      -8.107  15.680  70.365  1.00  0.00     1.290 C  
HETATM    5  C   UNL     1      -8.147  14.376  69.502  1.00  0.00     0.269 C  
HETATM    6  C   UNL     1      -9.230  14.474  68.424  1.00  0.00    -0.196 A  
HETATM    7  C   UNL     1      -6.713  13.961  68.959  1.00  0.00    -0.110 C  
HETATM    8  O   UNL     1      -6.151  15.014  68.167  1.00  0.00    -0.114 OA 
HETATM    9  C   UNL     1      -9.192  15.440  67.407  1.00  0.00    -0.204 A  
HETATM   10  C   UNL     1      -5.723  13.650  70.104  1.00  0.00    -0.136 C  
HETATM   11  C   UNL     1      -6.188  12.506  70.990  1.00  0.00     0.929 C  
HETATM   12  C   UNL     1     -10.208  15.510  66.449  1.00  0.00    -0.300 A  
HETATM   13  H   UNL     1      -5.293  14.765  67.843  1.00  0.00     0.000 HD 
HETATM   14  C   UNL     1     -11.265  14.609  66.503  1.00  0.00    -0.346 A  
HETATM   15  C   UNL     1      -6.545  11.239  70.214  1.00  0.00     0.109 C  
HETATM   16  C   UNL     1      -7.132  11.423  68.812  1.00  0.00    -0.102 C  
HETATM   17  O   UNL     1     -12.266  14.626  65.579  1.00  0.00    -0.305 OA 
HETATM   18  C   UNL     1     -11.333  13.654  67.507  1.00  0.00    -0.335 A  
HETATM   19  H   UNL     1     -12.989  14.010  65.615  1.00  0.00     0.000 HD 
HETATM   20  C   UNL     1      -6.727  12.697  68.076  1.00  0.00    -0.095 C  
HETATM   21  C   UNL     1     -10.321  13.588  68.465  1.00  0.00    -0.242 A  
ENDBRANCH   2   4
TORSDOF 1
ENDMDL
MODEL      187
REMARK 921   NORMALIZED FREE ENERGY PREDICTED BY IDOCK:   42.72 KCAL/MOL
REMARK 922        TOTAL FREE ENERGY PREDICTED BY IDOCK:   45.05 KCAL/MOL
REMARK 923 INTER-LIGAND FREE ENERGY PREDICTED BY IDOCK:   44.23 KCAL/MOL
REMARK 924 INTRA-LIGAND FREE ENERGY PREDICTED BY IDOCK:    0.81 KCAL/MOL
REMARK 927      BINDING AFFINITY PREDICTED BY RF-SCORE:    0.00 PKD
ROOT
HETATM    1  C   UNL     1     -11.630  19.516  65.904  1.00  0.00     1.490 C  
HETATM    2  N   UNL     1     -10.918  20.440  66.787  1.00  0.00     0.426 NA 
HETATM    3  C   UNL     1     -10.772  19.843  68.119  1.00  0.00    -0.054 C  
ENDROOT
BRANCH   2   4
HETATM    4  C   UNL     1      -9.589  20.818  66.251  1.00  0.00     0.318 C  
HETATM    5  C   UNL     1      -8.498  19.698  66.260  1.00  0.00    -0.383 C  
HETATM    6  C   UNL     1      -8.918  18.526  65.369  1.00  0.00     1.471 A  
HETATM    7  C   UNL     1      -7.043  20.263  65.962  1.00  0.00    -0.262 C  
HETATM    8  O   UNL     1      -7.010  20.920  64.690  1.00  0.00    -0.521 OA 
HETATM    9  C   UNL     1      -9.114  18.665  63.986  1.00  0.00    11.134 A  
HETATM   10  C   UNL     1      -6.581  21.278  67.030  1.00  0.00    -0.375 C  
HETATM   11  C   UNL     1      -6.525  20.678  68.427  1.00  0.00    -0.303 C  
HETATM   12  C   UNL     1      -9.516  17.576  63.208  1.00  0.00    17.918 A  
HETATM   13  H   UNL     1      -6.140  21.257  64.512  1.00  0.00     0.000 HD 
HETATM   14  C   UNL     1      -9.718  16.339  63.809  1.00  0.00     7.984 A  
HETATM   15  C   UNL     1      -5.709  19.388  68.504  1.00  0.00    -0.222 C  
HETATM   16  C   UNL     1      -5.718  18.482  67.270  1.00  0.00    -0.146 C  
HETATM   17  O   UNL     1     -10.087  15.245  63.087  1.00  0.00     5.337 OA 
HETATM   18  C   UNL     1      -9.544  16.179  65.177  1.00  0.00     0.631 A  
HETATM   19  H   UNL     1     -10.225  14.400  63.499  1.00  0.00     0.000 HD 
HETATM   20  C   UNL     1      -5.951  19.175  65.930  1.00  0.00    -0.209 C  
HETATM   21  C   UNL     1      -9.149  17.268  65.954  1.00  0.00     0.001 A  
ENDBRANCH   2   4
TORSDOF 1
ENDMDL
