MODEL        1
REMARK 921   NORMALIZED FREE ENERGY PREDICTED BY IDOCK:   -8.62 KCAL/MOL
REMARK 922        TOTAL FREE ENERGY PREDICTED BY IDOCK:  -11.85 KCAL/MOL
REMARK 923 INTER-LIGAND FREE ENERGY PREDICTED BY IDOCK:  -11.14 KCAL/MOL
REMARK 924 INTRA-LIGAND FREE ENERGY PREDICTED BY IDOCK:   -0.71 KCAL/MOL
REMARK 927      BINDING AFFINITY PREDICTED BY RF-SCORE:    0.00 PKD
ROOT
HETATM    1  C   UNL     1      -8.938  14.611  67.733  1.00  0.00    -0.181 C  
HETATM    2  C   UNL     1      -8.621  15.244  66.519  1.00  0.00    -0.264 C  
HETATM    3  C   UNL     1     -10.080  14.916  66.676  1.00  0.00    -0.264 C  
HETATM    4  C   UNL     1     -10.726  14.338  68.561  1.00  0.00    -0.255 C  
HETATM    5  C   UNL     1     -10.675  15.867  65.401  1.00  0.00    -0.415 C  
HETATM    6  O   UNL     1      -9.800  14.445  69.701  1.00  0.00    -0.402 OA 
HETATM    7  C   UNL     1      -7.748   9.810  64.590  1.00  0.00    -0.136 C  
HETATM    8  C   UNL     1     -10.710  15.454  67.795  1.00  0.00    -0.289 C  
HETATM    9  C   UNL     1      -8.089   8.456  65.158  1.00  0.00    -0.147 C  
HETATM   10  C   UNL     1      -8.201  10.702  65.493  1.00  0.00    -0.141 C  
HETATM   11  C   UNL     1     -10.710  16.924  68.234  1.00  0.00    -0.377 C  
HETATM   12  H   UNL     1     -10.096  14.180  70.564  1.00  0.00     0.000 HD 
HETATM   13  C   UNL     1     -12.101  14.326  67.046  1.00  0.00    -0.424 C  
HETATM   14  C   UNL     1     -11.569  12.634  66.820  1.00  0.00    -0.374 C  
HETATM   15  C   UNL     1      -7.370  10.963  66.734  1.00  0.00    -0.134 C  
HETATM   16  C   UNL     1      -9.962  12.233  66.369  1.00  0.00    -0.228 C  
HETATM   17  C   UNL     1     -10.473  10.919  64.289  1.00  0.00    -0.405 C  
HETATM   18  O   UNL     1     -11.937  11.961  68.045  1.00  0.00    -0.527 OA 
HETATM   19  F   UNL     1      -9.592  12.938  65.192  1.00  0.00    -0.164 F  
HETATM   20  C   UNL     1      -8.911  12.831  67.482  1.00  0.00    -0.192 C  
HETATM   21  C   UNL     1      -9.735  10.815  65.693  1.00  0.00    -0.287 C  
HETATM   22  C   UNL     1     -10.152   9.441  66.204  1.00  0.00    -0.324 C  
HETATM   23  H   UNL     1     -11.654  11.062  67.925  1.00  0.00     0.000 HD 
HETATM   24  O   UNL     1      -7.349   7.497  64.994  1.00  0.00    -0.070 OA 
HETATM   25  C   UNL     1      -7.465  12.424  67.141  1.00  0.00    -0.095 C  
HETATM   26  C   UNL     1      -9.403   8.350  65.902  1.00  0.00    -0.205 C  
ENDROOT
BRANCH   4  27
HETATM   27  C   UNL     1     -12.021  14.873  69.579  1.00  0.00    -0.310 C  
HETATM   28  O   UNL     1     -12.776  15.832  69.342  1.00  0.00     0.068 OA 
BRANCH  27  29
HETATM   29  C   UNL     1     -12.345  14.073  70.868  1.00  0.00    -0.372 C  
BRANCH  29  30
HETATM   30  O   UNL     1     -12.265  12.640  70.673  1.00  0.00    -0.374 OA 
BRANCH  30  31
HETATM   31  C   UNL     1     -12.987  11.900  71.553  1.00  0.00    -0.323 C  
HETATM   32  O   UNL     1     -13.778  12.351  72.361  1.00  0.00    -0.423 OA 
BRANCH  31  33
HETATM   33  C   UNL     1     -12.682  10.438  71.460  1.00  0.00    -0.564 A  
HETATM   34  C   UNL     1     -12.236   7.657  71.341  1.00  0.00    -0.351 A  
HETATM   35  O   UNL     1      -9.150   7.093  71.266  1.00  0.00    -0.150 OA 
HETATM   36  C   UNL     1     -13.430   8.143  71.858  1.00  0.00    -0.354 A  
HETATM   37  C   UNL     1     -13.655   9.525  71.916  1.00  0.00    -0.468 A  
HETATM   38  O   UNL     1     -10.250   6.917  69.044  1.00  0.00    -0.168 OA 
HETATM   39  O   UNL     1      -9.062   8.968  69.573  1.00  0.00    -0.144 OA 
HETATM   40  C   UNL     1     -11.476   9.947  70.933  1.00  0.00    -0.456 A  
HETATM   41  S   UNL     1      -9.762   7.894  70.227  1.00  0.00    -0.183 S  
HETATM   42  C   UNL     1     -11.275   8.552  70.893  1.00  0.00    -0.266 A  
ENDBRANCH  31  33
ENDBRANCH  30  31
ENDBRANCH  29  30
ENDBRANCH  27  29
ENDBRANCH   4  27
TORSDOF 5
ENDMDL
MODEL        2
REMARK 921   NORMALIZED FREE ENERGY PREDICTED BY IDOCK:   -8.06 KCAL/MOL
REMARK 922        TOTAL FREE ENERGY PREDICTED BY IDOCK:  -11.13 KCAL/MOL
REMARK 923 INTER-LIGAND FREE ENERGY PREDICTED BY IDOCK:  -10.56 KCAL/MOL
REMARK 924 INTRA-LIGAND FREE ENERGY PREDICTED BY IDOCK:   -0.57 KCAL/MOL
REMARK 927      BINDING AFFINITY PREDICTED BY RF-SCORE:    0.00 PKD
ROOT
HETATM    1  C   UNL     1      -9.245  13.907  67.485  1.00  0.00    -0.205 C  
HETATM    2  C   UNL     1      -9.732  13.947  68.802  1.00  0.00    -0.096 C  
HETATM    3  C   UNL     1     -10.739  14.360  67.765  1.00  0.00    -0.248 C  
HETATM    4  C   UNL     1     -10.268  13.977  65.780  1.00  0.00    -0.328 C  
HETATM    5  C   UNL     1     -12.126  14.296  68.742  1.00  0.00    -0.300 C  
HETATM    6  O   UNL     1      -9.079  13.166  65.468  1.00  0.00    -0.228 OA 
HETATM    7  C   UNL     1      -7.674  19.403  68.774  1.00  0.00    -0.397 C  
HETATM    8  C   UNL     1     -11.008  13.424  66.769  1.00  0.00    -0.298 C  
HETATM    9  C   UNL     1      -7.189  20.308  67.670  1.00  0.00    -0.301 C  
HETATM   10  C   UNL     1      -8.025  18.253  68.167  1.00  0.00    -0.295 C  
HETATM   11  C   UNL     1     -11.404  11.955  66.969  1.00  0.00    -0.392 C  
HETATM   12  H   UNL     1      -8.864  12.991  64.560  1.00  0.00     0.000 HD 
HETATM   13  C   UNL     1     -12.017  14.966  66.162  1.00  0.00    -0.051 C  
HETATM   14  C   UNL     1     -11.008  16.435  66.014  1.00  0.00     0.029 C  
HETATM   15  C   UNL     1      -6.933  17.274  67.782  1.00  0.00    -0.172 C  
HETATM   16  C   UNL     1      -9.715  16.769  67.092  1.00  0.00    -0.251 C  
HETATM   17  C   UNL     1     -10.475  19.021  67.905  1.00  0.00    -0.474 C  
HETATM   18  O   UNL     1     -10.543  16.431  64.646  1.00  0.00    -0.726 OA 
HETATM   19  F   UNL     1     -10.172  16.721  68.437  1.00  0.00    -0.243 F  
HETATM   20  C   UNL     1      -8.627  15.537  67.046  1.00  0.00    -0.262 C  
HETATM   21  C   UNL     1      -9.249  18.281  67.215  1.00  0.00    -0.256 C  
HETATM   22  C   UNL     1      -8.843  19.243  66.104  1.00  0.00    -0.260 C  
HETATM   23  H   UNL     1     -10.007  17.211  64.568  1.00  0.00     0.000 HD 
HETATM   24  O   UNL     1      -6.272  21.094  67.854  1.00  0.00    -0.338 OA 
HETATM   25  C   UNL     1      -7.418  15.843  67.951  1.00  0.00    -0.145 C  
HETATM   26  C   UNL     1      -7.922  20.210  66.350  1.00  0.00    -0.298 C  
ENDROOT
BRANCH   4  27
HETATM   27  C   UNL     1     -11.124  13.194  64.495  1.00  0.00    -0.356 C  
HETATM   28  O   UNL     1     -12.308  13.408  64.181  1.00  0.00    -0.558 OA 
BRANCH  27  29
HETATM   29  C   UNL     1     -10.367  12.187  63.589  1.00  0.00    -0.452 C  
BRANCH  29  30
HETATM   30  O   UNL     1     -10.507  10.817  64.036  1.00  0.00    -0.358 OA 
BRANCH  30  31
HETATM   31  C   UNL     1      -9.344  10.120  64.120  1.00  0.00    -0.287 C  
HETATM   32  O   UNL     1      -8.610   9.869  63.182  1.00  0.00    -0.163 OA 
BRANCH  31  33
HETATM   33  C   UNL     1      -9.061   9.642  65.509  1.00  0.00    -0.252 A  
HETATM   34  C   UNL     1      -8.433   8.848  68.140  1.00  0.00    -0.129 A  
HETATM   35  O   UNL     1      -9.162   5.821  68.524  1.00  0.00    -0.120 OA 
HETATM   36  C   UNL     1      -7.788   9.941  67.577  1.00  0.00    -0.098 A  
HETATM   37  C   UNL     1      -8.100  10.340  66.270  1.00  0.00    -0.129 A  
HETATM   38  O   UNL     1     -10.837   7.380  69.495  1.00  0.00    -0.236 OA 
HETATM   39  O   UNL     1     -11.308   6.403  67.322  1.00  0.00    -0.295 OA 
HETATM   40  C   UNL     1      -9.716   8.538  66.081  1.00  0.00    -0.259 A  
HETATM   41  S   UNL     1     -10.191   6.768  68.152  1.00  0.00    -0.188 S  
HETATM   42  C   UNL     1      -9.377   8.158  67.394  1.00  0.00    -0.141 A  
ENDBRANCH  31  33
ENDBRANCH  30  31
ENDBRANCH  29  30
ENDBRANCH  27  29
ENDBRANCH   4  27
TORSDOF 5
ENDMDL
MODEL        3
REMARK 921   NORMALIZED FREE ENERGY PREDICTED BY IDOCK:   -8.02 KCAL/MOL
REMARK 922        TOTAL FREE ENERGY PREDICTED BY IDOCK:  -11.08 KCAL/MOL
REMARK 923 INTER-LIGAND FREE ENERGY PREDICTED BY IDOCK:  -11.63 KCAL/MOL
REMARK 924 INTRA-LIGAND FREE ENERGY PREDICTED BY IDOCK:    0.55 KCAL/MOL
REMARK 927      BINDING AFFINITY PREDICTED BY RF-SCORE:    0.00 PKD
ROOT
HETATM    1  C   UNL     1     -11.481  15.396  66.202  1.00  0.00     0.001 C  
HETATM    2  C   UNL     1     -11.031  15.329  64.872  1.00  0.00    -0.445 C  
HETATM    3  C   UNL     1     -10.387  14.325  65.788  1.00  0.00    -0.341 C  
HETATM    4  C   UNL     1     -11.237  14.069  67.664  1.00  0.00    -0.297 C  
HETATM    5  C   UNL     1      -9.690  13.333  64.599  1.00  0.00     0.176 C  
HETATM    6  O   UNL     1     -12.522  14.722  67.965  1.00  0.00    -0.571 OA 
HETATM    7  C   UNL     1      -7.089  19.251  66.627  1.00  0.00    -0.219 C  
HETATM    8  C   UNL     1     -11.254  13.462  66.454  1.00  0.00    -0.323 C  
HETATM    9  C   UNL     1      -6.667  19.738  67.990  1.00  0.00    -0.254 C  
HETATM   10  C   UNL     1      -8.050  18.335  66.856  1.00  0.00    -0.259 C  
HETATM   11  C   UNL     1     -12.354  12.596  65.826  1.00  0.00    -0.323 C  
HETATM   12  H   UNL     1     -12.910  14.605  68.824  1.00  0.00     0.000 HD 
HETATM   13  C   UNL     1      -9.540  13.007  67.242  1.00  0.00    -0.225 C  
HETATM   14  C   UNL     1      -8.698  14.428  67.928  1.00  0.00    -0.168 C  
HETATM   15  C   UNL     1      -9.453  18.819  67.167  1.00  0.00    -0.328 C  
HETATM   16  C   UNL     1      -8.799  15.984  67.211  1.00  0.00    -0.190 C  
HETATM   17  C   UNL     1      -6.344  16.399  66.870  1.00  0.00    -0.109 C  
HETATM   18  O   UNL     1      -9.115  14.476  69.311  1.00  0.00    -0.386 OA 
HETATM   19  F   UNL     1      -8.435  15.917  65.839  1.00  0.00    -0.343 F  
HETATM   20  C   UNL     1     -10.371  16.457  67.137  1.00  0.00    -0.290 C  
HETATM   21  C   UNL     1      -7.640  17.013  67.556  1.00  0.00    -0.184 C  
HETATM   22  C   UNL     1      -7.134  17.451  68.925  1.00  0.00    -0.251 C  
HETATM   23  H   UNL     1      -8.668  15.231  69.675  1.00  0.00     0.000 HD 
HETATM   24  O   UNL     1      -6.340  20.901  68.172  1.00  0.00    -0.317 OA 
HETATM   25  C   UNL     1     -10.486  17.882  66.563  1.00  0.00    -0.315 C  
HETATM   26  C   UNL     1      -6.638  18.704  69.095  1.00  0.00    -0.289 C  
ENDROOT
BRANCH   4  27
HETATM   27  C   UNL     1     -11.758  12.670  68.542  1.00  0.00    -0.330 C  
HETATM   28  O   UNL     1     -11.846  11.519  68.079  1.00  0.00    -0.545 OA 
BRANCH  27  29
HETATM   29  C   UNL     1     -12.081  12.806  70.053  1.00  0.00    -0.285 C  
BRANCH  29  30
HETATM   30  O   UNL     1     -11.758  11.611  70.805  1.00  0.00    -0.162 OA 
BRANCH  30  31
HETATM   31  C   UNL     1     -12.770  11.124  71.569  1.00  0.00    -0.394 C  
HETATM   32  O   UNL     1     -13.534  11.802  72.231  1.00  0.00    -0.423 OA 
BRANCH  31  33
HETATM   33  C   UNL     1     -12.835   9.630  71.549  1.00  0.00    -0.485 A  
HETATM   34  C   UNL     1     -13.098   6.823  71.536  1.00  0.00    -0.248 A  
HETATM   35  O   UNL     1     -10.333   5.507  72.219  1.00  0.00    -0.196 OA 
HETATM   36  C   UNL     1     -14.216   7.620  71.746  1.00  0.00    -0.549 A  
HETATM   37  C   UNL     1     -14.088   9.016  71.750  1.00  0.00    -0.377 A  
HETATM   38  O   UNL     1     -10.880   5.477  69.794  1.00  0.00    -0.331 OA 
HETATM   39  O   UNL     1      -9.368   7.197  70.605  1.00  0.00    -0.158 OA 
HETATM   40  C   UNL     1     -11.705   8.824  71.334  1.00  0.00    -0.369 A  
HETATM   41  S   UNL     1     -10.454   6.372  71.064  1.00  0.00    -0.231 S  
HETATM   42  C   UNL     1     -11.863   7.424  71.340  1.00  0.00    -0.300 A  
ENDBRANCH  31  33
ENDBRANCH  30  31
ENDBRANCH  29  30
ENDBRANCH  27  29
ENDBRANCH   4  27
TORSDOF 5
ENDMDL
MODEL        4
REMARK 921   NORMALIZED FREE ENERGY PREDICTED BY IDOCK:   -7.97 KCAL/MOL
REMARK 922        TOTAL FREE ENERGY PREDICTED BY IDOCK:  -11.01 KCAL/MOL
REMARK 923 INTER-LIGAND FREE ENERGY PREDICTED BY IDOCK:  -10.96 KCAL/MOL
REMARK 924 INTRA-LIGAND FREE ENERGY PREDICTED BY IDOCK:   -0.06 KCAL/MOL
REMARK 927      BINDING AFFINITY PREDICTED BY RF-SCORE:    0.00 PKD
ROOT
HETATM    1  C   UNL     1      -7.389   9.666  68.426  1.00  0.00    -0.075 C  
HETATM    2  C   UNL     1      -6.493   8.643  68.072  1.00  0.00    -0.057 C  
HETATM    3  C   UNL     1      -7.727   8.699  67.215  1.00  0.00    -0.097 C  
HETATM    4  C   UNL     1      -8.927  10.384  67.389  1.00  0.00    -0.135 C  
HETATM    5  C   UNL     1      -7.194   7.684  65.963  1.00  0.00    -0.070 C  
HETATM    6  O   UNL     1      -8.449  11.527  68.185  1.00  0.00    -0.140 OA 
HETATM    7  C   UNL     1      -9.493   5.476  71.942  1.00  0.00    -0.171 C  
HETATM    8  C   UNL     1      -7.964   9.908  66.565  1.00  0.00    -0.110 C  
HETATM    9  C   UNL     1     -10.807   5.698  72.646  1.00  0.00    -0.256 C  
HETATM   10  C   UNL     1      -9.316   6.561  71.163  1.00  0.00    -0.167 C  
HETATM   11  C   UNL     1      -6.980  10.687  65.682  1.00  0.00    -0.078 C  
HETATM   12  H   UNL     1      -8.998  12.297  68.265  1.00  0.00     0.000 HD 
HETATM   13  C   UNL     1      -9.564   8.895  66.139  1.00  0.00    -0.335 C  
HETATM   14  C   UNL     1     -10.396   8.276  67.595  1.00  0.00    -0.248 C  
HETATM   15  C   UNL     1      -8.808   7.838  71.804  1.00  0.00    -0.150 C  
HETATM   16  C   UNL     1      -9.537   7.759  68.989  1.00  0.00    -0.155 C  
HETATM   17  C   UNL     1     -10.440   5.420  69.140  1.00  0.00    -0.277 C  
HETATM   18  O   UNL     1     -11.357   9.299  67.939  1.00  0.00    -0.436 OA 
HETATM   19  F   UNL     1      -8.561   6.790  68.633  1.00  0.00    -0.121 F  
HETATM   20  C   UNL     1      -8.615   8.995  69.558  1.00  0.00    -0.138 C  
HETATM   21  C   UNL     1     -10.288   6.765  69.972  1.00  0.00    -0.225 C  
HETATM   22  C   UNL     1     -11.656   6.927  70.623  1.00  0.00    -0.402 C  
HETATM   23  H   UNL     1     -11.798   8.969  68.712  1.00  0.00     0.000 HD 
HETATM   24  O   UNL     1     -10.982   5.317  73.794  1.00  0.00    -0.295 OA 
HETATM   25  C   UNL     1      -7.887   8.582  70.851  1.00  0.00    -0.113 C  
HETATM   26  C   UNL     1     -11.894   6.380  71.844  1.00  0.00    -0.380 C  
ENDROOT
BRANCH   4  27
HETATM   27  C   UNL     1      -9.588  11.486  66.228  1.00  0.00    -0.218 C  
HETATM   28  O   UNL     1     -10.052  11.172  65.118  1.00  0.00    -0.248 OA 
BRANCH  27  29
HETATM   29  C   UNL     1      -9.694  12.990  66.593  1.00  0.00    -0.256 C  
BRANCH  29  30
HETATM   30  O   UNL     1     -11.062  13.424  66.787  1.00  0.00    -0.284 OA 
BRANCH  30  31
HETATM   31  C   UNL     1     -11.654  12.967  67.920  1.00  0.00    -0.345 C  
HETATM   32  O   UNL     1     -12.154  11.864  68.051  1.00  0.00    -0.541 OA 
BRANCH  31  33
HETATM   33  C   UNL     1     -11.667  13.988  69.013  1.00  0.00    -0.368 A  
HETATM   34  C   UNL     1     -11.612  15.998  70.989  1.00  0.00    -0.472 A  
HETATM   35  O   UNL     1     -12.186  14.723  73.798  1.00  0.00    -0.418 OA 
HETATM   36  C   UNL     1     -10.936  16.189  69.791  1.00  0.00    -0.349 A  
HETATM   37  C   UNL     1     -10.964  15.193  68.806  1.00  0.00    -0.257 A  
HETATM   38  O   UNL     1     -14.151  15.880  72.808  1.00  0.00    -0.567 OA 
HETATM   39  O   UNL     1     -14.030  13.462  72.614  1.00  0.00    -0.755 OA 
HETATM   40  C   UNL     1     -12.354  13.796  70.223  1.00  0.00    -0.407 A  
HETATM   41  S   UNL     1     -13.167  14.607  72.739  1.00  0.00    -0.512 S  
HETATM   42  C   UNL     1     -12.304  14.814  71.197  1.00  0.00    -0.331 A  
ENDBRANCH  31  33
ENDBRANCH  30  31
ENDBRANCH  29  30
ENDBRANCH  27  29
ENDBRANCH   4  27
TORSDOF 5
ENDMDL
MODEL        5
REMARK 921   NORMALIZED FREE ENERGY PREDICTED BY IDOCK:   -7.87 KCAL/MOL
REMARK 922        TOTAL FREE ENERGY PREDICTED BY IDOCK:  -10.88 KCAL/MOL
REMARK 923 INTER-LIGAND FREE ENERGY PREDICTED BY IDOCK:  -10.13 KCAL/MOL
REMARK 924 INTRA-LIGAND FREE ENERGY PREDICTED BY IDOCK:   -0.75 KCAL/MOL
REMARK 927      BINDING AFFINITY PREDICTED BY RF-SCORE:    0.00 PKD
ROOT
HETATM    1  C   UNL     1     -10.724   6.212  69.465  1.00  0.00    -0.386 C  
HETATM    2  C   UNL     1      -9.793   5.159  69.479  1.00  0.00    -0.278 C  
HETATM    3  C   UNL     1      -9.500   6.249  70.473  1.00  0.00    -0.175 C  
HETATM    4  C   UNL     1     -10.994   7.648  70.814  1.00  0.00    -0.252 C  
HETATM    5  C   UNL     1      -8.347   5.418  71.402  1.00  0.00    -0.122 C  
HETATM    6  O   UNL     1     -12.328   7.432  70.229  1.00  0.00    -0.502 OA 
HETATM    7  C   UNL     1      -7.047   8.320  65.419  1.00  0.00    -0.067 C  
HETATM    8  C   UNL     1     -10.510   6.524  71.392  1.00  0.00    -0.246 C  
HETATM    9  C   UNL     1      -7.211   9.742  64.946  1.00  0.00    -0.129 C  
HETATM   10  C   UNL     1      -7.972   8.155  66.385  1.00  0.00    -0.104 C  
HETATM   11  C   UNL     1     -11.235   5.515  72.292  1.00  0.00    -0.281 C  
HETATM   12  H   UNL     1     -13.011   8.073  70.385  1.00  0.00     0.000 HD 
HETATM   13  C   UNL     1      -9.213   7.912  71.785  1.00  0.00    -0.194 C  
HETATM   14  C   UNL     1      -8.777   8.877  70.343  1.00  0.00    -0.180 C  
HETATM   15  C   UNL     1      -9.410   7.901  65.975  1.00  0.00    -0.129 C  
HETATM   16  C   UNL     1      -8.675   8.183  68.776  1.00  0.00    -0.138 C  
HETATM   17  C   UNL     1      -6.305   8.821  68.238  1.00  0.00    -0.055 C  
HETATM   18  O   UNL     1      -9.698   9.990  70.348  1.00  0.00    -0.381 OA 
HETATM   19  F   UNL     1      -7.806   7.059  68.792  1.00  0.00    -0.107 F  
HETATM   20  C   UNL     1     -10.119   7.508  68.376  1.00  0.00    -0.200 C  
HETATM   21  C   UNL     1      -7.795   8.954  67.702  1.00  0.00    -0.101 C  
HETATM   22  C   UNL     1      -7.882  10.414  67.275  1.00  0.00    -0.106 C  
HETATM   23  H   UNL     1      -9.466  10.502  69.582  1.00  0.00     0.000 HD 
HETATM   24  O   UNL     1      -7.041  10.042  63.774  1.00  0.00    -0.128 OA 
HETATM   25  C   UNL     1     -10.078   6.940  66.944  1.00  0.00    -0.286 C  
HETATM   26  C   UNL     1      -7.557  10.768  66.005  1.00  0.00    -0.130 C  
ENDROOT
BRANCH   4  27
HETATM   27  C   UNL     1     -11.739   8.250  72.257  1.00  0.00    -0.388 C  
HETATM   28  O   UNL     1     -11.485   7.870  73.413  1.00  0.00    -0.211 OA 
BRANCH  27  29
HETATM   29  C   UNL     1     -12.762   9.411  72.149  1.00  0.00    -0.382 C  
BRANCH  29  30
HETATM   30  O   UNL     1     -12.385  10.400  71.159  1.00  0.00    -0.331 OA 
BRANCH  30  31
HETATM   31  C   UNL     1     -12.806  11.663  71.422  1.00  0.00    -0.356 C  
HETATM   32  O   UNL     1     -13.474  11.991  72.385  1.00  0.00    -0.391 OA 
BRANCH  31  33
HETATM   33  C   UNL     1     -12.393  12.637  70.364  1.00  0.00    -0.315 A  
HETATM   34  C   UNL     1     -11.619  14.576  68.469  1.00  0.00    -0.344 A  
HETATM   35  O   UNL     1     -12.335  13.568  65.585  1.00  0.00    -0.425 OA 
HETATM   36  C   UNL     1     -11.862  14.954  69.783  1.00  0.00    -0.356 A  
HETATM   37  C   UNL     1     -12.244  13.991  70.728  1.00  0.00    -0.438 A  
HETATM   38  O   UNL     1      -9.931  13.309  66.164  1.00  0.00    -0.283 OA 
HETATM   39  O   UNL     1     -11.368  11.359  66.346  1.00  0.00    -0.301 OA 
HETATM   40  C   UNL     1     -12.144  12.254  69.035  1.00  0.00    -0.197 A  
HETATM   41  S   UNL     1     -11.436  12.794  66.417  1.00  0.00    -0.378 S  
HETATM   42  C   UNL     1     -11.766  13.245  68.107  1.00  0.00    -0.362 A  
ENDBRANCH  31  33
ENDBRANCH  30  31
ENDBRANCH  29  30
ENDBRANCH  27  29
ENDBRANCH   4  27
TORSDOF 5
ENDMDL
MODEL        6
REMARK 921   NORMALIZED FREE ENERGY PREDICTED BY IDOCK:   -7.65 KCAL/MOL
REMARK 922        TOTAL FREE ENERGY PREDICTED BY IDOCK:  -10.59 KCAL/MOL
REMARK 923 INTER-LIGAND FREE ENERGY PREDICTED BY IDOCK:   -9.89 KCAL/MOL
REMARK 924 INTRA-LIGAND FREE ENERGY PREDICTED BY IDOCK:   -0.71 KCAL/MOL
REMARK 927      BINDING AFFINITY PREDICTED BY RF-SCORE:    0.00 PKD
ROOT
HETATM    1  C   UNL     1     -10.847   6.222  69.430  1.00  0.00    -0.404 C  
HETATM    2  C   UNL     1      -9.947   5.148  69.330  1.00  0.00    -0.292 C  
HETATM    3  C   UNL     1      -9.575   6.163  70.375  1.00  0.00    -0.188 C  
HETATM    4  C   UNL     1     -11.009   7.576  70.879  1.00  0.00    -0.253 C  
HETATM    5  C   UNL     1      -8.402   5.245  71.191  1.00  0.00    -0.122 C  
HETATM    6  O   UNL     1     -12.376   7.432  70.349  1.00  0.00    -0.537 OA 
HETATM    7  C   UNL     1      -7.312   8.491  65.344  1.00  0.00    -0.084 C  
HETATM    8  C   UNL     1     -10.530   6.404  71.359  1.00  0.00    -0.257 C  
HETATM    9  C   UNL     1      -7.457   9.944  64.970  1.00  0.00    -0.134 C  
HETATM   10  C   UNL     1      -8.193   8.288  66.343  1.00  0.00    -0.107 C  
HETATM   11  C   UNL     1     -11.239   5.359  72.230  1.00  0.00    -0.235 C  
HETATM   12  H   UNL     1     -13.032   8.079  70.580  1.00  0.00     0.000 HD 
HETATM   13  C   UNL     1      -9.176   7.731  71.772  1.00  0.00    -0.177 C  
HETATM   14  C   UNL     1      -8.783   8.774  70.374  1.00  0.00    -0.166 C  
HETATM   15  C   UNL     1      -9.656   8.098  65.991  1.00  0.00    -0.113 C  
HETATM   16  C   UNL     1      -8.777   8.180  68.763  1.00  0.00    -0.138 C  
HETATM   17  C   UNL     1      -6.419   8.790  68.148  1.00  0.00    -0.060 C  
HETATM   18  O   UNL     1      -9.670   9.909  70.496  1.00  0.00    -0.359 OA 
HETATM   19  F   UNL     1      -7.942   7.035  68.665  1.00  0.00    -0.110 F  
HETATM   20  C   UNL     1     -10.258   7.570  68.395  1.00  0.00    -0.211 C  
HETATM   21  C   UNL     1      -7.929   8.995  67.697  1.00  0.00    -0.101 C  
HETATM   22  C   UNL     1      -7.994  10.481  67.367  1.00  0.00    -0.110 C  
HETATM   23  H   UNL     1      -9.461  10.462  69.753  1.00  0.00     0.000 HD 
HETATM   24  O   UNL     1      -7.336  10.314  63.812  1.00  0.00    -0.134 OA 
HETATM   25  C   UNL     1     -10.303   7.094  66.931  1.00  0.00    -0.349 C  
HETATM   26  C   UNL     1      -7.721  10.908  66.107  1.00  0.00    -0.133 C  
ENDROOT
BRANCH   4  27
HETATM   27  C   UNL     1     -11.665   8.103  72.392  1.00  0.00    -0.399 C  
HETATM   28  O   UNL     1     -11.311   7.697  73.513  1.00  0.00    -0.216 OA 
BRANCH  27  29
HETATM   29  C   UNL     1     -12.735   9.226  72.399  1.00  0.00    -0.313 C  
BRANCH  29  30
HETATM   30  O   UNL     1     -12.778   9.966  71.155  1.00  0.00    -0.327 OA 
BRANCH  30  31
HETATM   31  C   UNL     1     -12.774  11.317  71.291  1.00  0.00    -0.405 C  
HETATM   32  O   UNL     1     -13.245  11.926  72.235  1.00  0.00    -0.451 OA 
BRANCH  31  33
HETATM   33  C   UNL     1     -12.153  12.010  70.120  1.00  0.00    -0.377 A  
HETATM   34  C   UNL     1     -11.000  13.196  67.838  1.00  0.00    -0.271 A  
HETATM   35  O   UNL     1      -9.155  15.578  68.712  1.00  0.00    -0.182 OA 
HETATM   36  C   UNL     1     -11.441  11.881  67.783  1.00  0.00    -0.389 A  
HETATM   37  C   UNL     1     -12.018  11.290  68.916  1.00  0.00    -0.378 A  
HETATM   38  O   UNL     1     -11.372  16.299  67.852  1.00  0.00    -0.269 OA 
HETATM   39  O   UNL     1     -11.054  16.206  70.258  1.00  0.00    -0.348 OA 
HETATM   40  C   UNL     1     -11.709  13.342  70.174  1.00  0.00    -0.266 A  
HETATM   41  S   UNL     1     -10.562  15.595  69.052  1.00  0.00    -0.251 S  
HETATM   42  C   UNL     1     -11.129  13.908  69.021  1.00  0.00    -0.268 A  
ENDBRANCH  31  33
ENDBRANCH  30  31
ENDBRANCH  29  30
ENDBRANCH  27  29
ENDBRANCH   4  27
TORSDOF 5
ENDMDL
MODEL        7
REMARK 921   NORMALIZED FREE ENERGY PREDICTED BY IDOCK:   -7.62 KCAL/MOL
REMARK 922        TOTAL FREE ENERGY PREDICTED BY IDOCK:  -10.55 KCAL/MOL
REMARK 923 INTER-LIGAND FREE ENERGY PREDICTED BY IDOCK:   -9.30 KCAL/MOL
REMARK 924 INTRA-LIGAND FREE ENERGY PREDICTED BY IDOCK:   -1.25 KCAL/MOL
REMARK 927      BINDING AFFINITY PREDICTED BY RF-SCORE:    0.00 PKD
ROOT
HETATM    1  C   UNL     1      -6.994  10.308  67.302  1.00  0.00    -0.086 C  
HETATM    2  C   UNL     1      -5.825   9.596  67.622  1.00  0.00    -0.044 C  
HETATM    3  C   UNL     1      -6.663   8.949  66.554  1.00  0.00    -0.075 C  
HETATM    4  C   UNL     1      -8.193  10.084  65.730  1.00  0.00    -0.130 C  
HETATM    5  C   UNL     1      -5.514   7.830  65.996  1.00  0.00    -0.029 C  
HETATM    6  O   UNL     1      -8.291  11.514  66.073  1.00  0.00    -0.349 OA 
HETATM    7  C   UNL     1      -9.196   7.025  71.627  1.00  0.00    -0.144 C  
HETATM    8  C   UNL     1      -6.923   9.726  65.428  1.00  0.00    -0.105 C  
HETATM    9  C   UNL     1     -10.688   7.001  71.846  1.00  0.00    -0.217 C  
HETATM   10  C   UNL     1      -9.007   7.792  70.536  1.00  0.00    -0.150 C  
HETATM   11  C   UNL     1      -5.894  10.465  64.562  1.00  0.00    -0.120 C  
HETATM   12  H   UNL     1      -8.991  12.033  65.696  1.00  0.00     0.000 HD 
HETATM   13  C   UNL     1      -8.004   8.150  65.093  1.00  0.00    -0.126 C  
HETATM   14  C   UNL     1      -9.130   7.789  66.434  1.00  0.00    -0.175 C  
HETATM   15  C   UNL     1      -9.053   9.300  70.694  1.00  0.00    -0.309 C  
HETATM   16  C   UNL     1      -8.718   8.075  68.076  1.00  0.00    -0.125 C  
HETATM   17  C   UNL     1      -9.069   5.750  68.961  1.00  0.00    -0.123 C  
HETATM   18  O   UNL     1     -10.353   8.476  66.089  1.00  0.00    -0.385 OA 
HETATM   19  F   UNL     1      -7.488   7.436  68.392  1.00  0.00    -0.093 F  
HETATM   20  C   UNL     1      -8.354   9.664  68.285  1.00  0.00    -0.117 C  
HETATM   21  C   UNL     1      -9.522   7.258  69.175  1.00  0.00    -0.148 C  
HETATM   22  C   UNL     1     -11.031   7.145  69.359  1.00  0.00    -0.189 C  
HETATM   23  H   UNL     1     -10.951   8.285  66.802  1.00  0.00     0.000 HD 
HETATM   24  O   UNL     1     -11.161   6.975  72.972  1.00  0.00    -0.288 OA 
HETATM   25  C   UNL     1      -8.050   9.964  69.765  1.00  0.00    -0.185 C  
HETATM   26  C   UNL     1     -11.550   6.974  70.602  1.00  0.00    -0.379 C  
ENDROOT
BRANCH   4  27
HETATM   27  C   UNL     1      -8.636  10.459  64.099  1.00  0.00    -0.181 C  
HETATM   28  O   UNL     1      -8.061  10.038  63.080  1.00  0.00    -0.136 OA 
BRANCH  27  29
HETATM   29  C   UNL     1      -9.894  11.330  63.841  1.00  0.00    -0.300 C  
BRANCH  29  30
HETATM   30  O   UNL     1     -10.911  11.160  64.858  1.00  0.00    -0.275 OA 
BRANCH  30  31
HETATM   31  C   UNL     1     -11.559  12.299  65.216  1.00  0.00    -0.355 C  
HETATM   32  O   UNL     1     -12.044  13.100  64.439  1.00  0.00    -0.375 OA 
BRANCH  31  33
HETATM   33  C   UNL     1     -11.588  12.500  66.698  1.00  0.00    -0.442 A  
HETATM   34  C   UNL     1     -11.638  12.738  69.507  1.00  0.00    -0.342 A  
HETATM   35  O   UNL     1     -12.910  15.493  70.303  1.00  0.00    -0.361 OA 
HETATM   36  C   UNL     1     -11.589  11.479  68.921  1.00  0.00    -0.384 A  
HETATM   37  C   UNL     1     -11.561  11.359  67.525  1.00  0.00    -0.298 A  
HETATM   38  O   UNL     1     -10.428  15.463  70.443  1.00  0.00    -0.294 OA 
HETATM   39  O   UNL     1     -11.451  16.456  68.477  1.00  0.00    -0.351 OA 
HETATM   40  C   UNL     1     -11.634  13.773  67.290  1.00  0.00    -0.391 A  
HETATM   41  S   UNL     1     -11.719  15.460  69.480  1.00  0.00    -0.367 S  
HETATM   42  C   UNL     1     -11.667  13.863  68.696  1.00  0.00    -0.361 A  
ENDBRANCH  31  33
ENDBRANCH  30  31
ENDBRANCH  29  30
ENDBRANCH  27  29
ENDBRANCH   4  27
TORSDOF 5
ENDMDL
MODEL        8
REMARK 921   NORMALIZED FREE ENERGY PREDICTED BY IDOCK:   -7.60 KCAL/MOL
REMARK 922        TOTAL FREE ENERGY PREDICTED BY IDOCK:  -10.53 KCAL/MOL
REMARK 923 INTER-LIGAND FREE ENERGY PREDICTED BY IDOCK:  -10.08 KCAL/MOL
REMARK 924 INTRA-LIGAND FREE ENERGY PREDICTED BY IDOCK:   -0.45 KCAL/MOL
REMARK 927      BINDING AFFINITY PREDICTED BY RF-SCORE:    0.00 PKD
ROOT
HETATM    1  C   UNL     1      -9.368  13.825  67.055  1.00  0.00    -0.250 C  
HETATM    2  C   UNL     1      -9.755  13.793  68.406  1.00  0.00    -0.219 C  
HETATM    3  C   UNL     1     -10.844  14.232  67.467  1.00  0.00    -0.284 C  
HETATM    4  C   UNL     1     -10.517  13.952  65.437  1.00  0.00    -0.345 C  
HETATM    5  C   UNL     1     -12.153  14.092  68.540  1.00  0.00    -0.312 C  
HETATM    6  O   UNL     1      -9.341  13.182  64.998  1.00  0.00    -0.254 OA 
HETATM    7  C   UNL     1      -7.805  19.288  68.487  1.00  0.00    -0.383 C  
HETATM    8  C   UNL     1     -11.171  13.338  66.450  1.00  0.00    -0.325 C  
HETATM    9  C   UNL     1      -7.421  20.254  67.395  1.00  0.00    -0.307 C  
HETATM   10  C   UNL     1      -8.180  18.161  67.853  1.00  0.00    -0.253 C  
HETATM   11  C   UNL     1     -11.524  11.853  66.608  1.00  0.00    -0.382 C  
HETATM   12  H   UNL     1      -9.191  13.055  64.069  1.00  0.00     0.000 HD 
HETATM   13  C   UNL     1     -12.251  14.884  65.994  1.00  0.00     0.090 C  
HETATM   14  C   UNL     1     -11.283  16.380  65.842  1.00  0.00     0.286 C  
HETATM   15  C   UNL     1      -7.103  17.224  67.342  1.00  0.00    -0.184 C  
HETATM   16  C   UNL     1      -9.918  16.691  66.837  1.00  0.00    -0.271 C  
HETATM   17  C   UNL     1     -10.656  18.886  67.810  1.00  0.00    -0.471 C  
HETATM   18  O   UNL     1     -10.922  16.449  64.445  1.00  0.00    -1.045 OA 
HETATM   19  F   UNL     1     -10.272  16.571  68.208  1.00  0.00    -0.234 F  
HETATM   20  C   UNL     1      -8.814  15.487  66.650  1.00  0.00    -0.325 C  
HETATM   21  C   UNL     1      -9.472  18.206  66.996  1.00  0.00    -0.274 C  
HETATM   22  C   UNL     1      -9.168  19.227  65.906  1.00  0.00     0.020 C  
HETATM   23  H   UNL     1     -10.407  17.244  64.365  1.00  0.00     0.000 HD 
HETATM   24  O   UNL     1      -6.507  21.051  67.548  1.00  0.00    -0.304 OA 
HETATM   25  C   UNL     1      -7.547  15.777  67.477  1.00  0.00    -0.194 C  
HETATM   26  C   UNL     1      -8.249  20.202  66.129  1.00  0.00    -0.233 C  
ENDROOT
BRANCH   4  27
HETATM   27  C   UNL     1     -11.453  13.211  64.182  1.00  0.00    -0.403 C  
HETATM   28  O   UNL     1     -12.638  13.475  63.914  1.00  0.00    -0.681 OA 
BRANCH  27  29
HETATM   29  C   UNL     1     -10.773  12.178  63.246  1.00  0.00    -0.318 C  
BRANCH  29  30
HETATM   30  O   UNL     1     -10.719  10.850  63.823  1.00  0.00    -0.315 OA 
BRANCH  30  31
HETATM   31  C   UNL     1      -9.500  10.253  63.775  1.00  0.00    -0.300 C  
HETATM   32  O   UNL     1      -8.892   9.986  62.755  1.00  0.00    -0.188 OA 
BRANCH  31  33
HETATM   33  C   UNL     1      -8.976   9.911  65.134  1.00  0.00    -0.235 A  
HETATM   34  C   UNL     1      -8.069   9.146  67.691  1.00  0.00    -0.104 A  
HETATM   35  O   UNL     1      -7.031  11.673  69.234  1.00  0.00    -0.110 OA 
HETATM   36  C   UNL     1      -8.990   8.353  67.020  1.00  0.00    -0.161 A  
HETATM   37  C   UNL     1      -9.441   8.729  65.747  1.00  0.00    -0.239 A  
HETATM   38  O   UNL     1      -5.213  10.275  68.274  1.00  0.00    -0.036 OA 
HETATM   39  O   UNL     1      -5.885  12.269  67.060  1.00  0.00    -0.230 OA 
HETATM   40  C   UNL     1      -8.041  10.711  65.811  1.00  0.00    -0.158 A  
HETATM   41  S   UNL     1      -6.422  11.297  67.975  1.00  0.00    -0.058 S  
HETATM   42  C   UNL     1      -7.610  10.310  67.091  1.00  0.00    -0.092 A  
ENDBRANCH  31  33
ENDBRANCH  30  31
ENDBRANCH  29  30
ENDBRANCH  27  29
ENDBRANCH   4  27
TORSDOF 5
ENDMDL
MODEL        9
REMARK 921   NORMALIZED FREE ENERGY PREDICTED BY IDOCK:   -7.58 KCAL/MOL
REMARK 922        TOTAL FREE ENERGY PREDICTED BY IDOCK:  -10.51 KCAL/MOL
REMARK 923 INTER-LIGAND FREE ENERGY PREDICTED BY IDOCK:  -10.24 KCAL/MOL
REMARK 924 INTRA-LIGAND FREE ENERGY PREDICTED BY IDOCK:   -0.27 KCAL/MOL
REMARK 927      BINDING AFFINITY PREDICTED BY RF-SCORE:    0.00 PKD
ROOT
HETATM    1  C   UNL     1      -8.559  11.994  68.201  1.00  0.00    -0.173 C  
HETATM    2  C   UNL     1      -7.730  11.463  67.198  1.00  0.00    -0.152 C  
HETATM    3  C   UNL     1      -9.196  11.416  66.868  1.00  0.00    -0.183 C  
HETATM    4  C   UNL     1     -10.478  12.506  68.083  1.00  0.00    -0.229 C  
HETATM    5  C   UNL     1      -9.056  11.070  65.212  1.00  0.00    -0.207 C  
HETATM    6  O   UNL     1      -9.910  13.420  69.089  1.00  0.00    -0.401 OA 
HETATM    7  C   UNL     1      -8.371   6.466  70.136  1.00  0.00    -0.134 C  
HETATM    8  C   UNL     1      -9.865  12.637  66.883  1.00  0.00    -0.234 C  
HETATM    9  C   UNL     1      -9.308   6.040  71.237  1.00  0.00    -0.156 C  
HETATM   10  C   UNL     1      -8.699   7.744  69.861  1.00  0.00    -0.142 C  
HETATM   11  C   UNL     1      -9.457  13.918  66.144  1.00  0.00    -0.194 C  
HETATM   12  H   UNL     1     -10.497  13.919  69.644  1.00  0.00     0.000 HD 
HETATM   13  C   UNL     1     -11.316  11.381  66.594  1.00  0.00    -0.230 C  
HETATM   14  C   UNL     1     -11.381  10.104  67.844  1.00  0.00    -0.032 C  
HETATM   15  C   UNL     1      -8.187   8.837  70.780  1.00  0.00    -0.178 C  
HETATM   16  C   UNL     1      -9.964   9.452  68.560  1.00  0.00    -0.173 C  
HETATM   17  C   UNL     1     -10.342   7.031  68.004  1.00  0.00    -0.234 C  
HETATM   18  O   UNL     1     -12.273  10.620  68.857  1.00  0.00    -0.757 OA 
HETATM   19  F   UNL     1      -9.072   8.994  67.553  1.00  0.00    -0.130 F  
HETATM   20  C   UNL     1      -9.102  10.657  69.273  1.00  0.00    -0.117 C  
HETATM   21  C   UNL     1     -10.086   8.016  69.225  1.00  0.00    -0.198 C  
HETATM   22  C   UNL     1     -11.084   7.537  70.272  1.00  0.00    -0.263 C  
HETATM   23  H   UNL     1     -12.307   9.941  69.521  1.00  0.00     0.000 HD 
HETATM   24  O   UNL     1      -8.943   5.275  72.117  1.00  0.00    -0.129 OA 
HETATM   25  C   UNL     1      -7.860  10.090  69.986  1.00  0.00    -0.172 C  
HETATM   26  C   UNL     1     -10.720   6.581  71.166  1.00  0.00    -0.285 C  
ENDROOT
BRANCH   4  27
HETATM   27  C   UNL     1     -11.717  13.669  67.746  1.00  0.00    -0.362 C  
HETATM   28  O   UNL     1     -12.491  13.637  66.774  1.00  0.00    -0.341 OA 
BRANCH  27  29
HETATM   29  C   UNL     1     -11.962  14.821  68.755  1.00  0.00    -0.257 C  
BRANCH  29  30
HETATM   30  O   UNL     1     -11.564  16.114  68.237  1.00  0.00    -0.321 OA 
BRANCH  30  31
HETATM   31  C   UNL     1     -10.368  16.570  68.692  1.00  0.00    -0.287 C  
HETATM   32  O   UNL     1      -9.785  16.144  69.672  1.00  0.00    -0.228 OA 
BRANCH  31  33
HETATM   33  C   UNL     1      -9.837  17.703  67.872  1.00  0.00    -0.300 A  
HETATM   34  C   UNL     1      -8.967  19.900  66.336  1.00  0.00    -0.434 A  
HETATM   35  O   UNL     1      -6.471  19.063  64.628  1.00  0.00    -0.489 OA 
HETATM   36  C   UNL     1     -10.281  19.847  66.782  1.00  0.00    -0.603 A  
HETATM   37  C   UNL     1     -10.716  18.758  67.548  1.00  0.00    -0.474 A  
HETATM   38  O   UNL     1      -5.894  20.375  66.660  1.00  0.00    -0.172 OA 
HETATM   39  O   UNL     1      -5.653  17.959  66.750  1.00  0.00    -0.134 OA 
HETATM   40  C   UNL     1      -8.507  17.759  67.424  1.00  0.00    -0.230 A  
HETATM   41  S   UNL     1      -6.420  18.970  66.072  1.00  0.00    -0.226 S  
HETATM   42  C   UNL     1      -8.100  18.864  66.651  1.00  0.00    -0.280 A  
ENDBRANCH  31  33
ENDBRANCH  30  31
ENDBRANCH  29  30
ENDBRANCH  27  29
ENDBRANCH   4  27
TORSDOF 5
ENDMDL
MODEL       10
REMARK 921   NORMALIZED FREE ENERGY PREDICTED BY IDOCK:   -7.54 KCAL/MOL
REMARK 922        TOTAL FREE ENERGY PREDICTED BY IDOCK:  -10.46 KCAL/MOL
REMARK 923 INTER-LIGAND FREE ENERGY PREDICTED BY IDOCK:  -10.47 KCAL/MOL
REMARK 924 INTRA-LIGAND FREE ENERGY PREDICTED BY IDOCK:    0.02 KCAL/MOL
REMARK 927      BINDING AFFINITY PREDICTED BY RF-SCORE:    0.00 PKD
ROOT
HETATM    1  C   UNL     1     -11.312  12.168  68.102  1.00  0.00    -0.349 C  
HETATM    2  C   UNL     1     -11.932  12.345  66.853  1.00  0.00    -0.266 C  
HETATM    3  C   UNL     1     -10.463  12.037  66.769  1.00  0.00    -0.243 C  
HETATM    4  C   UNL     1      -9.530  11.381  68.503  1.00  0.00    -0.183 C  
HETATM    5  C   UNL     1     -10.392  11.674  65.112  1.00  0.00    -0.326 C  
HETATM    6  O   UNL     1     -10.351  11.065  69.684  1.00  0.00    -0.431 OA 
HETATM    7  C   UNL     1     -10.567  17.961  67.631  1.00  0.00    -0.398 C  
HETATM    8  C   UNL     1     -10.053  10.851  67.372  1.00  0.00    -0.223 C  
HETATM    9  C   UNL     1      -9.661  18.668  68.607  1.00  0.00    -0.377 C  
HETATM   10  C   UNL     1     -10.476  16.653  67.941  1.00  0.00    -0.322 C  
HETATM   11  C   UNL     1     -10.642   9.452  67.147  1.00  0.00    -0.294 C  
HETATM   12  H   UNL     1      -9.923  10.765  70.478  1.00  0.00     0.000 HD 
HETATM   13  C   UNL     1      -8.363  11.645  66.844  1.00  0.00    -0.169 C  
HETATM   14  C   UNL     1      -8.153  13.303  67.478  1.00  0.00    -0.186 C  
HETATM   15  C   UNL     1     -11.270  16.133  69.124  1.00  0.00    -0.336 C  
HETATM   16  C   UNL     1      -9.469  14.393  67.642  1.00  0.00    -0.214 C  
HETATM   17  C   UNL     1      -8.574  16.276  66.240  1.00  0.00    -0.374 C  
HETATM   18  O   UNL     1      -7.469  13.136  68.740  1.00  0.00    -0.164 OA 
HETATM   19  F   UNL     1     -10.164  14.513  66.409  1.00  0.00    -0.262 F  
HETATM   20  C   UNL     1     -10.609  13.737  68.628  1.00  0.00    -0.263 C  
HETATM   21  C   UNL     1      -9.121  15.941  67.694  1.00  0.00    -0.200 C  
HETATM   22  C   UNL     1      -8.141  16.665  68.609  1.00  0.00    -0.237 C  
HETATM   23  H   UNL     1      -7.358  14.017  69.077  1.00  0.00     0.000 HD 
HETATM   24  O   UNL     1      -9.941  19.775  69.042  1.00  0.00    -0.434 OA 
HETATM   25  C   UNL     1     -11.770  14.724  68.851  1.00  0.00    -0.340 C  
HETATM   26  C   UNL     1      -8.383  17.948  68.981  1.00  0.00    -0.029 C  
ENDROOT
BRANCH   4  27
HETATM   27  C   UNL     1      -8.521  10.018  68.856  1.00  0.00    -0.132 C  
HETATM   28  O   UNL     1      -8.436   8.986  68.168  1.00  0.00    -0.127 OA 
BRANCH  27  29
HETATM   29  C   UNL     1      -7.577  10.079  70.085  1.00  0.00    -0.155 C  
BRANCH  29  30
HETATM   30  O   UNL     1      -8.202   9.591  71.297  1.00  0.00    -0.276 OA 
BRANCH  30  31
HETATM   31  C   UNL     1      -8.274   8.239  71.400  1.00  0.00    -0.131 C  
HETATM   32  O   UNL     1      -7.328   7.479  71.306  1.00  0.00    -0.075 OA 
BRANCH  31  33
HETATM   33  C   UNL     1      -9.674   7.754  71.609  1.00  0.00    -0.200 A  
HETATM   34  C   UNL     1     -12.260   6.707  72.011  1.00  0.00    -0.337 A  
HETATM   35  O   UNL     1     -14.390   8.698  70.854  1.00  0.00    -0.095 OA 
HETATM   36  C   UNL     1     -11.166   5.851  71.979  1.00  0.00    -0.330 A  
HETATM   37  C   UNL     1      -9.879   6.370  71.782  1.00  0.00    -0.178 A  
HETATM   38  O   UNL     1     -14.155   8.817  73.326  1.00  0.00    -0.215 OA 
HETATM   39  O   UNL     1     -13.017  10.494  71.987  1.00  0.00    -0.458 OA 
HETATM   40  C   UNL     1     -10.780   8.619  71.644  1.00  0.00    -0.374 A  
HETATM   41  S   UNL     1     -13.485   9.136  71.896  1.00  0.00    -0.455 S  
HETATM   42  C   UNL     1     -12.062   8.069  71.839  1.00  0.00    -0.317 A  
ENDBRANCH  31  33
ENDBRANCH  30  31
ENDBRANCH  29  30
ENDBRANCH  27  29
ENDBRANCH   4  27
TORSDOF 5
ENDMDL
MODEL       11
REMARK 921   NORMALIZED FREE ENERGY PREDICTED BY IDOCK:   -7.51 KCAL/MOL
REMARK 922        TOTAL FREE ENERGY PREDICTED BY IDOCK:  -10.42 KCAL/MOL
REMARK 923 INTER-LIGAND FREE ENERGY PREDICTED BY IDOCK:   -9.77 KCAL/MOL
REMARK 924 INTRA-LIGAND FREE ENERGY PREDICTED BY IDOCK:   -0.65 KCAL/MOL
REMARK 927      BINDING AFFINITY PREDICTED BY RF-SCORE:    0.00 PKD
ROOT
HETATM    1  C   UNL     1     -10.592   6.088  69.656  1.00  0.00    -0.367 C  
HETATM    2  C   UNL     1      -9.840   4.939  69.956  1.00  0.00    -0.304 C  
HETATM    3  C   UNL     1      -9.561   6.108  70.861  1.00  0.00    -0.193 C  
HETATM    4  C   UNL     1     -10.869   7.716  70.766  1.00  0.00    -0.239 C  
HETATM    5  C   UNL     1      -8.713   5.272  72.072  1.00  0.00    -0.133 C  
HETATM    6  O   UNL     1     -12.105   7.591  69.973  1.00  0.00    -0.378 OA 
HETATM    7  C   UNL     1      -6.024   7.158  66.145  1.00  0.00    -0.036 C  
HETATM    8  C   UNL     1     -10.659   6.628  71.543  1.00  0.00    -0.251 C  
HETATM    9  C   UNL     1      -5.896   8.512  65.497  1.00  0.00    -0.044 C  
HETATM   10  C   UNL     1      -7.111   7.241  66.937  1.00  0.00    -0.086 C  
HETATM   11  C   UNL     1     -11.663   5.847  72.401  1.00  0.00    -0.307 C  
HETATM   12  H   UNL     1     -12.703   8.327  69.930  1.00  0.00     0.000 HD 
HETATM   13  C   UNL     1      -9.256   7.883  72.011  1.00  0.00    -0.207 C  
HETATM   14  C   UNL     1      -8.450   8.583  70.576  1.00  0.00    -0.137 C  
HETATM   15  C   UNL     1      -8.482   7.115  66.301  1.00  0.00    -0.138 C  
HETATM   16  C   UNL     1      -8.190   7.678  69.141  1.00  0.00    -0.130 C  
HETATM   17  C   UNL     1      -5.696   7.936  68.980  1.00  0.00    -0.034 C  
HETATM   18  O   UNL     1      -9.185   9.793  70.289  1.00  0.00    -0.282 OA 
HETATM   19  F   UNL     1      -7.511   6.466  69.440  1.00  0.00    -0.082 F  
HETATM   20  C   UNL     1      -9.631   7.140  68.560  1.00  0.00    -0.139 C  
HETATM   21  C   UNL     1      -7.041   8.181  68.168  1.00  0.00    -0.082 C  
HETATM   22  C   UNL     1      -6.840   9.569  67.574  1.00  0.00    -0.083 C  
HETATM   23  H   UNL     1      -8.757  10.165  69.527  1.00  0.00     0.000 HD 
HETATM   24  O   UNL     1      -5.491   8.628  64.349  1.00  0.00    -0.056 OA 
HETATM   25  C   UNL     1      -9.435   6.384  67.232  1.00  0.00    -0.135 C  
HETATM   26  C   UNL     1      -6.260   9.706  66.353  1.00  0.00    -0.068 C  
ENDROOT
BRANCH   4  27
HETATM   27  C   UNL     1     -11.748   8.594  71.972  1.00  0.00    -0.369 C  
HETATM   28  O   UNL     1     -11.970   8.203  73.131  1.00  0.00    -0.192 OA 
BRANCH  27  29
HETATM   29  C   UNL     1     -12.255  10.023  71.643  1.00  0.00    -0.367 C  
BRANCH  29  30
HETATM   30  O   UNL     1     -12.424  10.244  70.221  1.00  0.00    -0.252 OA 
BRANCH  30  31
HETATM   31  C   UNL     1     -12.049  11.474  69.784  1.00  0.00    -0.306 C  
HETATM   32  O   UNL     1     -12.086  12.493  70.449  1.00  0.00    -0.362 OA 
BRANCH  31  33
HETATM   33  C   UNL     1     -11.611  11.466  68.354  1.00  0.00    -0.385 A  
HETATM   34  C   UNL     1     -10.711  11.331  65.686  1.00  0.00    -0.279 A  
HETATM   35  O   UNL     1     -10.877  14.178  64.378  1.00  0.00    -0.353 OA 
HETATM   36  C   UNL     1     -10.299  10.372  66.603  1.00  0.00    -0.292 A  
HETATM   37  C   UNL     1     -10.748  10.435  67.929  1.00  0.00    -0.307 A  
HETATM   38  O   UNL     1     -12.743  12.671  63.726  1.00  0.00    -0.690 OA 
HETATM   39  O   UNL     1     -13.154  14.314  65.467  1.00  0.00    -0.639 OA 
HETATM   40  C   UNL     1     -12.031  12.433  67.426  1.00  0.00    -0.246 A  
HETATM   41  S   UNL     1     -12.075  13.552  64.897  1.00  0.00    -0.421 S  
HETATM   42  C   UNL     1     -11.559  12.347  66.101  1.00  0.00    -0.396 A  
ENDBRANCH  31  33
ENDBRANCH  30  31
ENDBRANCH  29  30
ENDBRANCH  27  29
ENDBRANCH   4  27
TORSDOF 5
ENDMDL
MODEL       12
REMARK 921   NORMALIZED FREE ENERGY PREDICTED BY IDOCK:   -7.47 KCAL/MOL
REMARK 922        TOTAL FREE ENERGY PREDICTED BY IDOCK:  -10.36 KCAL/MOL
REMARK 923 INTER-LIGAND FREE ENERGY PREDICTED BY IDOCK:   -9.82 KCAL/MOL
REMARK 924 INTRA-LIGAND FREE ENERGY PREDICTED BY IDOCK:   -0.55 KCAL/MOL
REMARK 927      BINDING AFFINITY PREDICTED BY RF-SCORE:    0.00 PKD
ROOT
HETATM    1  C   UNL     1     -10.346   9.553  69.254  1.00  0.00    -0.219 C  
HETATM    2  C   UNL     1      -9.424   9.651  70.311  1.00  0.00    -0.300 C  
HETATM    3  C   UNL     1      -8.814   9.827  68.948  1.00  0.00    -0.140 C  
HETATM    4  C   UNL     1     -10.114  10.086  67.352  1.00  0.00    -0.208 C  
HETATM    5  C   UNL     1      -7.315  10.458  69.438  1.00  0.00    -0.123 C  
HETATM    6  O   UNL     1     -11.551  10.273  67.619  1.00  0.00    -0.602 OA 
HETATM    7  C   UNL     1      -8.929   3.880  69.635  1.00  0.00    -0.167 C  
HETATM    8  C   UNL     1      -9.348  10.848  68.167  1.00  0.00    -0.165 C  
HETATM    9  C   UNL     1      -9.384   2.934  68.553  1.00  0.00    -0.187 C  
HETATM   10  C   UNL     1      -9.334   5.101  69.237  1.00  0.00    -0.172 C  
HETATM   11  C   UNL     1      -9.540  12.315  68.575  1.00  0.00    -0.128 C  
HETATM   12  H   UNL     1     -12.146  10.392  66.889  1.00  0.00     0.000 HD 
HETATM   13  C   UNL     1      -8.114   9.997  66.935  1.00  0.00    -0.117 C  
HETATM   14  C   UNL     1      -8.412   8.242  66.763  1.00  0.00    -0.122 C  
HETATM   15  C   UNL     1     -10.786   5.487  69.447  1.00  0.00    -0.312 C  
HETATM   16  C   UNL     1      -8.942   7.272  68.076  1.00  0.00    -0.131 C  
HETATM   17  C   UNL     1      -7.087   5.578  68.063  1.00  0.00    -0.067 C  
HETATM   18  O   UNL     1      -9.320   8.127  65.645  1.00  0.00    -0.413 OA 
HETATM   19  F   UNL     1      -8.070   7.431  69.187  1.00  0.00    -0.112 F  
HETATM   20  C   UNL     1     -10.364   7.857  68.656  1.00  0.00    -0.224 C  
HETATM   21  C   UNL     1      -8.668   5.711  67.976  1.00  0.00    -0.099 C  
HETATM   22  C   UNL     1      -9.037   4.752  66.851  1.00  0.00    -0.118 C  
HETATM   23  H   UNL     1      -9.479   7.195  65.554  1.00  0.00     0.000 HD 
HETATM   24  O   UNL     1      -9.756   1.801  68.819  1.00  0.00    -0.125 OA 
HETATM   25  C   UNL     1     -10.900   6.963  69.790  1.00  0.00    -0.295 C  
HETATM   26  C   UNL     1      -9.316   3.453  67.133  1.00  0.00    -0.224 C  
ENDROOT
BRANCH   4  27
HETATM   27  C   UNL     1     -10.210  11.266  66.087  1.00  0.00    -0.245 C  
HETATM   28  O   UNL     1      -9.240  11.834  65.556  1.00  0.00    -0.175 OA 
BRANCH  27  29
HETATM   29  C   UNL     1     -11.597  11.619  65.490  1.00  0.00    -0.016 C  
BRANCH  29  30
HETATM   30  O   UNL     1     -12.336  12.560  66.307  1.00  0.00    -0.570 OA 
BRANCH  30  31
HETATM   31  C   UNL     1     -12.326  13.841  65.857  1.00  0.00    -0.476 C  
HETATM   32  O   UNL     1     -12.743  14.204  64.773  1.00  0.00    -0.650 OA 
BRANCH  31  33
HETATM   33  C   UNL     1     -11.700  14.787  66.833  1.00  0.00    -0.316 A  
HETATM   34  C   UNL     1     -10.610  16.519  68.772  1.00  0.00    -0.322 A  
HETATM   35  O   UNL     1      -9.232  18.952  67.348  1.00  0.00    -0.283 OA 
HETATM   36  C   UNL     1     -11.651  15.667  69.115  1.00  0.00    -0.393 A  
HETATM   37  C   UNL     1     -12.193  14.803  68.154  1.00  0.00    -0.047 A  
HETATM   38  O   UNL     1      -7.631  17.219  68.132  1.00  0.00    -0.197 OA 
HETATM   39  O   UNL     1      -8.261  17.217  65.786  1.00  0.00    -0.533 OA 
HETATM   40  C   UNL     1     -10.643  15.646  66.487  1.00  0.00    -0.307 A  
HETATM   41  S   UNL     1      -8.780  17.604  67.071  1.00  0.00    -0.249 S  
HETATM   42  C   UNL     1     -10.123  16.507  67.473  1.00  0.00    -0.267 A  
ENDBRANCH  31  33
ENDBRANCH  30  31
ENDBRANCH  29  30
ENDBRANCH  27  29
ENDBRANCH   4  27
TORSDOF 5
ENDMDL
MODEL       13
REMARK 921   NORMALIZED FREE ENERGY PREDICTED BY IDOCK:   -7.46 KCAL/MOL
REMARK 922        TOTAL FREE ENERGY PREDICTED BY IDOCK:  -10.36 KCAL/MOL
REMARK 923 INTER-LIGAND FREE ENERGY PREDICTED BY IDOCK:  -10.17 KCAL/MOL
REMARK 924 INTRA-LIGAND FREE ENERGY PREDICTED BY IDOCK:   -0.19 KCAL/MOL
REMARK 927      BINDING AFFINITY PREDICTED BY RF-SCORE:    0.00 PKD
ROOT
HETATM    1  C   UNL     1      -8.559   8.662  65.598  1.00  0.00    -0.191 C  
HETATM    2  C   UNL     1      -7.323   9.318  65.468  1.00  0.00    -0.090 C  
HETATM    3  C   UNL     1      -7.868   9.312  66.869  1.00  0.00    -0.098 C  
HETATM    4  C   UNL     1      -9.475   8.057  67.257  1.00  0.00    -0.155 C  
HETATM    5  C   UNL     1      -6.455   9.799  67.675  1.00  0.00    -0.067 C  
HETATM    6  O   UNL     1      -9.901   7.096  66.224  1.00  0.00    -0.410 OA 
HETATM    7  C   UNL     1     -10.598  14.014  64.362  1.00  0.00    -0.196 C  
HETATM    8  C   UNL     1      -8.130   8.059  67.416  1.00  0.00    -0.122 C  
HETATM    9  C   UNL     1     -12.070  14.297  64.526  1.00  0.00    -0.480 C  
HETATM   10  C   UNL     1     -10.427  12.748  64.787  1.00  0.00    -0.357 C  
HETATM   11  C   UNL     1      -7.167   6.866  67.490  1.00  0.00    -0.090 C  
HETATM   12  H   UNL     1     -10.636   6.522  66.402  1.00  0.00     0.000 HD 
HETATM   13  C   UNL     1      -8.820   9.252  68.782  1.00  0.00    -0.132 C  
HETATM   14  C   UNL     1     -10.015  10.417  68.139  1.00  0.00    -0.149 C  
HETATM   15  C   UNL     1     -10.795  11.613  63.850  1.00  0.00    -0.471 C  
HETATM   16  C   UNL     1      -9.885  11.085  66.563  1.00  0.00    -0.203 C  
HETATM   17  C   UNL     1      -9.874  13.519  67.186  1.00  0.00    -0.245 C  
HETATM   18  O   UNL     1     -11.296   9.772  68.315  1.00  0.00    -0.520 OA 
HETATM   19  F   UNL     1      -8.604  11.673  66.383  1.00  0.00    -0.177 F  
HETATM   20  C   UNL     1      -9.877   9.875  65.451  1.00  0.00    -0.384 C  
HETATM   21  C   UNL     1     -10.644  12.453  66.294  1.00  0.00    -0.277 C  
HETATM   22  C   UNL     1     -12.110  12.789  66.538  1.00  0.00    -0.338 C  
HETATM   23  H   UNL     1     -11.930  10.391  67.973  1.00  0.00     0.000 HD 
HETATM   24  O   UNL     1     -12.670  15.006  63.732  1.00  0.00    -0.741 OA 
HETATM   25  C   UNL     1      -9.833  10.449  64.021  1.00  0.00    -0.355 C  
HETATM   26  C   UNL     1     -12.741  13.687  65.738  1.00  0.00    -0.470 C  
ENDROOT
BRANCH   4  27
HETATM   27  C   UNL     1      -9.769   6.860  68.473  1.00  0.00    -0.138 C  
HETATM   28  O   UNL     1      -8.895   6.272  69.133  1.00  0.00    -0.128 OA 
BRANCH  27  29
HETATM   29  C   UNL     1     -11.234   6.515  68.851  1.00  0.00    -0.264 C  
BRANCH  29  30
HETATM   30  O   UNL     1     -11.423   6.363  70.279  1.00  0.00    -0.370 OA 
BRANCH  30  31
HETATM   31  C   UNL     1     -11.288   7.506  71.000  1.00  0.00    -0.273 C  
HETATM   32  O   UNL     1     -11.821   8.568  70.733  1.00  0.00    -0.262 OA 
BRANCH  31  33
HETATM   33  C   UNL     1     -10.365   7.343  72.166  1.00  0.00    -0.232 A  
HETATM   34  C   UNL     1      -8.727   6.959  74.428  1.00  0.00    -0.208 A  
HETATM   35  O   UNL     1      -6.567   9.231  74.557  1.00  0.00    -0.366 OA 
HETATM   36  C   UNL     1     -10.005   6.417  74.401  1.00  0.00    -0.362 A  
HETATM   37  C   UNL     1     -10.820   6.604  73.277  1.00  0.00    -0.290 A  
HETATM   38  O   UNL     1      -5.695   7.076  73.676  1.00  0.00    -0.053 OA 
HETATM   39  O   UNL     1      -6.282   8.811  72.080  1.00  0.00    -0.074 OA 
HETATM   40  C   UNL     1      -9.070   7.889  72.191  1.00  0.00    -0.205 A  
HETATM   41  S   UNL     1      -6.629   8.360  73.402  1.00  0.00    -0.074 S  
HETATM   42  C   UNL     1      -8.276   7.688  73.338  1.00  0.00    -0.151 A  
ENDBRANCH  31  33
ENDBRANCH  30  31
ENDBRANCH  29  30
ENDBRANCH  27  29
ENDBRANCH   4  27
TORSDOF 5
ENDMDL
MODEL       14
REMARK 921   NORMALIZED FREE ENERGY PREDICTED BY IDOCK:   -7.43 KCAL/MOL
REMARK 922        TOTAL FREE ENERGY PREDICTED BY IDOCK:  -10.32 KCAL/MOL
REMARK 923 INTER-LIGAND FREE ENERGY PREDICTED BY IDOCK:  -10.25 KCAL/MOL
REMARK 924 INTRA-LIGAND FREE ENERGY PREDICTED BY IDOCK:   -0.07 KCAL/MOL
REMARK 927      BINDING AFFINITY PREDICTED BY RF-SCORE:    0.00 PKD
ROOT
HETATM    1  C   UNL     1     -11.420  12.328  67.869  1.00  0.00    -0.390 C  
HETATM    2  C   UNL     1     -11.900  12.434  66.553  1.00  0.00    -0.407 C  
HETATM    3  C   UNL     1     -10.430  12.133  66.646  1.00  0.00    -0.248 C  
HETATM    4  C   UNL     1      -9.690  11.578  68.504  1.00  0.00    -0.189 C  
HETATM    5  C   UNL     1     -10.177  11.683  65.028  1.00  0.00    -0.321 C  
HETATM    6  O   UNL     1     -10.634  11.319  69.604  1.00  0.00    -0.440 OA 
HETATM    7  C   UNL     1     -10.640  18.094  67.172  1.00  0.00    -0.362 C  
HETATM    8  C   UNL     1     -10.085  10.984  67.353  1.00  0.00    -0.216 C  
HETATM    9  C   UNL     1      -9.848  18.859  68.201  1.00  0.00    -0.368 C  
HETATM   10  C   UNL     1     -10.581  16.805  67.560  1.00  0.00    -0.309 C  
HETATM   11  C   UNL     1     -10.643   9.570  67.141  1.00  0.00    -0.295 C  
HETATM   12  H   UNL     1     -10.296  11.065  70.454  1.00  0.00     0.000 HD 
HETATM   13  C   UNL     1      -8.350  11.762  66.970  1.00  0.00    -0.172 C  
HETATM   14  C   UNL     1      -8.213  13.454  67.533  1.00  0.00    -0.185 C  
HETATM   15  C   UNL     1     -11.498  16.342  68.675  1.00  0.00    -0.288 C  
HETATM   16  C   UNL     1      -9.542  14.541  67.494  1.00  0.00    -0.210 C  
HETATM   17  C   UNL     1      -8.503  16.353  66.099  1.00  0.00    -0.329 C  
HETATM   18  O   UNL     1      -7.672  13.359  68.870  1.00  0.00    -0.280 OA 
HETATM   19  F   UNL     1     -10.099  14.589  66.188  1.00  0.00    -0.261 F  
HETATM   20  C   UNL     1     -10.781  13.928  68.383  1.00  0.00    -0.267 C  
HETATM   21  C   UNL     1      -9.206  16.092  67.500  1.00  0.00    -0.214 C  
HETATM   22  C   UNL     1      -8.333  16.871  68.477  1.00  0.00    -0.257 C  
HETATM   23  H   UNL     1      -7.600  14.258  69.169  1.00  0.00     0.000 HD 
HETATM   24  O   UNL     1     -10.176  19.985  68.543  1.00  0.00    -0.442 OA 
HETATM   25  C   UNL     1     -11.962  14.917  68.425  1.00  0.00    -0.255 C  
HETATM   26  C   UNL     1      -8.617  18.171  68.750  1.00  0.00    -0.222 C  
ENDROOT
BRANCH   4  27
HETATM   27  C   UNL     1      -8.723  10.244  69.037  1.00  0.00    -0.163 C  
HETATM   28  O   UNL     1      -7.717   9.803  68.455  1.00  0.00    -0.080 OA 
BRANCH  27  29
HETATM   29  C   UNL     1      -9.064   9.559  70.387  1.00  0.00    -0.246 C  
BRANCH  29  30
HETATM   30  O   UNL     1     -10.139   8.596  70.271  1.00  0.00    -0.181 OA 
BRANCH  30  31
HETATM   31  C   UNL     1     -10.881   8.425  71.396  1.00  0.00    -0.244 C  
HETATM   32  O   UNL     1     -11.761   9.177  71.773  1.00  0.00    -0.346 OA 
BRANCH  31  33
HETATM   33  C   UNL     1     -10.476   7.212  72.171  1.00  0.00    -0.231 A  
HETATM   34  C   UNL     1      -9.734   4.999  73.753  1.00  0.00    -0.151 A  
HETATM   35  O   UNL     1      -7.984   3.031  72.047  1.00  0.00    -0.053 OA 
HETATM   36  C   UNL     1     -10.073   6.200  74.362  1.00  0.00    -0.337 A  
HETATM   37  C   UNL     1     -10.446   7.301  73.578  1.00  0.00    -0.421 A  
HETATM   38  O   UNL     1     -10.346   2.300  72.300  1.00  0.00    -0.157 OA 
HETATM   39  O   UNL     1      -9.706   3.406  70.234  1.00  0.00    -0.176 OA 
HETATM   40  C   UNL     1     -10.137   5.996  71.555  1.00  0.00    -0.232 A  
HETATM   41  S   UNL     1      -9.331   3.351  71.622  1.00  0.00    -0.148 S  
HETATM   42  C   UNL     1      -9.762   4.908  72.369  1.00  0.00    -0.157 A  
ENDBRANCH  31  33
ENDBRANCH  30  31
ENDBRANCH  29  30
ENDBRANCH  27  29
ENDBRANCH   4  27
TORSDOF 5
ENDMDL
MODEL       15
REMARK 921   NORMALIZED FREE ENERGY PREDICTED BY IDOCK:   -7.43 KCAL/MOL
REMARK 922        TOTAL FREE ENERGY PREDICTED BY IDOCK:  -10.31 KCAL/MOL
REMARK 923 INTER-LIGAND FREE ENERGY PREDICTED BY IDOCK:  -10.21 KCAL/MOL
REMARK 924 INTRA-LIGAND FREE ENERGY PREDICTED BY IDOCK:   -0.10 KCAL/MOL
REMARK 927      BINDING AFFINITY PREDICTED BY RF-SCORE:    0.00 PKD
ROOT
HETATM    1  C   UNL     1      -7.519   9.907  68.238  1.00  0.00    -0.080 C  
HETATM    2  C   UNL     1      -6.362   9.110  68.241  1.00  0.00    -0.054 C  
HETATM    3  C   UNL     1      -7.407   8.668  67.255  1.00  0.00    -0.088 C  
HETATM    4  C   UNL     1      -8.978   9.974  66.886  1.00  0.00    -0.135 C  
HETATM    5  C   UNL     1      -6.442   7.605  66.347  1.00  0.00    -0.049 C  
HETATM    6  O   UNL     1      -8.924  11.336  67.444  1.00  0.00    -0.142 OA 
HETATM    7  C   UNL     1      -9.169   6.083  72.360  1.00  0.00    -0.143 C  
HETATM    8  C   UNL     1      -7.802   9.619  66.317  1.00  0.00    -0.101 C  
HETATM    9  C   UNL     1     -10.601   6.083  72.832  1.00  0.00    -0.235 C  
HETATM   10  C   UNL     1      -9.117   7.002  71.376  1.00  0.00    -0.147 C  
HETATM   11  C   UNL     1      -6.888  10.442  65.400  1.00  0.00    -0.120 C  
HETATM   12  H   UNL     1      -9.643  11.933  67.276  1.00  0.00     0.000 HD 
HETATM   13  C   UNL     1      -9.023   8.155  65.952  1.00  0.00    -0.195 C  
HETATM   14  C   UNL     1      -9.928   7.635  67.404  1.00  0.00    -0.192 C  
HETATM   15  C   UNL     1      -9.039   8.468  71.757  1.00  0.00    -0.304 C  
HETATM   16  C   UNL     1      -9.228   7.648  68.971  1.00  0.00    -0.140 C  
HETATM   17  C   UNL     1      -9.574   5.230  69.557  1.00  0.00    -0.213 C  
HETATM   18  O   UNL     1     -11.145   8.413  67.382  1.00  0.00    -0.441 OA 
HETATM   19  F   UNL     1      -8.007   6.922  68.970  1.00  0.00    -0.107 F  
HETATM   20  C   UNL     1      -8.733   9.171  69.341  1.00  0.00    -0.140 C  
HETATM   21  C   UNL     1      -9.887   6.704  70.064  1.00  0.00    -0.178 C  
HETATM   22  C   UNL     1     -11.347   6.621  70.492  1.00  0.00    -0.413 C  
HETATM   23  H   UNL     1     -11.626   8.137  68.154  1.00  0.00     0.000 HD 
HETATM   24  O   UNL     1     -10.879   5.901  74.008  1.00  0.00    -0.167 OA 
HETATM   25  C   UNL     1      -8.166   9.228  70.772  1.00  0.00    -0.210 C  
HETATM   26  C   UNL     1     -11.660   6.281  71.769  1.00  0.00    -0.358 C  
ENDROOT
BRANCH   4  27
HETATM   27  C   UNL     1      -9.664  10.612  65.430  1.00  0.00    -0.252 C  
HETATM   28  O   UNL     1      -9.756  10.004  64.349  1.00  0.00    -0.305 OA 
BRANCH  27  29
HETATM   29  C   UNL     1     -10.294  12.029  65.452  1.00  0.00    -0.266 C  
BRANCH  29  30
HETATM   30  O   UNL     1     -11.608  12.049  66.060  1.00  0.00    -0.371 OA 
BRANCH  30  31
HETATM   31  C   UNL     1     -12.267  13.233  65.962  1.00  0.00    -0.424 C  
HETATM   32  O   UNL     1     -13.109  13.496  65.123  1.00  0.00    -0.737 OA 
BRANCH  31  33
HETATM   33  C   UNL     1     -11.821  14.225  66.989  1.00  0.00    -0.455 A  
HETATM   34  C   UNL     1     -11.034  16.008  69.025  1.00  0.00    -0.296 A  
HETATM   35  O   UNL     1     -10.718  18.891  67.829  1.00  0.00    -0.413 OA 
HETATM   36  C   UNL     1     -11.693  14.831  69.355  1.00  0.00    -0.358 A  
HETATM   37  C   UNL     1     -12.083  13.941  68.345  1.00  0.00    -0.327 A  
HETATM   38  O   UNL     1      -8.557  17.707  68.159  1.00  0.00    -0.245 OA 
HETATM   39  O   UNL     1      -9.513  17.742  65.927  1.00  0.00    -0.521 OA 
HETATM   40  C   UNL     1     -11.151  15.413  66.655  1.00  0.00    -0.236 A  
HETATM   41  S   UNL     1      -9.920  17.803  67.306  1.00  0.00    -0.338 S  
HETATM   42  C   UNL     1     -10.776  16.291  67.692  1.00  0.00    -0.311 A  
ENDBRANCH  31  33
ENDBRANCH  30  31
ENDBRANCH  29  30
ENDBRANCH  27  29
ENDBRANCH   4  27
TORSDOF 5
ENDMDL
MODEL       16
REMARK 921   NORMALIZED FREE ENERGY PREDICTED BY IDOCK:   -7.36 KCAL/MOL
REMARK 922        TOTAL FREE ENERGY PREDICTED BY IDOCK:  -10.22 KCAL/MOL
REMARK 923 INTER-LIGAND FREE ENERGY PREDICTED BY IDOCK:  -10.13 KCAL/MOL
REMARK 924 INTRA-LIGAND FREE ENERGY PREDICTED BY IDOCK:   -0.09 KCAL/MOL
REMARK 927      BINDING AFFINITY PREDICTED BY RF-SCORE:    0.00 PKD
ROOT
HETATM    1  C   UNL     1      -9.573  14.380  69.099  1.00  0.00     0.020 C  
HETATM    2  C   UNL     1     -10.292  14.869  70.204  1.00  0.00     0.040 C  
HETATM    3  C   UNL     1     -11.032  14.969  68.899  1.00  0.00    -0.256 C  
HETATM    4  C   UNL     1     -10.243  13.941  67.278  1.00  0.00    -0.249 C  
HETATM    5  C   UNL     1     -12.576  15.293  69.528  1.00  0.00    -0.021 C  
HETATM    6  O   UNL     1      -9.117  13.017  67.493  1.00  0.00    -0.174 OA 
HETATM    7  C   UNL     1      -7.658  19.916  68.940  1.00  0.00    -0.207 C  
HETATM    8  C   UNL     1     -11.214  13.775  68.207  1.00  0.00    -0.301 C  
HETATM    9  C   UNL     1      -6.874  20.388  67.742  1.00  0.00    -0.301 C  
HETATM   10  C   UNL     1      -8.018  18.649  68.655  1.00  0.00    -0.356 C  
HETATM   11  C   UNL     1     -11.805  12.471  68.759  1.00  0.00    -0.347 C  
HETATM   12  H   UNL     1      -8.756  12.547  66.751  1.00  0.00     0.000 HD 
HETATM   13  C   UNL     1     -11.909  15.083  66.953  1.00  0.00    -0.110 C  
HETATM   14  C   UNL     1     -10.730  16.374  66.580  1.00  0.00    -0.163 C  
HETATM   15  C   UNL     1      -6.991  17.546  68.834  1.00  0.00    -0.252 C  
HETATM   16  C   UNL     1      -9.632  16.978  67.754  1.00  0.00    -0.244 C  
HETATM   17  C   UNL     1     -10.270  19.406  67.650  1.00  0.00    -0.526 C  
HETATM   18  O   UNL     1     -10.019  15.904  65.413  1.00  0.00    -0.399 OA 
HETATM   19  F   UNL     1     -10.336  17.391  68.917  1.00  0.00    -0.295 F  
HETATM   20  C   UNL     1      -8.702  15.748  68.323  1.00  0.00    -0.172 C  
HETATM   21  C   UNL     1      -9.029  18.424  67.501  1.00  0.00    -0.271 C  
HETATM   22  C   UNL     1      -8.315  18.953  66.263  1.00  0.00    -0.274 C  
HETATM   23  H   UNL     1      -9.393  16.590  65.215  1.00  0.00     0.000 HD 
HETATM   24  O   UNL     1      -5.925  21.148  67.867  1.00  0.00    -0.318 OA 
HETATM   25  C   UNL     1      -7.659  16.273  69.327  1.00  0.00    -0.203 C  
HETATM   26  C   UNL     1      -7.352  19.903  66.391  1.00  0.00    -0.291 C  
ENDROOT
BRANCH   4  27
HETATM   27  C   UNL     1     -10.926  12.825  66.144  1.00  0.00    -0.283 C  
HETATM   28  O   UNL     1     -11.991  12.988  65.523  1.00  0.00    -0.374 OA 
BRANCH  27  29
HETATM   29  C   UNL     1     -10.140  11.535  65.792  1.00  0.00    -0.237 C  
BRANCH  29  30
HETATM   30  O   UNL     1     -10.668  10.359  66.453  1.00  0.00    -0.167 OA 
BRANCH  30  31
HETATM   31  C   UNL     1      -9.762   9.371  66.675  1.00  0.00    -0.219 C  
HETATM   32  O   UNL     1      -8.670   9.292  66.143  1.00  0.00    -0.138 OA 
BRANCH  31  33
HETATM   33  C   UNL     1     -10.264   8.338  67.633  1.00  0.00    -0.294 A  
HETATM   34  C   UNL     1     -11.202   6.294  69.333  1.00  0.00    -0.489 A  
HETATM   35  O   UNL     1     -12.793   7.563  71.720  1.00  0.00    -0.326 OA 
HETATM   36  C   UNL     1     -10.910   6.008  68.005  1.00  0.00    -0.374 A  
HETATM   37  C   UNL     1     -10.440   7.021  67.159  1.00  0.00    -0.383 A  
HETATM   38  O   UNL     1     -10.482   6.872  72.319  1.00  0.00    -0.202 OA 
HETATM   39  O   UNL     1     -10.886   9.218  71.836  1.00  0.00    -0.351 OA 
HETATM   40  C   UNL     1     -10.556   8.626  68.976  1.00  0.00    -0.179 A  
HETATM   41  S   UNL     1     -11.405   7.916  71.511  1.00  0.00    -0.266 S  
HETATM   42  C   UNL     1     -11.031   7.588  69.802  1.00  0.00    -0.184 A  
ENDBRANCH  31  33
ENDBRANCH  30  31
ENDBRANCH  29  30
ENDBRANCH  27  29
ENDBRANCH   4  27
TORSDOF 5
ENDMDL
MODEL       17
REMARK 921   NORMALIZED FREE ENERGY PREDICTED BY IDOCK:   -7.34 KCAL/MOL
REMARK 922        TOTAL FREE ENERGY PREDICTED BY IDOCK:  -10.19 KCAL/MOL
REMARK 923 INTER-LIGAND FREE ENERGY PREDICTED BY IDOCK:  -10.54 KCAL/MOL
REMARK 924 INTRA-LIGAND FREE ENERGY PREDICTED BY IDOCK:    0.35 KCAL/MOL
REMARK 927      BINDING AFFINITY PREDICTED BY RF-SCORE:    0.00 PKD
ROOT
HETATM    1  C   UNL     1      -8.298  10.919  68.083  1.00  0.00    -0.123 C  
HETATM    2  C   UNL     1      -8.151   9.897  67.129  1.00  0.00    -0.117 C  
HETATM    3  C   UNL     1      -9.572  10.343  67.334  1.00  0.00    -0.178 C  
HETATM    4  C   UNL     1      -9.873  12.087  68.418  1.00  0.00    -0.204 C  
HETATM    5  C   UNL     1     -10.252   9.605  65.964  1.00  0.00    -0.255 C  
HETATM    6  O   UNL     1      -8.711  12.914  68.784  1.00  0.00    -0.374 OA 
HETATM    7  C   UNL     1      -8.755   6.337  71.708  1.00  0.00    -0.133 C  
HETATM    8  C   UNL     1      -9.824  11.697  67.123  1.00  0.00    -0.205 C  
HETATM    9  C   UNL     1      -9.204   6.565  73.128  1.00  0.00    -0.127 C  
HETATM   10  C   UNL     1      -8.821   7.544  71.113  1.00  0.00    -0.142 C  
HETATM   11  C   UNL     1      -9.453  12.520  65.882  1.00  0.00    -0.111 C  
HETATM   12  H   UNL     1      -8.849  13.712  69.280  1.00  0.00     0.000 HD 
HETATM   13  C   UNL     1     -11.531  11.065  67.794  1.00  0.00    -0.339 C  
HETATM   14  C   UNL     1     -11.386  10.229  69.369  1.00  0.00    -0.221 C  
HETATM   15  C   UNL     1      -7.698   8.534  71.357  1.00  0.00    -0.131 C  
HETATM   16  C   UNL     1     -10.025   9.264  69.770  1.00  0.00    -0.199 C  
HETATM   17  C   UNL     1     -11.225   7.116  70.279  1.00  0.00    -0.309 C  
HETATM   18  O   UNL     1     -11.587  11.263  70.358  1.00  0.00    -0.412 OA 
HETATM   19  F   UNL     1      -9.805   8.283  68.765  1.00  0.00    -0.159 F  
HETATM   20  C   UNL     1      -8.658  10.173  69.679  1.00  0.00    -0.170 C  
HETATM   21  C   UNL     1     -10.222   8.176  70.909  1.00  0.00    -0.216 C  
HETATM   22  C   UNL     1     -10.760   8.367  72.322  1.00  0.00    -0.417 C  
HETATM   23  H   UNL     1     -11.510  10.819  71.194  1.00  0.00     0.000 HD 
HETATM   24  O   UNL     1      -8.711   5.939  74.055  1.00  0.00    -0.120 OA 
HETATM   25  C   UNL     1      -7.427   9.350  70.104  1.00  0.00    -0.120 C  
HETATM   26  C   UNL     1     -10.313   7.575  73.330  1.00  0.00    -0.412 C  
ENDROOT
BRANCH   4  27
HETATM   27  C   UNL     1     -10.784  13.527  68.107  1.00  0.00    -0.252 C  
HETATM   28  O   UNL     1     -12.020  13.631  68.191  1.00  0.00    -0.362 OA 
BRANCH  27  29
HETATM   29  C   UNL     1     -10.027  14.836  67.762  1.00  0.00    -0.223 C  
BRANCH  29  30
HETATM   30  O   UNL     1     -10.903  15.873  67.256  1.00  0.00    -0.319 OA 
BRANCH  30  31
HETATM   31  C   UNL     1     -10.409  16.578  66.206  1.00  0.00    -0.320 C  
HETATM   32  O   UNL     1     -10.446  16.219  65.043  1.00  0.00    -0.621 OA 
BRANCH  31  33
HETATM   33  C   UNL     1      -9.762  17.859  66.629  1.00  0.00    -0.319 A  
HETATM   34  C   UNL     1      -8.664  20.340  67.392  1.00  0.00    -0.428 A  
HETATM   35  O   UNL     1      -5.533  20.184  67.271  1.00  0.00    -0.167 OA 
HETATM   36  C   UNL     1      -9.962  20.282  66.902  1.00  0.00    -0.592 A  
HETATM   37  C   UNL     1     -10.511  19.049  66.525  1.00  0.00    -0.522 A  
HETATM   38  O   UNL     1      -6.452  19.989  69.572  1.00  0.00    -0.333 OA 
HETATM   39  O   UNL     1      -5.810  17.949  68.420  1.00  0.00    -0.167 OA 
HETATM   40  C   UNL     1      -8.450  17.918  67.128  1.00  0.00    -0.242 A  
HETATM   41  S   UNL     1      -6.266  19.284  68.136  1.00  0.00    -0.220 S  
HETATM   42  C   UNL     1      -7.923  19.172  67.494  1.00  0.00    -0.257 A  
ENDBRANCH  31  33
ENDBRANCH  30  31
ENDBRANCH  29  30
ENDBRANCH  27  29
ENDBRANCH   4  27
TORSDOF 5
ENDMDL
MODEL       18
REMARK 921   NORMALIZED FREE ENERGY PREDICTED BY IDOCK:   -7.24 KCAL/MOL
REMARK 922        TOTAL FREE ENERGY PREDICTED BY IDOCK:  -10.07 KCAL/MOL
REMARK 923 INTER-LIGAND FREE ENERGY PREDICTED BY IDOCK:  -10.29 KCAL/MOL
REMARK 924 INTRA-LIGAND FREE ENERGY PREDICTED BY IDOCK:    0.22 KCAL/MOL
REMARK 927      BINDING AFFINITY PREDICTED BY RF-SCORE:    0.00 PKD
ROOT
HETATM    1  C   UNL     1     -11.420  15.013  67.228  1.00  0.00    -0.312 C  
HETATM    2  C   UNL     1     -11.405  15.295  65.851  1.00  0.00    -0.172 C  
HETATM    3  C   UNL     1     -10.416  14.243  66.272  1.00  0.00    -0.291 C  
HETATM    4  C   UNL     1     -10.606  13.473  68.189  1.00  0.00    -0.245 C  
HETATM    5  C   UNL     1     -10.038  13.643  64.728  1.00  0.00    -0.268 C  
HETATM    6  O   UNL     1     -11.787  13.832  68.993  1.00  0.00    -0.315 OA 
HETATM    7  C   UNL     1      -7.495  19.363  67.320  1.00  0.00    -0.254 C  
HETATM    8  C   UNL     1     -10.945  13.132  66.923  1.00  0.00    -0.295 C  
HETATM    9  C   UNL     1      -6.714  19.623  68.583  1.00  0.00    -0.297 C  
HETATM   10  C   UNL     1      -8.245  18.276  67.580  1.00  0.00    -0.254 C  
HETATM   11  C   UNL     1     -12.102  12.246  66.441  1.00  0.00    -0.123 C  
HETATM   12  H   UNL     1     -11.874  13.480  69.871  1.00  0.00     0.000 HD 
HETATM   13  C   UNL     1      -9.036  12.811  67.057  1.00  0.00    -0.220 C  
HETATM   14  C   UNL     1      -8.158  14.179  67.802  1.00  0.00    -0.166 C  
HETATM   15  C   UNL     1      -9.519  18.450  68.386  1.00  0.00    -0.352 C  
HETATM   16  C   UNL     1      -8.623  15.812  67.547  1.00  0.00    -0.166 C  
HETATM   17  C   UNL     1      -6.449  16.683  66.636  1.00  0.00    -0.114 C  
HETATM   18  O   UNL     1      -8.122  13.874  69.214  1.00  0.00    -0.337 OA 
HETATM   19  F   UNL     1      -8.703  16.088  66.155  1.00  0.00    -0.303 F  
HETATM   20  C   UNL     1     -10.176  16.027  68.040  1.00  0.00    -0.245 C  
HETATM   21  C   UNL     1      -7.516  16.924  67.790  1.00  0.00    -0.176 C  
HETATM   22  C   UNL     1      -6.649  17.148  69.023  1.00  0.00    -0.218 C  
HETATM   23  H   UNL     1      -7.656  14.601  69.609  1.00  0.00     0.000 HD 
HETATM   24  O   UNL     1      -6.455  20.761  68.944  1.00  0.00    -0.228 OA 
HETATM   25  C   UNL     1     -10.597  17.501  67.889  1.00  0.00    -0.390 C  
HETATM   26  C   UNL     1      -6.244  18.403  69.346  1.00  0.00    -0.266 C  
ENDROOT
BRANCH   4  27
HETATM   27  C   UNL     1     -10.693  11.858  68.808  1.00  0.00    -0.224 C  
HETATM   28  O   UNL     1      -9.785  11.011  68.744  1.00  0.00    -0.188 OA 
BRANCH  27  29
HETATM   29  C   UNL     1     -11.965  11.414  69.577  1.00  0.00    -0.341 C  
BRANCH  29  30
HETATM   30  O   UNL     1     -11.666  10.859  70.881  1.00  0.00    -0.306 OA 
BRANCH  30  31
HETATM   31  C   UNL     1     -12.432   9.797  71.242  1.00  0.00    -0.367 C  
HETATM   32  O   UNL     1     -13.647   9.808  71.324  1.00  0.00    -0.344 OA 
BRANCH  31  33
HETATM   33  C   UNL     1     -11.616   8.589  71.576  1.00  0.00    -0.352 A  
HETATM   34  C   UNL     1     -10.190   6.231  72.168  1.00  0.00    -0.208 A  
HETATM   35  O   UNL     1      -7.889   6.878  74.200  1.00  0.00    -0.105 OA 
HETATM   36  C   UNL     1     -11.498   6.149  71.708  1.00  0.00    -0.342 A  
HETATM   37  C   UNL     1     -12.208   7.320  71.410  1.00  0.00    -0.384 A  
HETATM   38  O   UNL     1      -7.108   6.650  71.851  1.00  0.00    -0.077 OA 
HETATM   39  O   UNL     1      -7.444   8.888  72.733  1.00  0.00    -0.354 OA 
HETATM   40  C   UNL     1     -10.292   8.671  72.038  1.00  0.00    -0.416 A  
HETATM   41  S   UNL     1      -7.923   7.544  72.915  1.00  0.00    -0.112 S  
HETATM   42  C   UNL     1      -9.605   7.477  72.334  1.00  0.00    -0.159 A  
ENDBRANCH  31  33
ENDBRANCH  30  31
ENDBRANCH  29  30
ENDBRANCH  27  29
ENDBRANCH   4  27
TORSDOF 5
ENDMDL
MODEL       19
REMARK 921   NORMALIZED FREE ENERGY PREDICTED BY IDOCK:   -7.19 KCAL/MOL
REMARK 922        TOTAL FREE ENERGY PREDICTED BY IDOCK:  -10.00 KCAL/MOL
REMARK 923 INTER-LIGAND FREE ENERGY PREDICTED BY IDOCK:   -9.48 KCAL/MOL
REMARK 924 INTRA-LIGAND FREE ENERGY PREDICTED BY IDOCK:   -0.51 KCAL/MOL
REMARK 927      BINDING AFFINITY PREDICTED BY RF-SCORE:    0.00 PKD
ROOT
HETATM    1  C   UNL     1      -7.850   8.606  64.347  1.00  0.00    -0.138 C  
HETATM    2  C   UNL     1      -6.716   9.417  64.169  1.00  0.00    -0.095 C  
HETATM    3  C   UNL     1      -7.031   9.112  65.607  1.00  0.00    -0.081 C  
HETATM    4  C   UNL     1      -8.433   7.628  65.978  1.00  0.00    -0.144 C  
HETATM    5  C   UNL     1      -5.559   9.622  66.285  1.00  0.00    -0.052 C  
HETATM    6  O   UNL     1      -8.926   6.810  64.856  1.00  0.00    -0.303 OA 
HETATM    7  C   UNL     1     -10.544  13.810  64.408  1.00  0.00    -0.316 C  
HETATM    8  C   UNL     1      -7.087   7.763  65.947  1.00  0.00    -0.064 C  
HETATM    9  C   UNL     1     -11.991  13.884  64.823  1.00  0.00    -0.406 C  
HETATM   10  C   UNL     1     -10.191  12.519  64.566  1.00  0.00    -0.332 C  
HETATM   11  C   UNL     1      -6.018   6.698  65.666  1.00  0.00    -0.034 C  
HETATM   12  H   UNL     1      -9.568   6.131  65.026  1.00  0.00     0.000 HD 
HETATM   13  C   UNL     1      -7.660   8.620  67.590  1.00  0.00    -0.098 C  
HETATM   14  C   UNL     1      -9.043   9.726  67.344  1.00  0.00    -0.134 C  
HETATM   15  C   UNL     1     -10.596  11.522  63.497  1.00  0.00    -0.487 C  
HETATM   16  C   UNL     1      -9.225  10.659  65.914  1.00  0.00    -0.182 C  
HETATM   17  C   UNL     1      -9.341  12.938  66.965  1.00  0.00    -0.235 C  
HETATM   18  O   UNL     1     -10.215   8.914  67.575  1.00  0.00    -0.213 OA 
HETATM   19  F   UNL     1      -8.048  11.417  65.669  1.00  0.00    -0.064 F  
HETATM   20  C   UNL     1      -9.281   9.662  64.609  1.00  0.00    -0.293 C  
HETATM   21  C   UNL     1     -10.140  11.953  66.008  1.00  0.00    -0.261 C  
HETATM   22  C   UNL     1     -11.574  12.067  66.511  1.00  0.00    -0.384 C  
HETATM   23  H   UNL     1     -10.950   9.501  67.444  1.00  0.00     0.000 HD 
HETATM   24  O   UNL     1     -12.771  14.640  64.264  1.00  0.00    -0.679 OA 
HETATM   25  C   UNL     1      -9.517  10.468  63.317  1.00  0.00    -0.360 C  
HETATM   26  C   UNL     1     -12.404  13.005  65.985  1.00  0.00    -0.387 C  
ENDROOT
BRANCH   4  27
HETATM   27  C   UNL     1      -8.421   6.218  66.983  1.00  0.00    -0.108 C  
HETATM   28  O   UNL     1      -7.517   5.906  67.778  1.00  0.00    -0.076 OA 
BRANCH  27  29
HETATM   29  C   UNL     1      -9.654   5.277  66.975  1.00  0.00    -0.142 C  
BRANCH  29  30
HETATM   30  O   UNL     1     -10.674   5.681  67.920  1.00  0.00    -0.223 OA 
BRANCH  30  31
HETATM   31  C   UNL     1     -10.380   5.431  69.223  1.00  0.00    -0.251 C  
HETATM   32  O   UNL     1     -10.064   4.344  69.672  1.00  0.00    -0.202 OA 
BRANCH  31  33
HETATM   33  C   UNL     1     -10.522   6.645  70.086  1.00  0.00    -0.248 A  
HETATM   34  C   UNL     1     -10.645   8.939  71.719  1.00  0.00    -0.432 A  
HETATM   35  O   UNL     1     -13.424   9.043  73.171  1.00  0.00    -0.218 OA 
HETATM   36  C   UNL     1      -9.411   8.408  71.367  1.00  0.00    -0.251 A  
HETATM   37  C   UNL     1      -9.347   7.269  70.552  1.00  0.00    -0.158 A  
HETATM   38  O   UNL     1     -13.267  10.562  71.210  1.00  0.00    -0.365 OA 
HETATM   39  O   UNL     1     -14.389   8.428  70.917  1.00  0.00    -0.088 OA 
HETATM   40  C   UNL     1     -11.770   7.184  70.439  1.00  0.00    -0.273 A  
HETATM   41  S   UNL     1     -13.367   9.039  71.725  1.00  0.00    -0.420 S  
HETATM   42  C   UNL     1     -11.803   8.326  71.263  1.00  0.00    -0.288 A  
ENDBRANCH  31  33
ENDBRANCH  30  31
ENDBRANCH  29  30
ENDBRANCH  27  29
ENDBRANCH   4  27
TORSDOF 5
ENDMDL
MODEL       20
REMARK 921   NORMALIZED FREE ENERGY PREDICTED BY IDOCK:   -7.19 KCAL/MOL
REMARK 922        TOTAL FREE ENERGY PREDICTED BY IDOCK:  -10.00 KCAL/MOL
REMARK 923 INTER-LIGAND FREE ENERGY PREDICTED BY IDOCK:  -10.50 KCAL/MOL
REMARK 924 INTRA-LIGAND FREE ENERGY PREDICTED BY IDOCK:    0.50 KCAL/MOL
REMARK 927      BINDING AFFINITY PREDICTED BY RF-SCORE:    0.00 PKD
ROOT
HETATM    1  C   UNL     1     -10.530   5.944  70.742  1.00  0.00    -0.311 C  
HETATM    2  C   UNL     1      -9.403   5.541  71.480  1.00  0.00    -0.172 C  
HETATM    3  C   UNL     1      -9.422   7.006  71.140  1.00  0.00    -0.165 C  
HETATM    4  C   UNL     1     -11.196   7.787  70.400  1.00  0.00    -0.237 C  
HETATM    5  C   UNL     1      -8.195   7.510  72.201  1.00  0.00    -0.118 C  
HETATM    6  O   UNL     1     -12.407   6.948  70.405  1.00  0.00    -0.613 OA 
HETATM    7  C   UNL     1      -7.075   4.498  66.236  1.00  0.00    -0.075 C  
HETATM    8  C   UNL     1     -10.534   7.720  71.578  1.00  0.00    -0.239 C  
HETATM    9  C   UNL     1      -7.495   4.873  64.838  1.00  0.00    -0.076 C  
HETATM   10  C   UNL     1      -8.016   5.022  67.045  1.00  0.00    -0.103 C  
HETATM   11  C   UNL     1     -11.099   7.760  73.004  1.00  0.00    -0.419 C  
HETATM   12  H   UNL     1     -13.219   7.305  70.066  1.00  0.00     0.000 HD 
HETATM   13  C   UNL     1      -9.589   9.046  70.522  1.00  0.00    -0.264 C  
HETATM   14  C   UNL     1      -9.255   8.489  68.856  1.00  0.00    -0.146 C  
HETATM   15  C   UNL     1      -9.334   4.286  67.195  1.00  0.00    -0.187 C  
HETATM   16  C   UNL     1      -8.890   6.851  68.495  1.00  0.00    -0.124 C  
HETATM   17  C   UNL     1      -6.671   7.200  67.370  1.00  0.00    -0.068 C  
HETATM   18  O   UNL     1     -10.385   8.943  68.079  1.00  0.00    -0.204 OA 
HETATM   19  F   UNL     1      -7.810   6.399  69.301  1.00  0.00    -0.096 F  
HETATM   20  C   UNL     1     -10.127   5.888  68.991  1.00  0.00    -0.237 C  
HETATM   21  C   UNL     1      -8.111   6.567  67.142  1.00  0.00    -0.113 C  
HETATM   22  C   UNL     1      -8.467   7.013  65.729  1.00  0.00    -0.154 C  
HETATM   23  H   UNL     1     -10.208   8.647  67.194  1.00  0.00     0.000 HD 
HETATM   24  O   UNL     1      -7.302   4.118  63.896  1.00  0.00    -0.050 OA 
HETATM   25  C   UNL     1      -9.858   4.419  68.615  1.00  0.00    -0.141 C  
HETATM   26  C   UNL     1      -8.127   6.237  64.667  1.00  0.00    -0.115 C  
ENDROOT
BRANCH   4  27
HETATM   27  C   UNL     1     -12.158   9.156  70.844  1.00  0.00    -0.214 C  
HETATM   28  O   UNL     1     -13.291   9.107  71.355  1.00  0.00    -0.345 OA 
BRANCH  27  29
HETATM   29  C   UNL     1     -11.566  10.580  70.675  1.00  0.00    -0.352 C  
BRANCH  29  30
HETATM   30  O   UNL     1     -12.096  11.274  69.520  1.00  0.00    -0.321 OA 
BRANCH  30  31
HETATM   31  C   UNL     1     -11.815  12.601  69.469  1.00  0.00    -0.312 C  
HETATM   32  O   UNL     1     -11.998  13.389  70.379  1.00  0.00    -0.331 OA 
BRANCH  31  33
HETATM   33  C   UNL     1     -11.280  13.024  68.138  1.00  0.00    -0.305 A  
HETATM   34  C   UNL     1     -10.153  13.868  65.696  1.00  0.00    -0.332 A  
HETATM   35  O   UNL     1     -12.434  14.321  63.590  1.00  0.00    -0.816 OA 
HETATM   36  C   UNL     1      -9.456  14.064  66.881  1.00  0.00    -0.271 A  
HETATM   37  C   UNL     1     -10.013  13.642  68.097  1.00  0.00    -0.246 A  
HETATM   38  O   UNL     1     -11.221  12.171  63.298  1.00  0.00    -0.402 OA 
HETATM   39  O   UNL     1     -13.365  12.130  64.439  1.00  0.00    -0.740 OA 
HETATM   40  C   UNL     1     -11.982  12.823  66.938  1.00  0.00    -0.380 A  
HETATM   41  S   UNL     1     -12.259  13.017  64.193  1.00  0.00    -0.397 S  
HETATM   42  C   UNL     1     -11.400  13.261  65.733  1.00  0.00    -0.307 A  
ENDBRANCH  31  33
ENDBRANCH  30  31
ENDBRANCH  29  30
ENDBRANCH  27  29
ENDBRANCH   4  27
TORSDOF 5
ENDMDL
MODEL       21
REMARK 921   NORMALIZED FREE ENERGY PREDICTED BY IDOCK:   -7.13 KCAL/MOL
REMARK 922        TOTAL FREE ENERGY PREDICTED BY IDOCK:   -9.93 KCAL/MOL
REMARK 923 INTER-LIGAND FREE ENERGY PREDICTED BY IDOCK:   -9.57 KCAL/MOL
REMARK 924 INTRA-LIGAND FREE ENERGY PREDICTED BY IDOCK:   -0.36 KCAL/MOL
REMARK 927      BINDING AFFINITY PREDICTED BY RF-SCORE:    0.00 PKD
ROOT
HETATM    1  C   UNL     1     -11.431  12.150  67.975  1.00  0.00    -0.380 C  
HETATM    2  C   UNL     1     -11.904  12.239  66.654  1.00  0.00    -0.362 C  
HETATM    3  C   UNL     1     -10.435  11.939  66.759  1.00  0.00    -0.253 C  
HETATM    4  C   UNL     1      -9.705  11.407  68.628  1.00  0.00    -0.176 C  
HETATM    5  C   UNL     1     -10.174  11.469  65.148  1.00  0.00    -0.322 C  
HETATM    6  O   UNL     1     -10.655  11.163  69.726  1.00  0.00    -0.449 OA 
HETATM    7  C   UNL     1     -10.645  17.906  67.209  1.00  0.00    -0.341 C  
HETATM    8  C   UNL     1     -10.094  10.799  67.482  1.00  0.00    -0.218 C  
HETATM    9  C   UNL     1      -9.858  18.684  68.232  1.00  0.00    -0.371 C  
HETATM   10  C   UNL     1     -10.589  16.623  67.613  1.00  0.00    -0.321 C  
HETATM   11  C   UNL     1     -10.652   9.383  67.285  1.00  0.00    -0.314 C  
HETATM   12  H   UNL     1     -10.321  10.919  70.581  1.00  0.00     0.000 HD 
HETATM   13  C   UNL     1      -8.356  11.572  67.099  1.00  0.00    -0.160 C  
HETATM   14  C   UNL     1      -8.222  13.270  67.641  1.00  0.00    -0.179 C  
HETATM   15  C   UNL     1     -11.512  16.174  68.730  1.00  0.00    -0.340 C  
HETATM   16  C   UNL     1      -9.550  14.357  67.582  1.00  0.00    -0.214 C  
HETATM   17  C   UNL     1      -8.503  16.152  66.169  1.00  0.00    -0.288 C  
HETATM   18  O   UNL     1      -7.688  13.193  68.981  1.00  0.00    -0.322 OA 
HETATM   19  F   UNL     1     -10.100  14.389  66.272  1.00  0.00    -0.260 F  
HETATM   20  C   UNL     1     -10.795  13.756  68.472  1.00  0.00    -0.280 C  
HETATM   21  C   UNL     1      -9.213  15.908  67.570  1.00  0.00    -0.210 C  
HETATM   22  C   UNL     1      -8.345  16.699  68.541  1.00  0.00    -0.228 C  
HETATM   23  H   UNL     1      -7.617  14.095  69.269  1.00  0.00     0.000 HD 
HETATM   24  O   UNL     1     -10.188  19.815  68.558  1.00  0.00    -0.440 OA 
HETATM   25  C   UNL     1     -11.975  14.746  68.495  1.00  0.00    -0.284 C  
HETATM   26  C   UNL     1      -8.630  18.002  68.797  1.00  0.00    -0.212 C  
ENDROOT
BRANCH   4  27
HETATM   27  C   UNL     1      -8.741  10.080  69.183  1.00  0.00    -0.167 C  
HETATM   28  O   UNL     1      -7.756   9.606  68.591  1.00  0.00    -0.079 OA 
BRANCH  27  29
HETATM   29  C   UNL     1      -9.056   9.447  70.564  1.00  0.00    -0.256 C  
BRANCH  29  30
HETATM   30  O   UNL     1      -9.883   8.263  70.463  1.00  0.00    -0.180 OA 
BRANCH  30  31
HETATM   31  C   UNL     1      -9.337   7.135  70.987  1.00  0.00    -0.158 C  
HETATM   32  O   UNL     1      -8.823   7.054  72.088  1.00  0.00    -0.130 OA 
BRANCH  31  33
HETATM   33  C   UNL     1      -9.392   5.978  70.041  1.00  0.00    -0.170 A  
HETATM   34  C   UNL     1      -9.518   3.711  68.371  1.00  0.00    -0.214 A  
HETATM   35  O   UNL     1      -8.024   4.308  65.677  1.00  0.00    -0.093 OA 
HETATM   36  C   UNL     1      -9.657   3.564  69.745  1.00  0.00    -0.206 A  
HETATM   37  C   UNL     1      -9.598   4.690  70.577  1.00  0.00    -0.268 A  
HETATM   38  O   UNL     1     -10.499   4.461  65.499  1.00  0.00    -0.265 OA 
HETATM   39  O   UNL     1      -9.239   6.524  65.739  1.00  0.00    -0.062 OA 
HETATM   40  C   UNL     1      -9.255   6.126  68.651  1.00  0.00    -0.123 A  
HETATM   41  S   UNL     1      -9.150   5.127  66.074  1.00  0.00    -0.153 S  
HETATM   42  C   UNL     1      -9.314   4.976  67.840  1.00  0.00    -0.124 A  
ENDBRANCH  31  33
ENDBRANCH  30  31
ENDBRANCH  29  30
ENDBRANCH  27  29
ENDBRANCH   4  27
TORSDOF 5
ENDMDL
MODEL       22
REMARK 921   NORMALIZED FREE ENERGY PREDICTED BY IDOCK:   -7.07 KCAL/MOL
REMARK 922        TOTAL FREE ENERGY PREDICTED BY IDOCK:   -9.85 KCAL/MOL
REMARK 923 INTER-LIGAND FREE ENERGY PREDICTED BY IDOCK:   -9.61 KCAL/MOL
REMARK 924 INTRA-LIGAND FREE ENERGY PREDICTED BY IDOCK:   -0.24 KCAL/MOL
REMARK 927      BINDING AFFINITY PREDICTED BY RF-SCORE:    0.00 PKD
ROOT
HETATM    1  C   UNL     1     -11.142   7.611  69.345  1.00  0.00     0.009 C  
HETATM    2  C   UNL     1     -11.298   7.114  70.651  1.00  0.00    -0.327 C  
HETATM    3  C   UNL     1     -10.179   8.107  70.504  1.00  0.00    -0.207 C  
HETATM    4  C   UNL     1     -10.096   9.190  68.735  1.00  0.00    -0.197 C  
HETATM    5  C   UNL     1      -9.912   8.410  72.153  1.00  0.00    -0.376 C  
HETATM    6  O   UNL     1     -11.213   9.091  67.780  1.00  0.00    -0.460 OA 
HETATM    7  C   UNL     1      -7.639   2.938  68.866  1.00  0.00    -0.047 C  
HETATM    8  C   UNL     1     -10.534   9.358  70.005  1.00  0.00    -0.266 C  
HETATM    9  C   UNL     1      -6.757   2.802  67.651  1.00  0.00    -0.040 C  
HETATM   10  C   UNL     1      -8.257   4.127  68.728  1.00  0.00    -0.081 C  
HETATM   11  C   UNL     1     -11.649  10.274  70.526  1.00  0.00    -0.424 C  
HETATM   12  H   UNL     1     -11.176   9.586  66.971  1.00  0.00     0.000 HD 
HETATM   13  C   UNL     1      -8.600   9.491  70.097  1.00  0.00    -0.250 C  
HETATM   14  C   UNL     1      -7.776   8.174  69.212  1.00  0.00    -0.104 C  
HETATM   15  C   UNL     1      -9.450   4.221  67.796  1.00  0.00    -0.215 C  
HETATM   16  C   UNL     1      -8.411   6.580  69.145  1.00  0.00    -0.119 C  
HETATM   17  C   UNL     1      -6.433   5.348  70.084  1.00  0.00    -0.034 C  
HETATM   18  O   UNL     1      -7.565   8.694  67.881  1.00  0.00    -0.095 OA 
HETATM   19  F   UNL     1      -8.662   6.095  70.457  1.00  0.00    -0.133 F  
HETATM   20  C   UNL     1      -9.917   6.614  68.487  1.00  0.00    -0.152 C  
HETATM   21  C   UNL     1      -7.390   5.410  68.816  1.00  0.00    -0.074 C  
HETATM   22  C   UNL     1      -6.423   5.294  67.645  1.00  0.00    -0.048 C  
HETATM   23  H   UNL     1      -7.128   7.994  67.411  1.00  0.00     0.000 HD 
HETATM   24  O   UNL     1      -6.566   1.714  67.127  1.00  0.00    -0.030 OA 
HETATM   25  C   UNL     1     -10.483   5.187  68.349  1.00  0.00    -0.084 C  
HETATM   26  C   UNL     1      -6.101   4.071  67.150  1.00  0.00    -0.028 C  
ENDROOT
BRANCH   4  27
HETATM   27  C   UNL     1      -9.971  10.883  68.393  1.00  0.00    -0.178 C  
HETATM   28  O   UNL     1      -9.172  11.670  68.930  1.00  0.00    -0.088 OA 
BRANCH  27  29
HETATM   29  C   UNL     1     -10.861  11.494  67.280  1.00  0.00    -0.256 C  
BRANCH  29  30
HETATM   30  O   UNL     1     -11.993  12.229  67.807  1.00  0.00    -0.474 OA 
BRANCH  30  31
HETATM   31  C   UNL     1     -11.986  13.560  67.542  1.00  0.00    -0.346 C  
HETATM   32  O   UNL     1     -12.031  14.051  66.428  1.00  0.00    -0.396 OA 
BRANCH  31  33
HETATM   33  C   UNL     1     -11.875  14.392  68.780  1.00  0.00    -0.360 A  
HETATM   34  C   UNL     1     -11.581  16.048  71.042  1.00  0.00    -0.472 A  
HETATM   35  O   UNL     1     -12.170  14.390  73.640  1.00  0.00    -0.246 OA 
HETATM   36  C   UNL     1     -10.930  16.373  69.859  1.00  0.00    -0.339 A  
HETATM   37  C   UNL     1     -11.077  15.553  68.732  1.00  0.00    -0.291 A  
HETATM   38  O   UNL     1     -14.059  15.844  72.936  1.00  0.00    -0.561 OA 
HETATM   39  O   UNL     1     -14.154  13.487  72.360  1.00  0.00    -0.649 OA 
HETATM   40  C   UNL     1     -12.536  14.064  69.976  1.00  0.00    -0.339 A  
HETATM   41  S   UNL     1     -13.192  14.523  72.623  1.00  0.00    -0.510 S  
HETATM   42  C   UNL     1     -12.365  14.905  71.094  1.00  0.00    -0.324 A  
ENDBRANCH  31  33
ENDBRANCH  30  31
ENDBRANCH  29  30
ENDBRANCH  27  29
ENDBRANCH   4  27
TORSDOF 5
ENDMDL
MODEL       23
REMARK 921   NORMALIZED FREE ENERGY PREDICTED BY IDOCK:   -7.05 KCAL/MOL
REMARK 922        TOTAL FREE ENERGY PREDICTED BY IDOCK:   -9.82 KCAL/MOL
REMARK 923 INTER-LIGAND FREE ENERGY PREDICTED BY IDOCK:   -9.44 KCAL/MOL
REMARK 924 INTRA-LIGAND FREE ENERGY PREDICTED BY IDOCK:   -0.38 KCAL/MOL
REMARK 927      BINDING AFFINITY PREDICTED BY RF-SCORE:    0.00 PKD
ROOT
HETATM    1  C   UNL     1      -9.533  14.007  68.427  1.00  0.00    -0.213 C  
HETATM    2  C   UNL     1     -10.264  14.326  69.584  1.00  0.00     0.254 C  
HETATM    3  C   UNL     1     -11.031  14.512  68.304  1.00  0.00    -0.258 C  
HETATM    4  C   UNL     1     -10.202  13.717  66.576  1.00  0.00    -0.284 C  
HETATM    5  C   UNL     1     -12.583  14.661  68.978  1.00  0.00     0.202 C  
HETATM    6  O   UNL     1      -9.013  12.855  66.682  1.00  0.00    -0.317 OA 
HETATM    7  C   UNL     1      -7.997  19.647  68.838  1.00  0.00    -0.285 C  
HETATM    8  C   UNL     1     -11.144  13.388  67.491  1.00  0.00    -0.294 C  
HETATM    9  C   UNL     1      -7.267  20.296  67.690  1.00  0.00    -0.301 C  
HETATM   10  C   UNL     1      -8.276  18.395  68.424  1.00  0.00    -0.331 C  
HETATM   11  C   UNL     1     -11.637  11.996  67.907  1.00  0.00    -0.405 C  
HETATM   12  H   UNL     1      -8.634  12.491  65.891  1.00  0.00     0.000 HD 
HETATM   13  C   UNL     1     -11.946  14.770  66.389  1.00  0.00    -0.179 C  
HETATM   14  C   UNL     1     -10.863  16.171  66.144  1.00  0.00    -0.138 C  
HETATM   15  C   UNL     1      -7.175  17.353  68.476  1.00  0.00    -0.230 C  
HETATM   16  C   UNL     1      -9.789  16.722  67.366  1.00  0.00    -0.252 C  
HETATM   17  C   UNL     1     -10.590  19.097  67.526  1.00  0.00    -0.567 C  
HETATM   18  O   UNL     1     -10.141  15.876  64.927  1.00  0.00    -0.412 OA 
HETATM   19  F   UNL     1     -10.500  16.961  68.573  1.00  0.00    -0.279 F  
HETATM   20  C   UNL     1      -8.769  15.505  67.792  1.00  0.00    -0.170 C  
HETATM   21  C   UNL     1      -9.288  18.224  67.262  1.00  0.00    -0.256 C  
HETATM   22  C   UNL     1      -8.632  18.928  66.081  1.00  0.00    -0.185 C  
HETATM   23  H   UNL     1      -9.566  16.620  64.798  1.00  0.00     0.000 HD 
HETATM   24  O   UNL     1      -6.369  21.101  67.886  1.00  0.00    -0.351 OA 
HETATM   25  C   UNL     1      -7.747  15.993  68.837  1.00  0.00    -0.196 C  
HETATM   26  C   UNL     1      -7.734  19.923  66.299  1.00  0.00    -0.332 C  
ENDROOT
BRANCH   4  27
HETATM   27  C   UNL     1     -10.827  12.682  65.337  1.00  0.00    -0.287 C  
HETATM   28  O   UNL     1     -11.860  12.889  64.676  1.00  0.00    -0.336 OA 
BRANCH  27  29
HETATM   29  C   UNL     1     -10.023  11.417  64.936  1.00  0.00    -0.265 C  
BRANCH  29  30
HETATM   30  O   UNL     1     -10.484  10.223  65.615  1.00  0.00    -0.200 OA 
BRANCH  30  31
HETATM   31  C   UNL     1      -9.505   9.348  65.963  1.00  0.00    -0.241 C  
HETATM   32  O   UNL     1      -8.834   8.702  65.179  1.00  0.00    -0.177 OA 
BRANCH  31  33
HETATM   33  C   UNL     1      -9.351   9.219  67.445  1.00  0.00    -0.153 A  
HETATM   34  C   UNL     1      -8.972   9.089  70.235  1.00  0.00    -0.221 A  
HETATM   35  O   UNL     1      -9.629   6.194  71.249  1.00  0.00    -0.169 OA 
HETATM   36  C   UNL     1      -8.311  10.060  69.494  1.00  0.00    -0.180 A  
HETATM   37  C   UNL     1      -8.500  10.128  68.107  1.00  0.00    -0.118 A  
HETATM   38  O   UNL     1     -11.450   7.833  71.667  1.00  0.00    -0.250 OA 
HETATM   39  O   UNL     1     -11.658   6.356  69.750  1.00  0.00    -0.431 OA 
HETATM   40  C   UNL     1     -10.022   8.240  68.196  1.00  0.00    -0.224 A  
HETATM   41  S   UNL     1     -10.647   6.968  70.571  1.00  0.00    -0.230 S  
HETATM   42  C   UNL     1      -9.809   8.192  69.588  1.00  0.00    -0.184 A  
ENDBRANCH  31  33
ENDBRANCH  30  31
ENDBRANCH  29  30
ENDBRANCH  27  29
ENDBRANCH   4  27
TORSDOF 5
ENDMDL
MODEL       24
REMARK 921   NORMALIZED FREE ENERGY PREDICTED BY IDOCK:   -7.02 KCAL/MOL
REMARK 922        TOTAL FREE ENERGY PREDICTED BY IDOCK:   -9.78 KCAL/MOL
REMARK 923 INTER-LIGAND FREE ENERGY PREDICTED BY IDOCK:   -9.46 KCAL/MOL
REMARK 924 INTRA-LIGAND FREE ENERGY PREDICTED BY IDOCK:   -0.32 KCAL/MOL
REMARK 927      BINDING AFFINITY PREDICTED BY RF-SCORE:    0.00 PKD
ROOT
HETATM    1  C   UNL     1     -11.059  10.828  68.436  1.00  0.00    -0.323 C  
HETATM    2  C   UNL     1     -12.126  10.967  67.532  1.00  0.00     0.802 C  
HETATM    3  C   UNL     1     -10.935  11.826  67.209  1.00  0.00    -0.318 C  
HETATM    4  C   UNL     1      -9.174  11.428  68.232  1.00  0.00    -0.183 C  
HETATM    5  C   UNL     1     -11.377  12.260  65.628  1.00  0.00    -0.394 C  
HETATM    6  O   UNL     1      -9.093  10.229  69.083  1.00  0.00    -0.171 OA 
HETATM    7  C   UNL     1     -13.937  15.107  71.218  1.00  0.00    -0.548 C  
HETATM    8  C   UNL     1      -9.729  11.153  67.029  1.00  0.00    -0.210 C  
HETATM    9  C   UNL     1     -13.269  15.814  72.370  1.00  0.00    -0.462 C  
HETATM   10  C   UNL     1     -13.016  14.245  70.745  1.00  0.00    -0.368 C  
HETATM   11  C   UNL     1      -9.470   9.961  66.098  1.00  0.00    -0.254 C  
HETATM   12  H   UNL     1      -8.287  10.048  69.552  1.00  0.00     0.000 HD 
HETATM   13  C   UNL     1      -9.177  13.011  66.937  1.00  0.00    -0.236 C  
HETATM   14  C   UNL     1      -9.681  13.951  68.372  1.00  0.00    -0.226 C  
HETATM   15  C   UNL     1     -12.801  12.937  71.482  1.00  0.00    -0.380 C  
HETATM   16  C   UNL     1     -11.162  13.654  69.186  1.00  0.00    -0.261 C  
HETATM   17  C   UNL     1     -12.152  15.957  69.018  1.00  0.00    -0.116 C  
HETATM   18  O   UNL     1      -8.568  13.857  69.289  1.00  0.00    -0.335 OA 
HETATM   19  F   UNL     1     -12.246  13.700  68.268  1.00  0.00    -0.385 F  
HETATM   20  C   UNL     1     -11.204  12.094  69.703  1.00  0.00    -0.137 C  
HETATM   21  C   UNL     1     -11.750  14.835  70.069  1.00  0.00    -0.344 C  
HETATM   22  C   UNL     1     -11.064  15.626  71.176  1.00  0.00    -0.345 C  
HETATM   23  H   UNL     1      -8.836  14.356  70.051  1.00  0.00     0.000 HD 
HETATM   24  O   UNL     1     -13.903  16.146  73.361  1.00  0.00    -0.558 OA 
HETATM   25  C   UNL     1     -12.493  11.818  70.501  1.00  0.00    -0.317 C  
HETATM   26  C   UNL     1     -11.795  16.117  72.211  1.00  0.00    -0.631 C  
ENDROOT
BRANCH   4  27
HETATM   27  C   UNL     1      -7.544  11.154  67.713  1.00  0.00    -0.100 C  
HETATM   28  O   UNL     1      -6.880  11.914  66.988  1.00  0.00    -0.144 OA 
BRANCH  27  29
HETATM   29  C   UNL     1      -6.790   9.901  68.232  1.00  0.00    -0.064 C  
BRANCH  29  30
HETATM   30  O   UNL     1      -7.169   8.690  67.535  1.00  0.00    -0.079 OA 
BRANCH  30  31
HETATM   31  C   UNL     1      -7.190   7.570  68.303  1.00  0.00    -0.093 C  
HETATM   32  O   UNL     1      -6.239   6.833  68.491  1.00  0.00    -0.028 OA 
BRANCH  31  33
HETATM   33  C   UNL     1      -8.542   7.297  68.882  1.00  0.00    -0.129 A  
HETATM   34  C   UNL     1     -11.141   6.771  69.839  1.00  0.00    -0.374 A  
HETATM   35  O   UNL     1     -11.432   7.895  72.754  1.00  0.00    -0.390 OA 
HETATM   36  C   UNL     1     -10.907   6.823  68.471  1.00  0.00    -0.280 A  
HETATM   37  C   UNL     1      -9.615   7.082  67.993  1.00  0.00    -0.133 A  
HETATM   38  O   UNL     1     -11.069   5.437  72.665  1.00  0.00    -0.253 OA 
HETATM   39  O   UNL     1      -9.161   6.859  73.154  1.00  0.00    -0.129 OA 
HETATM   40  C   UNL     1      -8.778   7.240  70.265  1.00  0.00    -0.147 A  
HETATM   41  S   UNL     1     -10.422   6.899  72.463  1.00  0.00    -0.225 S  
HETATM   42  C   UNL     1     -10.088   6.983  70.717  1.00  0.00    -0.194 A  
ENDBRANCH  31  33
ENDBRANCH  30  31
ENDBRANCH  29  30
ENDBRANCH  27  29
ENDBRANCH   4  27
TORSDOF 5
ENDMDL
MODEL       25
REMARK 921   NORMALIZED FREE ENERGY PREDICTED BY IDOCK:   -7.01 KCAL/MOL
REMARK 922        TOTAL FREE ENERGY PREDICTED BY IDOCK:   -9.77 KCAL/MOL
REMARK 923 INTER-LIGAND FREE ENERGY PREDICTED BY IDOCK:  -10.08 KCAL/MOL
REMARK 924 INTRA-LIGAND FREE ENERGY PREDICTED BY IDOCK:    0.31 KCAL/MOL
REMARK 927      BINDING AFFINITY PREDICTED BY RF-SCORE:    0.00 PKD
ROOT
HETATM    1  C   UNL     1     -10.669  11.351  68.214  1.00  0.00    -0.240 C  
HETATM    2  C   UNL     1     -11.772  11.377  67.344  1.00  0.00    -0.172 C  
HETATM    3  C   UNL     1     -10.739  12.430  67.055  1.00  0.00    -0.268 C  
HETATM    4  C   UNL     1      -8.907  12.251  68.013  1.00  0.00    -0.182 C  
HETATM    5  C   UNL     1     -11.291  12.887  65.515  1.00  0.00    -0.340 C  
HETATM    6  O   UNL     1      -8.615  11.029  68.781  1.00  0.00    -0.152 OA 
HETATM    7  C   UNL     1     -14.090  14.944  71.332  1.00  0.00    -0.552 C  
HETATM    8  C   UNL     1      -9.449  11.968  66.805  1.00  0.00    -0.212 C  
HETATM    9  C   UNL     1     -13.506  15.674  72.514  1.00  0.00    -0.538 C  
HETATM   10  C   UNL     1     -13.062  14.269  70.784  1.00  0.00    -0.321 C  
HETATM   11  C   UNL     1      -9.036  10.891  65.793  1.00  0.00    -0.214 C  
HETATM   12  H   UNL     1      -7.776  10.948  69.220  1.00  0.00     0.000 HD 
HETATM   13  C   UNL     1      -9.195  13.891  66.826  1.00  0.00    -0.267 C  
HETATM   14  C   UNL     1      -9.795  14.650  68.330  1.00  0.00    -0.222 C  
HETATM   15  C   UNL     1     -12.624  12.967  71.428  1.00  0.00    -0.329 C  
HETATM   16  C   UNL     1     -11.187  14.073  69.153  1.00  0.00    -0.269 C  
HETATM   17  C   UNL     1     -12.528  16.198  69.157  1.00  0.00     0.671 C  
HETATM   18  O   UNL     1      -8.654  14.675  69.215  1.00  0.00    -0.352 OA 
HETATM   19  F   UNL     1     -12.292  14.005  68.261  1.00  0.00    -0.383 F  
HETATM   20  C   UNL     1     -10.970  12.497  69.566  1.00  0.00     0.029 C  
HETATM   21  C   UNL     1     -11.924  15.090  70.123  1.00  0.00    -0.366 C  
HETATM   22  C   UNL     1     -11.336  15.909  71.266  1.00  0.00    -0.425 C  
HETATM   23  H   UNL     1      -8.973  15.077  70.014  1.00  0.00     0.000 HD 
HETATM   24  O   UNL     1     -14.153  15.840  73.538  1.00  0.00     0.051 OA 
HETATM   25  C   UNL     1     -12.176  11.974  70.369  1.00  0.00    -0.379 C  
HETATM   26  C   UNL     1     -12.102  16.214  72.345  1.00  0.00    -0.630 C  
ENDROOT
BRANCH   4  27
HETATM   27  C   UNL     1      -7.271  12.268  67.444  1.00  0.00    -0.147 C  
HETATM   28  O   UNL     1      -6.815  11.550  66.538  1.00  0.00    -0.111 OA 
BRANCH  27  29
HETATM   29  C   UNL     1      -6.278  13.301  68.038  1.00  0.00    -0.129 C  
BRANCH  29  30
HETATM   30  O   UNL     1      -6.163  14.497  67.229  1.00  0.00    -0.302 OA 
BRANCH  30  31
HETATM   31  C   UNL     1      -5.975  15.646  67.928  1.00  0.00    -0.147 C  
HETATM   32  O   UNL     1      -5.489  15.715  69.042  1.00  0.00    -0.102 OA 
BRANCH  31  33
HETATM   33  C   UNL     1      -6.471  16.852  67.194  1.00  0.00    -0.223 A  
HETATM   34  C   UNL     1      -7.285  19.122  65.734  1.00  0.00    -0.277 A  
HETATM   35  O   UNL     1      -9.416  20.724  67.388  1.00  0.00    -0.422 OA 
HETATM   36  C   UNL     1      -6.053  18.537  65.471  1.00  0.00    -0.287 A  
HETATM   37  C   UNL     1      -5.647  17.407  66.193  1.00  0.00    -0.172 A  
HETATM   38  O   UNL     1     -10.400  19.326  65.584  1.00  0.00    -0.489 OA 
HETATM   39  O   UNL     1     -10.446  18.463  67.854  1.00  0.00    -0.388 OA 
HETATM   40  C   UNL     1      -7.719  17.441  67.457  1.00  0.00    -0.205 A  
HETATM   41  S   UNL     1      -9.675  19.347  67.021  1.00  0.00    -0.358 S  
HETATM   42  C   UNL     1      -8.098  18.579  66.718  1.00  0.00    -0.254 A  
ENDBRANCH  31  33
ENDBRANCH  30  31
ENDBRANCH  29  30
ENDBRANCH  27  29
ENDBRANCH   4  27
TORSDOF 5
ENDMDL
MODEL       26
REMARK 921   NORMALIZED FREE ENERGY PREDICTED BY IDOCK:   -7.00 KCAL/MOL
REMARK 922        TOTAL FREE ENERGY PREDICTED BY IDOCK:   -9.76 KCAL/MOL
REMARK 923 INTER-LIGAND FREE ENERGY PREDICTED BY IDOCK:   -9.51 KCAL/MOL
REMARK 924 INTRA-LIGAND FREE ENERGY PREDICTED BY IDOCK:   -0.25 KCAL/MOL
REMARK 927      BINDING AFFINITY PREDICTED BY RF-SCORE:    0.00 PKD
ROOT
HETATM    1  C   UNL     1     -10.299   8.972  67.988  1.00  0.00    -0.275 C  
HETATM    2  C   UNL     1      -9.504   8.658  69.103  1.00  0.00    -0.157 C  
HETATM    3  C   UNL     1      -8.750   9.311  67.979  1.00  0.00    -0.125 C  
HETATM    4  C   UNL     1      -9.870  10.162  66.453  1.00  0.00    -0.222 C  
HETATM    5  C   UNL     1      -7.332   9.691  68.833  1.00  0.00    -0.073 C  
HETATM    6  O   UNL     1     -11.332  10.264  66.606  1.00  0.00     0.040 OA 
HETATM    7  C   UNL     1      -8.792   3.531  66.417  1.00  0.00    -0.132 C  
HETATM    8  C   UNL     1      -9.219  10.558  67.572  1.00  0.00    -0.152 C  
HETATM    9  C   UNL     1      -9.099   3.058  65.019  1.00  0.00    -0.146 C  
HETATM   10  C   UNL     1      -9.181   4.821  66.452  1.00  0.00    -0.135 C  
HETATM   11  C   UNL     1      -9.492  11.775  68.466  1.00  0.00    -0.165 C  
HETATM   12  H   UNL     1     -11.844  10.653  65.908  1.00  0.00     0.000 HD 
HETATM   13  C   UNL     1      -7.834  10.197  66.262  1.00  0.00    -0.113 C  
HETATM   14  C   UNL     1      -8.067   8.634  65.425  1.00  0.00    -0.121 C  
HETATM   15  C   UNL     1     -10.656   5.128  66.623  1.00  0.00    -0.295 C  
HETATM   16  C   UNL     1      -8.716   7.258  66.221  1.00  0.00    -0.149 C  
HETATM   17  C   UNL     1      -6.829   5.655  65.797  1.00  0.00    -0.057 C  
HETATM   18  O   UNL     1      -8.841   8.954  64.248  1.00  0.00    -0.396 OA 
HETATM   19  F   UNL     1      -7.978   6.982  67.404  1.00  0.00    -0.105 F  
HETATM   20  C   UNL     1     -10.208   7.615  66.811  1.00  0.00    -0.333 C  
HETATM   21  C   UNL     1      -8.394   5.839  65.587  1.00  0.00    -0.138 C  
HETATM   22  C   UNL     1      -8.610   5.368  64.155  1.00  0.00    -0.034 C  
HETATM   23  H   UNL     1      -8.965   8.123  63.804  1.00  0.00     0.000 HD 
HETATM   24  O   UNL     1      -9.471   1.913  64.807  1.00  0.00    -0.127 OA 
HETATM   25  C   UNL     1     -10.845   6.376  67.469  1.00  0.00    -0.438 C  
HETATM   26  C   UNL     1      -8.886   4.061  63.906  1.00  0.00    -0.117 C  
ENDROOT
BRANCH   4  27
HETATM   27  C   UNL     1      -9.853  11.726  65.708  1.00  0.00    -0.240 C  
HETATM   28  O   UNL     1      -9.058  12.643  65.975  1.00  0.00    -0.064 OA 
BRANCH  27  29
HETATM   29  C   UNL     1     -10.849  12.022  64.557  1.00  0.00    -0.314 C  
BRANCH  29  30
HETATM   30  O   UNL     1     -12.101  12.579  65.028  1.00  0.00    -0.411 OA 
BRANCH  30  31
HETATM   31  C   UNL     1     -12.209  13.927  64.909  1.00  0.00    -0.422 C  
HETATM   32  O   UNL     1     -12.586  14.513  63.911  1.00  0.00    -0.827 OA 
BRANCH  31  33
HETATM   33  C   UNL     1     -11.773  14.649  66.145  1.00  0.00    -0.316 A  
HETATM   34  C   UNL     1     -11.019  15.908  68.552  1.00  0.00    -0.324 A  
HETATM   35  O   UNL     1     -10.411  18.937  68.004  1.00  0.00    -0.385 OA 
HETATM   36  C   UNL     1     -11.782  14.748  68.590  1.00  0.00    -0.356 A  
HETATM   37  C   UNL     1     -12.156  14.119  67.395  1.00  0.00    -0.379 A  
HETATM   38  O   UNL     1      -8.370  17.532  68.208  1.00  0.00    -0.247 OA 
HETATM   39  O   UNL     1      -9.150  18.101  65.979  1.00  0.00    -0.513 OA 
HETATM   40  C   UNL     1     -10.998  15.819  66.107  1.00  0.00    -0.169 A  
HETATM   41  S   UNL     1      -9.654  17.914  67.314  1.00  0.00    -0.281 S  
HETATM   42  C   UNL     1     -10.641  16.433  67.324  1.00  0.00    -0.293 A  
ENDBRANCH  31  33
ENDBRANCH  30  31
ENDBRANCH  29  30
ENDBRANCH  27  29
ENDBRANCH   4  27
TORSDOF 5
ENDMDL
MODEL       27
REMARK 921   NORMALIZED FREE ENERGY PREDICTED BY IDOCK:   -6.99 KCAL/MOL
REMARK 922        TOTAL FREE ENERGY PREDICTED BY IDOCK:   -9.74 KCAL/MOL
REMARK 923 INTER-LIGAND FREE ENERGY PREDICTED BY IDOCK:   -9.53 KCAL/MOL
REMARK 924 INTRA-LIGAND FREE ENERGY PREDICTED BY IDOCK:   -0.22 KCAL/MOL
REMARK 927      BINDING AFFINITY PREDICTED BY RF-SCORE:    0.00 PKD
ROOT
HETATM    1  C   UNL     1      -7.033   8.801  67.499  1.00  0.00    -0.075 C  
HETATM    2  C   UNL     1      -6.377   7.563  67.395  1.00  0.00    -0.053 C  
HETATM    3  C   UNL     1      -7.708   7.611  66.697  1.00  0.00    -0.098 C  
HETATM    4  C   UNL     1      -8.586   9.475  66.452  1.00  0.00    -0.134 C  
HETATM    5  C   UNL     1      -7.546   6.189  65.783  1.00  0.00    -0.084 C  
HETATM    6  O   UNL     1      -7.813  10.682  66.792  1.00  0.00    -0.116 OA 
HETATM    7  C   UNL     1      -9.180   6.326  72.357  1.00  0.00    -0.138 C  
HETATM    8  C   UNL     1      -7.853   8.598  65.726  1.00  0.00    -0.100 C  
HETATM    9  C   UNL     1     -10.313   7.000  73.087  1.00  0.00    -0.281 C  
HETATM   10  C   UNL     1      -8.961   7.078  71.261  1.00  0.00    -0.137 C  
HETATM   11  C   UNL     1      -6.912   8.874  64.546  1.00  0.00    -0.085 C  
HETATM   12  H   UNL     1      -8.215  11.535  66.680  1.00  0.00     0.000 HD 
HETATM   13  C   UNL     1      -9.639   7.843  65.810  1.00  0.00     0.228 C  
HETATM   14  C   UNL     1     -10.314   7.854  67.465  1.00  0.00    -0.259 C  
HETATM   15  C   UNL     1      -8.163   8.359  71.409  1.00  0.00    -0.172 C  
HETATM   16  C   UNL     1      -9.336   7.608  68.854  1.00  0.00    -0.145 C  
HETATM   17  C   UNL     1     -10.558   5.642  69.831  1.00  0.00    -0.399 C  
HETATM   18  O   UNL     1     -11.036   9.102  67.566  1.00  0.00    -0.466 OA 
HETATM   19  F   UNL     1      -8.593   6.403  68.724  1.00  0.00    -0.120 F  
HETATM   20  C   UNL     1      -8.153   8.748  68.905  1.00  0.00    -0.114 C  
HETATM   21  C   UNL     1     -10.067   7.114  70.174  1.00  0.00    -0.195 C  
HETATM   22  C   UNL     1     -11.271   7.727  70.878  1.00  0.00    -0.284 C  
HETATM   23  H   UNL     1     -11.394   9.107  68.445  1.00  0.00     0.000 HD 
HETATM   24  O   UNL     1     -10.360   7.013  74.308  1.00  0.00    -0.302 OA 
HETATM   25  C   UNL     1      -7.302   8.595  70.180  1.00  0.00    -0.053 C  
HETATM   26  C   UNL     1     -11.394   7.619  72.227  1.00  0.00    -0.355 C  
ENDROOT
BRANCH   4  27
HETATM   27  C   UNL     1      -9.242  10.298  65.077  1.00  0.00    -0.213 C  
HETATM   28  O   UNL     1      -9.396   9.805  63.946  1.00  0.00    -0.261 OA 
BRANCH  27  29
HETATM   29  C   UNL     1      -9.760  11.750  65.246  1.00  0.00    -0.211 C  
BRANCH  29  30
HETATM   30  O   UNL     1     -10.409  11.969  66.522  1.00  0.00    -0.206 OA 
BRANCH  30  31
HETATM   31  C   UNL     1     -11.559  12.689  66.465  1.00  0.00    -0.381 C  
HETATM   32  O   UNL     1     -12.478  12.479  65.695  1.00  0.00    -0.648 OA 
BRANCH  31  33
HETATM   33  C   UNL     1     -11.574  13.823  67.441  1.00  0.00    -0.393 A  
HETATM   34  C   UNL     1     -11.554  16.045  69.176  1.00  0.00    -0.337 A  
HETATM   35  O   UNL     1     -11.415  15.053  72.149  1.00  0.00    -0.382 OA 
HETATM   36  C   UNL     1     -11.132  16.192  67.861  1.00  0.00    -0.293 A  
HETATM   37  C   UNL     1     -11.144  15.090  66.995  1.00  0.00    -0.334 A  
HETATM   38  O   UNL     1     -13.692  15.748  71.436  1.00  0.00    -0.531 OA 
HETATM   39  O   UNL     1     -13.173  13.375  71.450  1.00  0.00    -0.324 OA 
HETATM   40  C   UNL     1     -12.005  13.675  68.770  1.00  0.00    -0.394 A  
HETATM   41  S   UNL     1     -12.521  14.650  71.306  1.00  0.00    -0.366 S  
HETATM   42  C   UNL     1     -11.977  14.800  69.618  1.00  0.00    -0.316 A  
ENDBRANCH  31  33
ENDBRANCH  30  31
ENDBRANCH  29  30
ENDBRANCH  27  29
ENDBRANCH   4  27
TORSDOF 5
ENDMDL
MODEL       28
REMARK 921   NORMALIZED FREE ENERGY PREDICTED BY IDOCK:   -6.97 KCAL/MOL
REMARK 922        TOTAL FREE ENERGY PREDICTED BY IDOCK:   -9.72 KCAL/MOL
REMARK 923 INTER-LIGAND FREE ENERGY PREDICTED BY IDOCK:   -9.97 KCAL/MOL
REMARK 924 INTRA-LIGAND FREE ENERGY PREDICTED BY IDOCK:    0.25 KCAL/MOL
REMARK 927      BINDING AFFINITY PREDICTED BY RF-SCORE:    0.00 PKD
ROOT
HETATM    1  C   UNL     1     -10.389   9.658  69.154  1.00  0.00    -0.219 C  
HETATM    2  C   UNL     1      -9.395   9.731  70.144  1.00  0.00    -0.261 C  
HETATM    3  C   UNL     1      -8.895  10.005  68.753  1.00  0.00    -0.137 C  
HETATM    4  C   UNL     1     -10.319  10.305  67.274  1.00  0.00    -0.232 C  
HETATM    5  C   UNL     1      -7.385  10.662  69.169  1.00  0.00    -0.111 C  
HETATM    6  O   UNL     1     -11.736  10.424  67.656  1.00  0.00    -0.615 OA 
HETATM    7  C   UNL     1      -8.765   4.029  69.099  1.00  0.00    -0.127 C  
HETATM    8  C   UNL     1      -9.519  11.048  68.074  1.00  0.00    -0.169 C  
HETATM    9  C   UNL     1      -9.269   3.128  68.000  1.00  0.00    -0.198 C  
HETATM   10  C   UNL     1      -9.238   5.255  68.804  1.00  0.00    -0.145 C  
HETATM   11  C   UNL     1      -9.727  12.482  68.580  1.00  0.00    -0.133 C  
HETATM   12  H   UNL     1     -12.388  10.561  66.979  1.00  0.00     0.000 HD 
HETATM   13  C   UNL     1      -8.354  10.312  66.708  1.00  0.00    -0.124 C  
HETATM   14  C   UNL     1      -8.607   8.560  66.456  1.00  0.00    -0.121 C  
HETATM   15  C   UNL     1     -10.682   5.575  69.142  1.00  0.00    -0.260 C  
HETATM   16  C   UNL     1      -9.005   7.499  67.746  1.00  0.00    -0.131 C  
HETATM   17  C   UNL     1      -7.102   5.878  67.498  1.00  0.00    -0.074 C  
HETATM   18  O   UNL     1      -9.592   8.474  65.403  1.00  0.00    -0.420 OA 
HETATM   19  F   UNL     1      -8.058   7.628  68.798  1.00  0.00    -0.117 F  
HETATM   20  C   UNL     1     -10.397   7.999  68.462  1.00  0.00    -0.229 C  
HETATM   21  C   UNL     1      -8.689   5.958  67.536  1.00  0.00    -0.104 C  
HETATM   22  C   UNL     1      -9.110   5.050  66.387  1.00  0.00    -0.129 C  
HETATM   23  H   UNL     1      -9.726   7.543  65.270  1.00  0.00     0.000 HD 
HETATM   24  O   UNL     1      -9.583   1.969  68.227  1.00  0.00    -0.207 OA 
HETATM   25  C   UNL     1     -10.818   7.024  69.578  1.00  0.00    -0.265 C  
HETATM   26  C   UNL     1      -9.324   3.728  66.612  1.00  0.00    -0.207 C  
ENDROOT
BRANCH   4  27
HETATM   27  C   UNL     1     -10.547  11.549  66.091  1.00  0.00    -0.266 C  
HETATM   28  O   UNL     1      -9.742  11.845  65.191  1.00  0.00    -0.239 OA 
BRANCH  27  29
HETATM   29  C   UNL     1     -11.884  12.334  66.073  1.00  0.00    -0.341 C  
BRANCH  29  30
HETATM   30  O   UNL     1     -11.750  13.682  66.587  1.00  0.00    -0.348 OA 
BRANCH  30  31
HETATM   31  C   UNL     1     -11.466  14.626  65.653  1.00  0.00    -0.340 C  
HETATM   32  O   UNL     1     -12.016  14.727  64.571  1.00  0.00    -0.445 OA 
BRANCH  31  33
HETATM   33  C   UNL     1     -10.354  15.534  66.075  1.00  0.00    -0.342 A  
HETATM   34  C   UNL     1      -8.179  17.129  66.892  1.00  0.00    -0.251 A  
HETATM   35  O   UNL     1      -9.232  19.917  67.871  1.00  0.00    -0.328 OA 
HETATM   36  C   UNL     1      -8.055  15.746  66.882  1.00  0.00    -0.292 A  
HETATM   37  C   UNL     1      -9.134  14.951  66.474  1.00  0.00    -0.309 A  
HETATM   38  O   UNL     1      -8.281  19.962  65.575  1.00  0.00    -0.315 OA 
HETATM   39  O   UNL     1     -10.696  19.852  65.811  1.00  0.00    -0.479 OA 
HETATM   40  C   UNL     1     -10.478  16.933  66.081  1.00  0.00    -0.276 A  
HETATM   41  S   UNL     1      -9.497  19.482  66.516  1.00  0.00    -0.396 S  
HETATM   42  C   UNL     1      -9.378  17.706  66.502  1.00  0.00    -0.272 A  
ENDBRANCH  31  33
ENDBRANCH  30  31
ENDBRANCH  29  30
ENDBRANCH  27  29
ENDBRANCH   4  27
TORSDOF 5
ENDMDL
MODEL       29
REMARK 921   NORMALIZED FREE ENERGY PREDICTED BY IDOCK:   -6.96 KCAL/MOL
REMARK 922        TOTAL FREE ENERGY PREDICTED BY IDOCK:   -9.70 KCAL/MOL
REMARK 923 INTER-LIGAND FREE ENERGY PREDICTED BY IDOCK:  -10.04 KCAL/MOL
REMARK 924 INTRA-LIGAND FREE ENERGY PREDICTED BY IDOCK:    0.34 KCAL/MOL
REMARK 927      BINDING AFFINITY PREDICTED BY RF-SCORE:    0.00 PKD
ROOT
HETATM    1  C   UNL     1      -8.558   8.836  65.443  1.00  0.00    -0.203 C  
HETATM    2  C   UNL     1      -7.325   9.507  65.372  1.00  0.00    -0.099 C  
HETATM    3  C   UNL     1      -7.887   9.404  66.763  1.00  0.00    -0.105 C  
HETATM    4  C   UNL     1      -9.489   8.116  67.048  1.00  0.00    -0.177 C  
HETATM    5  C   UNL     1      -6.486   9.846  67.617  1.00  0.00    -0.064 C  
HETATM    6  O   UNL     1      -9.896   7.224  65.949  1.00  0.00    -0.391 OA 
HETATM    7  C   UNL     1     -10.620  14.246  64.542  1.00  0.00    -0.232 C  
HETATM    8  C   UNL     1      -8.146   8.116  67.223  1.00  0.00    -0.121 C  
HETATM    9  C   UNL     1     -12.095  14.508  64.707  1.00  0.00    -0.445 C  
HETATM   10  C   UNL     1     -10.445  12.955  64.884  1.00  0.00    -0.351 C  
HETATM   11  C   UNL     1      -7.176   6.927  67.229  1.00  0.00    -0.089 C  
HETATM   12  H   UNL     1     -10.630   6.635  66.079  1.00  0.00     0.000 HD 
HETATM   13  C   UNL     1      -8.860   9.212  68.656  1.00  0.00    -0.133 C  
HETATM   14  C   UNL     1     -10.055  10.410  68.079  1.00  0.00    -0.163 C  
HETATM   15  C   UNL     1     -10.794  11.883  63.870  1.00  0.00    -0.456 C  
HETATM   16  C   UNL     1      -9.912  11.181  66.552  1.00  0.00    -0.214 C  
HETATM   17  C   UNL     1      -9.924  13.568  67.336  1.00  0.00    -0.234 C  
HETATM   18  O   UNL     1     -11.334   9.747  68.196  1.00  0.00    -0.526 OA 
HETATM   19  F   UNL     1      -8.632  11.788  66.426  1.00  0.00    -0.181 F  
HETATM   20  C   UNL     1      -9.883  10.048  65.362  1.00  0.00    -0.384 C  
HETATM   21  C   UNL     1     -10.677  12.559  66.365  1.00  0.00    -0.275 C  
HETATM   22  C   UNL     1     -12.148  12.870  66.614  1.00  0.00    -0.360 C  
HETATM   23  H   UNL     1     -11.968  10.383  67.889  1.00  0.00     0.000 HD 
HETATM   24  O   UNL     1     -12.691  15.265  63.955  1.00  0.00    -0.732 OA 
HETATM   25  C   UNL     1      -9.827  10.716  63.974  1.00  0.00    -0.399 C  
HETATM   26  C   UNL     1     -12.776  13.815  65.868  1.00  0.00    -0.452 C  
ENDROOT
BRANCH   4  27
HETATM   27  C   UNL     1      -9.789   6.839  68.178  1.00  0.00    -0.137 C  
HETATM   28  O   UNL     1      -8.918   6.215  68.809  1.00  0.00    -0.124 OA 
BRANCH  27  29
HETATM   29  C   UNL     1     -11.255   6.461  68.515  1.00  0.00    -0.228 C  
BRANCH  29  30
HETATM   30  O   UNL     1     -11.390   5.849  69.821  1.00  0.00    -0.371 OA 
BRANCH  30  31
HETATM   31  C   UNL     1     -11.382   6.717  70.865  1.00  0.00    -0.315 C  
HETATM   32  O   UNL     1     -11.817   7.854  70.832  1.00  0.00    -0.287 OA 
BRANCH  31  33
HETATM   33  C   UNL     1     -10.734   6.141  72.084  1.00  0.00    -0.277 A  
HETATM   34  C   UNL     1      -9.548   5.176  74.452  1.00  0.00    -0.155 A  
HETATM   35  O   UNL     1      -7.400   3.004  73.740  1.00  0.00    -0.044 OA 
HETATM   36  C   UNL     1     -10.144   6.431  74.440  1.00  0.00    -0.367 A  
HETATM   37  C   UNL     1     -10.736   6.912  73.265  1.00  0.00    -0.349 A  
HETATM   38  O   UNL     1      -9.552   2.052  74.540  1.00  0.00    -0.075 OA 
HETATM   39  O   UNL     1      -9.144   2.105  72.146  1.00  0.00    -0.075 OA 
HETATM   40  C   UNL     1     -10.134   4.871  72.097  1.00  0.00    -0.250 A  
HETATM   41  S   UNL     1      -8.779   2.809  73.346  1.00  0.00    -0.079 S  
HETATM   42  C   UNL     1      -9.542   4.416  73.292  1.00  0.00    -0.122 A  
ENDBRANCH  31  33
ENDBRANCH  30  31
ENDBRANCH  29  30
ENDBRANCH  27  29
ENDBRANCH   4  27
TORSDOF 5
ENDMDL
MODEL       30
REMARK 921   NORMALIZED FREE ENERGY PREDICTED BY IDOCK:   -6.90 KCAL/MOL
REMARK 922        TOTAL FREE ENERGY PREDICTED BY IDOCK:   -9.63 KCAL/MOL
REMARK 923 INTER-LIGAND FREE ENERGY PREDICTED BY IDOCK:   -9.73 KCAL/MOL
REMARK 924 INTRA-LIGAND FREE ENERGY PREDICTED BY IDOCK:    0.10 KCAL/MOL
REMARK 927      BINDING AFFINITY PREDICTED BY RF-SCORE:    0.00 PKD
ROOT
HETATM    1  C   UNL     1     -11.449  12.093  68.056  1.00  0.00    -0.380 C  
HETATM    2  C   UNL     1     -11.880  12.146  66.719  1.00  0.00    -0.304 C  
HETATM    3  C   UNL     1     -10.414  11.854  66.878  1.00  0.00    -0.253 C  
HETATM    4  C   UNL     1      -9.742  11.372  68.782  1.00  0.00    -0.145 C  
HETATM    5  C   UNL     1     -10.100  11.343  65.289  1.00  0.00    -0.315 C  
HETATM    6  O   UNL     1     -10.726  11.153  69.856  1.00  0.00    -0.457 OA 
HETATM    7  C   UNL     1     -10.654  17.830  67.167  1.00  0.00    -0.292 C  
HETATM    8  C   UNL     1     -10.093  10.734  67.641  1.00  0.00    -0.205 C  
HETATM    9  C   UNL     1      -9.901  18.636  68.194  1.00  0.00    -0.354 C  
HETATM   10  C   UNL     1     -10.607  16.557  67.605  1.00  0.00    -0.321 C  
HETATM   11  C   UNL     1     -10.640   9.311  67.462  1.00  0.00    -0.329 C  
HETATM   12  H   UNL     1     -10.418  10.933  70.727  1.00  0.00     0.000 HD 
HETATM   13  C   UNL     1      -8.346  11.503  67.293  1.00  0.00    -0.154 C  
HETATM   14  C   UNL     1      -8.234  13.215  67.795  1.00  0.00    -0.168 C  
HETATM   15  C   UNL     1     -11.564  16.134  68.704  1.00  0.00    -0.283 C  
HETATM   16  C   UNL     1      -9.562  14.295  67.665  1.00  0.00    -0.219 C  
HETATM   17  C   UNL     1      -8.475  16.056  66.241  1.00  0.00    -0.337 C  
HETATM   18  O   UNL     1      -7.742  13.173  69.153  1.00  0.00    -0.324 OA 
HETATM   19  F   UNL     1     -10.070  14.291  66.338  1.00  0.00    -0.257 F  
HETATM   20  C   UNL     1     -10.832  13.713  68.531  1.00  0.00    -0.275 C  
HETATM   21  C   UNL     1      -9.229  15.846  67.624  1.00  0.00    -0.208 C  
HETATM   22  C   UNL     1      -8.394  16.665  68.602  1.00  0.00    -0.246 C  
HETATM   23  H   UNL     1      -7.682  14.083  69.420  1.00  0.00     0.000 HD 
HETATM   24  O   UNL     1     -10.244  19.774  68.480  1.00  0.00    -0.440 OA 
HETATM   25  C   UNL     1     -12.016  14.699  68.491  1.00  0.00    -0.298 C  
HETATM   26  C   UNL     1      -8.690  17.973  68.815  1.00  0.00    -0.206 C  
ENDROOT
BRANCH   4  27
HETATM   27  C   UNL     1      -8.793  10.063  69.401  1.00  0.00    -0.190 C  
HETATM   28  O   UNL     1      -7.562   9.944  69.280  1.00  0.00    -0.083 OA 
BRANCH  27  29
HETATM   29  C   UNL     1      -9.489   8.963  70.246  1.00  0.00    -0.187 C  
BRANCH  29  30
HETATM   30  O   UNL     1      -9.512   9.275  71.661  1.00  0.00    -0.294 OA 
BRANCH  30  31
HETATM   31  C   UNL     1      -8.808   8.421  72.447  1.00  0.00    -0.224 C  
HETATM   32  O   UNL     1      -7.810   8.716  73.080  1.00  0.00    -0.385 OA 
BRANCH  31  33
HETATM   33  C   UNL     1      -9.366   7.033  72.433  1.00  0.00    -0.152 A  
HETATM   34  C   UNL     1     -10.536   4.469  72.471  1.00  0.00    -0.225 A  
HETATM   35  O   UNL     1      -8.292   2.289  72.234  1.00  0.00    -0.053 OA 
HETATM   36  C   UNL     1     -11.213   5.545  73.031  1.00  0.00    -0.346 A  
HETATM   37  C   UNL     1     -10.635   6.821  73.011  1.00  0.00    -0.295 A  
HETATM   38  O   UNL     1      -9.505   2.708  70.104  1.00  0.00    -0.136 OA 
HETATM   39  O   UNL     1      -7.341   3.768  70.417  1.00  0.00    -0.041 OA 
HETATM   40  C   UNL     1      -8.684   5.946  71.863  1.00  0.00    -0.138 A  
HETATM   41  S   UNL     1      -8.454   3.274  71.185  1.00  0.00    -0.068 S  
HETATM   42  C   UNL     1      -9.288   4.674  71.903  1.00  0.00    -0.140 A  
ENDBRANCH  31  33
ENDBRANCH  30  31
ENDBRANCH  29  30
ENDBRANCH  27  29
ENDBRANCH   4  27
TORSDOF 5
ENDMDL
MODEL       31
REMARK 921   NORMALIZED FREE ENERGY PREDICTED BY IDOCK:   -6.87 KCAL/MOL
REMARK 922        TOTAL FREE ENERGY PREDICTED BY IDOCK:   -9.59 KCAL/MOL
REMARK 923 INTER-LIGAND FREE ENERGY PREDICTED BY IDOCK:   -9.82 KCAL/MOL
REMARK 924 INTRA-LIGAND FREE ENERGY PREDICTED BY IDOCK:    0.23 KCAL/MOL
REMARK 927      BINDING AFFINITY PREDICTED BY RF-SCORE:    0.00 PKD
ROOT
HETATM    1  C   UNL     1     -10.872   5.480  69.810  1.00  0.00    -0.291 C  
HETATM    2  C   UNL     1      -9.871   4.570  70.193  1.00  0.00    -0.296 C  
HETATM    3  C   UNL     1      -9.604   5.988  70.616  1.00  0.00    -0.201 C  
HETATM    4  C   UNL     1     -11.170   7.340  70.451  1.00  0.00    -0.276 C  
HETATM    5  C   UNL     1      -8.350   5.675  71.718  1.00  0.00    -0.120 C  
HETATM    6  O   UNL     1     -12.514   6.843  70.111  1.00  0.00    -0.602 OA 
HETATM    7  C   UNL     1      -7.557   5.831  64.991  1.00  0.00    -0.087 C  
HETATM    8  C   UNL     1     -10.582   6.584  71.408  1.00  0.00    -0.266 C  
HETATM    9  C   UNL     1      -7.841   6.913  63.980  1.00  0.00    -0.100 C  
HETATM   10  C   UNL     1      -8.418   6.052  66.003  1.00  0.00    -0.139 C  
HETATM   11  C   UNL     1     -11.189   6.021  72.699  1.00  0.00    -0.326 C  
HETATM   12  H   UNL     1     -13.231   7.461  70.036  1.00  0.00     0.000 HD 
HETATM   13  C   UNL     1      -9.364   8.060  71.085  1.00  0.00    -0.176 C  
HETATM   14  C   UNL     1      -9.069   8.343  69.345  1.00  0.00    -0.154 C  
HETATM   15  C   UNL     1      -9.855   5.590  65.846  1.00  0.00    -0.029 C  
HETATM   16  C   UNL     1      -8.999   7.058  68.208  1.00  0.00    -0.128 C  
HETATM   17  C   UNL     1      -6.709   7.504  67.278  1.00  0.00    -0.067 C  
HETATM   18  O   UNL     1     -10.062   9.316  68.952  1.00  0.00    -0.183 OA 
HETATM   19  F   UNL     1      -8.056   6.081  68.629  1.00  0.00    -0.101 F  
HETATM   20  C   UNL     1     -10.412   6.219  68.237  1.00  0.00    -0.277 C  
HETATM   21  C   UNL     1      -8.230   7.338  66.848  1.00  0.00    -0.117 C  
HETATM   22  C   UNL     1      -8.437   8.476  65.857  1.00  0.00    -0.164 C  
HETATM   23  H   UNL     1      -9.905   9.466  68.027  1.00  0.00     0.000 HD 
HETATM   24  O   UNL     1      -7.752   6.697  62.781  1.00  0.00    -0.088 OA 
HETATM   25  C   UNL     1     -10.405   5.102  67.175  1.00  0.00    -0.246 C  
HETATM   26  C   UNL     1      -8.202   8.274  64.535  1.00  0.00    -0.138 C  
ENDROOT
BRANCH   4  27
HETATM   27  C   UNL     1     -11.880   8.463  71.561  1.00  0.00    -0.297 C  
HETATM   28  O   UNL     1     -11.770   8.422  72.798  1.00  0.00    -0.367 OA 
BRANCH  27  29
HETATM   29  C   UNL     1     -12.666   9.678  71.002  1.00  0.00    -0.271 C  
BRANCH  29  30
HETATM   30  O   UNL     1     -11.831  10.845  70.808  1.00  0.00    -0.333 OA 
BRANCH  30  31
HETATM   31  C   UNL     1     -12.083  11.548  69.673  1.00  0.00    -0.296 C  
HETATM   32  O   UNL     1     -12.384  11.058  68.600  1.00  0.00    -0.539 OA 
BRANCH  31  33
HETATM   33  C   UNL     1     -11.912  13.022  69.862  1.00  0.00    -0.381 A  
HETATM   34  C   UNL     1     -11.672  15.790  70.336  1.00  0.00    -0.390 A  
HETATM   35  O   UNL     1     -10.997  17.260  67.647  1.00  0.00    -0.286 OA 
HETATM   36  C   UNL     1     -12.416  15.003  71.206  1.00  0.00    -0.402 A  
HETATM   37  C   UNL     1     -12.534  13.626  70.974  1.00  0.00    -0.456 A  
HETATM   38  O   UNL     1      -9.025  16.930  69.125  1.00  0.00    -0.207 OA 
HETATM   39  O   UNL     1      -9.345  15.382  67.280  1.00  0.00    -0.204 OA 
HETATM   40  C   UNL     1     -11.157  13.818  68.984  1.00  0.00    -0.296 A  
HETATM   41  S   UNL     1     -10.106  16.237  68.152  1.00  0.00    -0.251 S  
HETATM   42  C   UNL     1     -11.060  15.200  69.240  1.00  0.00    -0.274 A  
ENDBRANCH  31  33
ENDBRANCH  30  31
ENDBRANCH  29  30
ENDBRANCH  27  29
ENDBRANCH   4  27
TORSDOF 5
ENDMDL
MODEL       32
REMARK 921   NORMALIZED FREE ENERGY PREDICTED BY IDOCK:   -6.86 KCAL/MOL
REMARK 922        TOTAL FREE ENERGY PREDICTED BY IDOCK:   -9.57 KCAL/MOL
REMARK 923 INTER-LIGAND FREE ENERGY PREDICTED BY IDOCK:   -9.33 KCAL/MOL
REMARK 924 INTRA-LIGAND FREE ENERGY PREDICTED BY IDOCK:   -0.24 KCAL/MOL
REMARK 927      BINDING AFFINITY PREDICTED BY RF-SCORE:    0.00 PKD
ROOT
HETATM    1  C   UNL     1      -8.877   8.820  65.851  1.00  0.00    -0.222 C  
HETATM    2  C   UNL     1      -7.601   9.408  65.838  1.00  0.00    -0.099 C  
HETATM    3  C   UNL     1      -8.266   9.419  67.186  1.00  0.00    -0.113 C  
HETATM    4  C   UNL     1      -9.967   8.252  67.416  1.00  0.00    -0.209 C  
HETATM    5  C   UNL     1      -6.905   9.821  68.119  1.00  0.00    -0.069 C  
HETATM    6  O   UNL     1     -10.352   7.326  66.338  1.00  0.00    -0.482 OA 
HETATM    7  C   UNL     1     -10.506  14.288  64.516  1.00  0.00    -0.172 C  
HETATM    8  C   UNL     1      -8.643   8.178  67.692  1.00  0.00    -0.130 C  
HETATM    9  C   UNL     1     -11.969  14.650  64.555  1.00  0.00    -0.460 C  
HETATM   10  C   UNL     1     -10.442  13.010  64.937  1.00  0.00    -0.358 C  
HETATM   11  C   UNL     1      -7.757   6.933  67.833  1.00  0.00    -0.112 C  
HETATM   12  H   UNL     1     -11.131   6.792  66.443  1.00  0.00     0.000 HD 
HETATM   13  C   UNL     1      -9.384   9.396  69.009  1.00  0.00    -0.153 C  
HETATM   14  C   UNL     1     -10.453  10.631  68.281  1.00  0.00    -0.187 C  
HETATM   15  C   UNL     1     -10.788  11.906  63.957  1.00  0.00    -0.438 C  
HETATM   16  C   UNL     1     -10.149  11.304  66.731  1.00  0.00    -0.219 C  
HETATM   17  C   UNL     1     -10.060  13.728  67.386  1.00  0.00    -0.244 C  
HETATM   18  O   UNL     1     -11.777  10.057  68.335  1.00  0.00    -0.612 OA 
HETATM   19  F   UNL     1      -8.827  11.822  66.671  1.00  0.00    -0.168 F  
HETATM   20  C   UNL     1     -10.110  10.106  65.607  1.00  0.00    -0.324 C  
HETATM   21  C   UNL     1     -10.806  12.714  66.415  1.00  0.00    -0.295 C  
HETATM   22  C   UNL     1     -12.267  13.130  66.536  1.00  0.00    -0.358 C  
HETATM   23  H   UNL     1     -12.345  10.713  67.949  1.00  0.00     0.000 HD 
HETATM   24  O   UNL     1     -12.458  15.398  63.722  1.00  0.00    -0.663 OA 
HETATM   25  C   UNL     1      -9.910  10.689  64.195  1.00  0.00    -0.396 C  
HETATM   26  C   UNL     1     -12.776  14.068  65.696  1.00  0.00    -0.515 C  
ENDROOT
BRANCH   4  27
HETATM   27  C   UNL     1     -10.431   7.062  68.586  1.00  0.00    -0.204 C  
HETATM   28  O   UNL     1     -11.032   7.293  69.649  1.00  0.00    -0.237 OA 
BRANCH  27  29
HETATM   29  C   UNL     1     -10.158   5.565  68.286  1.00  0.00    -0.173 C  
BRANCH  29  30
HETATM   30  O   UNL     1     -10.191   4.741  69.477  1.00  0.00    -0.221 OA 
BRANCH  30  31
HETATM   31  C   UNL     1      -8.991   4.228  69.853  1.00  0.00    -0.096 C  
HETATM   32  O   UNL     1      -8.333   3.437  69.202  1.00  0.00    -0.059 OA 
BRANCH  31  33
HETATM   33  C   UNL     1      -8.557   4.713  71.200  1.00  0.00    -0.128 A  
HETATM   34  C   UNL     1      -7.751   5.491  73.787  1.00  0.00    -0.101 A  
HETATM   35  O   UNL     1      -8.321   8.550  74.187  1.00  0.00    -0.301 OA 
HETATM   36  C   UNL     1      -8.058   4.161  73.531  1.00  0.00    -0.090 A  
HETATM   37  C   UNL     1      -8.456   3.771  72.245  1.00  0.00    -0.094 A  
HETATM   38  O   UNL     1      -5.938   8.035  73.701  1.00  0.00    -0.068 OA 
HETATM   39  O   UNL     1      -7.334   8.821  71.876  1.00  0.00    -0.225 OA 
HETATM   40  C   UNL     1      -8.243   6.057  71.459  1.00  0.00    -0.123 A  
HETATM   41  S   UNL     1      -7.440   8.114  73.124  1.00  0.00    -0.114 S  
HETATM   42  C   UNL     1      -7.851   6.420  72.763  1.00  0.00    -0.103 A  
ENDBRANCH  31  33
ENDBRANCH  30  31
ENDBRANCH  29  30
ENDBRANCH  27  29
ENDBRANCH   4  27
TORSDOF 5
ENDMDL
MODEL       33
REMARK 921   NORMALIZED FREE ENERGY PREDICTED BY IDOCK:   -6.85 KCAL/MOL
REMARK 922        TOTAL FREE ENERGY PREDICTED BY IDOCK:   -9.56 KCAL/MOL
REMARK 923 INTER-LIGAND FREE ENERGY PREDICTED BY IDOCK:   -9.37 KCAL/MOL
REMARK 924 INTRA-LIGAND FREE ENERGY PREDICTED BY IDOCK:   -0.19 KCAL/MOL
REMARK 927      BINDING AFFINITY PREDICTED BY RF-SCORE:    0.00 PKD
ROOT
HETATM    1  C   UNL     1     -10.931   7.603  69.619  1.00  0.00    -0.145 C  
HETATM    2  C   UNL     1     -11.019   7.211  70.966  1.00  0.00    -0.277 C  
HETATM    3  C   UNL     1      -9.923   8.202  70.687  1.00  0.00    -0.204 C  
HETATM    4  C   UNL     1      -9.939   9.138  68.835  1.00  0.00    -0.180 C  
HETATM    5  C   UNL     1      -9.585   8.640  72.293  1.00  0.00    -0.348 C  
HETATM    6  O   UNL     1     -11.097   8.950  67.945  1.00  0.00    -0.497 OA 
HETATM    7  C   UNL     1      -7.384   2.946  69.353  1.00  0.00    -0.044 C  
HETATM    8  C   UNL     1     -10.320   9.404  70.106  1.00  0.00    -0.273 C  
HETATM    9  C   UNL     1      -6.557   2.722  68.113  1.00  0.00    -0.036 C  
HETATM   10  C   UNL     1      -8.025   4.113  69.149  1.00  0.00    -0.060 C  
HETATM   11  C   UNL     1     -11.424  10.346  70.604  1.00  0.00    -0.438 C  
HETATM   12  H   UNL     1     -11.104   9.378  67.098  1.00  0.00     0.000 HD 
HETATM   13  C   UNL     1      -8.386   9.565  70.096  1.00  0.00    -0.212 C  
HETATM   14  C   UNL     1      -7.584   8.190  69.282  1.00  0.00    -0.095 C  
HETATM   15  C   UNL     1      -9.261   4.117  68.269  1.00  0.00    -0.195 C  
HETATM   16  C   UNL     1      -8.197   6.589  69.374  1.00  0.00    -0.119 C  
HETATM   17  C   UNL     1      -6.159   5.460  70.314  1.00  0.00    -0.022 C  
HETATM   18  O   UNL     1      -7.442   8.604  67.905  1.00  0.00    -0.094 OA 
HETATM   19  F   UNL     1      -8.380   6.210  70.731  1.00  0.00    -0.117 F  
HETATM   20  C   UNL     1      -9.732   6.552  68.787  1.00  0.00    -0.131 C  
HETATM   21  C   UNL     1      -7.175   5.408  69.093  1.00  0.00    -0.058 C  
HETATM   22  C   UNL     1      -6.261   5.209  67.890  1.00  0.00    -0.035 C  
HETATM   23  H   UNL     1      -7.016   7.873  67.473  1.00  0.00     0.000 HD 
HETATM   24  O   UNL     1      -6.374   1.598  67.669  1.00  0.00    -0.024 OA 
HETATM   25  C   UNL     1     -10.283   5.114  68.791  1.00  0.00    -0.202 C  
HETATM   26  C   UNL     1      -5.944   3.953  67.481  1.00  0.00    -0.024 C  
ENDROOT
BRANCH   4  27
HETATM   27  C   UNL     1      -9.855  10.799  68.353  1.00  0.00    -0.169 C  
HETATM   28  O   UNL     1      -9.216  11.690  68.940  1.00  0.00    -0.088 OA 
BRANCH  27  29
HETATM   29  C   UNL     1     -10.562  11.240  67.044  1.00  0.00    -0.246 C  
BRANCH  29  30
HETATM   30  O   UNL     1     -11.874  11.807  67.280  1.00  0.00    -0.596 OA 
BRANCH  30  31
HETATM   31  C   UNL     1     -12.106  12.992  66.660  1.00  0.00    -0.319 C  
HETATM   32  O   UNL     1     -12.561  13.116  65.537  1.00  0.00    -0.472 OA 
BRANCH  31  33
HETATM   33  C   UNL     1     -11.703  14.166  67.495  1.00  0.00    -0.418 A  
HETATM   34  C   UNL     1     -10.986  16.305  69.185  1.00  0.00    -0.324 A  
HETATM   35  O   UNL     1     -10.921  18.971  67.532  1.00  0.00    -0.443 OA 
HETATM   36  C   UNL     1     -11.546  15.155  69.727  1.00  0.00    -0.338 A  
HETATM   37  C   UNL     1     -11.901  14.089  68.889  1.00  0.00    -0.390 A  
HETATM   38  O   UNL     1      -8.669  18.005  67.955  1.00  0.00    -0.249 OA 
HETATM   39  O   UNL     1      -9.694  17.613  65.788  1.00  0.00    -0.537 OA 
HETATM   40  C   UNL     1     -11.132  15.327  66.948  1.00  0.00    -0.288 A  
HETATM   41  S   UNL     1     -10.061  17.869  67.156  1.00  0.00    -0.356 S  
HETATM   42  C   UNL     1     -10.791  16.385  67.814  1.00  0.00    -0.306 A  
ENDBRANCH  31  33
ENDBRANCH  30  31
ENDBRANCH  29  30
ENDBRANCH  27  29
ENDBRANCH   4  27
TORSDOF 5
ENDMDL
MODEL       34
REMARK 921   NORMALIZED FREE ENERGY PREDICTED BY IDOCK:   -6.77 KCAL/MOL
REMARK 922        TOTAL FREE ENERGY PREDICTED BY IDOCK:   -9.46 KCAL/MOL
REMARK 923 INTER-LIGAND FREE ENERGY PREDICTED BY IDOCK:   -8.92 KCAL/MOL
REMARK 924 INTRA-LIGAND FREE ENERGY PREDICTED BY IDOCK:   -0.54 KCAL/MOL
REMARK 927      BINDING AFFINITY PREDICTED BY RF-SCORE:    0.00 PKD
ROOT
HETATM    1  C   UNL     1      -7.975   8.558  64.462  1.00  0.00    -0.145 C  
HETATM    2  C   UNL     1      -6.875   9.316  64.025  1.00  0.00    -0.092 C  
HETATM    3  C   UNL     1      -6.952   9.153  65.518  1.00  0.00    -0.081 C  
HETATM    4  C   UNL     1      -8.293   7.750  66.252  1.00  0.00    -0.131 C  
HETATM    5  C   UNL     1      -5.383   9.681  65.896  1.00  0.00    -0.039 C  
HETATM    6  O   UNL     1      -8.975   6.847  65.309  1.00  0.00    -0.368 OA 
HETATM    7  C   UNL     1     -10.554  13.819  64.466  1.00  0.00    -0.405 C  
HETATM    8  C   UNL     1      -6.969   7.843  65.989  1.00  0.00    -0.061 C  
HETATM    9  C   UNL     1     -11.911  13.972  65.103  1.00  0.00    -0.387 C  
HETATM   10  C   UNL     1     -10.197  12.539  64.686  1.00  0.00    -0.315 C  
HETATM   11  C   UNL     1      -5.975   6.727  65.641  1.00  0.00    -0.035 C  
HETATM   12  H   UNL     1      -9.589   6.205  65.645  1.00  0.00     0.000 HD 
HETATM   13  C   UNL     1      -7.252   8.864  67.615  1.00  0.00    -0.080 C  
HETATM   14  C   UNL     1      -8.642   9.981  67.493  1.00  0.00    -0.122 C  
HETATM   15  C   UNL     1     -10.785  11.460  63.798  1.00  0.00    -0.470 C  
HETATM   16  C   UNL     1      -9.046  10.784  66.030  1.00  0.00    -0.185 C  
HETATM   17  C   UNL     1      -8.957  13.152  66.864  1.00  0.00    -0.213 C  
HETATM   18  O   UNL     1      -9.771   9.227  67.988  1.00  0.00    -0.144 OA 
HETATM   19  F   UNL     1      -7.916  11.482  65.525  1.00  0.00     0.090 F  
HETATM   20  C   UNL     1      -9.329   9.673  64.852  1.00  0.00    -0.306 C  
HETATM   21  C   UNL     1      -9.916  12.106  66.148  1.00  0.00    -0.253 C  
HETATM   22  C   UNL     1     -11.245  12.307  66.865  1.00  0.00    -0.367 C  
HETATM   23  H   UNL     1     -10.509   9.821  67.924  1.00  0.00     0.000 HD 
HETATM   24  O   UNL     1     -12.764  14.695  64.608  1.00  0.00    -0.588 OA 
HETATM   25  C   UNL     1      -9.764  10.363  63.545  1.00  0.00    -0.333 C  
HETATM   26  C   UNL     1     -12.138  13.216  66.394  1.00  0.00    -0.447 C  
ENDROOT
BRANCH   4  27
HETATM   27  C   UNL     1      -8.133   6.438  67.371  1.00  0.00    -0.116 C  
HETATM   28  O   UNL     1      -7.330   6.393  68.319  1.00  0.00    -0.082 OA 
BRANCH  27  29
HETATM   29  C   UNL     1      -9.103   5.232  67.261  1.00  0.00    -0.112 C  
BRANCH  29  30
HETATM   30  O   UNL     1      -9.947   5.083  68.428  1.00  0.00    -0.160 OA 
BRANCH  30  31
HETATM   31  C   UNL     1     -10.844   6.085  68.618  1.00  0.00    -0.307 C  
HETATM   32  O   UNL     1     -11.532   6.582  67.745  1.00  0.00    -0.146 OA 
BRANCH  31  33
HETATM   33  C   UNL     1     -10.881   6.561  70.036  1.00  0.00    -0.342 A  
HETATM   34  C   UNL     1     -11.092   7.468  72.697  1.00  0.00    -0.398 A  
HETATM   35  O   UNL     1      -8.358   8.713  73.600  1.00  0.00    -0.380 OA 
HETATM   36  C   UNL     1     -12.236   7.334  71.921  1.00  0.00    -0.348 A  
HETATM   37  C   UNL     1     -12.134   6.880  70.598  1.00  0.00    -0.363 A  
HETATM   38  O   UNL     1      -8.734   6.410  74.455  1.00  0.00    -0.130 OA 
HETATM   39  O   UNL     1      -7.314   6.689  72.504  1.00  0.00    -0.086 OA 
HETATM   40  C   UNL     1      -9.724   6.694  70.822  1.00  0.00    -0.190 A  
HETATM   41  S   UNL     1      -8.414   7.331  73.173  1.00  0.00    -0.131 S  
HETATM   42  C   UNL     1      -9.857   7.157  72.146  1.00  0.00    -0.153 A  
ENDBRANCH  31  33
ENDBRANCH  30  31
ENDBRANCH  29  30
ENDBRANCH  27  29
ENDBRANCH   4  27
TORSDOF 5
ENDMDL
MODEL       35
REMARK 921   NORMALIZED FREE ENERGY PREDICTED BY IDOCK:   -6.76 KCAL/MOL
REMARK 922        TOTAL FREE ENERGY PREDICTED BY IDOCK:   -9.44 KCAL/MOL
REMARK 923 INTER-LIGAND FREE ENERGY PREDICTED BY IDOCK:  -10.30 KCAL/MOL
REMARK 924 INTRA-LIGAND FREE ENERGY PREDICTED BY IDOCK:    0.86 KCAL/MOL
REMARK 927      BINDING AFFINITY PREDICTED BY RF-SCORE:    0.00 PKD
ROOT
HETATM    1  C   UNL     1     -11.247  16.323  67.630  1.00  0.00    -0.111 C  
HETATM    2  C   UNL     1     -11.161  16.668  66.271  1.00  0.00     0.279 C  
HETATM    3  C   UNL     1     -10.347  15.462  66.649  1.00  0.00    -0.281 C  
HETATM    4  C   UNL     1     -10.691  14.633  68.520  1.00  0.00    -0.247 C  
HETATM    5  C   UNL     1     -10.028  14.891  65.082  1.00  0.00    -0.277 C  
HETATM    6  O   UNL     1     -11.823  15.123  69.325  1.00  0.00    -0.304 OA 
HETATM    7  C   UNL     1      -6.726  20.032  68.010  1.00  0.00    -0.314 C  
HETATM    8  C   UNL     1     -11.049  14.411  67.233  1.00  0.00    -0.318 C  
HETATM    9  C   UNL     1      -5.944  20.109  69.296  1.00  0.00    -0.312 C  
HETATM   10  C   UNL     1      -7.635  19.056  68.201  1.00  0.00    -0.311 C  
HETATM   11  C   UNL     1     -12.312  13.732  66.688  1.00  0.00    -0.403 C  
HETATM   12  H   UNL     1     -11.981  14.744  70.181  1.00  0.00     0.000 HD 
HETATM   13  C   UNL     1      -9.212  13.804  67.377  1.00  0.00    -0.221 C  
HETATM   14  C   UNL     1      -8.158  14.986  68.206  1.00  0.00    -0.133 C  
HETATM   15  C   UNL     1      -8.886  19.377  68.996  1.00  0.00    -0.261 C  
HETATM   16  C   UNL     1      -8.371  16.681  68.031  1.00  0.00    -0.187 C  
HETATM   17  C   UNL     1      -6.073  17.264  67.200  1.00  0.00    -0.184 C  
HETATM   18  O   UNL     1      -8.199  14.609  69.601  1.00  0.00    -0.397 OA 
HETATM   19  F   UNL     1      -8.379  17.036  66.655  1.00  0.00    -0.203 F  
HETATM   20  C   UNL     1      -9.886  17.099  68.512  1.00  0.00    -0.297 C  
HETATM   21  C   UNL     1      -7.117  17.602  68.349  1.00  0.00    -0.236 C  
HETATM   22  C   UNL     1      -6.255  17.633  69.604  1.00  0.00    -0.220 C  
HETATM   23  H   UNL     1      -7.639  15.238  70.041  1.00  0.00     0.000 HD 
HETATM   24  O   UNL     1      -5.528  21.177  69.721  1.00  0.00    -0.459 OA 
HETATM   25  C   UNL     1     -10.081  18.625  68.434  1.00  0.00    -0.426 C  
HETATM   26  C   UNL     1      -5.676  18.796  70.000  1.00  0.00    -0.253 C  
ENDROOT
BRANCH   4  27
HETATM   27  C   UNL     1     -11.029  13.020  69.051  1.00  0.00    -0.196 C  
HETATM   28  O   UNL     1     -12.029  12.668  69.702  1.00  0.00    -0.315 OA 
BRANCH  27  29
HETATM   29  C   UNL     1     -10.066  11.875  68.640  1.00  0.00    -0.177 C  
BRANCH  29  30
HETATM   30  O   UNL     1     -10.728  10.828  67.889  1.00  0.00    -0.203 OA 
BRANCH  30  31
HETATM   31  C   UNL     1      -9.943   9.768  67.568  1.00  0.00    -0.184 C  
HETATM   32  O   UNL     1      -9.013   9.800  66.782  1.00  0.00    -0.136 OA 
BRANCH  31  33
HETATM   33  C   UNL     1     -10.363   8.512  68.262  1.00  0.00    -0.246 A  
HETATM   34  C   UNL     1     -11.128   6.073  69.450  1.00  0.00    -0.445 A  
HETATM   35  O   UNL     1     -13.023   6.641  71.885  1.00  0.00    -0.306 OA 
HETATM   36  C   UNL     1     -10.716   6.095  68.124  1.00  0.00    -0.367 A  
HETATM   37  C   UNL     1     -10.333   7.306  67.532  1.00  0.00    -0.310 A  
HETATM   38  O   UNL     1     -10.683   6.120  72.544  1.00  0.00    -0.205 OA 
HETATM   39  O   UNL     1     -11.363   8.451  72.484  1.00  0.00    -0.375 OA 
HETATM   40  C   UNL     1     -10.776   8.488  69.605  1.00  0.00    -0.200 A  
HETATM   41  S   UNL     1     -11.683   7.189  71.872  1.00  0.00    -0.305 S  
HETATM   42  C   UNL     1     -11.160   7.257  70.171  1.00  0.00    -0.258 A  
ENDBRANCH  31  33
ENDBRANCH  30  31
ENDBRANCH  29  30
ENDBRANCH  27  29
ENDBRANCH   4  27
TORSDOF 5
ENDMDL
MODEL       36
REMARK 921   NORMALIZED FREE ENERGY PREDICTED BY IDOCK:   -6.75 KCAL/MOL
REMARK 922        TOTAL FREE ENERGY PREDICTED BY IDOCK:   -9.44 KCAL/MOL
REMARK 923 INTER-LIGAND FREE ENERGY PREDICTED BY IDOCK:   -8.98 KCAL/MOL
REMARK 924 INTRA-LIGAND FREE ENERGY PREDICTED BY IDOCK:   -0.46 KCAL/MOL
REMARK 927      BINDING AFFINITY PREDICTED BY RF-SCORE:    0.00 PKD
ROOT
HETATM    1  C   UNL     1     -10.180   9.561  69.158  1.00  0.00    -0.209 C  
HETATM    2  C   UNL     1      -9.211   9.670  70.170  1.00  0.00    -0.287 C  
HETATM    3  C   UNL     1      -8.661   9.808  68.777  1.00  0.00    -0.127 C  
HETATM    4  C   UNL     1     -10.028  10.050  67.235  1.00  0.00    -0.197 C  
HETATM    5  C   UNL     1      -7.134  10.430  69.187  1.00  0.00    -0.080 C  
HETATM    6  O   UNL     1     -11.448  10.261  67.562  1.00  0.00    -0.527 OA 
HETATM    7  C   UNL     1      -8.815   3.880  69.601  1.00  0.00    -0.144 C  
HETATM    8  C   UNL     1      -9.217  10.819  67.998  1.00  0.00    -0.150 C  
HETATM    9  C   UNL     1      -9.329   2.917  68.562  1.00  0.00    -0.187 C  
HETATM   10  C   UNL     1      -9.223   5.097  69.194  1.00  0.00    -0.150 C  
HETATM   11  C   UNL     1      -9.373  12.297  68.382  1.00  0.00    -0.162 C  
HETATM   12  H   UNL     1     -12.074  10.371  66.856  1.00  0.00     0.000 HD 
HETATM   13  C   UNL     1      -8.049   9.926  66.732  1.00  0.00    -0.117 C  
HETATM   14  C   UNL     1      -8.376   8.172  66.612  1.00  0.00    -0.111 C  
HETATM   15  C   UNL     1     -10.660   5.506  69.460  1.00  0.00    -0.366 C  
HETATM   16  C   UNL     1      -8.858   7.237  67.969  1.00  0.00    -0.129 C  
HETATM   17  C   UNL     1      -7.025   5.519  67.911  1.00  0.00    -0.066 C  
HETATM   18  O   UNL     1      -9.334   8.044  65.539  1.00  0.00    -0.411 OA 
HETATM   19  F   UNL     1      -7.936   7.409  69.037  1.00  0.00    -0.112 F  
HETATM   20  C   UNL     1     -10.245   7.853  68.599  1.00  0.00    -0.223 C  
HETATM   21  C   UNL     1      -8.607   5.671  67.892  1.00  0.00    -0.101 C  
HETATM   22  C   UNL     1      -9.037   4.693  66.806  1.00  0.00    -0.121 C  
HETATM   23  H   UNL     1      -9.508   7.112  65.476  1.00  0.00     0.000 HD 
HETATM   24  O   UNL     1      -9.703   1.795  68.869  1.00  0.00    -0.102 OA 
HETATM   25  C   UNL     1     -10.741   6.991  69.775  1.00  0.00    -0.265 C  
HETATM   26  C   UNL     1      -9.319   3.404  67.128  1.00  0.00    -0.224 C  
ENDROOT
BRANCH   4  27
HETATM   27  C   UNL     1     -10.165  11.203  65.950  1.00  0.00    -0.251 C  
HETATM   28  O   UNL     1      -9.217  11.799  65.411  1.00  0.00    -0.148 OA 
BRANCH  27  29
HETATM   29  C   UNL     1     -11.564  11.491  65.344  1.00  0.00     0.082 C  
BRANCH  29  30
HETATM   30  O   UNL     1     -12.371  12.355  66.182  1.00  0.00    -0.606 OA 
BRANCH  30  31
HETATM   31  C   UNL     1     -12.351  13.669  65.839  1.00  0.00    -0.471 C  
HETATM   32  O   UNL     1     -12.591  14.104  64.727  1.00  0.00    -0.608 OA 
BRANCH  31  33
HETATM   33  C   UNL     1     -11.957  14.554  66.978  1.00  0.00    -0.371 A  
HETATM   34  C   UNL     1     -11.157  16.312  69.031  1.00  0.00    -0.331 A  
HETATM   35  O   UNL     1     -10.933  14.736  71.734  1.00  0.00     0.120 OA 
HETATM   36  C   UNL     1     -10.868  16.619  67.708  1.00  0.00    -0.292 A  
HETATM   37  C   UNL     1     -11.267  15.748  66.685  1.00  0.00    -0.000 A  
HETATM   38  O   UNL     1     -13.019  16.072  71.530  1.00  0.00    -0.406 OA 
HETATM   39  O   UNL     1     -13.135  13.691  71.064  1.00  0.00    -0.271 OA 
HETATM   40  C   UNL     1     -12.252  14.245  68.317  1.00  0.00    -0.181 A  
HETATM   41  S   UNL     1     -12.196  14.781  71.029  1.00  0.00    -0.356 S  
HETATM   42  C   UNL     1     -11.834  15.137  69.323  1.00  0.00    -0.320 A  
ENDBRANCH  31  33
ENDBRANCH  30  31
ENDBRANCH  29  30
ENDBRANCH  27  29
ENDBRANCH   4  27
TORSDOF 5
ENDMDL
MODEL       37
REMARK 921   NORMALIZED FREE ENERGY PREDICTED BY IDOCK:   -6.75 KCAL/MOL
REMARK 922        TOTAL FREE ENERGY PREDICTED BY IDOCK:   -9.44 KCAL/MOL
REMARK 923 INTER-LIGAND FREE ENERGY PREDICTED BY IDOCK:   -9.78 KCAL/MOL
REMARK 924 INTRA-LIGAND FREE ENERGY PREDICTED BY IDOCK:    0.34 KCAL/MOL
REMARK 927      BINDING AFFINITY PREDICTED BY RF-SCORE:    0.00 PKD
ROOT
HETATM    1  C   UNL     1     -10.602  12.544  65.708  1.00  0.00    -0.299 C  
HETATM    2  C   UNL     1      -9.439  12.420  64.928  1.00  0.00     0.219 C  
HETATM    3  C   UNL     1      -9.225  12.158  66.393  1.00  0.00    -0.207 C  
HETATM    4  C   UNL     1     -10.915  11.933  67.575  1.00  0.00    -0.247 C  
HETATM    5  C   UNL     1      -7.687  11.445  66.284  1.00  0.00     0.005 C  
HETATM    6  O   UNL     1     -12.237  11.851  66.930  1.00  0.00    -0.493 OA 
HETATM    7  C   UNL     1      -8.822  18.119  65.999  1.00  0.00     0.011 C  
HETATM    8  C   UNL     1     -10.003  11.149  66.954  1.00  0.00    -0.230 C  
HETATM    9  C   UNL     1      -9.495  19.056  66.969  1.00  0.00    -0.317 C  
HETATM   10  C   UNL     1      -9.386  16.915  66.215  1.00  0.00    -0.292 C  
HETATM   11  C   UNL     1     -10.161   9.713  66.437  1.00  0.00    -0.317 C  
HETATM   12  H   UNL     1     -13.010  11.748  67.471  1.00  0.00     0.000 HD 
HETATM   13  C   UNL     1      -9.096  11.873  68.508  1.00  0.00    -0.123 C  
HETATM   14  C   UNL     1      -9.331  13.637  68.684  1.00  0.00    -0.057 C  
HETATM   15  C   UNL     1     -10.748  16.634  65.610  1.00  0.00    -0.222 C  
HETATM   16  C   UNL     1      -9.438  14.685  67.328  1.00  0.00    -0.219 C  
HETATM   17  C   UNL     1      -7.562  16.250  67.914  1.00  0.00    -0.148 C  
HETATM   18  O   UNL     1     -10.496  13.776  69.527  1.00  0.00    -0.434 OA 
HETATM   19  F   UNL     1      -8.312  14.505  66.479  1.00  0.00    -0.185 F  
HETATM   20  C   UNL     1     -10.684  14.215  66.365  1.00  0.00    -0.288 C  
HETATM   21  C   UNL     1      -9.114  16.219  67.574  1.00  0.00    -0.196 C  
HETATM   22  C   UNL     1      -9.715  17.162  68.609  1.00  0.00    -0.293 C  
HETATM   23  H   UNL     1     -10.621  14.713  69.620  1.00  0.00     0.000 HD 
HETATM   24  O   UNL     1      -9.720  20.220  66.671  1.00  0.00    -0.415 OA 
HETATM   25  C   UNL     1     -10.849  15.181  65.176  1.00  0.00    -0.437 C  
HETATM   26  C   UNL     1      -9.836  18.486  68.329  1.00  0.00    -0.394 C  
ENDROOT
BRANCH   4  27
HETATM   27  C   UNL     1     -11.409  10.720  68.709  1.00  0.00    -0.288 C  
HETATM   28  O   UNL     1     -10.885   9.601  68.842  1.00  0.00    -0.221 OA 
BRANCH  27  29
HETATM   29  C   UNL     1     -12.549  11.044  69.709  1.00  0.00    -0.084 C  
BRANCH  29  30
HETATM   30  O   UNL     1     -12.146  10.881  71.091  1.00  0.00    -0.334 OA 
BRANCH  30  31
HETATM   31  C   UNL     1     -12.730   9.841  71.740  1.00  0.00    -0.426 C  
HETATM   32  O   UNL     1     -13.832   9.870  72.257  1.00  0.00    -0.295 OA 
BRANCH  31  33
HETATM   33  C   UNL     1     -11.850   8.632  71.794  1.00  0.00    -0.404 A  
HETATM   34  C   UNL     1     -10.305   6.276  71.856  1.00  0.00    -0.234 A  
HETATM   35  O   UNL     1      -7.842   6.686  73.757  1.00  0.00    -0.096 OA 
HETATM   36  C   UNL     1     -11.647   6.211  71.506  1.00  0.00    -0.304 A  
HETATM   37  C   UNL     1     -12.417   7.382  71.472  1.00  0.00    -0.394 A  
HETATM   38  O   UNL     1      -7.281   6.879  71.343  1.00  0.00    -0.077 OA 
HETATM   39  O   UNL     1      -7.599   8.926  72.611  1.00  0.00    -0.359 OA 
HETATM   40  C   UNL     1     -10.491   8.698  72.144  1.00  0.00    -0.411 A  
HETATM   41  S   UNL     1      -8.018   7.550  72.608  1.00  0.00    -0.106 S  
HETATM   42  C   UNL     1      -9.744   7.504  72.175  1.00  0.00    -0.164 A  
ENDBRANCH  31  33
ENDBRANCH  30  31
ENDBRANCH  29  30
ENDBRANCH  27  29
ENDBRANCH   4  27
TORSDOF 5
ENDMDL
MODEL       38
REMARK 921   NORMALIZED FREE ENERGY PREDICTED BY IDOCK:   -6.74 KCAL/MOL
REMARK 922        TOTAL FREE ENERGY PREDICTED BY IDOCK:   -9.42 KCAL/MOL
REMARK 923 INTER-LIGAND FREE ENERGY PREDICTED BY IDOCK:   -9.65 KCAL/MOL
REMARK 924 INTRA-LIGAND FREE ENERGY PREDICTED BY IDOCK:    0.23 KCAL/MOL
REMARK 927      BINDING AFFINITY PREDICTED BY RF-SCORE:    0.00 PKD
ROOT
HETATM    1  C   UNL     1      -8.503  11.507  67.891  1.00  0.00    -0.142 C  
HETATM    2  C   UNL     1      -8.373  10.548  66.872  1.00  0.00    -0.126 C  
HETATM    3  C   UNL     1      -9.795  10.939  67.167  1.00  0.00    -0.213 C  
HETATM    4  C   UNL     1     -10.091  12.608  68.365  1.00  0.00    -0.222 C  
HETATM    5  C   UNL     1     -10.518  10.261  65.788  1.00  0.00    -0.159 C  
HETATM    6  O   UNL     1      -8.936  13.446  68.726  1.00  0.00    -0.379 OA 
HETATM    7  C   UNL     1      -8.666   6.713  71.256  1.00  0.00    -0.129 C  
HETATM    8  C   UNL     1     -10.092  12.294  67.048  1.00  0.00    -0.225 C  
HETATM    9  C   UNL     1      -9.054   6.845  72.706  1.00  0.00    -0.134 C  
HETATM   10  C   UNL     1      -8.792   7.950  70.737  1.00  0.00    -0.139 C  
HETATM   11  C   UNL     1      -9.802  13.198  65.842  1.00  0.00    -0.241 C  
HETATM   12  H   UNL     1      -9.071  14.210  69.274  1.00  0.00     0.000 HD 
HETATM   13  C   UNL     1     -11.749  11.575  67.757  1.00  0.00    -0.299 C  
HETATM   14  C   UNL     1     -11.508  10.655  69.272  1.00  0.00    -0.281 C  
HETATM   15  C   UNL     1      -7.686   8.957  70.987  1.00  0.00    -0.155 C  
HETATM   16  C   UNL     1     -10.104   9.708  69.553  1.00  0.00    -0.209 C  
HETATM   17  C   UNL     1     -11.220   7.500  69.989  1.00  0.00    -0.173 C  
HETATM   18  O   UNL     1     -11.690  11.623  70.329  1.00  0.00    -0.426 OA 
HETATM   19  F   UNL     1      -9.905   8.793  68.484  1.00  0.00    -0.154 F  
HETATM   20  C   UNL     1      -8.768  10.661  69.454  1.00  0.00    -0.040 C  
HETATM   21  C   UNL     1     -10.218   8.551  70.634  1.00  0.00    -0.230 C  
HETATM   22  C   UNL     1     -10.694   8.645  72.079  1.00  0.00    -0.427 C  
HETATM   23  H   UNL     1     -11.561  11.134  71.133  1.00  0.00     0.000 HD 
HETATM   24  O   UNL     1      -8.502   6.182  73.572  1.00  0.00    -0.119 OA 
HETATM   25  C   UNL     1      -7.496   9.851  69.774  1.00  0.00    -0.140 C  
HETATM   26  C   UNL     1     -10.179   7.809  73.017  1.00  0.00    -0.393 C  
ENDROOT
BRANCH   4  27
HETATM   27  C   UNL     1     -11.053  14.036  68.181  1.00  0.00    -0.260 C  
HETATM   28  O   UNL     1     -11.715  14.335  67.171  1.00  0.00    -0.366 OA 
BRANCH  27  29
HETATM   29  C   UNL     1     -11.186  15.014  69.377  1.00  0.00    -0.284 C  
BRANCH  29  30
HETATM   30  O   UNL     1      -9.975  15.771  69.619  1.00  0.00    -0.271 OA 
BRANCH  30  31
HETATM   31  C   UNL     1      -9.805  16.851  68.814  1.00  0.00    -0.269 C  
HETATM   32  O   UNL     1     -10.688  17.394  68.176  1.00  0.00    -0.377 OA 
BRANCH  31  33
HETATM   33  C   UNL     1      -8.379  17.301  68.753  1.00  0.00    -0.228 A  
HETATM   34  C   UNL     1      -5.654  18.017  68.675  1.00  0.00    -0.175 A  
HETATM   35  O   UNL     1      -5.373  21.120  69.046  1.00  0.00    -0.346 OA 
HETATM   36  C   UNL     1      -6.018  16.721  69.017  1.00  0.00    -0.163 A  
HETATM   37  C   UNL     1      -7.372  16.362  69.053  1.00  0.00    -0.221 A  
HETATM   38  O   UNL     1      -5.149  20.374  66.685  1.00  0.00    -0.152 OA 
HETATM   39  O   UNL     1      -7.287  21.277  67.401  1.00  0.00    -0.484 OA 
HETATM   40  C   UNL     1      -8.011  18.611  68.403  1.00  0.00    -0.351 A  
HETATM   41  S   UNL     1      -6.140  20.593  67.936  1.00  0.00    -0.308 S  
HETATM   42  C   UNL     1      -6.642  18.944  68.380  1.00  0.00    -0.240 A  
ENDBRANCH  31  33
ENDBRANCH  30  31
ENDBRANCH  29  30
ENDBRANCH  27  29
ENDBRANCH   4  27
TORSDOF 5
ENDMDL
MODEL       39
REMARK 921   NORMALIZED FREE ENERGY PREDICTED BY IDOCK:   -6.74 KCAL/MOL
REMARK 922        TOTAL FREE ENERGY PREDICTED BY IDOCK:   -9.42 KCAL/MOL
REMARK 923 INTER-LIGAND FREE ENERGY PREDICTED BY IDOCK:   -8.81 KCAL/MOL
REMARK 924 INTRA-LIGAND FREE ENERGY PREDICTED BY IDOCK:   -0.61 KCAL/MOL
REMARK 927      BINDING AFFINITY PREDICTED BY RF-SCORE:    0.00 PKD
ROOT
HETATM    1  C   UNL     1      -7.885   8.624  64.510  1.00  0.00    -0.132 C  
HETATM    2  C   UNL     1      -6.820   9.414  64.045  1.00  0.00    -0.096 C  
HETATM    3  C   UNL     1      -6.852   9.247  65.539  1.00  0.00    -0.074 C  
HETATM    4  C   UNL     1      -8.133   7.806  66.306  1.00  0.00    -0.114 C  
HETATM    5  C   UNL     1      -5.289   9.820  65.875  1.00  0.00    -0.043 C  
HETATM    6  O   UNL     1      -8.813   6.884  65.381  1.00  0.00    -0.350 OA 
HETATM    7  C   UNL     1     -10.613  13.809  64.591  1.00  0.00    -0.443 C  
HETATM    8  C   UNL     1      -6.819   7.937  66.008  1.00  0.00    -0.057 C  
HETATM    9  C   UNL     1     -11.957  13.922  65.264  1.00  0.00    -0.375 C  
HETATM   10  C   UNL     1     -10.214  12.539  64.800  1.00  0.00    -0.304 C  
HETATM   11  C   UNL     1      -5.803   6.850  65.632  1.00  0.00    -0.035 C  
HETATM   12  H   UNL     1      -9.399   6.225  65.732  1.00  0.00     0.000 HD 
HETATM   13  C   UNL     1      -7.087   8.948  67.643  1.00  0.00    -0.076 C  
HETATM   14  C   UNL     1      -8.512  10.025  67.560  1.00  0.00    -0.118 C  
HETATM   15  C   UNL     1     -10.795  11.444  63.926  1.00  0.00    -0.463 C  
HETATM   16  C   UNL     1      -8.977  10.817  66.110  1.00  0.00    -0.177 C  
HETATM   17  C   UNL     1      -8.934  13.186  66.945  1.00  0.00    -0.213 C  
HETATM   18  O   UNL     1      -9.605   9.238  68.084  1.00  0.00    -0.141 OA 
HETATM   19  F   UNL     1      -7.882  11.547  65.576  1.00  0.00     0.129 F  
HETATM   20  C   UNL     1      -9.261   9.699  64.938  1.00  0.00    -0.306 C  
HETATM   21  C   UNL     1      -9.882  12.113  66.253  1.00  0.00    -0.250 C  
HETATM   22  C   UNL     1     -11.197  12.276  67.006  1.00  0.00    -0.367 C  
HETATM   23  H   UNL     1     -10.361   9.811  68.040  1.00  0.00     0.000 HD 
HETATM   24  O   UNL     1     -12.843  14.621  64.794  1.00  0.00    -0.542 OA 
HETATM   25  C   UNL     1      -9.750  10.378  63.644  1.00  0.00    -0.338 C  
HETATM   26  C   UNL     1     -12.128  13.159  66.560  1.00  0.00    -0.423 C  
ENDROOT
BRANCH   4  27
HETATM   27  C   UNL     1      -7.905   6.498  67.419  1.00  0.00    -0.112 C  
HETATM   28  O   UNL     1      -7.451   6.603  68.571  1.00  0.00    -0.088 OA 
BRANCH  27  29
HETATM   29  C   UNL     1      -8.360   5.073  67.009  1.00  0.00    -0.107 C  
BRANCH  29  30
HETATM   30  O   UNL     1      -9.649   4.715  67.564  1.00  0.00    -0.144 OA 
BRANCH  30  31
HETATM   31  C   UNL     1      -9.603   3.853  68.613  1.00  0.00    -0.111 C  
HETATM   32  O   UNL     1      -9.286   2.680  68.539  1.00  0.00    -0.177 OA 
BRANCH  31  33
HETATM   33  C   UNL     1     -10.026   4.491  69.898  1.00  0.00    -0.273 A  
HETATM   34  C   UNL     1     -10.784   5.572  72.389  1.00  0.00    -0.286 A  
HETATM   35  O   UNL     1     -12.914   7.832  71.947  1.00  0.00    -0.314 OA 
HETATM   36  C   UNL     1     -10.256   4.289  72.326  1.00  0.00    -0.244 A  
HETATM   37  C   UNL     1      -9.876   3.750  71.089  1.00  0.00    -0.213 A  
HETATM   38  O   UNL     1     -10.622   8.693  72.375  1.00  0.00    -0.331 OA 
HETATM   39  O   UNL     1     -11.399   8.603  70.076  1.00  0.00    -0.164 OA 
HETATM   40  C   UNL     1     -10.557   5.790  69.963  1.00  0.00    -0.380 A  
HETATM   41  S   UNL     1     -11.605   7.947  71.340  1.00  0.00    -0.280 S  
HETATM   42  C   UNL     1     -10.935   6.303  71.220  1.00  0.00    -0.275 A  
ENDBRANCH  31  33
ENDBRANCH  30  31
ENDBRANCH  29  30
ENDBRANCH  27  29
ENDBRANCH   4  27
TORSDOF 5
ENDMDL
MODEL       40
REMARK 921   NORMALIZED FREE ENERGY PREDICTED BY IDOCK:   -6.74 KCAL/MOL
REMARK 922        TOTAL FREE ENERGY PREDICTED BY IDOCK:   -9.42 KCAL/MOL
REMARK 923 INTER-LIGAND FREE ENERGY PREDICTED BY IDOCK:  -10.71 KCAL/MOL
REMARK 924 INTRA-LIGAND FREE ENERGY PREDICTED BY IDOCK:    1.30 KCAL/MOL
REMARK 927      BINDING AFFINITY PREDICTED BY RF-SCORE:    0.00 PKD
ROOT
HETATM    1  C   UNL     1     -11.328  14.958  66.408  1.00  0.00    -0.308 C  
HETATM    2  C   UNL     1     -10.708  14.562  65.211  1.00  0.00    -0.390 C  
HETATM    3  C   UNL     1     -10.101  13.954  66.444  1.00  0.00    -0.298 C  
HETATM    4  C   UNL     1     -11.157  14.154  68.220  1.00  0.00    -0.254 C  
HETATM    5  C   UNL     1      -9.175  12.750  65.684  1.00  0.00     0.269 C  
HETATM    6  O   UNL     1     -12.522  14.706  68.185  1.00  0.00    -0.587 OA 
HETATM    7  C   UNL     1      -7.377  19.272  66.063  1.00  0.00    -0.298 C  
HETATM    8  C   UNL     1     -10.967  13.224  67.255  1.00  0.00    -0.284 C  
HETATM    9  C   UNL     1      -7.176  20.181  67.248  1.00  0.00    -0.270 C  
HETATM   10  C   UNL     1      -8.276  18.353  66.466  1.00  0.00    -0.289 C  
HETATM   11  C   UNL     1     -11.899  12.086  66.816  1.00  0.00    -0.244 C  
HETATM   12  H   UNL     1     -13.005  14.798  68.997  1.00  0.00     0.000 HD 
HETATM   13  C   UNL     1      -9.335  13.229  68.304  1.00  0.00    -0.205 C  
HETATM   14  C   UNL     1      -8.714  14.878  68.604  1.00  0.00    -0.177 C  
HETATM   15  C   UNL     1      -9.744  18.733  66.480  1.00  0.00    -0.380 C  
HETATM   16  C   UNL     1      -8.857  16.135  67.443  1.00  0.00    -0.187 C  
HETATM   17  C   UNL     1      -6.424  16.726  67.229  1.00  0.00    -0.208 C  
HETATM   18  O   UNL     1      -9.306  15.276  69.861  1.00  0.00    -0.440 OA 
HETATM   19  F   UNL     1      -8.317  15.716  66.197  1.00  0.00    -0.313 F  
HETATM   20  C   UNL     1     -10.442  16.371  67.079  1.00  0.00    -0.291 C  
HETATM   21  C   UNL     1      -7.845  17.352  67.569  1.00  0.00    -0.209 C  
HETATM   22  C   UNL     1      -7.558  18.226  68.783  1.00  0.00    -0.294 C  
HETATM   23  H   UNL     1      -8.976  16.152  70.020  1.00  0.00     0.000 HD 
HETATM   24  O   UNL     1      -6.977  21.378  67.100  1.00  0.00    -0.547 OA 
HETATM   25  C   UNL     1     -10.606  17.543  66.092  1.00  0.00    -0.211 C  
HETATM   26  C   UNL     1      -7.198  19.525  68.612  1.00  0.00    -0.374 C  
ENDROOT
BRANCH   4  27
HETATM   27  C   UNL     1     -11.662  13.018  69.426  1.00  0.00    -0.326 C  
HETATM   28  O   UNL     1     -12.255  13.302  70.481  1.00  0.00    -0.354 OA 
BRANCH  27  29
HETATM   29  C   UNL     1     -11.440  11.504  69.174  1.00  0.00    -0.297 C  
BRANCH  29  30
HETATM   30  O   UNL     1     -11.231  10.757  70.398  1.00  0.00    -0.292 OA 
BRANCH  30  31
HETATM   31  C   UNL     1     -10.238   9.833  70.343  1.00  0.00    -0.281 C  
HETATM   32  O   UNL     1      -9.128  10.026  69.881  1.00  0.00    -0.213 OA 
BRANCH  31  33
HETATM   33  C   UNL     1     -10.661   8.504  70.886  1.00  0.00    -0.252 A  
HETATM   34  C   UNL     1     -11.589   6.053  71.922  1.00  0.00    -0.312 A  
HETATM   35  O   UNL     1      -9.184   4.451  73.142  1.00  0.00    -0.117 OA 
HETATM   36  C   UNL     1     -12.468   7.118  71.778  1.00  0.00    -0.385 A  
HETATM   37  C   UNL     1     -12.010   8.337  71.261  1.00  0.00    -0.317 A  
HETATM   38  O   UNL     1      -9.872   3.653  70.891  1.00  0.00    -0.174 OA 
HETATM   39  O   UNL     1      -7.945   5.123  71.044  1.00  0.00    -0.096 OA 
HETATM   40  C   UNL     1      -9.773   7.425  71.027  1.00  0.00    -0.164 A  
HETATM   41  S   UNL     1      -9.166   4.823  71.743  1.00  0.00    -0.141 S  
HETATM   42  C   UNL     1     -10.261   6.213  71.555  1.00  0.00    -0.203 A  
ENDBRANCH  31  33
ENDBRANCH  30  31
ENDBRANCH  29  30
ENDBRANCH  27  29
ENDBRANCH   4  27
TORSDOF 5
ENDMDL
MODEL       41
REMARK 921   NORMALIZED FREE ENERGY PREDICTED BY IDOCK:   -6.69 KCAL/MOL
REMARK 922        TOTAL FREE ENERGY PREDICTED BY IDOCK:   -9.36 KCAL/MOL
REMARK 923 INTER-LIGAND FREE ENERGY PREDICTED BY IDOCK:   -9.22 KCAL/MOL
REMARK 924 INTRA-LIGAND FREE ENERGY PREDICTED BY IDOCK:   -0.14 KCAL/MOL
REMARK 927      BINDING AFFINITY PREDICTED BY RF-SCORE:    0.00 PKD
ROOT
HETATM    1  C   UNL     1     -11.400  11.518  66.397  1.00  0.00    -0.246 C  
HETATM    2  C   UNL     1     -10.592  11.293  65.269  1.00  0.00    -0.323 C  
HETATM    3  C   UNL     1      -9.835  11.328  66.568  1.00  0.00    -0.239 C  
HETATM    4  C   UNL     1     -10.948  11.266  68.318  1.00  0.00    -0.224 C  
HETATM    5  C   UNL     1      -8.373  10.670  66.007  1.00  0.00    -0.160 C  
HETATM    6  O   UNL     1     -12.395  11.008  68.239  1.00  0.00    -0.717 OA 
HETATM    7  C   UNL     1     -10.257  17.112  65.080  1.00  0.00     0.427 C  
HETATM    8  C   UNL     1     -10.242  10.415  67.537  1.00  0.00    -0.251 C  
HETATM    9  C   UNL     1     -10.632  18.191  66.064  1.00  0.00    -0.264 C  
HETATM   10  C   UNL     1     -10.569  15.950  65.686  1.00  0.00    -0.393 C  
HETATM   11  C   UNL     1     -10.418   8.901  67.359  1.00  0.00    -0.347 C  
HETATM   12  H   UNL     1     -12.905  10.980  69.040  1.00  0.00     0.000 HD 
HETATM   13  C   UNL     1      -8.919  11.462  68.495  1.00  0.00    -0.158 C  
HETATM   14  C   UNL     1      -9.267  13.215  68.454  1.00  0.00    -0.141 C  
HETATM   15  C   UNL     1     -12.019  15.503  65.692  1.00  0.00     0.519 C  
HETATM   16  C   UNL     1      -9.970  13.977  67.086  1.00  0.00    -0.252 C  
HETATM   17  C   UNL     1      -8.193  15.700  66.660  1.00  0.00    -0.284 C  
HETATM   18  O   UNL     1     -10.055  13.467  69.639  1.00  0.00     0.007 OA 
HETATM   19  F   UNL     1      -9.216  13.683  65.918  1.00  0.00    -0.169 F  
HETATM   20  C   UNL     1     -11.422  13.280  66.753  1.00  0.00    -0.387 C  
HETATM   21  C   UNL     1      -9.750  15.542  66.938  1.00  0.00    -0.243 C  
HETATM   22  C   UNL     1     -10.035  16.641  67.953  1.00  0.00    -0.254 C  
HETATM   23  H   UNL     1     -10.240  14.398  69.616  1.00  0.00     0.000 HD 
HETATM   24  O   UNL     1     -11.075  19.265  65.686  1.00  0.00    -0.282 OA 
HETATM   25  C   UNL     1     -12.110  13.991  65.572  1.00  0.00    -0.423 C  
HETATM   26  C   UNL     1     -10.393  17.880  67.526  1.00  0.00    -0.383 C  
ENDROOT
BRANCH   4  27
HETATM   27  C   UNL     1     -10.862  10.276  69.736  1.00  0.00    -0.287 C  
HETATM   28  O   UNL     1      -9.816   9.847  70.255  1.00  0.00    -0.253 OA 
BRANCH  27  29
HETATM   29  C   UNL     1     -12.170   9.932  70.494  1.00  0.00    -0.179 C  
BRANCH  29  30
HETATM   30  O   UNL     1     -11.980   8.915  71.508  1.00  0.00    -0.294 OA 
BRANCH  30  31
HETATM   31  C   UNL     1     -12.595   7.730  71.254  1.00  0.00    -0.264 C  
HETATM   32  O   UNL     1     -13.799   7.573  71.167  1.00  0.00    -0.294 OA 
BRANCH  31  33
HETATM   33  C   UNL     1     -11.626   6.597  71.126  1.00  0.00    -0.384 A  
HETATM   34  C   UNL     1      -9.819   4.436  71.025  1.00  0.00    -0.260 A  
HETATM   35  O   UNL     1      -7.895   4.792  68.573  1.00  0.00    -0.080 OA 
HETATM   36  C   UNL     1     -10.425   4.773  72.228  1.00  0.00    -0.255 A  
HETATM   37  C   UNL     1     -11.326   5.845  72.281  1.00  0.00    -0.351 A  
HETATM   38  O   UNL     1      -9.726   3.159  68.173  1.00  0.00    -0.133 OA 
HETATM   39  O   UNL     1      -9.985   5.407  67.290  1.00  0.00    -0.143 OA 
HETATM   40  C   UNL     1     -11.016   6.254  69.908  1.00  0.00    -0.435 A  
HETATM   41  S   UNL     1      -9.325   4.708  68.360  1.00  0.00    -0.145 S  
HETATM   42  C   UNL     1     -10.111   5.174  69.887  1.00  0.00    -0.272 A  
ENDBRANCH  31  33
ENDBRANCH  30  31
ENDBRANCH  29  30
ENDBRANCH  27  29
ENDBRANCH   4  27
TORSDOF 5
ENDMDL
MODEL       42
REMARK 921   NORMALIZED FREE ENERGY PREDICTED BY IDOCK:   -6.68 KCAL/MOL
REMARK 922        TOTAL FREE ENERGY PREDICTED BY IDOCK:   -9.34 KCAL/MOL
REMARK 923 INTER-LIGAND FREE ENERGY PREDICTED BY IDOCK:   -9.45 KCAL/MOL
REMARK 924 INTRA-LIGAND FREE ENERGY PREDICTED BY IDOCK:    0.11 KCAL/MOL
REMARK 927      BINDING AFFINITY PREDICTED BY RF-SCORE:    0.00 PKD
ROOT
HETATM    1  C   UNL     1      -8.084  11.322  66.324  1.00  0.00    -0.108 C  
HETATM    2  C   UNL     1      -7.481  10.196  65.740  1.00  0.00    -0.131 C  
HETATM    3  C   UNL     1      -8.982  10.203  65.648  1.00  0.00    -0.199 C  
HETATM    4  C   UNL     1      -9.953  11.974  66.124  1.00  0.00    -0.231 C  
HETATM    5  C   UNL     1      -9.154   8.967  64.496  1.00  0.00     0.023 C  
HETATM    6  O   UNL     1      -9.156  13.192  66.349  1.00  0.00    -0.416 OA 
HETATM    7  C   UNL     1      -7.959   7.899  71.079  1.00  0.00    -0.090 C  
HETATM    8  C   UNL     1      -9.549  11.307  65.017  1.00  0.00    -0.267 C  
HETATM    9  C   UNL     1      -8.719   8.322  72.310  1.00  0.00    -0.200 C  
HETATM   10  C   UNL     1      -8.237   8.832  70.148  1.00  0.00    -0.117 C  
HETATM   11  C   UNL     1      -9.185  11.866  63.635  1.00  0.00     0.204 C  
HETATM   12  H   UNL     1      -9.601  14.002  66.567  1.00  0.00     0.000 HD 
HETATM   13  C   UNL     1     -11.114  10.356  65.658  1.00  0.00     0.504 C  
HETATM   14  C   UNL     1     -11.053  10.034  67.416  1.00  0.00    -0.085 C  
HETATM   15  C   UNL     1      -7.498  10.156  70.205  1.00  0.00    -0.146 C  
HETATM   16  C   UNL     1      -9.583   9.685  68.231  1.00  0.00    -0.140 C  
HETATM   17  C   UNL     1     -10.223   7.468  69.225  1.00  0.00    -0.201 C  
HETATM   18  O   UNL     1     -11.717  11.163  68.025  1.00  0.00    -0.517 OA 
HETATM   19  F   UNL     1      -8.913   8.605  67.595  1.00  0.00    -0.132 F  
HETATM   20  C   UNL     1      -8.528  10.927  68.021  1.00  0.00    -0.130 C  
HETATM   21  C   UNL     1      -9.691   8.914  69.615  1.00  0.00    -0.175 C  
HETATM   22  C   UNL     1     -10.524   9.272  70.839  1.00  0.00    -0.372 C  
HETATM   23  H   UNL     1     -11.684  10.992  68.958  1.00  0.00     0.000 HD 
HETATM   24  O   UNL     1      -8.262   8.140  73.429  1.00  0.00    -0.181 OA 
HETATM   25  C   UNL     1      -7.224  10.673  68.803  1.00  0.00    -0.087 C  
HETATM   26  C   UNL     1     -10.080   8.943  72.080  1.00  0.00    -0.351 C  
ENDROOT
BRANCH   4  27
HETATM   27  C   UNL     1     -11.146  12.923  65.301  1.00  0.00    -0.284 C  
HETATM   28  O   UNL     1     -12.322  12.579  65.091  1.00  0.00    -0.492 OA 
BRANCH  27  29
HETATM   29  C   UNL     1     -10.777  14.356  64.835  1.00  0.00    -0.426 C  
BRANCH  29  30
HETATM   30  O   UNL     1     -10.769  15.314  65.922  1.00  0.00    -0.311 OA 
BRANCH  30  31
HETATM   31  C   UNL     1     -10.736  16.616  65.538  1.00  0.00    -0.223 C  
HETATM   32  O   UNL     1     -11.161  17.044  64.480  1.00  0.00    -1.098 OA 
BRANCH  31  33
HETATM   33  C   UNL     1     -10.074  17.496  66.550  1.00  0.00    -0.331 A  
HETATM   34  C   UNL     1      -8.931  19.119  68.551  1.00  0.00    -0.406 A  
HETATM   35  O   UNL     1      -7.123  21.310  67.218  1.00  0.00    -0.522 OA 
HETATM   36  C   UNL     1     -10.103  18.422  68.814  1.00  0.00    -0.393 A  
HETATM   37  C   UNL     1     -10.672  17.612  67.822  1.00  0.00    -0.336 A  
HETATM   38  O   UNL     1      -5.842  19.402  68.165  1.00  0.00    -0.207 OA 
HETATM   39  O   UNL     1      -6.264  19.422  65.773  1.00  0.00    -0.182 OA 
HETATM   40  C   UNL     1      -8.887  18.198  66.285  1.00  0.00    -0.196 A  
HETATM   41  S   UNL     1      -6.834  19.908  67.002  1.00  0.00    -0.218 S  
HETATM   42  C   UNL     1      -8.341  19.009  67.301  1.00  0.00    -0.276 A  
ENDBRANCH  31  33
ENDBRANCH  30  31
ENDBRANCH  29  30
ENDBRANCH  27  29
ENDBRANCH   4  27
TORSDOF 5
ENDMDL
MODEL       43
REMARK 921   NORMALIZED FREE ENERGY PREDICTED BY IDOCK:   -6.66 KCAL/MOL
REMARK 922        TOTAL FREE ENERGY PREDICTED BY IDOCK:   -9.32 KCAL/MOL
REMARK 923 INTER-LIGAND FREE ENERGY PREDICTED BY IDOCK:   -9.42 KCAL/MOL
REMARK 924 INTRA-LIGAND FREE ENERGY PREDICTED BY IDOCK:    0.10 KCAL/MOL
REMARK 927      BINDING AFFINITY PREDICTED BY RF-SCORE:    0.00 PKD
ROOT
HETATM    1  C   UNL     1      -7.802  10.001  69.336  1.00  0.00    -0.141 C  
HETATM    2  C   UNL     1      -6.671   9.209  69.076  1.00  0.00    -0.055 C  
HETATM    3  C   UNL     1      -7.798   9.006  68.101  1.00  0.00    -0.100 C  
HETATM    4  C   UNL     1      -9.353  10.379  68.149  1.00  0.00    -0.145 C  
HETATM    5  C   UNL     1      -6.933   8.156  66.912  1.00  0.00    -0.074 C  
HETATM    6  O   UNL     1      -9.220  11.585  68.984  1.00  0.00    -0.392 OA 
HETATM    7  C   UNL     1      -9.254   5.388  72.645  1.00  0.00    -0.145 C  
HETATM    8  C   UNL     1      -8.233  10.143  67.426  1.00  0.00    -0.114 C  
HETATM    9  C   UNL     1     -10.647   5.301  73.215  1.00  0.00    -0.245 C  
HETATM   10  C   UNL     1      -9.248   6.499  71.883  1.00  0.00    -0.148 C  
HETATM   11  C   UNL     1      -7.366  11.136  66.641  1.00  0.00    -0.145 C  
HETATM   12  H   UNL     1      -9.932  12.214  69.005  1.00  0.00     0.000 HD 
HETATM   13  C   UNL     1      -9.519   8.809  66.848  1.00  0.00    -0.231 C  
HETATM   14  C   UNL     1     -10.330   7.995  68.218  1.00  0.00    -0.197 C  
HETATM   15  C   UNL     1      -9.100   7.845  72.566  1.00  0.00    -0.245 C  
HETATM   16  C   UNL     1      -9.517   7.657  69.692  1.00  0.00    -0.156 C  
HETATM   17  C   UNL     1      -9.888   5.173  69.764  1.00  0.00    -0.283 C  
HETATM   18  O   UNL     1     -11.523   8.774  68.461  1.00  0.00    -0.036 OA 
HETATM   19  F   UNL     1      -8.320   6.934  69.438  1.00  0.00    -0.124 F  
HETATM   20  C   UNL     1      -8.953   9.056  70.344  1.00  0.00    -0.235 C  
HETATM   21  C   UNL     1     -10.121   6.504  70.601  1.00  0.00    -0.212 C  
HETATM   22  C   UNL     1     -11.547   6.347  71.113  1.00  0.00    -0.378 C  
HETATM   23  H   UNL     1     -11.953   8.341  69.189  1.00  0.00     0.000 HD 
HETATM   24  O   UNL     1     -10.843   4.870  74.342  1.00  0.00    -0.346 OA 
HETATM   25  C   UNL     1      -8.280   8.791  71.705  1.00  0.00    -0.171 C  
HETATM   26  C   UNL     1     -11.775   5.740  72.307  1.00  0.00    -0.265 C  
ENDROOT
BRANCH   4  27
HETATM   27  C   UNL     1     -10.126  11.328  66.924  1.00  0.00    -0.212 C  
HETATM   28  O   UNL     1      -9.715  11.478  65.760  1.00  0.00    -0.221 OA 
BRANCH  27  29
HETATM   29  C   UNL     1     -11.485  12.005  67.242  1.00  0.00    -0.335 C  
BRANCH  29  30
HETATM   30  O   UNL     1     -11.334  13.354  67.748  1.00  0.00    -0.266 OA 
BRANCH  30  31
HETATM   31  C   UNL     1     -11.449  14.333  66.814  1.00  0.00    -0.367 C  
HETATM   32  O   UNL     1     -12.362  14.433  66.014  1.00  0.00    -0.394 OA 
BRANCH  31  33
HETATM   33  C   UNL     1     -10.294  15.284  66.835  1.00  0.00    -0.278 A  
HETATM   34  C   UNL     1      -8.031  16.964  66.857  1.00  0.00    -0.248 A  
HETATM   35  O   UNL     1      -8.730  19.647  68.326  1.00  0.00    -0.326 OA 
HETATM   36  C   UNL     1      -7.870  15.591  66.720  1.00  0.00    -0.162 A  
HETATM   37  C   UNL     1      -8.994  14.754  66.705  1.00  0.00    -0.292 A  
HETATM   38  O   UNL     1      -8.732  19.838  65.848  1.00  0.00    -0.369 OA 
HETATM   39  O   UNL     1     -10.867  19.583  66.977  1.00  0.00    -0.487 OA 
HETATM   40  C   UNL     1     -10.457  16.673  66.970  1.00  0.00    -0.283 A  
HETATM   41  S   UNL     1      -9.477  19.253  67.150  1.00  0.00    -0.335 S  
HETATM   42  C   UNL     1      -9.308  17.489  66.986  1.00  0.00    -0.259 A  
ENDBRANCH  31  33
ENDBRANCH  30  31
ENDBRANCH  29  30
ENDBRANCH  27  29
ENDBRANCH   4  27
TORSDOF 5
ENDMDL
MODEL       44
REMARK 921   NORMALIZED FREE ENERGY PREDICTED BY IDOCK:   -6.65 KCAL/MOL
REMARK 922        TOTAL FREE ENERGY PREDICTED BY IDOCK:   -9.31 KCAL/MOL
REMARK 923 INTER-LIGAND FREE ENERGY PREDICTED BY IDOCK:   -8.47 KCAL/MOL
REMARK 924 INTRA-LIGAND FREE ENERGY PREDICTED BY IDOCK:   -0.84 KCAL/MOL
REMARK 927      BINDING AFFINITY PREDICTED BY RF-SCORE:    0.00 PKD
ROOT
HETATM    1  C   UNL     1      -9.685   4.622  70.170  1.00  0.00    -0.285 C  
HETATM    2  C   UNL     1      -8.601   3.767  70.436  1.00  0.00    -0.110 C  
HETATM    3  C   UNL     1      -8.313   5.220  70.696  1.00  0.00    -0.113 C  
HETATM    4  C   UNL     1      -9.929   6.521  70.712  1.00  0.00    -0.184 C  
HETATM    5  C   UNL     1      -6.875   5.022  71.577  1.00  0.00    -0.048 C  
HETATM    6  O   UNL     1     -11.294   5.970  70.656  1.00  0.00    -0.311 OA 
HETATM    7  C   UNL     1      -7.286   4.655  64.824  1.00  0.00    -0.063 C  
HETATM    8  C   UNL     1      -9.156   5.857  71.603  1.00  0.00    -0.149 C  
HETATM    9  C   UNL     1      -7.781   5.645  63.802  1.00  0.00    -0.098 C  
HETATM   10  C   UNL     1      -7.962   4.938  65.954  1.00  0.00    -0.107 C  
HETATM   11  C   UNL     1      -9.507   5.387  73.021  1.00  0.00    -0.152 C  
HETATM   12  H   UNL     1     -12.034   6.566  70.663  1.00  0.00     0.000 HD 
HETATM   13  C   UNL     1      -8.066   7.327  70.958  1.00  0.00    -0.103 C  
HETATM   14  C   UNL     1      -8.092   7.475  69.176  1.00  0.00    -0.123 C  
HETATM   15  C   UNL     1      -9.387   4.435  66.091  1.00  0.00    -0.159 C  
HETATM   16  C   UNL     1      -8.179   6.105  68.146  1.00  0.00    -0.114 C  
HETATM   17  C   UNL     1      -6.106   6.523  66.790  1.00  0.00    -0.032 C  
HETATM   18  O   UNL     1      -9.172   8.394  68.895  1.00  0.00    -0.146 OA 
HETATM   19  F   UNL     1      -7.144   5.185  68.464  1.00  0.00    -0.056 F  
HETATM   20  C   UNL     1      -9.536   5.242  68.489  1.00  0.00    -0.166 C  
HETATM   21  C   UNL     1      -7.672   6.291  66.653  1.00  0.00    -0.100 C  
HETATM   22  C   UNL     1      -8.090   7.342  65.632  1.00  0.00    -0.133 C  
HETATM   23  H   UNL     1      -9.186   8.472  67.949  1.00  0.00     0.000 HD 
HETATM   24  O   UNL     1      -7.897   5.336  62.625  1.00  0.00    -0.066 OA 
HETATM   25  C   UNL     1      -9.677   4.044  67.531  1.00  0.00    -0.177 C  
HETATM   26  C   UNL     1      -8.085   7.039  64.308  1.00  0.00    -0.040 C  
ENDROOT
BRANCH   4  27
HETATM   27  C   UNL     1     -10.471   7.715  71.843  1.00  0.00    -0.215 C  
HETATM   28  O   UNL     1      -9.831   8.722  72.191  1.00  0.00    -0.314 OA 
BRANCH  27  29
HETATM   29  C   UNL     1     -11.897   7.593  72.441  1.00  0.00    -0.289 C  
BRANCH  29  30
HETATM   30  O   UNL     1     -12.924   8.090  71.547  1.00  0.00    -0.321 OA 
BRANCH  30  31
HETATM   31  C   UNL     1     -13.497   9.261  71.928  1.00  0.00    -0.430 C  
HETATM   32  O   UNL     1     -14.395   9.367  72.744  1.00  0.00    -0.407 OA 
BRANCH  31  33
HETATM   33  C   UNL     1     -12.932  10.440  71.201  1.00  0.00    -0.506 A  
HETATM   34  C   UNL     1     -11.897  12.741  69.944  1.00  0.00    -0.371 A  
HETATM   35  O   UNL     1     -11.925  12.340  66.833  1.00  0.00    -0.578 OA 
HETATM   36  C   UNL     1     -12.434  12.835  71.222  1.00  0.00    -0.284 A  
HETATM   37  C   UNL     1     -12.947  11.691  71.850  1.00  0.00    -0.442 A  
HETATM   38  O   UNL     1      -9.686  12.009  67.860  1.00  0.00    -0.183 OA 
HETATM   39  O   UNL     1     -11.006  10.039  67.333  1.00  0.00    -0.283 OA 
HETATM   40  C   UNL     1     -12.385  10.344  69.910  1.00  0.00    -0.176 A  
HETATM   41  S   UNL     1     -11.176  11.427  67.670  1.00  0.00    -0.287 S  
HETATM   42  C   UNL     1     -11.882  11.512  69.302  1.00  0.00    -0.348 A  
ENDBRANCH  31  33
ENDBRANCH  30  31
ENDBRANCH  29  30
ENDBRANCH  27  29
ENDBRANCH   4  27
TORSDOF 5
ENDMDL
MODEL       45
REMARK 921   NORMALIZED FREE ENERGY PREDICTED BY IDOCK:   -6.62 KCAL/MOL
REMARK 922        TOTAL FREE ENERGY PREDICTED BY IDOCK:   -9.27 KCAL/MOL
REMARK 923 INTER-LIGAND FREE ENERGY PREDICTED BY IDOCK:   -9.29 KCAL/MOL
REMARK 924 INTRA-LIGAND FREE ENERGY PREDICTED BY IDOCK:    0.02 KCAL/MOL
REMARK 927      BINDING AFFINITY PREDICTED BY RF-SCORE:    0.00 PKD
ROOT
HETATM    1  C   UNL     1      -8.005  10.002  68.380  1.00  0.00    -0.097 C  
HETATM    2  C   UNL     1      -7.958   8.950  67.448  1.00  0.00    -0.101 C  
HETATM    3  C   UNL     1      -9.319   9.569  67.605  1.00  0.00    -0.141 C  
HETATM    4  C   UNL     1      -9.434  11.359  68.649  1.00  0.00    -0.163 C  
HETATM    5  C   UNL     1     -10.049   8.889  66.230  1.00  0.00    -0.284 C  
HETATM    6  O   UNL     1      -8.190  12.047  69.032  1.00  0.00    -0.355 OA 
HETATM    7  C   UNL     1      -9.108   5.587  72.072  1.00  0.00    -0.150 C  
HETATM    8  C   UNL     1      -9.400  10.938  67.363  1.00  0.00    -0.166 C  
HETATM    9  C   UNL     1      -9.562   5.898  73.475  1.00  0.00    -0.141 C  
HETATM   10  C   UNL     1      -9.011   6.780  71.454  1.00  0.00    -0.142 C  
HETATM   11  C   UNL     1      -8.899  11.684  66.119  1.00  0.00    -0.139 C  
HETATM   12  H   UNL     1      -8.243  12.866  69.510  1.00  0.00     0.000 HD 
HETATM   13  C   UNL     1     -11.188  10.532  67.997  1.00  0.00    -0.361 C  
HETATM   14  C   UNL     1     -11.186   9.719  69.590  1.00  0.00    -0.178 C  
HETATM   15  C   UNL     1      -7.783   7.632  71.711  1.00  0.00    -0.089 C  
HETATM   16  C   UNL     1      -9.962   8.604  70.046  1.00  0.00    -0.185 C  
HETATM   17  C   UNL     1     -11.427   6.629  70.561  1.00  0.00    -0.432 C  
HETATM   18  O   UNL     1     -11.285  10.790  70.555  1.00  0.00    -0.426 OA 
HETATM   19  F   UNL     1      -9.838   7.583  69.066  1.00  0.00    -0.160 F  
HETATM   20  C   UNL     1      -8.494   9.339  69.978  1.00  0.00    -0.185 C  
HETATM   21  C   UNL     1     -10.319   7.573  71.199  1.00  0.00    -0.208 C  
HETATM   22  C   UNL     1     -10.867   7.858  72.592  1.00  0.00    -0.428 C  
HETATM   23  H   UNL     1     -11.284  10.358  71.400  1.00  0.00     0.000 HD 
HETATM   24  O   UNL     1      -9.173   5.237  74.426  1.00  0.00    -0.116 OA 
HETATM   25  C   UNL     1      -7.383   8.383  70.452  1.00  0.00    -0.056 C  
HETATM   26  C   UNL     1     -10.546   7.039  73.627  1.00  0.00    -0.383 C  
ENDROOT
BRANCH   4  27
HETATM   27  C   UNL     1     -10.155  12.891  68.286  1.00  0.00    -0.242 C  
HETATM   28  O   UNL     1     -11.370  13.148  68.341  1.00  0.00    -0.251 OA 
BRANCH  27  29
HETATM   29  C   UNL     1      -9.237  14.090  67.930  1.00  0.00    -0.195 C  
BRANCH  29  30
HETATM   30  O   UNL     1      -9.004  14.972  69.055  1.00  0.00    -0.199 OA 
BRANCH  30  31
HETATM   31  C   UNL     1      -7.732  15.437  69.165  1.00  0.00    -0.207 C  
HETATM   32  O   UNL     1      -6.784  14.790  69.572  1.00  0.00    -0.136 OA 
BRANCH  31  33
HETATM   33  C   UNL     1      -7.610  16.873  68.763  1.00  0.00    -0.243 A  
HETATM   34  C   UNL     1      -7.266  19.589  68.093  1.00  0.00    -0.330 A  
HETATM   35  O   UNL     1      -9.987  20.770  67.070  1.00  0.00    -0.401 OA 
HETATM   36  C   UNL     1      -6.398  18.985  68.992  1.00  0.00    -0.293 A  
HETATM   37  C   UNL     1      -6.565  17.634  69.325  1.00  0.00    -0.233 A  
HETATM   38  O   UNL     1      -8.393  20.214  65.245  1.00  0.00    -0.020 OA 
HETATM   39  O   UNL     1     -10.170  18.632  65.733  1.00  0.00    -0.552 OA 
HETATM   40  C   UNL     1      -8.486  17.483  67.850  1.00  0.00    -0.230 A  
HETATM   41  S   UNL     1      -9.384  19.648  66.381  1.00  0.00    -0.398 S  
HETATM   42  C   UNL     1      -8.297  18.844  67.539  1.00  0.00    -0.273 A  
ENDBRANCH  31  33
ENDBRANCH  30  31
ENDBRANCH  29  30
ENDBRANCH  27  29
ENDBRANCH   4  27
TORSDOF 5
ENDMDL
MODEL       46
REMARK 921   NORMALIZED FREE ENERGY PREDICTED BY IDOCK:   -6.61 KCAL/MOL
REMARK 922        TOTAL FREE ENERGY PREDICTED BY IDOCK:   -9.25 KCAL/MOL
REMARK 923 INTER-LIGAND FREE ENERGY PREDICTED BY IDOCK:   -9.01 KCAL/MOL
REMARK 924 INTRA-LIGAND FREE ENERGY PREDICTED BY IDOCK:   -0.24 KCAL/MOL
REMARK 927      BINDING AFFINITY PREDICTED BY RF-SCORE:    0.00 PKD
ROOT
HETATM    1  C   UNL     1      -9.778   8.071  68.194  1.00  0.00    -0.179 C  
HETATM    2  C   UNL     1      -8.807   7.583  69.085  1.00  0.00    -0.136 C  
HETATM    3  C   UNL     1      -8.253   8.458  67.995  1.00  0.00    -0.127 C  
HETATM    4  C   UNL     1      -9.615   9.539  66.862  1.00  0.00    -0.165 C  
HETATM    5  C   UNL     1      -6.713   8.720  68.661  1.00  0.00    -0.059 C  
HETATM    6  O   UNL     1     -11.030   9.562  67.269  1.00  0.00    -0.332 OA 
HETATM    7  C   UNL     1      -8.545   3.069  65.401  1.00  0.00    -0.112 C  
HETATM    8  C   UNL     1      -8.786   9.742  67.913  1.00  0.00    -0.122 C  
HETATM    9  C   UNL     1      -9.082   2.853  64.009  1.00  0.00    -0.106 C  
HETATM   10  C   UNL     1      -8.925   4.316  65.742  1.00  0.00    -0.129 C  
HETATM   11  C   UNL     1      -8.907  10.763  69.052  1.00  0.00    -0.135 C  
HETATM   12  H   UNL     1     -11.653  10.056  66.751  1.00  0.00     0.000 HD 
HETATM   13  C   UNL     1      -7.640   9.677  66.349  1.00  0.00    -0.101 C  
HETATM   14  C   UNL     1      -8.007   8.289  65.283  1.00  0.00    -0.128 C  
HETATM   15  C   UNL     1     -10.352   4.537  66.208  1.00  0.00    -0.227 C  
HETATM   16  C   UNL     1      -8.510   6.769  65.901  1.00  0.00    -0.144 C  
HETATM   17  C   UNL     1      -6.718   5.335  64.878  1.00  0.00    -0.048 C  
HETATM   18  O   UNL     1      -8.968   8.795  64.330  1.00  0.00    -0.427 OA 
HETATM   19  F   UNL     1      -7.584   6.303  66.874  1.00  0.00    -0.090 F  
HETATM   20  C   UNL     1      -9.883   6.960  66.785  1.00  0.00    -0.243 C  
HETATM   21  C   UNL     1      -8.296   5.503  64.967  1.00  0.00    -0.146 C  
HETATM   22  C   UNL     1      -8.749   5.298  63.527  1.00  0.00     0.014 C  
HETATM   23  H   UNL     1      -9.163   8.058  63.764  1.00  0.00     0.000 HD 
HETATM   24  O   UNL     1      -9.482   1.756  63.649  1.00  0.00    -0.101 OA 
HETATM   25  C   UNL     1     -10.398   5.600  67.293  1.00  0.00    -0.295 C  
HETATM   26  C   UNL     1      -9.060   4.052  63.086  1.00  0.00    -0.117 C  
ENDROOT
BRANCH   4  27
HETATM   27  C   UNL     1      -9.726  11.213  66.432  1.00  0.00    -0.204 C  
HETATM   28  O   UNL     1      -8.765  11.995  66.321  1.00  0.00    -0.144 OA 
BRANCH  27  29
HETATM   29  C   UNL     1     -11.113  11.809  66.078  1.00  0.00    -0.312 C  
BRANCH  29  30
HETATM   30  O   UNL     1     -11.953  12.006  67.242  1.00  0.00    -0.591 OA 
BRANCH  30  31
HETATM   31  C   UNL     1     -11.674  13.118  67.969  1.00  0.00    -0.355 C  
HETATM   32  O   UNL     1     -11.099  14.104  67.545  1.00  0.00    -0.277 OA 
BRANCH  31  33
HETATM   33  C   UNL     1     -12.120  13.001  69.392  1.00  0.00    -0.267 A  
HETATM   34  C   UNL     1     -12.967  12.636  72.056  1.00  0.00    -0.379 A  
HETATM   35  O   UNL     1     -14.256  15.292  73.119  1.00  0.00    -0.091 OA 
HETATM   36  C   UNL     1     -12.822  11.536  71.221  1.00  0.00    -0.463 A  
HETATM   37  C   UNL     1     -12.398  11.714  69.897  1.00  0.00    -0.226 A  
HETATM   38  O   UNL     1     -11.927  14.929  73.908  1.00  0.00    -0.422 OA 
HETATM   39  O   UNL     1     -12.278  16.437  72.036  1.00  0.00    -0.412 OA 
HETATM   40  C   UNL     1     -12.263  14.113  70.237  1.00  0.00    -0.416 A  
HETATM   41  S   UNL     1     -12.882  15.290  72.662  1.00  0.00    -0.436 S  
HETATM   42  C   UNL     1     -12.695  13.904  71.562  1.00  0.00    -0.357 A  
ENDBRANCH  31  33
ENDBRANCH  30  31
ENDBRANCH  29  30
ENDBRANCH  27  29
ENDBRANCH   4  27
TORSDOF 5
ENDMDL
MODEL       47
REMARK 921   NORMALIZED FREE ENERGY PREDICTED BY IDOCK:   -6.59 KCAL/MOL
REMARK 922        TOTAL FREE ENERGY PREDICTED BY IDOCK:   -9.22 KCAL/MOL
REMARK 923 INTER-LIGAND FREE ENERGY PREDICTED BY IDOCK:   -8.27 KCAL/MOL
REMARK 924 INTRA-LIGAND FREE ENERGY PREDICTED BY IDOCK:   -0.96 KCAL/MOL
REMARK 927      BINDING AFFINITY PREDICTED BY RF-SCORE:    0.00 PKD
ROOT
HETATM    1  C   UNL     1      -9.957   9.529  66.442  1.00  0.00    -0.339 C  
HETATM    2  C   UNL     1      -9.768   9.880  65.095  1.00  0.00    -0.376 C  
HETATM    3  C   UNL     1      -8.507   9.895  65.914  1.00  0.00    -0.137 C  
HETATM    4  C   UNL     1      -8.590   9.032  67.799  1.00  0.00    -0.121 C  
HETATM    5  C   UNL     1      -7.394   9.968  64.633  1.00  0.00    -0.143 C  
HETATM    6  O   UNL     1      -9.795   8.284  68.194  1.00  0.00    -0.161 OA 
HETATM    7  C   UNL     1     -10.879  15.292  66.961  1.00  0.00    -0.321 C  
HETATM    8  C   UNL     1      -8.180   8.702  66.552  1.00  0.00    -0.107 C  
HETATM    9  C   UNL     1     -10.962  15.903  68.336  1.00  0.00    -0.331 C  
HETATM   10  C   UNL     1     -10.590  13.992  67.163  1.00  0.00    -0.274 C  
HETATM   11  C   UNL     1      -8.075   7.312  65.909  1.00  0.00    -0.125 C  
HETATM   12  H   UNL     1      -9.833   7.889  69.057  1.00  0.00     0.000 HD 
HETATM   13  C   UNL     1      -6.831   9.915  67.241  1.00  0.00    -0.083 C  
HETATM   14  C   UNL     1      -7.538  11.377  67.989  1.00  0.00    -0.110 C  
HETATM   15  C   UNL     1     -11.714  13.054  67.561  1.00  0.00    -0.421 C  
HETATM   16  C   UNL     1      -8.965  12.115  67.385  1.00  0.00    -0.180 C  
HETATM   17  C   UNL     1      -8.053  14.421  66.979  1.00  0.00    -0.095 C  
HETATM   18  O   UNL     1      -7.689  11.044  69.387  1.00  0.00    -0.293 OA 
HETATM   19  F   UNL     1      -8.825  12.393  65.998  1.00  0.00    -0.122 F  
HETATM   20  C   UNL     1     -10.198  11.029  67.404  1.00  0.00    -0.229 C  
HETATM   21  C   UNL     1      -9.201  13.641  67.754  1.00  0.00    -0.214 C  
HETATM   22  C   UNL     1      -9.198  14.297  69.130  1.00  0.00     0.134 C  
HETATM   23  H   UNL     1      -8.065  11.821  69.784  1.00  0.00     0.000 HD 
HETATM   24  O   UNL     1     -11.761  16.794  68.585  1.00  0.00     0.004 OA 
HETATM   25  C   UNL     1     -11.511  11.685  66.934  1.00  0.00    -0.320 C  
HETATM   26  C   UNL     1      -9.984  15.379  69.366  1.00  0.00    -0.272 C  
ENDROOT
BRANCH   4  27
HETATM   27  C   UNL     1      -7.610   7.849  68.598  1.00  0.00    -0.101 C  
HETATM   28  O   UNL     1      -6.373   7.758  68.511  1.00  0.00    -0.042 OA 
BRANCH  27  29
HETATM   29  C   UNL     1      -8.284   6.845  69.570  1.00  0.00    -0.131 C  
BRANCH  29  30
HETATM   30  O   UNL     1      -7.817   6.986  70.934  1.00  0.00    -0.094 OA 
BRANCH  30  31
HETATM   31  C   UNL     1      -8.128   8.168  71.527  1.00  0.00    -0.119 C  
HETATM   32  O   UNL     1      -7.320   9.016  71.860  1.00  0.00    -0.317 OA 
BRANCH  31  33
HETATM   33  C   UNL     1      -9.595   8.317  71.774  1.00  0.00    -0.274 A  
HETATM   34  C   UNL     1     -12.357   8.479  72.318  1.00  0.00    -0.450 A  
HETATM   35  O   UNL     1     -13.761  10.207  70.108  1.00  0.00     0.282 OA 
HETATM   36  C   UNL     1     -11.614   7.422  72.827  1.00  0.00    -0.255 A  
HETATM   37  C   UNL     1     -10.240   7.341  72.561  1.00  0.00    -0.236 A  
HETATM   38  O   UNL     1     -13.366  11.436  72.233  1.00  0.00    -0.410 OA 
HETATM   39  O   UNL     1     -11.809  11.787  70.401  1.00  0.00    -0.343 OA 
HETATM   40  C   UNL     1     -10.346   9.388  71.262  1.00  0.00    -0.363 A  
HETATM   41  S   UNL     1     -12.707  10.787  70.914  1.00  0.00    -0.379 S  
HETATM   42  C   UNL     1     -11.726   9.440  71.542  1.00  0.00    -0.394 A  
ENDBRANCH  31  33
ENDBRANCH  30  31
ENDBRANCH  29  30
ENDBRANCH  27  29
ENDBRANCH   4  27
TORSDOF 5
ENDMDL
MODEL       48
REMARK 921   NORMALIZED FREE ENERGY PREDICTED BY IDOCK:   -6.58 KCAL/MOL
REMARK 922        TOTAL FREE ENERGY PREDICTED BY IDOCK:   -9.21 KCAL/MOL
REMARK 923 INTER-LIGAND FREE ENERGY PREDICTED BY IDOCK:   -9.10 KCAL/MOL
REMARK 924 INTRA-LIGAND FREE ENERGY PREDICTED BY IDOCK:   -0.11 KCAL/MOL
REMARK 927      BINDING AFFINITY PREDICTED BY RF-SCORE:    0.00 PKD
ROOT
HETATM    1  C   UNL     1      -9.417  14.478  68.925  1.00  0.00    -0.144 C  
HETATM    2  C   UNL     1     -10.041  14.890  70.116  1.00  0.00     0.159 C  
HETATM    3  C   UNL     1     -10.879  15.093  68.884  1.00  0.00    -0.241 C  
HETATM    4  C   UNL     1     -10.233  14.182  67.135  1.00  0.00    -0.258 C  
HETATM    5  C   UNL     1     -12.365  15.381  69.654  1.00  0.00    -0.250 C  
HETATM    6  O   UNL     1      -9.107  13.235  67.193  1.00  0.00    -0.213 OA 
HETATM    7  C   UNL     1      -7.443  19.995  69.022  1.00  0.00    -0.121 C  
HETATM    8  C   UNL     1     -11.131  13.955  68.123  1.00  0.00    -0.278 C  
HETATM    9  C   UNL     1      -6.749  20.549  67.804  1.00  0.00    -0.309 C  
HETATM   10  C   UNL     1      -7.841  18.756  68.674  1.00  0.00    -0.361 C  
HETATM   11  C   UNL     1     -11.696  12.619  68.623  1.00  0.00    -0.364 C  
HETATM   12  H   UNL     1      -8.812  12.818  66.392  1.00  0.00     0.000 HD 
HETATM   13  C   UNL     1     -11.903  15.358  67.027  1.00  0.00     0.197 C  
HETATM   14  C   UNL     1     -10.739  16.664  66.657  1.00  0.00    -0.124 C  
HETATM   15  C   UNL     1      -6.820  17.635  68.691  1.00  0.00    -0.229 C  
HETATM   16  C   UNL     1      -9.545  17.169  67.783  1.00  0.00    -0.256 C  
HETATM   17  C   UNL     1     -10.155  19.603  67.908  1.00  0.00    -0.543 C  
HETATM   18  O   UNL     1     -10.128  16.275  65.407  1.00  0.00    -0.519 OA 
HETATM   19  F   UNL     1     -10.150  17.501  69.025  1.00  0.00    -0.294 F  
HETATM   20  C   UNL     1      -8.591  15.893  68.185  1.00  0.00    -0.169 C  
HETATM   21  C   UNL     1      -8.943  18.625  67.590  1.00  0.00    -0.291 C  
HETATM   22  C   UNL     1      -8.320  19.238  66.342  1.00  0.00    -0.330 C  
HETATM   23  H   UNL     1      -9.509  16.969  65.211  1.00  0.00     0.000 HD 
HETATM   24  O   UNL     1      -5.782  21.289  67.909  1.00  0.00    -0.321 OA 
HETATM   25  C   UNL     1      -7.465  16.334  69.140  1.00  0.00    -0.218 C  
HETATM   26  C   UNL     1      -7.337  20.168  66.462  1.00  0.00    -0.308 C  
ENDROOT
BRANCH   4  27
HETATM   27  C   UNL     1     -11.018  13.158  65.980  1.00  0.00    -0.279 C  
HETATM   28  O   UNL     1     -12.181  13.298  65.564  1.00  0.00    -0.404 OA 
BRANCH  27  29
HETATM   29  C   UNL     1     -10.214  12.000  65.331  1.00  0.00    -0.263 C  
BRANCH  29  30
HETATM   30  O   UNL     1     -10.303  10.766  66.084  1.00  0.00    -0.243 OA 
BRANCH  30  31
HETATM   31  C   UNL     1      -9.129  10.101  66.235  1.00  0.00    -0.154 C  
HETATM   32  O   UNL     1      -8.025  10.612  66.185  1.00  0.00    -0.141 OA 
BRANCH  31  33
HETATM   33  C   UNL     1      -9.324   8.632  66.438  1.00  0.00    -0.271 A  
HETATM   34  C   UNL     1      -9.799   5.893  66.909  1.00  0.00    -0.182 A  
HETATM   35  O   UNL     1      -7.203   4.253  66.268  1.00  0.00    -0.072 OA 
HETATM   36  C   UNL     1     -10.576   6.849  67.551  1.00  0.00    -0.351 A  
HETATM   37  C   UNL     1     -10.344   8.211  67.316  1.00  0.00    -0.373 A  
HETATM   38  O   UNL     1      -8.919   4.145  64.472  1.00  0.00    -0.130 OA 
HETATM   39  O   UNL     1      -7.063   5.688  64.191  1.00  0.00    -0.049 OA 
HETATM   40  C   UNL     1      -8.541   7.665  65.786  1.00  0.00    -0.156 A  
HETATM   41  S   UNL     1      -7.825   5.051  65.233  1.00  0.00    -0.091 S  
HETATM   42  C   UNL     1      -8.794   6.303  66.046  1.00  0.00    -0.151 A  
ENDBRANCH  31  33
ENDBRANCH  30  31
ENDBRANCH  29  30
ENDBRANCH  27  29
ENDBRANCH   4  27
TORSDOF 5
ENDMDL
MODEL       49
REMARK 921   NORMALIZED FREE ENERGY PREDICTED BY IDOCK:   -6.57 KCAL/MOL
REMARK 922        TOTAL FREE ENERGY PREDICTED BY IDOCK:   -9.20 KCAL/MOL
REMARK 923 INTER-LIGAND FREE ENERGY PREDICTED BY IDOCK:   -9.60 KCAL/MOL
REMARK 924 INTRA-LIGAND FREE ENERGY PREDICTED BY IDOCK:    0.40 KCAL/MOL
REMARK 927      BINDING AFFINITY PREDICTED BY RF-SCORE:    0.00 PKD
ROOT
HETATM    1  C   UNL     1      -9.743  12.614  64.303  1.00  0.00     0.070 C  
HETATM    2  C   UNL     1     -10.521  11.908  63.369  1.00  0.00    -0.487 C  
HETATM    3  C   UNL     1     -11.219  12.170  64.675  1.00  0.00    -0.374 C  
HETATM    4  C   UNL     1     -10.328  13.521  65.974  1.00  0.00    -0.303 C  
HETATM    5  C   UNL     1     -12.798  11.784  64.181  1.00  0.00    -0.070 C  
HETATM    6  O   UNL     1      -9.169  14.303  65.512  1.00  0.00    -0.451 OA 
HETATM    7  C   UNL     1      -8.079   7.193  65.781  1.00  0.00    -0.130 C  
HETATM    8  C   UNL     1     -11.322  13.505  65.055  1.00  0.00    -0.334 C  
HETATM    9  C   UNL     1      -7.277   6.988  67.041  1.00  0.00    -0.081 C  
HETATM   10  C   UNL     1      -8.370   8.508  65.752  1.00  0.00    -0.144 C  
HETATM   11  C   UNL     1     -11.872  14.663  64.211  1.00  0.00    -0.355 C  
HETATM   12  H   UNL     1      -8.762  14.921  66.107  1.00  0.00     0.000 HD 
HETATM   13  C   UNL     1     -12.032  12.584  66.608  1.00  0.00    -0.351 C  
HETATM   14  C   UNL     1     -10.902  11.363  67.262  1.00  0.00    -0.263 C  
HETATM   15  C   UNL     1      -7.301   9.477  65.283  1.00  0.00    -0.104 C  
HETATM   16  C   UNL     1      -9.874  10.432  66.249  1.00  0.00    -0.218 C  
HETATM   17  C   UNL     1     -10.619   8.141  66.963  1.00  0.00    -0.346 C  
HETATM   18  O   UNL     1     -10.130  12.067  68.261  1.00  0.00    -0.192 OA 
HETATM   19  F   UNL     1     -10.636   9.784  65.240  1.00  0.00    -0.206 F  
HETATM   20  C   UNL     1      -8.909  11.434  65.373  1.00  0.00     0.018 C  
HETATM   21  C   UNL     1      -9.329   9.062  66.837  1.00  0.00    -0.203 C  
HETATM   22  C   UNL     1      -8.598   8.817  68.151  1.00  0.00    -0.134 C  
HETATM   23  H   UNL     1      -9.529  11.418  68.608  1.00  0.00     0.000 HD 
HETATM   24  O   UNL     1      -6.368   6.172  67.086  1.00  0.00    -0.038 OA 
HETATM   25  C   UNL     1      -7.926  10.624  64.507  1.00  0.00     0.067 C  
HETATM   26  C   UNL     1      -7.685   7.815  68.241  1.00  0.00    -0.119 C  
ENDROOT
BRANCH   4  27
HETATM   27  C   UNL     1     -10.920  14.916  66.812  1.00  0.00    -0.326 C  
HETATM   28  O   UNL     1     -10.517  16.081  66.648  1.00  0.00    -0.300 OA 
BRANCH  27  29
HETATM   29  C   UNL     1     -12.099  14.753  67.806  1.00  0.00    -0.106 C  
BRANCH  29  30
HETATM   30  O   UNL     1     -12.034  15.688  68.911  1.00  0.00    -0.367 OA 
BRANCH  30  31
HETATM   31  C   UNL     1     -11.342  15.248  69.994  1.00  0.00    -0.290 C  
HETATM   32  O   UNL     1     -10.223  15.614  70.303  1.00  0.00    -0.287 OA 
BRANCH  31  33
HETATM   33  C   UNL     1     -12.091  14.213  70.772  1.00  0.00    -0.419 A  
HETATM   34  C   UNL     1     -13.569  12.368  72.308  1.00  0.00    -0.371 A  
HETATM   35  O   UNL     1     -12.061   9.618  72.382  1.00  0.00    -0.068 OA 
HETATM   36  C   UNL     1     -13.744  13.731  72.510  1.00  0.00    -0.667 A  
HETATM   37  C   UNL     1     -13.012  14.651  71.745  1.00  0.00    -0.410 A  
HETATM   38  O   UNL     1     -13.963   9.669  70.782  1.00  0.00    -0.042 OA 
HETATM   39  O   UNL     1     -11.720   9.978  69.902  1.00  0.00    -0.213 OA 
HETATM   40  C   UNL     1     -11.917  12.834  70.565  1.00  0.00    -0.277 A  
HETATM   41  S   UNL     1     -12.472  10.181  71.112  1.00  0.00    -0.422 S  
HETATM   42  C   UNL     1     -12.663  11.934  71.352  1.00  0.00    -0.290 A  
ENDBRANCH  31  33
ENDBRANCH  30  31
ENDBRANCH  29  30
ENDBRANCH  27  29
ENDBRANCH   4  27
TORSDOF 5
ENDMDL
MODEL       50
REMARK 921   NORMALIZED FREE ENERGY PREDICTED BY IDOCK:   -6.55 KCAL/MOL
REMARK 922        TOTAL FREE ENERGY PREDICTED BY IDOCK:   -9.17 KCAL/MOL
REMARK 923 INTER-LIGAND FREE ENERGY PREDICTED BY IDOCK:   -9.91 KCAL/MOL
REMARK 924 INTRA-LIGAND FREE ENERGY PREDICTED BY IDOCK:    0.74 KCAL/MOL
REMARK 927      BINDING AFFINITY PREDICTED BY RF-SCORE:    0.00 PKD
ROOT
HETATM    1  C   UNL     1     -11.322  14.988  66.202  1.00  0.00    -0.270 C  
HETATM    2  C   UNL     1     -10.717  14.652  64.979  1.00  0.00    -0.448 C  
HETATM    3  C   UNL     1     -10.099  13.978  66.172  1.00  0.00    -0.319 C  
HETATM    4  C   UNL     1     -11.134  14.090  67.967  1.00  0.00    -0.263 C  
HETATM    5  C   UNL     1      -9.186  12.813  65.340  1.00  0.00     0.442 C  
HETATM    6  O   UNL     1     -12.497  14.649  67.976  1.00  0.00    -0.595 OA 
HETATM    7  C   UNL     1      -7.356  19.299  66.037  1.00  0.00    -0.298 C  
HETATM    8  C   UNL     1     -10.959  13.211  66.953  1.00  0.00    -0.295 C  
HETATM    9  C   UNL     1      -7.138  20.145  67.265  1.00  0.00    -0.260 C  
HETATM   10  C   UNL     1      -8.254  18.364  66.401  1.00  0.00    -0.280 C  
HETATM   11  C   UNL     1     -11.901  12.101  66.467  1.00  0.00    -0.322 C  
HETATM   12  H   UNL     1     -12.971  14.700  68.798  1.00  0.00     0.000 HD 
HETATM   13  C   UNL     1      -9.315  13.155  67.983  1.00  0.00    -0.219 C  
HETATM   14  C   UNL     1      -8.684  14.784  68.362  1.00  0.00    -0.169 C  
HETATM   15  C   UNL     1      -9.721  18.748  66.452  1.00  0.00    -0.378 C  
HETATM   16  C   UNL     1      -8.834  16.100  67.269  1.00  0.00    -0.186 C  
HETATM   17  C   UNL     1      -6.402  16.692  67.058  1.00  0.00    -0.222 C  
HETATM   18  O   UNL     1      -9.260  15.119  69.644  1.00  0.00    -0.411 OA 
HETATM   19  F   UNL     1      -8.310  15.744  65.997  1.00  0.00    -0.318 F  
HETATM   20  C   UNL     1     -10.422  16.361  66.935  1.00  0.00    -0.289 C  
HETATM   21  C   UNL     1      -7.816  17.305  67.446  1.00  0.00    -0.198 C  
HETATM   22  C   UNL     1      -7.512  18.115  68.701  1.00  0.00    -0.300 C  
HETATM   23  H   UNL     1      -8.925  15.984  69.844  1.00  0.00     0.000 HD 
HETATM   24  O   UNL     1      -6.935  21.347  67.177  1.00  0.00    -0.547 OA 
HETATM   25  C   UNL     1     -10.592  17.583  66.012  1.00  0.00    -0.217 C  
HETATM   26  C   UNL     1      -7.148  19.419  68.593  1.00  0.00    -0.364 C  
ENDROOT
BRANCH   4  27
HETATM   27  C   UNL     1     -11.631  12.896  69.119  1.00  0.00    -0.322 C  
HETATM   28  O   UNL     1     -11.922  13.116  70.307  1.00  0.00    -0.335 OA 
BRANCH  27  29
HETATM   29  C   UNL     1     -11.810  11.428  68.650  1.00  0.00    -0.310 C  
BRANCH  29  30
HETATM   30  O   UNL     1     -11.838  10.488  69.752  1.00  0.00    -0.265 OA 
BRANCH  30  31
HETATM   31  C   UNL     1     -10.670   9.832  69.977  1.00  0.00    -0.283 C  
HETATM   32  O   UNL     1     -10.210   9.581  71.076  1.00  0.00    -0.297 OA 
BRANCH  31  33
HETATM   33  C   UNL     1      -9.962   9.472  68.709  1.00  0.00    -0.185 A  
HETATM   34  C   UNL     1      -8.750   8.737  66.272  1.00  0.00    -0.169 A  
HETATM   35  O   UNL     1      -5.651   8.469  66.680  1.00  0.00    -0.035 OA 
HETATM   36  C   UNL     1     -10.093   8.455  66.488  1.00  0.00    -0.317 A  
HETATM   37  C   UNL     1     -10.698   8.822  67.698  1.00  0.00    -0.206 A  
HETATM   38  O   UNL     1      -6.332  10.598  65.593  1.00  0.00    -0.128 OA 
HETATM   39  O   UNL     1      -5.846  10.633  67.973  1.00  0.00    -0.043 OA 
HETATM   40  C   UNL     1      -8.605   9.761  68.489  1.00  0.00    -0.120 A  
HETATM   41  S   UNL     1      -6.307   9.732  66.950  1.00  0.00    -0.066 S  
HETATM   42  C   UNL     1      -8.022   9.376  67.265  1.00  0.00    -0.106 A  
ENDBRANCH  31  33
ENDBRANCH  30  31
ENDBRANCH  29  30
ENDBRANCH  27  29
ENDBRANCH   4  27
TORSDOF 5
ENDMDL
MODEL       51
REMARK 921   NORMALIZED FREE ENERGY PREDICTED BY IDOCK:   -6.51 KCAL/MOL
REMARK 922        TOTAL FREE ENERGY PREDICTED BY IDOCK:   -9.12 KCAL/MOL
REMARK 923 INTER-LIGAND FREE ENERGY PREDICTED BY IDOCK:   -9.39 KCAL/MOL
REMARK 924 INTRA-LIGAND FREE ENERGY PREDICTED BY IDOCK:    0.27 KCAL/MOL
REMARK 927      BINDING AFFINITY PREDICTED BY RF-SCORE:    0.00 PKD
ROOT
HETATM    1  C   UNL     1     -10.628   5.236  69.662  1.00  0.00    -0.261 C  
HETATM    2  C   UNL     1      -9.695   4.271  70.081  1.00  0.00    -0.282 C  
HETATM    3  C   UNL     1      -9.337   5.679  70.471  1.00  0.00    -0.194 C  
HETATM    4  C   UNL     1     -10.806   7.128  70.251  1.00  0.00    -0.249 C  
HETATM    5  C   UNL     1      -8.120   5.310  71.597  1.00  0.00    -0.116 C  
HETATM    6  O   UNL     1     -12.177   6.714  69.908  1.00  0.00    -0.598 OA 
HETATM    7  C   UNL     1      -7.244   5.236  64.878  1.00  0.00    -0.066 C  
HETATM    8  C   UNL     1     -10.281   6.360  71.235  1.00  0.00    -0.232 C  
HETATM    9  C   UNL     1      -7.443   6.307  63.837  1.00  0.00    -0.080 C  
HETATM   10  C   UNL     1      -8.099   5.541  65.874  1.00  0.00    -0.110 C  
HETATM   11  C   UNL     1     -10.940   5.874  72.532  1.00  0.00    -0.307 C  
HETATM   12  H   UNL     1     -12.849   7.377  69.807  1.00  0.00     0.000 HD 
HETATM   13  C   UNL     1      -8.962   7.741  70.890  1.00  0.00    -0.148 C  
HETATM   14  C   UNL     1      -8.630   7.957  69.147  1.00  0.00    -0.138 C  
HETATM   15  C   UNL     1      -9.562   5.173  65.710  1.00  0.00    -0.138 C  
HETATM   16  C   UNL     1      -8.635   6.641  68.045  1.00  0.00    -0.118 C  
HETATM   17  C   UNL     1      -6.309   6.907  67.132  1.00  0.00    -0.044 C  
HETATM   18  O   UNL     1      -9.550   8.985  68.717  1.00  0.00    -0.150 OA 
HETATM   19  F   UNL     1      -7.765   5.614  68.502  1.00  0.00    -0.083 F  
HETATM   20  C   UNL     1     -10.102   5.901  68.077  1.00  0.00    -0.194 C  
HETATM   21  C   UNL     1      -7.834   6.833  66.688  1.00  0.00    -0.107 C  
HETATM   22  C   UNL     1      -7.952   7.956  65.666  1.00  0.00    -0.116 C  
HETATM   23  H   UNL     1      -9.373   9.100  67.791  1.00  0.00     0.000 HD 
HETATM   24  O   UNL     1      -7.355   6.054  62.644  1.00  0.00    -0.049 OA 
HETATM   25  C   UNL     1     -10.159   4.759  67.044  1.00  0.00    -0.228 C  
HETATM   26  C   UNL     1      -7.717   7.704  64.352  1.00  0.00    -0.127 C  
ENDROOT
BRANCH   4  27
HETATM   27  C   UNL     1     -11.450   8.326  71.323  1.00  0.00    -0.274 C  
HETATM   28  O   UNL     1     -11.283   8.357  72.555  1.00  0.00    -0.368 OA 
BRANCH  27  29
HETATM   29  C   UNL     1     -12.249   9.516  70.729  1.00  0.00    -0.196 C  
BRANCH  29  30
HETATM   30  O   UNL     1     -11.473  10.738  70.671  1.00  0.00    -0.325 OA 
BRANCH  30  31
HETATM   31  C   UNL     1     -11.552  11.412  69.495  1.00  0.00    -0.331 C  
HETATM   32  O   UNL     1     -11.400  10.916  68.394  1.00  0.00    -0.259 OA 
BRANCH  31  33
HETATM   33  C   UNL     1     -11.814  12.872  69.688  1.00  0.00    -0.387 A  
HETATM   34  C   UNL     1     -12.279  15.643  69.911  1.00  0.00    -0.317 A  
HETATM   35  O   UNL     1     -11.890  16.535  72.894  1.00  0.00    -0.519 OA 
HETATM   36  C   UNL     1     -11.914  15.102  68.685  1.00  0.00    -0.270 A  
HETATM   37  C   UNL     1     -11.685  13.724  68.571  1.00  0.00    -0.391 A  
HETATM   38  O   UNL     1     -14.273  16.283  72.232  1.00  0.00     0.072 OA 
HETATM   39  O   UNL     1     -13.230  14.469  73.466  1.00  0.00    -0.526 OA 
HETATM   40  C   UNL     1     -12.187  13.420  70.926  1.00  0.00    -0.367 A  
HETATM   41  S   UNL     1     -12.885  15.536  72.564  1.00  0.00    -0.465 S  
HETATM   42  C   UNL     1     -12.405  14.809  71.012  1.00  0.00    -0.330 A  
ENDBRANCH  31  33
ENDBRANCH  30  31
ENDBRANCH  29  30
ENDBRANCH  27  29
ENDBRANCH   4  27
TORSDOF 5
ENDMDL
MODEL       52
REMARK 921   NORMALIZED FREE ENERGY PREDICTED BY IDOCK:   -6.51 KCAL/MOL
REMARK 922        TOTAL FREE ENERGY PREDICTED BY IDOCK:   -9.12 KCAL/MOL
REMARK 923 INTER-LIGAND FREE ENERGY PREDICTED BY IDOCK:   -9.06 KCAL/MOL
REMARK 924 INTRA-LIGAND FREE ENERGY PREDICTED BY IDOCK:   -0.06 KCAL/MOL
REMARK 927      BINDING AFFINITY PREDICTED BY RF-SCORE:    0.00 PKD
ROOT
HETATM    1  C   UNL     1     -10.991  11.040  68.346  1.00  0.00    -0.281 C  
HETATM    2  C   UNL     1     -12.030  11.220  67.418  1.00  0.00     0.277 C  
HETATM    3  C   UNL     1     -10.833  12.096  67.173  1.00  0.00    -0.286 C  
HETATM    4  C   UNL     1      -9.102  11.654  68.230  1.00  0.00    -0.187 C  
HETATM    5  C   UNL     1     -11.228  12.605  65.602  1.00  0.00    -0.344 C  
HETATM    6  O   UNL     1      -9.043  10.416  69.024  1.00  0.00    -0.169 OA 
HETATM    7  C   UNL     1     -13.968  15.174  71.241  1.00  0.00    -0.548 C  
HETATM    8  C   UNL     1      -9.619  11.436  66.998  1.00  0.00    -0.192 C  
HETATM    9  C   UNL     1     -13.338  15.826  72.446  1.00  0.00    -0.462 C  
HETATM   10  C   UNL     1     -13.030  14.338  70.755  1.00  0.00    -0.368 C  
HETATM   11  C   UNL     1      -9.327  10.291  66.020  1.00  0.00    -0.224 C  
HETATM   12  H   UNL     1      -8.251  10.214  69.508  1.00  0.00     0.000 HD 
HETATM   13  C   UNL     1      -9.072  13.298  67.013  1.00  0.00    -0.232 C  
HETATM   14  C   UNL     1      -9.623  14.167  68.475  1.00  0.00    -0.214 C  
HETATM   15  C   UNL     1     -12.832  12.997  71.435  1.00  0.00    -0.385 C  
HETATM   16  C   UNL     1     -11.127  13.827  69.228  1.00  0.00    -0.208 C  
HETATM   17  C   UNL     1     -12.120  16.133  69.140  1.00  0.00     0.050 C  
HETATM   18  O   UNL     1      -8.538  14.031  69.420  1.00  0.00    -0.275 OA 
HETATM   19  F   UNL     1     -12.182  13.914  68.280  1.00  0.00    -0.385 F  
HETATM   20  C   UNL     1     -11.179  12.244  69.668  1.00  0.00    -0.120 C  
HETATM   21  C   UNL     1     -11.746  14.962  70.148  1.00  0.00    -0.340 C  
HETATM   22  C   UNL     1     -11.097  15.701  71.312  1.00  0.00    -0.315 C  
HETATM   23  H   UNL     1      -8.831  14.492  70.196  1.00  0.00     0.000 HD 
HETATM   24  O   UNL     1     -14.003  16.109  73.432  1.00  0.00    -0.488 OA 
HETATM   25  C   UNL     1     -12.490  11.927  70.412  1.00  0.00    -0.252 C  
HETATM   26  C   UNL     1     -11.861  16.140  72.346  1.00  0.00    -0.637 C  
ENDROOT
BRANCH   4  27
HETATM   27  C   UNL     1      -7.457  11.408  67.748  1.00  0.00    -0.100 C  
HETATM   28  O   UNL     1      -6.649  12.307  67.455  1.00  0.00    -0.110 OA 
BRANCH  27  29
HETATM   29  C   UNL     1      -6.883   9.967  67.737  1.00  0.00    -0.076 C  
BRANCH  29  30
HETATM   30  O   UNL     1      -6.451   9.526  69.048  1.00  0.00    -0.045 OA 
BRANCH  30  31
HETATM   31  C   UNL     1      -6.701   8.220  69.324  1.00  0.00    -0.043 C  
HETATM   32  O   UNL     1      -6.239   7.275  68.709  1.00  0.00    -0.029 OA 
BRANCH  31  33
HETATM   33  C   UNL     1      -7.653   8.046  70.464  1.00  0.00    -0.076 A  
HETATM   34  C   UNL     1      -9.359   7.795  72.694  1.00  0.00    -0.246 A  
HETATM   35  O   UNL     1     -11.200   5.281  72.329  1.00  0.00    -0.204 OA 
HETATM   36  C   UNL     1      -8.164   8.492  72.814  1.00  0.00    -0.119 A  
HETATM   37  C   UNL     1      -7.315   8.621  71.706  1.00  0.00    -0.108 A  
HETATM   38  O   UNL     1     -12.338   7.432  71.818  1.00  0.00    -0.308 OA 
HETATM   39  O   UNL     1     -11.503   6.109  69.959  1.00  0.00    -0.406 OA 
HETATM   40  C   UNL     1      -8.864   7.344  70.341  1.00  0.00    -0.149 A  
HETATM   41  S   UNL     1     -11.238   6.350  71.353  1.00  0.00    -0.298 S  
HETATM   42  C   UNL     1      -9.694   7.227  71.474  1.00  0.00    -0.159 A  
ENDBRANCH  31  33
ENDBRANCH  30  31
ENDBRANCH  29  30
ENDBRANCH  27  29
ENDBRANCH   4  27
TORSDOF 5
ENDMDL
MODEL       53
REMARK 921   NORMALIZED FREE ENERGY PREDICTED BY IDOCK:   -6.47 KCAL/MOL
REMARK 922        TOTAL FREE ENERGY PREDICTED BY IDOCK:   -9.08 KCAL/MOL
REMARK 923 INTER-LIGAND FREE ENERGY PREDICTED BY IDOCK:   -8.84 KCAL/MOL
REMARK 924 INTRA-LIGAND FREE ENERGY PREDICTED BY IDOCK:   -0.23 KCAL/MOL
REMARK 927      BINDING AFFINITY PREDICTED BY RF-SCORE:    0.00 PKD
ROOT
HETATM    1  C   UNL     1      -9.310  11.363  65.830  1.00  0.00    -0.247 C  
HETATM    2  C   UNL     1     -10.638  11.354  65.370  1.00  0.00    -0.333 C  
HETATM    3  C   UNL     1     -10.481  11.857  66.778  1.00  0.00    -0.253 C  
HETATM    4  C   UNL     1      -8.555  12.277  67.427  1.00  0.00    -0.178 C  
HETATM    5  C   UNL     1     -12.025  12.542  66.958  1.00  0.00    -0.295 C  
HETATM    6  O   UNL     1      -7.448  12.250  66.456  1.00  0.00    -0.370 OA 
HETATM    7  C   UNL     1     -10.711   5.914  67.469  1.00  0.00    -0.359 C  
HETATM    8  C   UNL     1      -9.629  12.946  66.946  1.00  0.00    -0.240 C  
HETATM    9  C   UNL     1      -9.772   5.152  68.369  1.00  0.00    -0.147 C  
HETATM   10  C   UNL     1     -10.164   7.138  67.333  1.00  0.00    -0.291 C  
HETATM   11  C   UNL     1      -9.673  14.275  66.181  1.00  0.00    -0.325 C  
HETATM   12  H   UNL     1      -6.567  12.442  66.753  1.00  0.00     0.000 HD 
HETATM   13  C   UNL     1     -10.075  12.491  68.779  1.00  0.00    -0.061 C  
HETATM   14  C   UNL     1      -9.727  10.781  69.169  1.00  0.00    -0.163 C  
HETATM   15  C   UNL     1      -9.015   7.313  66.358  1.00  0.00    -0.184 C  
HETATM   16  C   UNL     1      -9.926   9.522  68.020  1.00  0.00    -0.167 C  
HETATM   17  C   UNL     1     -11.519   8.077  69.318  1.00  0.00     0.588 C  
HETATM   18  O   UNL     1      -8.380  10.786  69.692  1.00  0.00    -0.383 OA 
HETATM   19  F   UNL     1     -11.238   9.557  67.475  1.00  0.00    -0.313 F  
HETATM   20  C   UNL     1      -8.989   9.824  66.703  1.00  0.00    -0.161 C  
HETATM   21  C   UNL     1     -10.108   8.050  68.586  1.00  0.00    -0.212 C  
HETATM   22  C   UNL     1      -9.222   7.293  69.567  1.00  0.00    -0.149 C  
HETATM   23  H   UNL     1      -8.194   9.878  69.898  1.00  0.00     0.000 HD 
HETATM   24  O   UNL     1      -9.580   3.955  68.214  1.00  0.00    -0.162 OA 
HETATM   25  C   UNL     1      -9.093   8.673  65.684  1.00  0.00    -0.221 C  
HETATM   26  C   UNL     1      -9.118   5.942  69.483  1.00  0.00    -0.140 C  
ENDROOT
BRANCH   4  27
HETATM   27  C   UNL     1      -7.841  13.662  68.183  1.00  0.00    -0.143 C  
HETATM   28  O   UNL     1      -8.431  14.460  68.932  1.00  0.00    -0.145 OA 
BRANCH  27  29
HETATM   29  C   UNL     1      -6.324  13.925  67.992  1.00  0.00    -0.142 C  
BRANCH  29  30
HETATM   30  O   UNL     1      -6.056  15.043  67.111  1.00  0.00    -0.259 OA 
BRANCH  30  31
HETATM   31  C   UNL     1      -5.847  16.230  67.738  1.00  0.00    -0.139 C  
HETATM   32  O   UNL     1      -5.195  16.377  68.756  1.00  0.00    -0.110 OA 
BRANCH  31  33
HETATM   33  C   UNL     1      -6.546  17.366  67.061  1.00  0.00    -0.212 A  
HETATM   34  C   UNL     1      -7.738  19.542  65.723  1.00  0.00    -0.207 A  
HETATM   35  O   UNL     1     -10.307  20.450  67.279  1.00  0.00    -0.358 OA 
HETATM   36  C   UNL     1      -6.388  19.275  65.540  1.00  0.00    -0.280 A  
HETATM   37  C   UNL     1      -5.793  18.192  66.202  1.00  0.00    -0.225 A  
HETATM   38  O   UNL     1     -10.794  19.068  65.271  1.00  0.00    -0.540 OA 
HETATM   39  O   UNL     1     -10.824  17.980  67.443  1.00  0.00    -0.356 OA 
HETATM   40  C   UNL     1      -7.913  17.634  67.244  1.00  0.00    -0.222 A  
HETATM   41  S   UNL     1     -10.212  19.097  66.772  1.00  0.00    -0.435 S  
HETATM   42  C   UNL     1      -8.482  18.732  66.569  1.00  0.00    -0.301 A  
ENDBRANCH  31  33
ENDBRANCH  30  31
ENDBRANCH  29  30
ENDBRANCH  27  29
ENDBRANCH   4  27
TORSDOF 5
ENDMDL
MODEL       54
REMARK 921   NORMALIZED FREE ENERGY PREDICTED BY IDOCK:   -6.44 KCAL/MOL
REMARK 922        TOTAL FREE ENERGY PREDICTED BY IDOCK:   -9.04 KCAL/MOL
REMARK 923 INTER-LIGAND FREE ENERGY PREDICTED BY IDOCK:   -9.00 KCAL/MOL
REMARK 924 INTRA-LIGAND FREE ENERGY PREDICTED BY IDOCK:   -0.04 KCAL/MOL
REMARK 927      BINDING AFFINITY PREDICTED BY RF-SCORE:    0.00 PKD
ROOT
HETATM    1  C   UNL     1      -8.901   8.755  66.803  1.00  0.00    -0.147 C  
HETATM    2  C   UNL     1      -7.624   9.330  66.684  1.00  0.00    -0.093 C  
HETATM    3  C   UNL     1      -8.279   9.565  68.017  1.00  0.00    -0.114 C  
HETATM    4  C   UNL     1      -9.979   8.456  68.449  1.00  0.00    -0.187 C  
HETATM    5  C   UNL     1      -6.909  10.111  68.860  1.00  0.00    -0.054 C  
HETATM    6  O   UNL     1     -10.375   7.366  67.541  1.00  0.00    -0.205 OA 
HETATM    7  C   UNL     1     -10.533  13.933  64.598  1.00  0.00    -0.419 C  
HETATM    8  C   UNL     1      -8.654   8.425  68.723  1.00  0.00    -0.135 C  
HETATM    9  C   UNL     1     -11.995  14.301  64.588  1.00  0.00    -0.455 C  
HETATM   10  C   UNL     1     -10.467  12.742  65.224  1.00  0.00    -0.312 C  
HETATM   11  C   UNL     1      -7.768   7.218  69.060  1.00  0.00    -0.112 C  
HETATM   12  H   UNL     1     -11.153   6.859  67.738  1.00  0.00     0.000 HD 
HETATM   13  C   UNL     1      -9.382   9.845  69.826  1.00  0.00    -0.248 C  
HETATM   14  C   UNL     1     -10.455  10.946  68.913  1.00  0.00    -0.203 C  
HETATM   15  C   UNL     1     -10.822  11.492  64.441  1.00  0.00    -0.405 C  
HETATM   16  C   UNL     1     -10.162  11.354  67.271  1.00  0.00    -0.199 C  
HETATM   17  C   UNL     1     -10.064  13.852  67.517  1.00  0.00    -0.244 C  
HETATM   18  O   UNL     1     -11.780  10.392  69.072  1.00  0.00    -0.462 OA 
HETATM   19  F   UNL     1      -8.840  11.851  67.117  1.00  0.00    -0.156 F  
HETATM   20  C   UNL     1     -10.134   9.987  66.360  1.00  0.00    -0.307 C  
HETATM   21  C   UNL     1     -10.820  12.695  66.733  1.00  0.00    -0.279 C  
HETATM   22  C   UNL     1     -12.279  13.128  66.795  1.00  0.00    -0.306 C  
HETATM   23  H   UNL     1     -12.349  10.977  68.587  1.00  0.00     0.000 HD 
HETATM   24  O   UNL     1     -12.489  14.903  63.647  1.00  0.00    -0.699 OA 
HETATM   25  C   UNL     1      -9.944  10.328  64.870  1.00  0.00    -0.393 C  
HETATM   26  C   UNL     1     -12.793  13.917  65.816  1.00  0.00    -0.437 C  
ENDROOT
BRANCH   4  27
HETATM   27  C   UNL     1     -10.436   7.477  69.802  1.00  0.00    -0.230 C  
HETATM   28  O   UNL     1     -10.659   7.894  70.952  1.00  0.00    -0.210 OA 
BRANCH  27  29
HETATM   29  C   UNL     1     -10.667   5.958  69.588  1.00  0.00    -0.345 C  
BRANCH  29  30
HETATM   30  O   UNL     1      -9.829   5.138  70.439  1.00  0.00    -0.183 OA 
BRANCH  30  31
HETATM   31  C   UNL     1      -9.644   3.864  70.006  1.00  0.00    -0.199 C  
HETATM   32  O   UNL     1     -10.008   2.865  70.599  1.00  0.00     0.004 OA 
BRANCH  31  33
HETATM   33  C   UNL     1      -8.896   3.801  68.713  1.00  0.00    -0.156 A  
HETATM   34  C   UNL     1      -7.366   3.654  66.349  1.00  0.00    -0.072 A  
HETATM   35  O   UNL     1      -8.806   5.254  64.067  1.00  0.00    -0.069 OA 
HETATM   36  C   UNL     1      -6.753   3.465  67.581  1.00  0.00    -0.042 A  
HETATM   37  C   UNL     1      -7.512   3.535  68.757  1.00  0.00    -0.053 A  
HETATM   38  O   UNL     1      -9.117   2.793  63.908  1.00  0.00    -0.100 OA 
HETATM   39  O   UNL     1     -10.909   4.112  64.882  1.00  0.00    -0.243 OA 
HETATM   40  C   UNL     1      -9.517   3.988  67.466  1.00  0.00    -0.231 A  
HETATM   41  S   UNL     1      -9.482   4.144  64.705  1.00  0.00    -0.176 S  
HETATM   42  C   UNL     1      -8.727   3.918  66.301  1.00  0.00    -0.115 A  
ENDBRANCH  31  33
ENDBRANCH  30  31
ENDBRANCH  29  30
ENDBRANCH  27  29
ENDBRANCH   4  27
TORSDOF 5
ENDMDL
MODEL       55
REMARK 921   NORMALIZED FREE ENERGY PREDICTED BY IDOCK:   -6.43 KCAL/MOL
REMARK 922        TOTAL FREE ENERGY PREDICTED BY IDOCK:   -9.02 KCAL/MOL
REMARK 923 INTER-LIGAND FREE ENERGY PREDICTED BY IDOCK:   -9.10 KCAL/MOL
REMARK 924 INTRA-LIGAND FREE ENERGY PREDICTED BY IDOCK:    0.08 KCAL/MOL
REMARK 927      BINDING AFFINITY PREDICTED BY RF-SCORE:    0.00 PKD
ROOT
HETATM    1  C   UNL     1     -10.635   7.161  68.879  1.00  0.00    -0.218 C  
HETATM    2  C   UNL     1     -11.383   6.273  69.670  1.00  0.00    -0.492 C  
HETATM    3  C   UNL     1      -9.992   6.524  70.181  1.00  0.00    -0.190 C  
HETATM    4  C   UNL     1      -8.936   8.094  69.327  1.00  0.00    -0.148 C  
HETATM    5  C   UNL     1     -10.186   5.862  71.733  1.00  0.00    -0.248 C  
HETATM    6  O   UNL     1      -9.630   9.008  68.405  1.00  0.00    -0.149 OA 
HETATM    7  C   UNL     1      -9.196   2.195  66.122  1.00  0.00     0.015 C  
HETATM    8  C   UNL     1      -9.667   7.853  70.441  1.00  0.00    -0.179 C  
HETATM    9  C   UNL     1      -8.085   2.215  65.103  1.00  0.00    -0.079 C  
HETATM   10  C   UNL     1      -9.240   3.443  66.628  1.00  0.00    -0.186 C  
HETATM   11  C   UNL     1     -10.461   8.843  71.304  1.00  0.00    -0.357 C  
HETATM   12  H   UNL     1      -9.147   9.726  68.014  1.00  0.00     0.000 HD 
HETATM   13  C   UNL     1      -7.970   6.956  70.726  1.00  0.00    -0.106 C  
HETATM   14  C   UNL     1      -7.461   5.980  69.318  1.00  0.00    -0.089 C  
HETATM   15  C   UNL     1      -9.935   4.526  65.825  1.00  0.00    -0.253 C  
HETATM   16  C   UNL     1      -8.588   5.144  68.329  1.00  0.00    -0.098 C  
HETATM   17  C   UNL     1      -7.642   2.828  68.557  1.00  0.00    -0.048 C  
HETATM   18  O   UNL     1      -6.648   6.870  68.522  1.00  0.00    -0.053 OA 
HETATM   19  F   UNL     1      -9.417   4.309  69.127  1.00  0.00    -0.175 F  
HETATM   20  C   UNL     1      -9.667   6.212  67.699  1.00  0.00    -0.121 C  
HETATM   21  C   UNL     1      -8.035   3.925  67.476  1.00  0.00    -0.090 C  
HETATM   22  C   UNL     1      -6.857   3.898  66.511  1.00  0.00    -0.058 C  
HETATM   23  H   UNL     1      -6.378   6.352  67.774  1.00  0.00     0.000 HD 
HETATM   24  O   UNL     1      -8.157   1.556  64.076  1.00  0.00    -0.063 OA 
HETATM   25  C   UNL     1     -10.649   5.498  66.749  1.00  0.00    -0.360 C  
HETATM   26  C   UNL     1      -6.876   3.060  65.442  1.00  0.00    -0.048 C  
ENDROOT
BRANCH   4  27
HETATM   27  C   UNL     1      -8.080   9.442  69.998  1.00  0.00    -0.152 C  
HETATM   28  O   UNL     1      -7.707   9.545  71.179  1.00  0.00    -0.325 OA 
BRANCH  27  29
HETATM   29  C   UNL     1      -7.659  10.606  69.063  1.00  0.00    -0.122 C  
BRANCH  29  30
HETATM   30  O   UNL     1      -8.718  11.575  68.864  1.00  0.00    -0.090 OA 
BRANCH  30  31
HETATM   31  C   UNL     1      -8.571  12.368  67.771  1.00  0.00    -0.172 C  
HETATM   32  O   UNL     1      -7.505  12.689  67.279  1.00  0.00    -0.149 OA 
BRANCH  31  33
HETATM   33  C   UNL     1      -9.880  12.855  67.237  1.00  0.00    -0.218 A  
HETATM   34  C   UNL     1     -12.368  13.844  66.352  1.00  0.00    -0.468 A  
HETATM   35  O   UNL     1     -13.495  11.979  64.095  1.00  0.00    -0.672 OA 
HETATM   36  C   UNL     1     -11.905  14.173  67.620  1.00  0.00    -0.427 A  
HETATM   37  C   UNL     1     -10.668  13.685  68.061  1.00  0.00    -0.258 A  
HETATM   38  O   UNL     1     -12.463  14.072  63.236  1.00  0.00    -0.795 OA 
HETATM   39  O   UNL     1     -11.143  12.034  63.167  1.00  0.00    -0.329 OA 
HETATM   40  C   UNL     1     -10.346  12.525  65.953  1.00  0.00    -0.284 A  
HETATM   41  S   UNL     1     -12.215  12.633  63.917  1.00  0.00    -0.496 S  
HETATM   42  C   UNL     1     -11.597  13.026  65.539  1.00  0.00    -0.347 A  
ENDBRANCH  31  33
ENDBRANCH  30  31
ENDBRANCH  29  30
ENDBRANCH  27  29
ENDBRANCH   4  27
TORSDOF 5
ENDMDL
MODEL       56
REMARK 921   NORMALIZED FREE ENERGY PREDICTED BY IDOCK:   -6.41 KCAL/MOL
REMARK 922        TOTAL FREE ENERGY PREDICTED BY IDOCK:   -9.00 KCAL/MOL
REMARK 923 INTER-LIGAND FREE ENERGY PREDICTED BY IDOCK:   -9.68 KCAL/MOL
REMARK 924 INTRA-LIGAND FREE ENERGY PREDICTED BY IDOCK:    0.68 KCAL/MOL
REMARK 927      BINDING AFFINITY PREDICTED BY RF-SCORE:    0.00 PKD
ROOT
HETATM    1  C   UNL     1      -8.761   9.308  66.907  1.00  0.00    -0.136 C  
HETATM    2  C   UNL     1      -7.550   9.967  67.180  1.00  0.00    -0.092 C  
HETATM    3  C   UNL     1      -8.514   9.956  68.333  1.00  0.00    -0.111 C  
HETATM    4  C   UNL     1     -10.157   8.697  68.185  1.00  0.00    -0.197 C  
HETATM    5  C   UNL     1      -7.434  10.444  69.550  1.00  0.00    -0.148 C  
HETATM    6  O   UNL     1     -10.229   7.739  67.069  1.00  0.00    -0.247 OA 
HETATM    7  C   UNL     1     -10.313  14.661  65.096  1.00  0.00    -0.431 C  
HETATM    8  C   UNL     1      -8.934   8.701  68.766  1.00  0.00    -0.138 C  
HETATM    9  C   UNL     1     -11.761  14.940  64.782  1.00  0.00    -0.402 C  
HETATM   10  C   UNL     1     -10.283  13.393  65.551  1.00  0.00    -0.300 C  
HETATM   11  C   UNL     1      -8.042   7.510  69.141  1.00  0.00    -0.123 C  
HETATM   12  H   UNL     1     -10.981   7.163  67.002  1.00  0.00     0.000 HD 
HETATM   13  C   UNL     1     -10.027   9.889  69.842  1.00  0.00    -0.292 C  
HETATM   14  C   UNL     1     -10.957  11.054  68.854  1.00  0.00    -0.227 C  
HETATM   15  C   UNL     1     -10.330  12.260  64.543  1.00  0.00    -0.339 C  
HETATM   16  C   UNL     1     -10.332  11.726  67.404  1.00  0.00    -0.204 C  
HETATM   17  C   UNL     1     -10.527  14.158  68.003  1.00  0.00    -0.240 C  
HETATM   18  O   UNL     1     -12.225  10.406  68.611  1.00  0.00    -0.750 OA 
HETATM   19  F   UNL     1      -9.062  12.317  67.643  1.00  0.00    -0.162 F  
HETATM   20  C   UNL     1      -9.967  10.520  66.349  1.00  0.00    -0.271 C  
HETATM   21  C   UNL     1     -10.969  13.094  66.909  1.00  0.00    -0.295 C  
HETATM   22  C   UNL     1     -12.437  13.427  66.673  1.00  0.00    -0.212 C  
HETATM   23  H   UNL     1     -12.719  11.025  68.086  1.00  0.00     0.000 HD 
HETATM   24  O   UNL     1     -12.078  15.650  63.839  1.00  0.00    -0.574 OA 
HETATM   25  C   UNL     1      -9.471  11.097  65.010  1.00  0.00    -0.259 C  
HETATM   26  C   UNL     1     -12.782  14.326  65.715  1.00  0.00    -0.365 C  
ENDROOT
BRANCH   4  27
HETATM   27  C   UNL     1     -10.821   7.496  69.242  1.00  0.00    -0.117 C  
HETATM   28  O   UNL     1     -11.235   6.377  68.893  1.00  0.00    -0.343 OA 
BRANCH  27  29
HETATM   29  C   UNL     1     -10.855   7.772  70.768  1.00  0.00    -0.239 C  
BRANCH  29  30
HETATM   30  O   UNL     1     -11.545   6.736  71.509  1.00  0.00    -0.269 OA 
BRANCH  30  31
HETATM   31  C   UNL     1     -10.815   6.153  72.495  1.00  0.00    -0.240 C  
HETATM   32  O   UNL     1     -10.488   6.694  73.535  1.00  0.00    -0.260 OA 
BRANCH  31  33
HETATM   33  C   UNL     1     -10.406   4.755  72.155  1.00  0.00    -0.256 A  
HETATM   34  C   UNL     1      -9.700   2.076  71.635  1.00  0.00    -0.215 A  
HETATM   35  O   UNL     1      -7.224   2.000  69.708  1.00  0.00    -0.036 OA 
HETATM   36  C   UNL     1     -10.408   2.392  72.787  1.00  0.00    -0.240 A  
HETATM   37  C   UNL     1     -10.763   3.723  73.046  1.00  0.00    -0.236 A  
HETATM   38  O   UNL     1      -9.388   1.552  68.569  1.00  0.00    -0.143 OA 
HETATM   39  O   UNL     1      -8.449   3.787  68.405  1.00  0.00    -0.088 OA 
HETATM   40  C   UNL     1      -9.693   4.435  70.987  1.00  0.00    -0.260 A  
HETATM   41  S   UNL     1      -8.448   2.647  69.284  1.00  0.00    -0.068 S  
HETATM   42  C   UNL     1      -9.346   3.089  70.756  1.00  0.00    -0.153 A  
ENDBRANCH  31  33
ENDBRANCH  30  31
ENDBRANCH  29  30
ENDBRANCH  27  29
ENDBRANCH   4  27
TORSDOF 5
ENDMDL
MODEL       57
REMARK 921   NORMALIZED FREE ENERGY PREDICTED BY IDOCK:   -6.28 KCAL/MOL
REMARK 922        TOTAL FREE ENERGY PREDICTED BY IDOCK:   -8.83 KCAL/MOL
REMARK 923 INTER-LIGAND FREE ENERGY PREDICTED BY IDOCK:   -8.37 KCAL/MOL
REMARK 924 INTRA-LIGAND FREE ENERGY PREDICTED BY IDOCK:   -0.46 KCAL/MOL
REMARK 927      BINDING AFFINITY PREDICTED BY RF-SCORE:    0.00 PKD
ROOT
HETATM    1  C   UNL     1      -7.394  10.771  68.259  1.00  0.00    -0.086 C  
HETATM    2  C   UNL     1      -7.981  10.940  69.525  1.00  0.00     0.052 C  
HETATM    3  C   UNL     1      -8.776  10.069  68.592  1.00  0.00    -0.127 C  
HETATM    4  C   UNL     1      -7.838   9.437  66.852  1.00  0.00    -0.105 C  
HETATM    5  C   UNL     1      -9.838   9.402  69.738  1.00  0.00    -0.218 C  
HETATM    6  O   UNL     1      -6.400   9.698  66.677  1.00  0.00    -0.064 OA 
HETATM    7  C   UNL     1     -10.495  15.603  67.088  1.00  0.00    -0.303 C  
HETATM    8  C   UNL     1      -8.114   8.953  68.086  1.00  0.00    -0.106 C  
HETATM    9  C   UNL     1     -10.623  16.066  65.659  1.00  0.00    -0.377 C  
HETATM   10  C   UNL     1      -9.803  14.449  67.029  1.00  0.00    -0.252 C  
HETATM   11  C   UNL     1      -7.364   7.883  68.891  1.00  0.00    -0.085 C  
HETATM   12  H   UNL     1      -5.971   9.409  65.880  1.00  0.00     0.000 HD 
HETATM   13  C   UNL     1      -9.795   8.904  67.118  1.00  0.00    -0.267 C  
HETATM   14  C   UNL     1     -10.140  10.433  66.258  1.00  0.00    -0.231 C  
HETATM   15  C   UNL     1      -8.296  14.515  66.868  1.00  0.00    -0.133 C  
HETATM   16  C   UNL     1      -9.693  11.962  66.896  1.00  0.00    -0.200 C  
HETATM   17  C   UNL     1     -11.962  13.041  66.909  1.00  0.00    -0.415 C  
HETATM   18  O   UNL     1      -9.584  10.251  64.936  1.00  0.00    -0.253 OA 
HETATM   19  F   UNL     1     -10.202  12.112  68.215  1.00  0.00    -0.184 F  
HETATM   20  C   UNL     1      -8.068  12.005  67.139  1.00  0.00    -0.177 C  
HETATM   21  C   UNL     1     -10.483  13.229  66.357  1.00  0.00    -0.286 C  
HETATM   22  C   UNL     1     -10.705  13.666  64.914  1.00  0.00    -0.400 C  
HETATM   23  H   UNL     1      -9.768  11.063  64.480  1.00  0.00     0.000 HD 
HETATM   24  O   UNL     1     -10.599  17.255  65.375  1.00  0.00    -0.630 OA 
HETATM   25  C   UNL     1      -7.628  13.392  67.645  1.00  0.00    -0.177 C  
HETATM   26  C   UNL     1     -10.818  14.987  64.617  1.00  0.00    -0.290 C  
ENDROOT
BRANCH   4  27
HETATM   27  C   UNL     1      -7.632   7.880  66.122  1.00  0.00    -0.083 C  
HETATM   28  O   UNL     1      -6.544   7.305  65.945  1.00  0.00    -0.050 OA 
BRANCH  27  29
HETATM   29  C   UNL     1      -8.888   7.071  65.706  1.00  0.00    -0.064 C  
BRANCH  29  30
HETATM   30  O   UNL     1      -8.850   5.699  66.169  1.00  0.00    -0.133 OA 
BRANCH  30  31
HETATM   31  C   UNL     1      -9.982   5.269  66.782  1.00  0.00    -0.199 C  
HETATM   32  O   UNL     1     -11.028   5.008  66.215  1.00  0.00    -0.216 OA 
BRANCH  31  33
HETATM   33  C   UNL     1      -9.832   5.181  68.268  1.00  0.00    -0.212 A  
HETATM   34  C   UNL     1      -9.431   4.937  71.048  1.00  0.00    -0.225 A  
HETATM   35  O   UNL     1     -12.155   5.372  72.543  1.00  0.00    -0.130 OA 
HETATM   36  C   UNL     1      -8.544   4.332  70.167  1.00  0.00    -0.102 A  
HETATM   37  C   UNL     1      -8.740   4.454  68.784  1.00  0.00    -0.120 A  
HETATM   38  O   UNL     1     -10.661   7.357  72.596  1.00  0.00    -0.239 OA 
HETATM   39  O   UNL     1     -12.465   7.326  70.969  1.00  0.00    -0.334 OA 
HETATM   40  C   UNL     1     -10.728   5.796  69.159  1.00  0.00    -0.370 A  
HETATM   41  S   UNL     1     -11.619   6.421  71.702  1.00  0.00    -0.303 S  
HETATM   42  C   UNL     1     -10.508   5.651  70.544  1.00  0.00    -0.277 A  
ENDBRANCH  31  33
ENDBRANCH  30  31
ENDBRANCH  29  30
ENDBRANCH  27  29
ENDBRANCH   4  27
TORSDOF 5
ENDMDL
MODEL       58
REMARK 921   NORMALIZED FREE ENERGY PREDICTED BY IDOCK:   -6.26 KCAL/MOL
REMARK 922        TOTAL FREE ENERGY PREDICTED BY IDOCK:   -8.80 KCAL/MOL
REMARK 923 INTER-LIGAND FREE ENERGY PREDICTED BY IDOCK:   -8.14 KCAL/MOL
REMARK 924 INTRA-LIGAND FREE ENERGY PREDICTED BY IDOCK:   -0.66 KCAL/MOL
REMARK 927      BINDING AFFINITY PREDICTED BY RF-SCORE:    0.00 PKD
ROOT
HETATM    1  C   UNL     1      -8.706  11.798  67.244  1.00  0.00    -0.163 C  
HETATM    2  C   UNL     1      -9.368  11.604  68.469  1.00  0.00    -0.169 C  
HETATM    3  C   UNL     1     -10.286  11.918  67.321  1.00  0.00    -0.220 C  
HETATM    4  C   UNL     1      -9.477  11.846  65.411  1.00  0.00    -0.108 C  
HETATM    5  C   UNL     1     -11.750  11.483  68.062  1.00  0.00    -0.343 C  
HETATM    6  O   UNL     1      -8.114  11.319  65.228  1.00  0.00    -0.354 OA 
HETATM    7  C   UNL     1      -8.510  17.329  69.170  1.00  0.00     0.029 C  
HETATM    8  C   UNL     1     -10.215  11.058  66.228  1.00  0.00    -0.295 C  
HETATM    9  C   UNL     1      -8.077  18.422  68.226  1.00  0.00    -0.298 C  
HETATM   10  C   UNL     1      -8.527  16.203  68.431  1.00  0.00    -0.184 C  
HETATM   11  C   UNL     1     -10.319   9.527  66.254  1.00  0.00    -0.226 C  
HETATM   12  H   UNL     1      -7.744  11.286  64.354  1.00  0.00     0.000 HD 
HETATM   13  C   UNL     1     -11.430  12.428  65.588  1.00  0.00    -0.412 C  
HETATM   14  C   UNL     1     -10.739  14.073  65.709  1.00  0.00    -0.293 C  
HETATM   15  C   UNL     1      -7.212  15.501  68.150  1.00  0.00    -0.123 C  
HETATM   16  C   UNL     1      -9.705  14.538  66.998  1.00  0.00    -0.245 C  
HETATM   17  C   UNL     1     -11.022  16.501  67.848  1.00  0.00    -0.288 C  
HETATM   18  O   UNL     1     -10.099  14.304  64.434  1.00  0.00    -0.646 OA 
HETATM   19  F   UNL     1     -10.322  14.261  68.248  1.00  0.00    -0.220 F  
HETATM   20  C   UNL     1      -8.388  13.555  67.030  1.00  0.00    -0.096 C  
HETATM   21  C   UNL     1      -9.586  16.091  67.304  1.00  0.00    -0.227 C  
HETATM   22  C   UNL     1      -9.241  17.224  66.346  1.00  0.00    -0.278 C  
HETATM   23  H   UNL     1      -9.732  15.177  64.499  1.00  0.00     0.000 HD 
HETATM   24  O   UNL     1      -7.379  19.348  68.609  1.00  0.00    -0.312 OA 
HETATM   25  C   UNL     1      -7.406  13.994  68.133  1.00  0.00    -0.128 C  
HETATM   26  C   UNL     1      -8.585  18.322  66.804  1.00  0.00    -0.271 C  
ENDROOT
BRANCH   4  27
HETATM   27  C   UNL     1      -9.966  11.049  63.953  1.00  0.00    -0.341 C  
HETATM   28  O   UNL     1     -11.127  10.999  63.513  1.00  0.00    -0.193 OA 
BRANCH  27  29
HETATM   29  C   UNL     1      -8.884  10.394  63.054  1.00  0.00    -0.222 C  
BRANCH  29  30
HETATM   30  O   UNL     1      -8.785   8.962  63.252  1.00  0.00    -0.159 OA 
BRANCH  30  31
HETATM   31  C   UNL     1      -7.545   8.513  63.577  1.00  0.00    -0.127 C  
HETATM   32  O   UNL     1      -6.540   8.693  62.913  1.00  0.00    -0.091 OA 
BRANCH  31  33
HETATM   33  C   UNL     1      -7.537   7.720  64.846  1.00  0.00    -0.102 A  
HETATM   34  C   UNL     1      -7.419   6.314  67.285  1.00  0.00    -0.084 A  
HETATM   35  O   UNL     1      -8.530   3.409  66.876  1.00  0.00    -0.101 OA 
HETATM   36  C   UNL     1      -6.576   7.397  67.072  1.00  0.00    -0.061 A  
HETATM   37  C   UNL     1      -6.635   8.100  65.861  1.00  0.00    -0.046 A  
HETATM   38  O   UNL     1     -10.153   4.954  67.953  1.00  0.00    -0.144 OA 
HETATM   39  O   UNL     1     -10.385   4.528  65.573  1.00  0.00    -0.254 OA 
HETATM   40  C   UNL     1      -8.391   6.627  65.063  1.00  0.00    -0.067 A  
HETATM   41  S   UNL     1      -9.378   4.550  66.600  1.00  0.00    -0.163 S  
HETATM   42  C   UNL     1      -8.306   5.936  66.288  1.00  0.00    -0.117 A  
ENDBRANCH  31  33
ENDBRANCH  30  31
ENDBRANCH  29  30
ENDBRANCH  27  29
ENDBRANCH   4  27
TORSDOF 5
ENDMDL
MODEL       59
REMARK 921   NORMALIZED FREE ENERGY PREDICTED BY IDOCK:   -6.23 KCAL/MOL
REMARK 922        TOTAL FREE ENERGY PREDICTED BY IDOCK:   -8.77 KCAL/MOL
REMARK 923 INTER-LIGAND FREE ENERGY PREDICTED BY IDOCK:   -8.99 KCAL/MOL
REMARK 924 INTRA-LIGAND FREE ENERGY PREDICTED BY IDOCK:    0.22 KCAL/MOL
REMARK 927      BINDING AFFINITY PREDICTED BY RF-SCORE:    0.00 PKD
ROOT
HETATM    1  C   UNL     1     -10.978   6.876  68.598  1.00  0.00    -0.203 C  
HETATM    2  C   UNL     1     -10.912   5.851  69.557  1.00  0.00    -0.438 C  
HETATM    3  C   UNL     1      -9.783   6.840  69.639  1.00  0.00    -0.160 C  
HETATM    4  C   UNL     1      -9.973   8.592  68.542  1.00  0.00    -0.184 C  
HETATM    5  C   UNL     1      -9.188   6.395  71.166  1.00  0.00    -0.159 C  
HETATM    6  O   UNL     1     -11.256   8.890  67.883  1.00  0.00    -0.450 OA 
HETATM    7  C   UNL     1      -7.926   2.994  65.443  1.00  0.00    -0.086 C  
HETATM    8  C   UNL     1     -10.149   8.172  69.817  1.00  0.00    -0.197 C  
HETATM    9  C   UNL     1      -7.302   3.431  64.143  1.00  0.00    -0.059 C  
HETATM   10  C   UNL     1      -8.484   4.104  65.964  1.00  0.00    -0.109 C  
HETATM   11  C   UNL     1     -11.086   8.733  70.895  1.00  0.00    -0.320 C  
HETATM   12  H   UNL     1     -11.343   9.691  67.381  1.00  0.00     0.000 HD 
HETATM   13  C   UNL     1      -8.229   8.307  69.572  1.00  0.00    -0.119 C  
HETATM   14  C   UNL     1      -7.672   7.538  68.058  1.00  0.00    -0.116 C  
HETATM   15  C   UNL     1      -9.825   4.562  65.422  1.00  0.00    -0.204 C  
HETATM   16  C   UNL     1      -8.404   6.118  67.430  1.00  0.00    -0.108 C  
HETATM   17  C   UNL     1      -6.363   4.658  67.324  1.00  0.00    -0.041 C  
HETATM   18  O   UNL     1      -7.687   8.597  67.074  1.00  0.00    -0.094 OA 
HETATM   19  F   UNL     1      -8.430   5.099  68.420  1.00  0.00    -0.095 F  
HETATM   20  C   UNL     1     -10.004   6.393  67.166  1.00  0.00    -0.197 C  
HETATM   21  C   UNL     1      -7.539   5.242  66.428  1.00  0.00    -0.088 C  
HETATM   22  C   UNL     1      -6.822   5.681  65.157  1.00  0.00    -0.052 C  
HETATM   23  H   UNL     1      -7.392   8.188  66.270  1.00  0.00     0.000 HD 
HETATM   24  O   UNL     1      -7.282   2.691  63.170  1.00  0.00    -0.045 OA 
HETATM   25  C   UNL     1     -10.672   5.157  66.535  1.00  0.00    -0.262 C  
HETATM   26  C   UNL     1      -6.677   4.810  64.126  1.00  0.00    -0.043 C  
ENDROOT
BRANCH   4  27
HETATM   27  C   UNL     1      -9.812  10.266  68.956  1.00  0.00    -0.207 C  
HETATM   28  O   UNL     1      -8.737  10.866  69.127  1.00  0.00    -0.137 OA 
BRANCH  27  29
HETATM   29  C   UNL     1     -11.088  11.142  69.060  1.00  0.00    -0.242 C  
BRANCH  29  30
HETATM   30  O   UNL     1     -11.236  12.052  67.943  1.00  0.00    -0.229 OA 
BRANCH  30  31
HETATM   31  C   UNL     1     -11.621  13.311  68.277  1.00  0.00    -0.334 C  
HETATM   32  O   UNL     1     -12.171  13.621  69.318  1.00  0.00    -0.320 OA 
BRANCH  31  33
HETATM   33  C   UNL     1     -11.335  14.304  67.195  1.00  0.00    -0.352 A  
HETATM   34  C   UNL     1     -10.861  16.088  65.065  1.00  0.00    -0.421 A  
HETATM   35  O   UNL     1      -8.412  17.922  65.758  1.00  0.00    -0.513 OA 
HETATM   36  C   UNL     1     -11.533  14.896  64.830  1.00  0.00    -0.410 A  
HETATM   37  C   UNL     1     -11.772  14.008  65.888  1.00  0.00    -0.373 A  
HETATM   38  O   UNL     1     -10.612  19.034  66.077  1.00  0.00    -0.459 OA 
HETATM   39  O   UNL     1      -9.488  18.139  68.036  1.00  0.00    -0.270 OA 
HETATM   40  C   UNL     1     -10.658  15.511  67.433  1.00  0.00    -0.292 A  
HETATM   41  S   UNL     1      -9.578  17.923  66.616  1.00  0.00    -0.320 S  
HETATM   42  C   UNL     1     -10.427  16.381  66.349  1.00  0.00    -0.286 A  
ENDBRANCH  31  33
ENDBRANCH  30  31
ENDBRANCH  29  30
ENDBRANCH  27  29
ENDBRANCH   4  27
TORSDOF 5
ENDMDL
MODEL       60
REMARK 921   NORMALIZED FREE ENERGY PREDICTED BY IDOCK:   -6.23 KCAL/MOL
REMARK 922        TOTAL FREE ENERGY PREDICTED BY IDOCK:   -8.76 KCAL/MOL
REMARK 923 INTER-LIGAND FREE ENERGY PREDICTED BY IDOCK:   -8.76 KCAL/MOL
REMARK 924 INTRA-LIGAND FREE ENERGY PREDICTED BY IDOCK:    0.00 KCAL/MOL
REMARK 927      BINDING AFFINITY PREDICTED BY RF-SCORE:    0.00 PKD
ROOT
HETATM    1  C   UNL     1      -7.851   9.471  68.894  1.00  0.00    -0.080 C  
HETATM    2  C   UNL     1      -6.877   9.266  67.903  1.00  0.00    -0.072 C  
HETATM    3  C   UNL     1      -8.289   9.106  67.414  1.00  0.00    -0.115 C  
HETATM    4  C   UNL     1      -9.808   9.753  68.672  1.00  0.00    -0.157 C  
HETATM    5  C   UNL     1      -7.968   9.132  65.747  1.00  0.00    -0.103 C  
HETATM    6  O   UNL     1      -9.460  10.501  69.892  1.00  0.00    -0.409 OA 
HETATM    7  C   UNL     1      -7.027   3.729  69.725  1.00  0.00    -0.042 C  
HETATM    8  C   UNL     1      -9.126  10.205  67.593  1.00  0.00    -0.144 C  
HETATM    9  C   UNL     1      -7.978   2.971  70.615  1.00  0.00    -0.046 C  
HETATM   10  C   UNL     1      -7.511   4.985  69.671  1.00  0.00    -0.057 C  
HETATM   11  C   UNL     1      -8.849  11.652  67.166  1.00  0.00    -0.172 C  
HETATM   12  H   UNL     1     -10.155  10.797  70.467  1.00  0.00     0.000 HD 
HETATM   13  C   UNL     1     -10.353   8.866  66.911  1.00  0.00    -0.332 C  
HETATM   14  C   UNL     1     -10.334   7.359  67.874  1.00  0.00    -0.204 C  
HETATM   15  C   UNL     1      -7.238   5.918  70.835  1.00  0.00    -0.077 C  
HETATM   16  C   UNL     1      -8.900   6.755  68.598  1.00  0.00    -0.123 C  
HETATM   17  C   UNL     1      -8.880   4.474  67.544  1.00  0.00    -0.115 C  
HETATM   18  O   UNL     1     -11.370   7.538  68.866  1.00  0.00    -0.379 OA 
HETATM   19  F   UNL     1      -7.873   6.630  67.624  1.00  0.00    -0.103 F  
HETATM   20  C   UNL     1      -8.281   7.883  69.621  1.00  0.00    -0.122 C  
HETATM   21  C   UNL     1      -8.868   5.208  68.954  1.00  0.00    -0.106 C  
HETATM   22  C   UNL     1      -9.867   4.401  69.774  1.00  0.00    -0.284 C  
HETATM   23  H   UNL     1     -11.359   6.738  69.378  1.00  0.00     0.000 HD 
HETATM   24  O   UNL     1      -7.578   2.091  71.364  1.00  0.00    -0.039 OA 
HETATM   25  C   UNL     1      -7.031   7.340  70.340  1.00  0.00    -0.057 C  
HETATM   26  C   UNL     1      -9.443   3.334  70.499  1.00  0.00    -0.242 C  
ENDROOT
BRANCH   4  27
HETATM   27  C   UNL     1     -11.170  10.796  68.436  1.00  0.00    -0.284 C  
HETATM   28  O   UNL     1     -11.694  11.063  67.341  1.00  0.00    -0.539 OA 
BRANCH  27  29
HETATM   29  C   UNL     1     -11.869  11.413  69.676  1.00  0.00    -0.362 C  
BRANCH  29  30
HETATM   30  O   UNL     1     -12.529  12.668  69.381  1.00  0.00     0.009 OA 
BRANCH  30  31
HETATM   31  C   UNL     1     -12.199  13.696  70.205  1.00  0.00    -0.353 C  
HETATM   32  O   UNL     1     -12.412  13.727  71.404  1.00  0.00    -0.351 OA 
BRANCH  31  33
HETATM   33  C   UNL     1     -11.566  14.838  69.474  1.00  0.00    -0.339 A  
HETATM   34  C   UNL     1     -10.376  17.063  68.217  1.00  0.00    -0.347 A  
HETATM   35  O   UNL     1     -10.897  16.925  65.126  1.00  0.00    -0.602 OA 
HETATM   36  C   UNL     1     -10.710  17.127  69.564  1.00  0.00    -0.017 A  
HETATM   37  C   UNL     1     -11.299  16.021  70.191  1.00  0.00    -0.369 A  
HETATM   38  O   UNL     1      -8.615  16.194  65.786  1.00  0.00    -0.280 OA 
HETATM   39  O   UNL     1     -10.281  14.483  65.344  1.00  0.00    -0.343 OA 
HETATM   40  C   UNL     1     -11.225  14.771  68.112  1.00  0.00    -0.307 A  
HETATM   41  S   UNL     1     -10.188  15.849  65.786  1.00  0.00    -0.384 S  
HETATM   42  C   UNL     1     -10.639  15.900  67.507  1.00  0.00    -0.315 A  
ENDBRANCH  31  33
ENDBRANCH  30  31
ENDBRANCH  29  30
ENDBRANCH  27  29
ENDBRANCH   4  27
TORSDOF 5
ENDMDL
MODEL       61
REMARK 921   NORMALIZED FREE ENERGY PREDICTED BY IDOCK:   -6.22 KCAL/MOL
REMARK 922        TOTAL FREE ENERGY PREDICTED BY IDOCK:   -8.75 KCAL/MOL
REMARK 923 INTER-LIGAND FREE ENERGY PREDICTED BY IDOCK:   -9.75 KCAL/MOL
REMARK 924 INTRA-LIGAND FREE ENERGY PREDICTED BY IDOCK:    1.00 KCAL/MOL
REMARK 927      BINDING AFFINITY PREDICTED BY RF-SCORE:    0.00 PKD
ROOT
HETATM    1  C   UNL     1     -10.151   9.936  68.931  1.00  0.00    -0.194 C  
HETATM    2  C   UNL     1      -8.999  10.193  69.693  1.00  0.00    -0.190 C  
HETATM    3  C   UNL     1      -8.960  10.778  68.309  1.00  0.00    -0.143 C  
HETATM    4  C   UNL     1     -10.737  10.799  67.236  1.00  0.00    -0.274 C  
HETATM    5  C   UNL     1      -7.635  11.817  68.528  1.00  0.00    -0.131 C  
HETATM    6  O   UNL     1     -11.989  10.421  67.914  1.00  0.00    -0.627 OA 
HETATM    7  C   UNL     1      -7.111   5.147  67.461  1.00  0.00    -0.066 C  
HETATM    8  C   UNL     1      -9.997  11.650  67.985  1.00  0.00    -0.194 C  
HETATM    9  C   UNL     1      -7.608   4.277  66.335  1.00  0.00    -0.089 C  
HETATM   10  C   UNL     1      -7.962   6.190  67.510  1.00  0.00    -0.106 C  
HETATM   11  C   UNL     1     -10.456  12.873  68.789  1.00  0.00    -0.183 C  
HETATM   12  H   UNL     1     -12.802  10.430  67.423  1.00  0.00     0.000 HD 
HETATM   13  C   UNL     1      -9.057  11.489  66.295  1.00  0.00    -0.215 C  
HETATM   14  C   UNL     1      -8.875   9.791  65.767  1.00  0.00    -0.153 C  
HETATM   15  C   UNL     1      -9.305   5.999  68.190  1.00  0.00    -0.115 C  
HETATM   16  C   UNL     1      -8.628   8.508  66.881  1.00  0.00    -0.117 C  
HETATM   17  C   UNL     1      -6.479   7.605  65.943  1.00  0.00    -0.042 C  
HETATM   18  O   UNL     1     -10.030   9.532  64.939  1.00  0.00    -0.396 OA 
HETATM   19  F   UNL     1      -7.520   8.795  67.723  1.00  0.00    -0.087 F  
HETATM   20  C   UNL     1      -9.878   8.456  67.947  1.00  0.00    -0.208 C  
HETATM   21  C   UNL     1      -7.964   7.181  66.317  1.00  0.00    -0.110 C  
HETATM   22  C   UNL     1      -8.395   6.336  65.124  1.00  0.00    -0.119 C  
HETATM   23  H   UNL     1      -9.933   8.630  64.659  1.00  0.00     0.000 HD 
HETATM   24  O   UNL     1      -7.525   3.059  66.393  1.00  0.00    -0.073 OA 
HETATM   25  C   UNL     1      -9.719   7.269  68.916  1.00  0.00    -0.148 C  
HETATM   26  C   UNL     1      -8.174   4.996  65.129  1.00  0.00    -0.131 C  
ENDROOT
BRANCH   4  27
HETATM   27  C   UNL     1     -11.588  12.045  66.387  1.00  0.00    -0.313 C  
HETATM   28  O   UNL     1     -12.401  12.837  66.893  1.00  0.00    -0.412 OA 
BRANCH  27  29
HETATM   29  C   UNL     1     -11.284  12.273  64.883  1.00  0.00    -0.319 C  
BRANCH  29  30
HETATM   30  O   UNL     1     -10.432  13.421  64.651  1.00  0.00    -0.385 OA 
BRANCH  30  31
HETATM   31  C   UNL     1     -11.031  14.626  64.836  1.00  0.00    -0.407 C  
HETATM   32  O   UNL     1     -12.088  14.966  64.336  1.00  0.00    -0.473 OA 
BRANCH  31  33
HETATM   33  C   UNL     1     -10.227  15.539  65.707  1.00  0.00    -0.390 A  
HETATM   34  C   UNL     1      -8.635  17.144  67.390  1.00  0.00    -0.212 A  
HETATM   35  O   UNL     1     -10.202  19.758  68.136  1.00  0.00    -0.421 OA 
HETATM   36  C   UNL     1      -8.399  15.777  67.316  1.00  0.00    -0.213 A  
HETATM   37  C   UNL     1      -9.188  14.977  66.477  1.00  0.00    -0.320 A  
HETATM   38  O   UNL     1      -8.495  20.092  66.359  1.00  0.00    -0.324 OA 
HETATM   39  O   UNL     1     -10.815  19.838  65.685  1.00  0.00    -0.462 OA 
HETATM   40  C   UNL     1     -10.462  16.922  65.780  1.00  0.00    -0.279 A  
HETATM   41  S   UNL     1      -9.924  19.456  66.748  1.00  0.00    -0.416 S  
HETATM   42  C   UNL     1      -9.657  17.699  66.635  1.00  0.00    -0.295 A  
ENDBRANCH  31  33
ENDBRANCH  30  31
ENDBRANCH  29  30
ENDBRANCH  27  29
ENDBRANCH   4  27
TORSDOF 5
ENDMDL
MODEL       62
REMARK 921   NORMALIZED FREE ENERGY PREDICTED BY IDOCK:   -6.21 KCAL/MOL
REMARK 922        TOTAL FREE ENERGY PREDICTED BY IDOCK:   -8.73 KCAL/MOL
REMARK 923 INTER-LIGAND FREE ENERGY PREDICTED BY IDOCK:   -8.50 KCAL/MOL
REMARK 924 INTRA-LIGAND FREE ENERGY PREDICTED BY IDOCK:   -0.24 KCAL/MOL
REMARK 927      BINDING AFFINITY PREDICTED BY RF-SCORE:    0.00 PKD
ROOT
HETATM    1  C   UNL     1      -7.906  11.057  67.600  1.00  0.00    -0.114 C  
HETATM    2  C   UNL     1      -7.169  11.015  66.403  1.00  0.00    -0.127 C  
HETATM    3  C   UNL     1      -8.589  10.539  66.265  1.00  0.00    -0.151 C  
HETATM    4  C   UNL     1      -9.874  10.910  67.851  1.00  0.00    -0.172 C  
HETATM    5  C   UNL     1      -8.678  10.552  64.569  1.00  0.00    -0.190 C  
HETATM    6  O   UNL     1      -9.421  11.772  68.956  1.00  0.00    -0.408 OA 
HETATM    7  C   UNL     1      -5.692   5.663  68.187  1.00  0.00    -0.012 C  
HETATM    8  C   UNL     1      -9.577  11.444  66.643  1.00  0.00    -0.211 C  
HETATM    9  C   UNL     1      -6.223   4.765  69.275  1.00  0.00    -0.030 C  
HETATM   10  C   UNL     1      -6.435   6.785  68.255  1.00  0.00    -0.053 C  
HETATM   11  C   UNL     1      -9.726  12.895  66.168  1.00  0.00    -0.250 C  
HETATM   12  H   UNL     1     -10.009  11.942  69.681  1.00  0.00     0.000 HD 
HETATM   13  C   UNL     1     -10.611   9.846  66.267  1.00  0.00    -0.089 C  
HETATM   14  C   UNL     1     -10.044   8.424  67.192  1.00  0.00    -0.265 C  
HETATM   15  C   UNL     1      -6.105   7.809  69.324  1.00  0.00    -0.034 C  
HETATM   16  C   UNL     1      -8.384   8.170  67.551  1.00  0.00    -0.123 C  
HETATM   17  C   UNL     1      -8.120   5.897  66.513  1.00  0.00    -0.102 C  
HETATM   18  O   UNL     1     -10.832   8.428  68.402  1.00  0.00    -0.428 OA 
HETATM   19  F   UNL     1      -7.611   8.218  66.359  1.00  0.00    -0.084 F  
HETATM   20  C   UNL     1      -7.801   9.451  68.401  1.00  0.00    -0.090 C  
HETATM   21  C   UNL     1      -7.937   6.684  67.883  1.00  0.00    -0.113 C  
HETATM   22  C   UNL     1      -8.519   5.725  68.914  1.00  0.00    -0.104 C  
HETATM   23  H   UNL     1     -10.530   7.674  68.893  1.00  0.00     0.000 HD 
HETATM   24  O   UNL     1      -5.480   4.026  69.903  1.00  0.00    -0.011 OA 
HETATM   25  C   UNL     1      -6.332   9.217  68.799  1.00  0.00    -0.048 C  
HETATM   26  C   UNL     1      -7.717   4.806  69.512  1.00  0.00    -0.062 C  
ENDROOT
BRANCH   4  27
HETATM   27  C   UNL     1     -11.446  11.631  67.951  1.00  0.00    -0.311 C  
HETATM   28  O   UNL     1     -11.920  12.443  67.138  1.00  0.00    -0.528 OA 
BRANCH  27  29
HETATM   29  C   UNL     1     -12.400  11.201  69.096  1.00  0.00    -0.039 C  
BRANCH  29  30
HETATM   30  O   UNL     1     -11.818  11.384  70.409  1.00  0.00    -0.336 OA 
BRANCH  30  31
HETATM   31  C   UNL     1     -12.636  11.073  71.447  1.00  0.00    -0.393 C  
HETATM   32  O   UNL     1     -13.162  11.882  72.189  1.00  0.00    -0.494 OA 
BRANCH  31  33
HETATM   33  C   UNL     1     -12.804   9.597  71.623  1.00  0.00    -0.499 A  
HETATM   34  C   UNL     1     -13.262   6.832  71.929  1.00  0.00    -0.166 A  
HETATM   35  O   UNL     1     -10.958   5.571  73.645  1.00  0.00    -0.279 OA 
HETATM   36  C   UNL     1     -14.325   7.681  71.651  1.00  0.00    -0.613 A  
HETATM   37  C   UNL     1     -14.100   9.056  71.496  1.00  0.00    -0.299 A  
HETATM   38  O   UNL     1     -10.718   5.167  71.204  1.00  0.00    -0.181 OA 
HETATM   39  O   UNL     1      -9.411   6.955  72.201  1.00  0.00    -0.141 OA 
HETATM   40  C   UNL     1     -11.728   8.738  71.900  1.00  0.00    -0.429 A  
HETATM   41  S   UNL     1     -10.645   6.243  72.401  1.00  0.00    -0.221 S  
HETATM   42  C   UNL     1     -11.986   7.361  72.056  1.00  0.00    -0.297 A  
ENDBRANCH  31  33
ENDBRANCH  30  31
ENDBRANCH  29  30
ENDBRANCH  27  29
ENDBRANCH   4  27
TORSDOF 5
ENDMDL
MODEL       63
REMARK 921   NORMALIZED FREE ENERGY PREDICTED BY IDOCK:   -6.20 KCAL/MOL
REMARK 922        TOTAL FREE ENERGY PREDICTED BY IDOCK:   -8.72 KCAL/MOL
REMARK 923 INTER-LIGAND FREE ENERGY PREDICTED BY IDOCK:   -9.48 KCAL/MOL
REMARK 924 INTRA-LIGAND FREE ENERGY PREDICTED BY IDOCK:    0.77 KCAL/MOL
REMARK 927      BINDING AFFINITY PREDICTED BY RF-SCORE:    0.00 PKD
ROOT
HETATM    1  C   UNL     1     -10.572  10.662  68.137  1.00  0.00    -0.237 C  
HETATM    2  C   UNL     1      -9.628  10.546  69.172  1.00  0.00    -0.214 C  
HETATM    3  C   UNL     1      -9.249  11.536  68.106  1.00  0.00    -0.181 C  
HETATM    4  C   UNL     1     -10.719  12.075  66.744  1.00  0.00    -0.243 C  
HETATM    5  C   UNL     1      -7.991  12.313  68.941  1.00  0.00     0.126 C  
HETATM    6  O   UNL     1     -12.104  11.627  66.968  1.00  0.00    -0.547 OA 
HETATM    7  C   UNL     1      -7.377   6.316  65.848  1.00  0.00    -0.080 C  
HETATM    8  C   UNL     1     -10.160  12.564  67.875  1.00  0.00    -0.214 C  
HETATM    9  C   UNL     1      -7.612   5.906  64.416  1.00  0.00    -0.087 C  
HETATM   10  C   UNL     1      -8.192   7.369  66.057  1.00  0.00    -0.130 C  
HETATM   11  C   UNL     1     -10.770  13.506  68.922  1.00  0.00    -0.228 C  
HETATM   12  H   UNL     1     -12.777  11.874  66.345  1.00  0.00     0.000 HD 
HETATM   13  C   UNL     1      -8.850  12.859  66.475  1.00  0.00    -0.026 C  
HETATM   14  C   UNL     1      -8.584  11.410  65.462  1.00  0.00     0.100 C  
HETATM   15  C   UNL     1      -9.661   7.105  66.326  1.00  0.00    -0.098 C  
HETATM   16  C   UNL     1      -8.638   9.820  66.109  1.00  0.00    -0.127 C  
HETATM   17  C   UNL     1      -6.348   9.055  65.413  1.00  0.00    -0.064 C  
HETATM   18  O   UNL     1      -9.516  11.545  64.366  1.00  0.00    -0.363 OA 
HETATM   19  F   UNL     1      -7.755   9.711  67.218  1.00  0.00    -0.090 F  
HETATM   20  C   UNL     1     -10.105   9.555  66.800  1.00  0.00    -0.312 C  
HETATM   21  C   UNL     1      -7.889   8.683  65.293  1.00  0.00    -0.107 C  
HETATM   22  C   UNL     1      -8.042   8.311  63.823  1.00  0.00    -0.126 C  
HETATM   23  H   UNL     1      -9.375  10.775  63.829  1.00  0.00     0.000 HD 
HETATM   24  O   UNL     1      -7.571   4.732  64.080  1.00  0.00    -0.068 OA 
HETATM   25  C   UNL     1     -10.207   8.110  67.326  1.00  0.00    -0.348 C  
HETATM   26  C   UNL     1      -7.859   7.025  63.427  1.00  0.00    -0.107 C  
ENDROOT
BRANCH   4  27
HETATM   27  C   UNL     1     -11.317  13.606  66.197  1.00  0.00    -0.312 C  
HETATM   28  O   UNL     1     -12.515  13.920  66.102  1.00  0.00    -0.459 OA 
BRANCH  27  29
HETATM   29  C   UNL     1     -10.304  14.730  65.855  1.00  0.00    -0.320 C  
BRANCH  29  30
HETATM   30  O   UNL     1     -10.628  15.989  66.494  1.00  0.00    -0.308 OA 
BRANCH  30  31
HETATM   31  C   UNL     1     -10.639  17.066  65.667  1.00  0.00    -0.197 C  
HETATM   32  O   UNL     1     -11.156  17.095  64.565  1.00  0.00    -1.105 OA 
BRANCH  31  33
HETATM   33  C   UNL     1      -9.902  18.235  66.238  1.00  0.00    -0.323 A  
HETATM   34  C   UNL     1      -8.638  20.507  67.327  1.00  0.00    -0.372 A  
HETATM   35  O   UNL     1      -5.628  20.557  66.444  1.00  0.00    -0.166 OA 
HETATM   36  C   UNL     1     -10.016  20.500  67.155  1.00  0.00    -0.512 A  
HETATM   37  C   UNL     1     -10.647  19.371  66.616  1.00  0.00    -0.566 A  
HETATM   38  O   UNL     1      -5.971  19.749  68.770  1.00  0.00    -0.228 OA 
HETATM   39  O   UNL     1      -5.636  18.096  67.021  1.00  0.00    -0.134 OA 
HETATM   40  C   UNL     1      -8.508  18.241  66.415  1.00  0.00    -0.266 A  
HETATM   41  S   UNL     1      -6.138  19.432  67.199  1.00  0.00    -0.181 S  
HETATM   42  C   UNL     1      -7.901  19.393  66.954  1.00  0.00    -0.259 A  
ENDBRANCH  31  33
ENDBRANCH  30  31
ENDBRANCH  29  30
ENDBRANCH  27  29
ENDBRANCH   4  27
TORSDOF 5
ENDMDL
MODEL       64
REMARK 921   NORMALIZED FREE ENERGY PREDICTED BY IDOCK:   -6.20 KCAL/MOL
REMARK 922        TOTAL FREE ENERGY PREDICTED BY IDOCK:   -8.72 KCAL/MOL
REMARK 923 INTER-LIGAND FREE ENERGY PREDICTED BY IDOCK:   -9.00 KCAL/MOL
REMARK 924 INTRA-LIGAND FREE ENERGY PREDICTED BY IDOCK:    0.29 KCAL/MOL
REMARK 927      BINDING AFFINITY PREDICTED BY RF-SCORE:    0.00 PKD
ROOT
HETATM    1  C   UNL     1      -9.545  12.707  64.821  1.00  0.00     0.189 C  
HETATM    2  C   UNL     1     -10.362  12.102  63.851  1.00  0.00    -0.441 C  
HETATM    3  C   UNL     1     -11.054  12.360  65.160  1.00  0.00    -0.348 C  
HETATM    4  C   UNL     1     -10.081  13.584  66.524  1.00  0.00    -0.282 C  
HETATM    5  C   UNL     1     -12.651  12.117  64.635  1.00  0.00    -0.266 C  
HETATM    6  O   UNL     1      -8.861  14.296  66.107  1.00  0.00    -0.465 OA 
HETATM    7  C   UNL     1      -8.309   7.119  66.079  1.00  0.00    -0.134 C  
HETATM    8  C   UNL     1     -11.062  13.683  65.596  1.00  0.00    -0.300 C  
HETATM    9  C   UNL     1      -7.541   6.801  67.335  1.00  0.00    -0.105 C  
HETATM   10  C   UNL     1      -8.501   8.452  66.104  1.00  0.00    -0.139 C  
HETATM   11  C   UNL     1     -11.513  14.913  64.798  1.00  0.00    -0.410 C  
HETATM   12  H   UNL     1      -8.415  14.856  66.731  1.00  0.00     0.000 HD 
HETATM   13  C   UNL     1     -11.858  12.753  67.102  1.00  0.00    -0.415 C  
HETATM   14  C   UNL     1     -10.830  11.423  67.713  1.00  0.00    -0.231 C  
HETATM   15  C   UNL     1      -7.357   9.357  65.687  1.00  0.00    -0.092 C  
HETATM   16  C   UNL     1      -9.863  10.462  66.670  1.00  0.00    -0.202 C  
HETATM   17  C   UNL     1     -10.786   8.205  67.277  1.00  0.00    -0.263 C  
HETATM   18  O   UNL     1     -10.020  12.024  68.747  1.00  0.00    -0.354 OA 
HETATM   19  F   UNL     1     -10.659   9.916  65.626  1.00  0.00    -0.261 F  
HETATM   20  C   UNL     1      -8.815  11.424  65.846  1.00  0.00    -0.149 C  
HETATM   21  C   UNL     1      -9.429   9.031  67.203  1.00  0.00    -0.196 C  
HETATM   22  C   UNL     1      -8.734   8.676  68.512  1.00  0.00    -0.139 C  
HETATM   23  H   UNL     1      -9.474  11.318  69.071  1.00  0.00     0.000 HD 
HETATM   24  O   UNL     1      -6.696   5.918  67.354  1.00  0.00    -0.054 OA 
HETATM   25  C   UNL     1      -7.885  10.579  64.955  1.00  0.00    -0.037 C  
HETATM   26  C   UNL     1      -7.900   7.605  68.566  1.00  0.00    -0.121 C  
ENDROOT
BRANCH   4  27
HETATM   27  C   UNL     1     -10.576  14.984  67.416  1.00  0.00    -0.271 C  
HETATM   28  O   UNL     1     -11.068  16.015  66.926  1.00  0.00    -0.200 OA 
BRANCH  27  29
HETATM   29  C   UNL     1     -10.483  14.961  68.964  1.00  0.00    -0.247 C  
BRANCH  29  30
HETATM   30  O   UNL     1      -9.419  15.802  69.474  1.00  0.00    -0.259 OA 
BRANCH  30  31
HETATM   31  C   UNL     1      -8.168  15.441  69.087  1.00  0.00    -0.243 C  
HETATM   32  O   UNL     1      -7.711  14.315  69.163  1.00  0.00    -0.103 OA 
BRANCH  31  33
HETATM   33  C   UNL     1      -7.367  16.598  68.581  1.00  0.00    -0.203 A  
HETATM   34  C   UNL     1      -5.742  18.721  67.687  1.00  0.00    -0.180 A  
HETATM   35  O   UNL     1      -7.521  21.250  67.152  1.00  0.00    -0.416 OA 
HETATM   36  C   UNL     1      -5.184  17.692  68.433  1.00  0.00    -0.152 A  
HETATM   37  C   UNL     1      -5.989  16.633  68.876  1.00  0.00    -0.149 A  
HETATM   38  O   UNL     1      -6.890  20.020  65.086  1.00  0.00    -0.301 OA 
HETATM   39  O   UNL     1      -9.101  19.637  66.015  1.00  0.00    -0.355 OA 
HETATM   40  C   UNL     1      -7.931  17.638  67.823  1.00  0.00    -0.218 A  
HETATM   41  S   UNL     1      -7.778  20.022  66.429  1.00  0.00    -0.285 S  
HETATM   42  C   UNL     1      -7.098  18.691  67.396  1.00  0.00    -0.206 A  
ENDBRANCH  31  33
ENDBRANCH  30  31
ENDBRANCH  29  30
ENDBRANCH  27  29
ENDBRANCH   4  27
TORSDOF 5
ENDMDL
MODEL       65
REMARK 921   NORMALIZED FREE ENERGY PREDICTED BY IDOCK:   -6.18 KCAL/MOL
REMARK 922        TOTAL FREE ENERGY PREDICTED BY IDOCK:   -8.70 KCAL/MOL
REMARK 923 INTER-LIGAND FREE ENERGY PREDICTED BY IDOCK:   -8.68 KCAL/MOL
REMARK 924 INTRA-LIGAND FREE ENERGY PREDICTED BY IDOCK:   -0.02 KCAL/MOL
REMARK 927      BINDING AFFINITY PREDICTED BY RF-SCORE:    0.00 PKD
ROOT
HETATM    1  C   UNL     1      -9.790   7.909  68.113  1.00  0.00    -0.193 C  
HETATM    2  C   UNL     1      -8.882   7.320  69.009  1.00  0.00    -0.132 C  
HETATM    3  C   UNL     1      -8.239   8.216  67.987  1.00  0.00    -0.129 C  
HETATM    4  C   UNL     1      -9.494   9.431  66.866  1.00  0.00    -0.156 C  
HETATM    5  C   UNL     1      -6.713   8.352  68.719  1.00  0.00    -0.058 C  
HETATM    6  O   UNL     1     -10.920   9.516  67.225  1.00  0.00    -0.332 OA 
HETATM    7  C   UNL     1      -8.739   2.992  65.104  1.00  0.00    -0.117 C  
HETATM    8  C   UNL     1      -8.695   9.531  67.954  1.00  0.00    -0.119 C  
HETATM    9  C   UNL     1      -9.234   2.878  63.685  1.00  0.00    -0.097 C  
HETATM   10  C   UNL     1      -9.060   4.240  65.496  1.00  0.00    -0.138 C  
HETATM   11  C   UNL     1      -8.801  10.498  69.141  1.00  0.00    -0.161 C  
HETATM   12  H   UNL     1     -11.494  10.072  66.712  1.00  0.00     0.000 HD 
HETATM   13  C   UNL     1      -7.496   9.478  66.430  1.00  0.00    -0.097 C  
HETATM   14  C   UNL     1      -7.901   8.170  65.280  1.00  0.00    -0.115 C  
HETATM   15  C   UNL     1     -10.488   4.520  65.924  1.00  0.00    -0.262 C  
HETATM   16  C   UNL     1      -8.513   6.652  65.799  1.00  0.00    -0.148 C  
HETATM   17  C   UNL     1      -6.768   5.170  64.765  1.00  0.00    -0.048 C  
HETATM   18  O   UNL     1      -8.795   8.779  64.323  1.00  0.00    -0.406 OA 
HETATM   19  F   UNL     1      -7.652   6.084  66.777  1.00  0.00    -0.088 F  
HETATM   20  C   UNL     1      -9.905   6.879  66.644  1.00  0.00    -0.217 C  
HETATM   21  C   UNL     1      -8.336   5.425  64.808  1.00  0.00    -0.145 C  
HETATM   22  C   UNL     1      -8.745   5.321  63.344  1.00  0.00     0.013 C  
HETATM   23  H   UNL     1      -9.010   8.084  63.712  1.00  0.00     0.000 HD 
HETATM   24  O   UNL     1      -9.682   1.825  63.254  1.00  0.00    -0.097 OA 
HETATM   25  C   UNL     1     -10.515   5.527  67.061  1.00  0.00    -0.336 C  
HETATM   26  C   UNL     1      -9.110   4.119  62.827  1.00  0.00    -0.118 C  
ENDROOT
BRANCH   4  27
HETATM   27  C   UNL     1      -9.493  11.128  66.522  1.00  0.00    -0.193 C  
HETATM   28  O   UNL     1      -8.485  11.854  66.474  1.00  0.00    -0.173 OA 
BRANCH  27  29
HETATM   29  C   UNL     1     -10.833  11.825  66.167  1.00  0.00    -0.291 C  
BRANCH  29  30
HETATM   30  O   UNL     1     -11.769  11.835  67.273  1.00  0.00    -0.546 OA 
BRANCH  30  31
HETATM   31  C   UNL     1     -11.421  12.638  68.311  1.00  0.00    -0.313 C  
HETATM   32  O   UNL     1     -10.699  13.615  68.227  1.00  0.00    -0.240 OA 
BRANCH  31  33
HETATM   33  C   UNL     1     -11.994  12.173  69.612  1.00  0.00    -0.351 A  
HETATM   34  C   UNL     1     -13.104  11.434  72.096  1.00  0.00    -0.276 A  
HETATM   35  O   UNL     1     -11.926   8.667  72.989  1.00  0.00    -0.114 OA 
HETATM   36  C   UNL     1     -13.072  12.772  71.725  1.00  0.00    -0.455 A  
HETATM   37  C   UNL     1     -12.523  13.142  70.490  1.00  0.00    -0.322 A  
HETATM   38  O   UNL     1     -14.213   8.513  72.026  1.00  0.00    -0.420 OA 
HETATM   39  O   UNL     1     -12.330   7.960  70.595  1.00  0.00    -0.061 OA 
HETATM   40  C   UNL     1     -12.029  10.820  69.986  1.00  0.00    -0.427 A  
HETATM   41  S   UNL     1     -12.650   8.772  71.739  1.00  0.00    -0.379 S  
HETATM   42  C   UNL     1     -12.583  10.479  71.236  1.00  0.00    -0.426 A  
ENDBRANCH  31  33
ENDBRANCH  30  31
ENDBRANCH  29  30
ENDBRANCH  27  29
ENDBRANCH   4  27
TORSDOF 5
ENDMDL
MODEL       66
REMARK 921   NORMALIZED FREE ENERGY PREDICTED BY IDOCK:   -6.16 KCAL/MOL
REMARK 922        TOTAL FREE ENERGY PREDICTED BY IDOCK:   -8.67 KCAL/MOL
REMARK 923 INTER-LIGAND FREE ENERGY PREDICTED BY IDOCK:   -8.46 KCAL/MOL
REMARK 924 INTRA-LIGAND FREE ENERGY PREDICTED BY IDOCK:   -0.20 KCAL/MOL
REMARK 927      BINDING AFFINITY PREDICTED BY RF-SCORE:    0.00 PKD
ROOT
HETATM    1  C   UNL     1      -8.322  11.426  67.560  1.00  0.00    -0.137 C  
HETATM    2  C   UNL     1      -7.776  11.060  66.318  1.00  0.00    -0.132 C  
HETATM    3  C   UNL     1      -9.276  11.159  66.321  1.00  0.00    -0.211 C  
HETATM    4  C   UNL     1     -10.165  12.054  67.969  1.00  0.00    -0.198 C  
HETATM    5  C   UNL     1      -9.519  11.142  64.640  1.00  0.00    -0.245 C  
HETATM    6  O   UNL     1      -9.314  12.718  68.971  1.00  0.00    -0.362 OA 
HETATM    7  C   UNL     1      -8.267   5.622  68.364  1.00  0.00    -0.103 C  
HETATM    8  C   UNL     1      -9.807  12.387  66.707  1.00  0.00    -0.228 C  
HETATM    9  C   UNL     1      -8.989   5.037  69.551  1.00  0.00    -0.096 C  
HETATM   10  C   UNL     1      -8.520   6.944  68.407  1.00  0.00    -0.123 C  
HETATM   11  C   UNL     1      -9.441  13.766  66.141  1.00  0.00    -0.180 C  
HETATM   12  H   UNL     1      -9.721  13.127  69.726  1.00  0.00     0.000 HD 
HETATM   13  C   UNL     1     -11.400  11.295  66.526  1.00  0.00    -0.122 C  
HETATM   14  C   UNL     1     -11.325   9.800  67.505  1.00  0.00     0.431 C  
HETATM   15  C   UNL     1      -7.725   7.803  69.372  1.00  0.00    -0.106 C  
HETATM   16  C   UNL     1      -9.859   8.943  67.755  1.00  0.00    -0.166 C  
HETATM   17  C   UNL     1     -10.576   6.705  66.866  1.00  0.00    -0.376 C  
HETATM   18  O   UNL     1     -11.932  10.151  68.768  1.00  0.00    -0.603 OA 
HETATM   19  F   UNL     1      -9.245   8.646  66.508  1.00  0.00    -0.164 F  
HETATM   20  C   UNL     1      -8.755   9.934  68.464  1.00  0.00    -0.121 C  
HETATM   21  C   UNL     1      -9.977   7.412  68.158  1.00  0.00    -0.190 C  
HETATM   22  C   UNL     1     -10.775   6.789  69.296  1.00  0.00    -0.288 C  
HETATM   23  H   UNL     1     -11.892   9.357  69.288  1.00  0.00     0.000 HD 
HETATM   24  O   UNL     1      -8.524   4.094  70.173  1.00  0.00    -0.064 OA 
HETATM   25  C   UNL     1      -7.452   9.170  68.766  1.00  0.00    -0.076 C  
HETATM   26  C   UNL     1     -10.327   5.656  69.897  1.00  0.00    -0.347 C  
ENDROOT
BRANCH   4  27
HETATM   27  C   UNL     1     -11.329  13.326  68.135  1.00  0.00    -0.288 C  
HETATM   28  O   UNL     1     -11.906  13.903  67.198  1.00  0.00    -0.367 OA 
BRANCH  27  29
HETATM   29  C   UNL     1     -11.770  13.761  69.557  1.00  0.00    -0.323 C  
BRANCH  29  30
HETATM   30  O   UNL     1     -10.995  14.872  70.069  1.00  0.00    -0.247 OA 
BRANCH  30  31
HETATM   31  C   UNL     1     -11.256  16.070  69.486  1.00  0.00    -0.348 C  
HETATM   32  O   UNL     1     -12.364  16.557  69.354  1.00  0.00     0.274 OA 
BRANCH  31  33
HETATM   33  C   UNL     1     -10.021  16.738  68.970  1.00  0.00    -0.272 A  
HETATM   34  C   UNL     1      -7.617  17.891  68.056  1.00  0.00    -0.238 A  
HETATM   35  O   UNL     1      -8.046  20.960  67.562  1.00  0.00    -0.245 OA 
HETATM   36  C   UNL     1      -7.582  16.711  68.788  1.00  0.00    -0.227 A  
HETATM   37  C   UNL     1      -8.776  16.135  69.241  1.00  0.00    -0.190 A  
HETATM   38  O   UNL     1      -8.077  19.601  65.480  1.00  0.00    -0.358 OA 
HETATM   39  O   UNL     1     -10.205  20.263  66.446  1.00  0.00    -0.427 OA 
HETATM   40  C   UNL     1     -10.056  17.930  68.226  1.00  0.00    -0.376 A  
HETATM   41  S   UNL     1      -8.847  19.994  66.839  1.00  0.00    -0.348 S  
HETATM   42  C   UNL     1      -8.839  18.489  67.789  1.00  0.00    -0.275 A  
ENDBRANCH  31  33
ENDBRANCH  30  31
ENDBRANCH  29  30
ENDBRANCH  27  29
ENDBRANCH   4  27
TORSDOF 5
ENDMDL
MODEL       67
REMARK 921   NORMALIZED FREE ENERGY PREDICTED BY IDOCK:   -6.15 KCAL/MOL
REMARK 922        TOTAL FREE ENERGY PREDICTED BY IDOCK:   -8.66 KCAL/MOL
REMARK 923 INTER-LIGAND FREE ENERGY PREDICTED BY IDOCK:   -7.52 KCAL/MOL
REMARK 924 INTRA-LIGAND FREE ENERGY PREDICTED BY IDOCK:   -1.14 KCAL/MOL
REMARK 927      BINDING AFFINITY PREDICTED BY RF-SCORE:    0.00 PKD
ROOT
HETATM    1  C   UNL     1     -10.697   7.292  69.738  1.00  0.00    -0.253 C  
HETATM    2  C   UNL     1     -11.462   6.278  70.339  1.00  0.00    -0.414 C  
HETATM    3  C   UNL     1     -10.030   6.319  70.797  1.00  0.00    -0.220 C  
HETATM    4  C   UNL     1      -8.915   7.991  70.281  1.00  0.00    -0.147 C  
HETATM    5  C   UNL     1     -10.186   5.304  72.151  1.00  0.00    -0.252 C  
HETATM    6  O   UNL     1      -9.592   9.141  69.659  1.00  0.00    -0.165 OA 
HETATM    7  C   UNL     1      -9.758   3.092  65.761  1.00  0.00     0.103 C  
HETATM    8  C   UNL     1      -9.600   7.522  71.350  1.00  0.00    -0.168 C  
HETATM    9  C   UNL     1      -8.704   3.303  64.703  1.00  0.00    -0.103 C  
HETATM   10  C   UNL     1      -9.687   4.176  66.557  1.00  0.00    -0.228 C  
HETATM   11  C   UNL     1     -10.275   8.309  72.482  1.00  0.00    -0.386 C  
HETATM   12  H   UNL     1      -9.082   9.906  69.423  1.00  0.00     0.000 HD 
HETATM   13  C   UNL     1      -7.957   6.491  71.290  1.00  0.00    -0.108 C  
HETATM   14  C   UNL     1      -7.594   5.868  69.655  1.00  0.00    -0.081 C  
HETATM   15  C   UNL     1     -10.347   5.461  66.092  1.00  0.00    -0.191 C  
HETATM   16  C   UNL     1      -8.828   5.365  68.572  1.00  0.00    -0.100 C  
HETATM   17  C   UNL     1      -8.035   3.017  68.163  1.00  0.00    -0.065 C  
HETATM   18  O   UNL     1      -6.764   6.882  69.045  1.00  0.00    -0.052 OA 
HETATM   19  F   UNL     1      -9.669   4.405  69.198  1.00  0.00    -0.214 F  
HETATM   20  C   UNL     1      -9.862   6.613  68.297  1.00  0.00    -0.137 C  
HETATM   21  C   UNL     1      -8.408   4.367  67.412  1.00  0.00    -0.100 C  
HETATM   22  C   UNL     1      -7.288   4.516  66.390  1.00  0.00    -0.081 C  
HETATM   23  H   UNL     1      -6.572   6.550  68.176  1.00  0.00     0.000 HD 
HETATM   24  O   UNL     1      -8.877   2.924  63.554  1.00  0.00    -0.092 OA 
HETATM   25  C   UNL     1     -10.940   6.212  67.273  1.00  0.00    -0.418 C  
HETATM   26  C   UNL     1      -7.423   3.971  65.153  1.00  0.00    -0.077 C  
ENDROOT
BRANCH   4  27
HETATM   27  C   UNL     1      -7.932   9.082  71.198  1.00  0.00    -0.127 C  
HETATM   28  O   UNL     1      -7.792   9.062  72.434  1.00  0.00    -0.345 OA 
BRANCH  27  29
HETATM   29  C   UNL     1      -7.082  10.141  70.449  1.00  0.00    -0.088 C  
BRANCH  29  30
HETATM   30  O   UNL     1      -6.681   9.705  69.127  1.00  0.00    -0.048 OA 
BRANCH  30  31
HETATM   31  C   UNL     1      -6.667  10.679  68.181  1.00  0.00    -0.064 C  
HETATM   32  O   UNL     1      -5.849  11.579  68.117  1.00  0.00    -0.046 OA 
BRANCH  31  33
HETATM   33  C   UNL     1      -7.806  10.562  67.219  1.00  0.00    -0.107 A  
HETATM   34  C   UNL     1      -9.923  10.200  65.393  1.00  0.00    -0.377 A  
HETATM   35  O   UNL     1     -10.634  12.947  64.055  1.00  0.00    -0.405 OA 
HETATM   36  C   UNL     1      -9.118   9.122  65.740  1.00  0.00    -0.265 A  
HETATM   37  C   UNL     1      -8.067   9.299  66.650  1.00  0.00    -0.108 A  
HETATM   38  O   UNL     1     -12.205  12.283  65.864  1.00  0.00    -0.634 OA 
HETATM   39  O   UNL     1     -10.463  13.891  66.394  1.00  0.00    -0.277 OA 
HETATM   40  C   UNL     1      -8.622  11.651  66.872  1.00  0.00    -0.174 A  
HETATM   41  S   UNL     1     -10.726  12.801  65.493  1.00  0.00    -0.285 S  
HETATM   42  C   UNL     1      -9.668  11.444  65.951  1.00  0.00    -0.227 A  
ENDBRANCH  31  33
ENDBRANCH  30  31
ENDBRANCH  29  30
ENDBRANCH  27  29
ENDBRANCH   4  27
TORSDOF 5
ENDMDL
MODEL       68
REMARK 921   NORMALIZED FREE ENERGY PREDICTED BY IDOCK:   -6.11 KCAL/MOL
REMARK 922        TOTAL FREE ENERGY PREDICTED BY IDOCK:   -8.61 KCAL/MOL
REMARK 923 INTER-LIGAND FREE ENERGY PREDICTED BY IDOCK:   -8.64 KCAL/MOL
REMARK 924 INTRA-LIGAND FREE ENERGY PREDICTED BY IDOCK:    0.03 KCAL/MOL
REMARK 927      BINDING AFFINITY PREDICTED BY RF-SCORE:    0.00 PKD
ROOT
HETATM    1  C   UNL     1     -11.179  11.147  66.296  1.00  0.00    -0.087 C  
HETATM    2  C   UNL     1     -10.718  11.218  64.971  1.00  0.00    -0.322 C  
HETATM    3  C   UNL     1      -9.631  10.995  65.986  1.00  0.00    -0.249 C  
HETATM    4  C   UNL     1     -10.220  10.492  67.911  1.00  0.00    -0.183 C  
HETATM    5  C   UNL     1      -8.393  10.547  64.914  1.00  0.00    -0.135 C  
HETATM    6  O   UNL     1     -11.638  10.193  68.173  1.00  0.00    -0.641 OA 
HETATM    7  C   UNL     1     -10.339  16.940  66.030  1.00  0.00    -0.335 C  
HETATM    8  C   UNL     1      -9.773   9.870  66.795  1.00  0.00    -0.244 C  
HETATM    9  C   UNL     1     -10.409  17.753  67.297  1.00  0.00    -0.363 C  
HETATM   10  C   UNL     1     -10.494  15.659  66.416  1.00  0.00    -0.309 C  
HETATM   11  C   UNL     1     -10.019   8.428  66.332  1.00  0.00    -0.291 C  
HETATM   12  H   UNL     1     -11.908   9.963  69.054  1.00  0.00     0.000 HD 
HETATM   13  C   UNL     1      -8.218  10.735  67.569  1.00  0.00    -0.112 C  
HETATM   14  C   UNL     1      -8.531  12.435  68.025  1.00  0.00    -0.176 C  
HETATM   15  C   UNL     1     -11.894  15.157  66.715  1.00  0.00     0.018 C  
HETATM   16  C   UNL     1      -9.570  13.451  67.112  1.00  0.00    -0.241 C  
HETATM   17  C   UNL     1      -7.947  15.305  66.622  1.00  0.00     0.007 C  
HETATM   18  O   UNL     1      -8.958  12.379  69.405  1.00  0.00     0.196 OA 
HETATM   19  F   UNL     1      -9.172  13.461  65.747  1.00  0.00    -0.103 F  
HETATM   20  C   UNL     1     -11.070  12.782  67.036  1.00  0.00    -0.316 C  
HETATM   21  C   UNL     1      -9.370  15.018  67.270  1.00  0.00    -0.209 C  
HETATM   22  C   UNL     1      -9.344  15.848  68.547  1.00  0.00    -0.206 C  
HETATM   23  H   UNL     1      -9.124  13.282  69.647  1.00  0.00     0.000 HD 
HETATM   24  O   UNL     1     -10.919  18.863  67.310  1.00  0.00    -0.436 OA 
HETATM   25  C   UNL     1     -12.043  13.708  66.282  1.00  0.00    -0.477 C  
HETATM   26  C   UNL     1      -9.783  17.133  68.529  1.00  0.00    -0.291 C  
ENDROOT
BRANCH   4  27
HETATM   27  C   UNL     1      -9.765   9.214  68.988  1.00  0.00    -0.166 C  
HETATM   28  O   UNL     1      -8.743   8.514  68.885  1.00  0.00    -0.130 OA 
BRANCH  27  29
HETATM   29  C   UNL     1     -10.641   8.934  70.237  1.00  0.00    -0.218 C  
BRANCH  29  30
HETATM   30  O   UNL     1     -10.318   7.676  70.878  1.00  0.00    -0.200 OA 
BRANCH  30  31
HETATM   31  C   UNL     1     -11.115   6.634  70.528  1.00  0.00    -0.307 C  
HETATM   32  O   UNL     1     -12.329   6.621  70.617  1.00  0.00    -0.340 OA 
BRANCH  31  33
HETATM   33  C   UNL     1     -10.334   5.452  70.045  1.00  0.00    -0.366 A  
HETATM   34  C   UNL     1      -8.860   3.178  69.269  1.00  0.00    -0.154 A  
HETATM   35  O   UNL     1      -7.344   3.775  66.589  1.00  0.00    -0.067 OA 
HETATM   36  C   UNL     1      -9.208   3.353  70.602  1.00  0.00    -0.209 A  
HETATM   37  C   UNL     1      -9.943   4.482  70.990  1.00  0.00    -0.257 A  
HETATM   38  O   UNL     1      -9.409   2.425  66.286  1.00  0.00    -0.062 OA 
HETATM   39  O   UNL     1      -9.523   4.809  65.831  1.00  0.00    -0.148 OA 
HETATM   40  C   UNL     1      -9.985   5.273  68.696  1.00  0.00    -0.234 A  
HETATM   41  S   UNL     1      -8.788   3.869  66.636  1.00  0.00    -0.134 S  
HETATM   42  C   UNL     1      -9.241   4.132  68.337  1.00  0.00    -0.144 A  
ENDBRANCH  31  33
ENDBRANCH  30  31
ENDBRANCH  29  30
ENDBRANCH  27  29
ENDBRANCH   4  27
TORSDOF 5
ENDMDL
MODEL       69
REMARK 921   NORMALIZED FREE ENERGY PREDICTED BY IDOCK:   -6.11 KCAL/MOL
REMARK 922        TOTAL FREE ENERGY PREDICTED BY IDOCK:   -8.61 KCAL/MOL
REMARK 923 INTER-LIGAND FREE ENERGY PREDICTED BY IDOCK:   -9.07 KCAL/MOL
REMARK 924 INTRA-LIGAND FREE ENERGY PREDICTED BY IDOCK:    0.46 KCAL/MOL
REMARK 927      BINDING AFFINITY PREDICTED BY RF-SCORE:    0.00 PKD
ROOT
HETATM    1  C   UNL     1     -11.178   8.108  68.958  1.00  0.00     0.380 C  
HETATM    2  C   UNL     1     -10.919   7.266  70.054  1.00  0.00    -0.273 C  
HETATM    3  C   UNL     1      -9.916   8.373  69.880  1.00  0.00    -0.190 C  
HETATM    4  C   UNL     1     -10.397   9.891  68.550  1.00  0.00    -0.196 C  
HETATM    5  C   UNL     1      -9.162   8.249  71.397  1.00  0.00    -0.218 C  
HETATM    6  O   UNL     1     -11.751   9.936  67.971  1.00  0.00    -0.531 OA 
HETATM    7  C   UNL     1      -7.911   4.119  66.174  1.00  0.00    -0.094 C  
HETATM    8  C   UNL     1     -10.428   9.668  69.884  1.00  0.00    -0.285 C  
HETATM    9  C   UNL     1      -7.440   4.404  64.771  1.00  0.00    -0.072 C  
HETATM   10  C   UNL     1      -8.561   5.232  66.566  1.00  0.00    -0.112 C  
HETATM   11  C   UNL     1     -11.346  10.291  70.944  1.00  0.00    -0.376 C  
HETATM   12  H   UNL     1     -11.970  10.631  67.362  1.00  0.00     0.000 HD 
HETATM   13  C   UNL     1      -8.561   9.970  69.449  1.00  0.00    -0.182 C  
HETATM   14  C   UNL     1      -8.025   9.029  68.026  1.00  0.00    -0.101 C  
HETATM   15  C   UNL     1      -9.983   5.447  66.085  1.00  0.00    -0.164 C  
HETATM   16  C   UNL     1      -8.622   7.454  67.692  1.00  0.00    -0.119 C  
HETATM   17  C   UNL     1      -6.431   6.227  67.628  1.00  0.00    -0.046 C  
HETATM   18  O   UNL     1      -8.240   9.905  66.897  1.00  0.00    -0.119 OA 
HETATM   19  F   UNL     1      -8.452   6.614  68.825  1.00  0.00    -0.119 F  
HETATM   20  C   UNL     1     -10.258   7.507  67.536  1.00  0.00    -0.288 C  
HETATM   21  C   UNL     1      -7.731   6.526  66.763  1.00  0.00    -0.099 C  
HETATM   22  C   UNL     1      -7.166   6.828  65.380  1.00  0.00    -0.077 C  
HETATM   23  H   UNL     1      -7.955   9.405  66.142  1.00  0.00     0.000 HD 
HETATM   24  O   UNL     1      -7.400   3.522  63.926  1.00  0.00    -0.053 OA 
HETATM   25  C   UNL     1     -10.815   6.119  67.165  1.00  0.00    -0.442 C  
HETATM   26  C   UNL     1      -6.990   5.821  64.486  1.00  0.00    -0.052 C  
ENDROOT
BRANCH   4  27
HETATM   27  C   UNL     1     -10.411  11.617  68.685  1.00  0.00    -0.215 C  
HETATM   28  O   UNL     1      -9.477  12.374  68.368  1.00  0.00    -0.212 OA 
BRANCH  27  29
HETATM   29  C   UNL     1     -11.704  12.324  69.170  1.00  0.00    -0.323 C  
BRANCH  29  30
HETATM   30  O   UNL     1     -12.067  13.456  68.344  1.00  0.00    -0.343 OA 
BRANCH  30  31
HETATM   31  C   UNL     1     -11.877  14.671  68.920  1.00  0.00    -0.309 C  
HETATM   32  O   UNL     1     -12.262  14.985  70.032  1.00  0.00    -0.311 OA 
BRANCH  31  33
HETATM   33  C   UNL     1     -11.163  15.628  68.019  1.00  0.00    -0.339 A  
HETATM   34  C   UNL     1      -9.829  17.335  66.215  1.00  0.00    -0.299 A  
HETATM   35  O   UNL     1      -8.065  19.378  67.814  1.00  0.00    -0.277 OA 
HETATM   36  C   UNL     1     -10.263  16.086  65.790  1.00  0.00    -0.401 A  
HETATM   37  C   UNL     1     -10.929  15.236  66.684  1.00  0.00    -0.297 A  
HETATM   38  O   UNL     1     -10.206  20.338  66.994  1.00  0.00    -0.435 OA 
HETATM   39  O   UNL     1     -10.085  19.627  69.313  1.00  0.00    -0.423 OA 
HETATM   40  C   UNL     1     -10.727  16.893  68.447  1.00  0.00    -0.368 A  
HETATM   41  S   UNL     1      -9.495  19.334  68.034  1.00  0.00    -0.353 S  
HETATM   42  C   UNL     1     -10.056  17.723  67.527  1.00  0.00    -0.340 A  
ENDBRANCH  31  33
ENDBRANCH  30  31
ENDBRANCH  29  30
ENDBRANCH  27  29
ENDBRANCH   4  27
TORSDOF 5
ENDMDL
MODEL       70
REMARK 921   NORMALIZED FREE ENERGY PREDICTED BY IDOCK:   -6.11 KCAL/MOL
REMARK 922        TOTAL FREE ENERGY PREDICTED BY IDOCK:   -8.61 KCAL/MOL
REMARK 923 INTER-LIGAND FREE ENERGY PREDICTED BY IDOCK:   -8.68 KCAL/MOL
REMARK 924 INTRA-LIGAND FREE ENERGY PREDICTED BY IDOCK:    0.07 KCAL/MOL
REMARK 927      BINDING AFFINITY PREDICTED BY RF-SCORE:    0.00 PKD
ROOT
HETATM    1  C   UNL     1      -9.437   7.522  68.555  1.00  0.00    -0.146 C  
HETATM    2  C   UNL     1      -8.891   6.574  69.438  1.00  0.00    -0.133 C  
HETATM    3  C   UNL     1      -7.864   7.387  68.700  1.00  0.00    -0.122 C  
HETATM    4  C   UNL     1      -8.536   9.059  67.671  1.00  0.00    -0.120 C  
HETATM    5  C   UNL     1      -6.513   6.974  69.643  1.00  0.00    -0.043 C  
HETATM    6  O   UNL     1      -9.932   9.495  67.844  1.00  0.00    -0.157 OA 
HETATM    7  C   UNL     1      -9.165   2.999  64.839  1.00  0.00    -0.148 C  
HETATM    8  C   UNL     1      -7.950   8.768  68.856  1.00  0.00    -0.105 C  
HETATM    9  C   UNL     1      -9.407   3.238  63.371  1.00  0.00    -0.096 C  
HETATM   10  C   UNL     1      -9.218   4.216  65.414  1.00  0.00    -0.151 C  
HETATM   11  C   UNL     1      -8.016   9.543  70.179  1.00  0.00    -0.171 C  
HETATM   12  H   UNL     1     -10.240  10.260  67.373  1.00  0.00     0.000 HD 
HETATM   13  C   UNL     1      -6.549   8.596  67.524  1.00  0.00    -0.058 C  
HETATM   14  C   UNL     1      -7.063   7.639  66.104  1.00  0.00    -0.070 C  
HETATM   15  C   UNL     1     -10.578   4.828  65.691  1.00  0.00    -0.220 C  
HETATM   16  C   UNL     1      -8.130   6.301  66.239  1.00  0.00    -0.114 C  
HETATM   17  C   UNL     1      -6.670   4.548  65.187  1.00  0.00    -0.049 C  
HETATM   18  O   UNL     1      -7.580   8.610  65.168  1.00  0.00    -0.087 OA 
HETATM   19  F   UNL     1      -7.638   5.375  67.199  1.00  0.00    -0.086 F  
HETATM   20  C   UNL     1      -9.545   6.791  66.916  1.00  0.00    -0.200 C  
HETATM   21  C   UNL     1      -8.099   5.232  65.066  1.00  0.00    -0.120 C  
HETATM   22  C   UNL     1      -8.249   5.462  63.568  1.00  0.00    -0.121 C  
HETATM   23  H   UNL     1      -7.853   8.102  64.413  1.00  0.00     0.000 HD 
HETATM   24  O   UNL     1     -10.025   2.432  62.692  1.00  0.00    -0.088 OA 
HETATM   25  C   UNL     1     -10.550   5.625  66.984  1.00  0.00    -0.358 C  
HETATM   26  C   UNL     1      -8.812   4.502  62.788  1.00  0.00    -0.123 C  
ENDROOT
BRANCH   4  27
HETATM   27  C   UNL     1      -8.034  10.716  67.657  1.00  0.00    -0.106 C  
HETATM   28  O   UNL     1      -7.064  11.171  67.026  1.00  0.00    -0.107 OA 
BRANCH  27  29
HETATM   29  C   UNL     1      -8.880  11.765  68.426  1.00  0.00    -0.161 C  
BRANCH  29  30
HETATM   30  O   UNL     1      -9.920  12.354  67.608  1.00  0.00    -0.194 OA 
BRANCH  30  31
HETATM   31  C   UNL     1     -11.168  12.301  68.141  1.00  0.00    -0.269 C  
HETATM   32  O   UNL     1     -11.972  11.406  67.951  1.00  0.00    -0.626 OA 
BRANCH  31  33
HETATM   33  C   UNL     1     -11.485  13.498  68.980  1.00  0.00    -0.349 A  
HETATM   34  C   UNL     1     -12.033  15.838  70.454  1.00  0.00    -0.385 A  
HETATM   35  O   UNL     1     -12.139  15.150  73.513  1.00  0.00    -0.435 OA 
HETATM   36  C   UNL     1     -11.468  15.936  69.189  1.00  0.00    -0.377 A  
HETATM   37  C   UNL     1     -11.197  14.774  68.453  1.00  0.00    -0.298 A  
HETATM   38  O   UNL     1     -14.381  15.395  72.468  1.00  0.00    -0.493 OA 
HETATM   39  O   UNL     1     -13.512  13.151  72.800  1.00  0.00    -0.536 OA 
HETATM   40  C   UNL     1     -12.060  13.400  70.258  1.00  0.00    -0.419 A  
HETATM   41  S   UNL     1     -13.049  14.497  72.596  1.00  0.00    -0.490 S  
HETATM   42  C   UNL     1     -12.316  14.585  70.976  1.00  0.00    -0.347 A  
ENDBRANCH  31  33
ENDBRANCH  30  31
ENDBRANCH  29  30
ENDBRANCH  27  29
ENDBRANCH   4  27
TORSDOF 5
ENDMDL
MODEL       71
REMARK 921   NORMALIZED FREE ENERGY PREDICTED BY IDOCK:   -6.06 KCAL/MOL
REMARK 922        TOTAL FREE ENERGY PREDICTED BY IDOCK:   -8.54 KCAL/MOL
REMARK 923 INTER-LIGAND FREE ENERGY PREDICTED BY IDOCK:   -8.64 KCAL/MOL
REMARK 924 INTRA-LIGAND FREE ENERGY PREDICTED BY IDOCK:    0.10 KCAL/MOL
REMARK 927      BINDING AFFINITY PREDICTED BY RF-SCORE:    0.00 PKD
ROOT
HETATM    1  C   UNL     1     -11.351  14.596  67.610  1.00  0.00    -0.350 C  
HETATM    2  C   UNL     1     -11.551  14.893  66.250  1.00  0.00    -0.233 C  
HETATM    3  C   UNL     1     -10.444  13.908  66.505  1.00  0.00    -0.282 C  
HETATM    4  C   UNL     1     -10.308  13.105  68.414  1.00  0.00    -0.253 C  
HETATM    5  C   UNL     1     -10.251  13.352  64.912  1.00  0.00    -0.339 C  
HETATM    6  O   UNL     1     -11.383  13.374  69.384  1.00  0.00    -0.307 OA 
HETATM    7  C   UNL     1      -7.752  19.206  67.236  1.00  0.00    -0.255 C  
HETATM    8  C   UNL     1     -10.800  12.756  67.202  1.00  0.00    -0.282 C  
HETATM    9  C   UNL     1      -6.818  19.504  68.381  1.00  0.00    -0.290 C  
HETATM   10  C   UNL     1      -8.384  18.066  67.577  1.00  0.00    -0.233 C  
HETATM   11  C   UNL     1     -11.952  11.798  66.870  1.00  0.00     0.094 C  
HETATM   12  H   UNL     1     -11.320  13.006  70.257  1.00  0.00     0.000 HD 
HETATM   13  C   UNL     1      -8.875  12.566  67.058  1.00  0.00    -0.212 C  
HETATM   14  C   UNL     1      -7.992  13.983  67.699  1.00  0.00    -0.178 C  
HETATM   15  C   UNL     1      -9.538  18.143  68.558  1.00  0.00    -0.349 C  
HETATM   16  C   UNL     1      -8.596  15.583  67.546  1.00  0.00    -0.170 C  
HETATM   17  C   UNL     1      -6.638  16.611  66.355  1.00  0.00     0.125 C  
HETATM   18  O   UNL     1      -7.736  13.666  69.085  1.00  0.00    -0.328 OA 
HETATM   19  F   UNL     1      -8.893  15.868  66.186  1.00  0.00    -0.300 F  
HETATM   20  C   UNL     1     -10.075  15.684  68.258  1.00  0.00    -0.218 C  
HETATM   21  C   UNL     1      -7.543  16.765  67.653  1.00  0.00    -0.183 C  
HETATM   22  C   UNL     1      -6.526  17.035  68.755  1.00  0.00    -0.181 C  
HETATM   23  H   UNL     1      -7.267  14.419  69.426  1.00  0.00     0.000 HD 
HETATM   24  O   UNL     1      -6.587  20.654  68.725  1.00  0.00    -0.242 OA 
HETATM   25  C   UNL     1     -10.610  17.128  68.199  1.00  0.00    -0.380 C  
HETATM   26  C   UNL     1      -6.164  18.312  69.044  1.00  0.00    -0.235 C  
ENDROOT
BRANCH   4  27
HETATM   27  C   UNL     1     -10.197  11.481  69.005  1.00  0.00    -0.088 C  
HETATM   28  O   UNL     1      -9.189  10.757  68.940  1.00  0.00    -0.175 OA 
BRANCH  27  29
HETATM   29  C   UNL     1     -11.412  10.867  69.749  1.00  0.00    -0.313 C  
BRANCH  29  30
HETATM   30  O   UNL     1     -11.021  10.036  70.869  1.00  0.00    -0.327 OA 
BRANCH  30  31
HETATM   31  C   UNL     1     -11.540   8.781  70.860  1.00  0.00    -0.277 C  
HETATM   32  O   UNL     1     -12.687   8.497  71.156  1.00  0.00    -0.239 OA 
BRANCH  31  33
HETATM   33  C   UNL     1     -10.531   7.745  70.478  1.00  0.00    -0.217 A  
HETATM   34  C   UNL     1      -8.576   5.801  69.892  1.00  0.00    -0.127 A  
HETATM   35  O   UNL     1      -8.074   5.719  66.796  1.00  0.00    -0.102 OA 
HETATM   36  C   UNL     1      -8.628   6.366  71.159  1.00  0.00    -0.128 A  
HETATM   37  C   UNL     1      -9.601   7.331  71.454  1.00  0.00    -0.165 A  
HETATM   38  O   UNL     1      -9.526   3.876  67.619  1.00  0.00    -0.176 OA 
HETATM   39  O   UNL     1     -10.593   5.804  66.598  1.00  0.00    -0.268 OA 
HETATM   40  C   UNL     1     -10.480   7.171  69.197  1.00  0.00    -0.219 A  
HETATM   41  S   UNL     1      -9.398   5.454  67.318  1.00  0.00    -0.120 S  
HETATM   42  C   UNL     1      -9.488   6.207  68.929  1.00  0.00    -0.123 A  
ENDBRANCH  31  33
ENDBRANCH  30  31
ENDBRANCH  29  30
ENDBRANCH  27  29
ENDBRANCH   4  27
TORSDOF 5
ENDMDL
MODEL       72
REMARK 921   NORMALIZED FREE ENERGY PREDICTED BY IDOCK:   -6.03 KCAL/MOL
REMARK 922        TOTAL FREE ENERGY PREDICTED BY IDOCK:   -8.50 KCAL/MOL
REMARK 923 INTER-LIGAND FREE ENERGY PREDICTED BY IDOCK:   -8.40 KCAL/MOL
REMARK 924 INTRA-LIGAND FREE ENERGY PREDICTED BY IDOCK:   -0.10 KCAL/MOL
REMARK 927      BINDING AFFINITY PREDICTED BY RF-SCORE:    0.00 PKD
ROOT
HETATM    1  C   UNL     1     -10.504   8.700  68.255  1.00  0.00    -0.234 C  
HETATM    2  C   UNL     1      -9.962   7.959  69.319  1.00  0.00    -0.190 C  
HETATM    3  C   UNL     1      -9.372   9.333  69.168  1.00  0.00    -0.157 C  
HETATM    4  C   UNL     1     -10.347  10.650  67.894  1.00  0.00    -0.199 C  
HETATM    5  C   UNL     1      -8.584   9.419  70.670  1.00  0.00    -0.247 C  
HETATM    6  O   UNL     1     -11.657  10.273  67.337  1.00  0.00    -0.454 OA 
HETATM    7  C   UNL     1      -6.194   6.053  65.297  1.00  0.00    -0.037 C  
HETATM    8  C   UNL     1     -10.273  10.394  69.222  1.00  0.00    -0.248 C  
HETATM    9  C   UNL     1      -5.873   6.511  63.897  1.00  0.00    -0.030 C  
HETATM   10  C   UNL     1      -7.158   6.886  65.734  1.00  0.00    -0.072 C  
HETATM   11  C   UNL     1     -11.318  10.660  70.314  1.00  0.00    -0.401 C  
HETATM   12  H   UNL     1     -12.103  10.876  66.754  1.00  0.00     0.000 HD 
HETATM   13  C   UNL     1      -8.614  11.292  68.770  1.00  0.00    -0.109 C  
HETATM   14  C   UNL     1      -7.837  10.613  67.310  1.00  0.00    -0.112 C  
HETATM   15  C   UNL     1      -8.585   6.644  65.279  1.00  0.00    -0.027 C  
HETATM   16  C   UNL     1      -7.904   8.939  66.933  1.00  0.00    -0.101 C  
HETATM   17  C   UNL     1      -5.437   8.486  66.798  1.00  0.00    -0.036 C  
HETATM   18  O   UNL     1      -8.349  11.403  66.214  1.00  0.00    -0.220 OA 
HETATM   19  F   UNL     1      -7.446   8.169  68.036  1.00  0.00    -0.088 F  
HETATM   20  C   UNL     1      -9.473   8.466  66.801  1.00  0.00    -0.255 C  
HETATM   21  C   UNL     1      -6.784   8.373  65.962  1.00  0.00    -0.061 C  
HETATM   22  C   UNL     1      -6.379   8.877  64.582  1.00  0.00    -0.066 C  
HETATM   23  H   UNL     1      -7.936  11.042  65.439  1.00  0.00     0.000 HD 
HETATM   24  O   UNL     1      -5.571   5.712  63.023  1.00  0.00    -0.014 OA 
HETATM   25  C   UNL     1      -9.563   6.984  66.392  1.00  0.00    -0.159 C  
HETATM   26  C   UNL     1      -5.910   8.005  63.653  1.00  0.00    -0.062 C  
ENDROOT
BRANCH   4  27
HETATM   27  C   UNL     1     -10.912  12.276  68.087  1.00  0.00    -0.231 C  
HETATM   28  O   UNL     1     -10.774  12.972  69.107  1.00  0.00    -0.155 OA 
BRANCH  27  29
HETATM   29  C   UNL     1     -11.590  12.985  66.884  1.00  0.00    -0.366 C  
BRANCH  29  30
HETATM   30  O   UNL     1     -10.655  13.315  65.829  1.00  0.00    -0.276 OA 
BRANCH  30  31
HETATM   31  C   UNL     1     -10.685  14.610  65.421  1.00  0.00    -0.369 C  
HETATM   32  O   UNL     1     -11.263  15.017  64.430  1.00  0.00    -0.281 OA 
BRANCH  31  33
HETATM   33  C   UNL     1      -9.885  15.510  66.308  1.00  0.00    -0.317 A  
HETATM   34  C   UNL     1      -8.286  17.097  68.003  1.00  0.00    -0.218 A  
HETATM   35  O   UNL     1     -10.006  19.450  69.165  1.00  0.00    -0.435 OA 
HETATM   36  C   UNL     1      -7.934  15.776  67.760  1.00  0.00    -0.155 A  
HETATM   37  C   UNL     1      -8.725  14.985  66.916  1.00  0.00    -0.285 A  
HETATM   38  O   UNL     1      -8.526  20.130  67.287  1.00  0.00    -0.321 OA 
HETATM   39  O   UNL     1     -10.868  19.707  66.802  1.00  0.00    -0.474 OA 
HETATM   40  C   UNL     1     -10.239  16.847  66.551  1.00  0.00    -0.320 A  
HETATM   41  S   UNL     1      -9.842  19.316  67.732  1.00  0.00    -0.363 S  
HETATM   42  C   UNL     1      -9.427  17.616  67.408  1.00  0.00    -0.256 A  
ENDBRANCH  31  33
ENDBRANCH  30  31
ENDBRANCH  29  30
ENDBRANCH  27  29
ENDBRANCH   4  27
TORSDOF 5
ENDMDL
MODEL       73
REMARK 921   NORMALIZED FREE ENERGY PREDICTED BY IDOCK:   -6.01 KCAL/MOL
REMARK 922        TOTAL FREE ENERGY PREDICTED BY IDOCK:   -8.47 KCAL/MOL
REMARK 923 INTER-LIGAND FREE ENERGY PREDICTED BY IDOCK:   -8.52 KCAL/MOL
REMARK 924 INTRA-LIGAND FREE ENERGY PREDICTED BY IDOCK:    0.05 KCAL/MOL
REMARK 927      BINDING AFFINITY PREDICTED BY RF-SCORE:    0.00 PKD
ROOT
HETATM    1  C   UNL     1      -6.332   7.404  68.164  1.00  0.00    -0.048 C  
HETATM    2  C   UNL     1      -6.373   6.108  67.622  1.00  0.00    -0.041 C  
HETATM    3  C   UNL     1      -7.438   7.028  67.092  1.00  0.00    -0.095 C  
HETATM    4  C   UNL     1      -7.247   9.049  67.520  1.00  0.00    -0.080 C  
HETATM    5  C   UNL     1      -7.928   6.084  65.767  1.00  0.00    -0.113 C  
HETATM    6  O   UNL     1      -6.008   9.535  68.152  1.00  0.00    -0.047 OA 
HETATM    7  C   UNL     1      -9.834   4.948  72.170  1.00  0.00    -0.226 C  
HETATM    8  C   UNL     1      -6.989   8.203  66.495  1.00  0.00    -0.068 C  
HETATM    9  C   UNL     1     -10.539   5.829  73.169  1.00  0.00    -0.244 C  
HETATM   10  C   UNL     1      -9.177   5.791  71.350  1.00  0.00    -0.157 C  
HETATM   11  C   UNL     1      -5.938   8.328  65.384  1.00  0.00    -0.045 C  
HETATM   12  H   UNL     1      -5.921  10.460  68.348  1.00  0.00     0.000 HD 
HETATM   13  C   UNL     1      -8.913   8.455  66.493  1.00  0.00    -0.190 C  
HETATM   14  C   UNL     1      -9.632   8.281  68.120  1.00  0.00    -0.150 C  
HETATM   15  C   UNL     1      -7.863   6.384  71.822  1.00  0.00    -0.101 C  
HETATM   16  C   UNL     1      -9.030   7.160  69.272  1.00  0.00    -0.138 C  
HETATM   17  C   UNL     1     -11.147   5.872  69.686  1.00  0.00    -0.414 C  
HETATM   18  O   UNL     1      -9.642   9.618  68.668  1.00  0.00    -0.146 OA 
HETATM   19  F   UNL     1      -8.977   5.857  68.707  1.00  0.00    -0.116 F  
HETATM   20  C   UNL     1      -7.445   7.478  69.574  1.00  0.00    -0.093 C  
HETATM   21  C   UNL     1     -10.019   6.711  70.429  1.00  0.00    -0.193 C  
HETATM   22  C   UNL     1     -10.814   7.585  71.391  1.00  0.00    -0.251 C  
HETATM   23  H   UNL     1     -10.024   9.525  69.532  1.00  0.00     0.000 HD 
HETATM   24  O   UNL     1     -10.677   5.480  74.332  1.00  0.00    -0.252 OA 
HETATM   25  C   UNL     1      -6.897   6.531  70.658  1.00  0.00    -0.063 C  
HETATM   26  C   UNL     1     -11.090   7.136  72.643  1.00  0.00    -0.330 C  
ENDROOT
BRANCH   4  27
HETATM   27  C   UNL     1      -7.286  10.472  66.534  1.00  0.00    -0.124 C  
HETATM   28  O   UNL     1      -7.770  10.546  65.391  1.00  0.00    -0.149 OA 
BRANCH  27  29
HETATM   29  C   UNL     1      -6.746  11.806  67.115  1.00  0.00    -0.145 C  
BRANCH  29  30
HETATM   30  O   UNL     1      -7.746  12.533  67.870  1.00  0.00    -0.114 OA 
BRANCH  30  31
HETATM   31  C   UNL     1      -8.055  13.761  67.379  1.00  0.00    -0.177 C  
HETATM   32  O   UNL     1      -7.277  14.693  67.288  1.00  0.00    -0.185 OA 
BRANCH  31  33
HETATM   33  C   UNL     1      -9.493  13.875  66.985  1.00  0.00    -0.256 A  
HETATM   34  C   UNL     1     -12.227  14.165  66.364  1.00  0.00    -0.473 A  
HETATM   35  O   UNL     1     -13.097  11.900  64.375  1.00  0.00    -0.535 OA 
HETATM   36  C   UNL     1     -11.727  14.702  67.543  1.00  0.00    -0.403 A  
HETATM   37  C   UNL     1     -10.368  14.562  67.853  1.00  0.00    -0.231 A  
HETATM   38  O   UNL     1     -12.710  14.096  63.276  1.00  0.00    -0.714 OA 
HETATM   39  O   UNL     1     -10.945  12.432  63.159  1.00  0.00    -0.374 OA 
HETATM   40  C   UNL     1      -9.999  13.335  65.791  1.00  0.00    -0.261 A  
HETATM   41  S   UNL     1     -12.044  12.821  64.002  1.00  0.00    -0.483 S  
HETATM   42  C   UNL     1     -11.371  13.488  65.509  1.00  0.00    -0.296 A  
ENDBRANCH  31  33
ENDBRANCH  30  31
ENDBRANCH  29  30
ENDBRANCH  27  29
ENDBRANCH   4  27
TORSDOF 5
ENDMDL
MODEL       74
REMARK 921   NORMALIZED FREE ENERGY PREDICTED BY IDOCK:   -5.97 KCAL/MOL
REMARK 922        TOTAL FREE ENERGY PREDICTED BY IDOCK:   -8.42 KCAL/MOL
REMARK 923 INTER-LIGAND FREE ENERGY PREDICTED BY IDOCK:   -8.68 KCAL/MOL
REMARK 924 INTRA-LIGAND FREE ENERGY PREDICTED BY IDOCK:    0.26 KCAL/MOL
REMARK 927      BINDING AFFINITY PREDICTED BY RF-SCORE:    0.00 PKD
ROOT
HETATM    1  C   UNL     1      -9.319  12.710  66.092  1.00  0.00    -0.117 C  
HETATM    2  C   UNL     1      -9.930  12.412  64.862  1.00  0.00    -0.207 C  
HETATM    3  C   UNL     1     -10.802  12.147  66.058  1.00  0.00    -0.318 C  
HETATM    4  C   UNL     1     -10.163  12.902  67.883  1.00  0.00    -0.233 C  
HETATM    5  C   UNL     1     -12.280  11.971  65.240  1.00  0.00    -0.027 C  
HETATM    6  O   UNL     1      -9.004  13.809  67.918  1.00  0.00    -0.175 OA 
HETATM    7  C   UNL     1      -7.535   7.148  65.618  1.00  0.00    -0.082 C  
HETATM    8  C   UNL     1     -11.031  13.234  66.898  1.00  0.00    -0.298 C  
HETATM    9  C   UNL     1      -6.888   6.480  66.804  1.00  0.00    -0.066 C  
HETATM   10  C   UNL     1      -7.898   8.372  66.050  1.00  0.00    -0.098 C  
HETATM   11  C   UNL     1     -11.538  14.623  66.489  1.00  0.00    -0.350 C  
HETATM   12  H   UNL     1      -8.711  14.154  68.753  1.00  0.00     0.000 HD 
HETATM   13  C   UNL     1     -11.875  11.782  67.871  1.00  0.00    -0.289 C  
HETATM   14  C   UNL     1     -10.765  10.411  68.163  1.00  0.00    -0.236 C  
HETATM   15  C   UNL     1      -6.838   9.453  66.137  1.00  0.00    -0.085 C  
HETATM   16  C   UNL     1      -9.565   9.948  67.026  1.00  0.00    -0.175 C  
HETATM   17  C   UNL     1     -10.256   7.554  66.706  1.00  0.00    -0.324 C  
HETATM   18  O   UNL     1     -10.168  10.683  69.450  1.00  0.00    -0.233 OA 
HETATM   19  F   UNL     1     -10.154   9.732  65.750  1.00  0.00    -0.330 F  
HETATM   20  C   UNL     1      -8.558  11.215  66.738  1.00  0.00    -0.157 C  
HETATM   21  C   UNL     1      -9.018   8.461  67.119  1.00  0.00    -0.153 C  
HETATM   22  C   UNL     1      -8.444   7.734  68.330  1.00  0.00    -0.124 C  
HETATM   23  H   UNL     1      -9.578   9.955  69.605  1.00  0.00     0.000 HD 
HETATM   24  O   UNL     1      -5.945   5.716  66.662  1.00  0.00    -0.017 OA 
HETATM   25  C   UNL     1      -7.428  10.806  65.775  1.00  0.00    -0.067 C  
HETATM   26  C   UNL     1      -7.492   6.781  68.159  1.00  0.00    -0.099 C  
ENDROOT
BRANCH   4  27
HETATM   27  C   UNL     1     -10.937  13.864  69.097  1.00  0.00    -0.218 C  
HETATM   28  O   UNL     1     -10.607  15.018  69.422  1.00  0.00    -0.241 OA 
BRANCH  27  29
HETATM   29  C   UNL     1     -12.195  13.305  69.812  1.00  0.00    -0.222 C  
BRANCH  29  30
HETATM   30  O   UNL     1     -11.873  12.322  70.825  1.00  0.00    -0.150 OA 
BRANCH  30  31
HETATM   31  C   UNL     1     -12.930  11.884  71.556  1.00  0.00    -0.323 C  
HETATM   32  O   UNL     1     -13.738  12.603  72.116  1.00  0.00    -0.467 OA 
BRANCH  31  33
HETATM   33  C   UNL     1     -12.988  10.392  71.644  1.00  0.00    -0.581 A  
HETATM   34  C   UNL     1     -13.240   7.588  71.791  1.00  0.00    -0.364 A  
HETATM   35  O   UNL     1     -10.785   6.394  73.336  1.00  0.00    -0.259 OA 
HETATM   36  C   UNL     1     -14.371   8.374  71.608  1.00  0.00    -0.536 A  
HETATM   37  C   UNL     1     -14.248   9.768  71.532  1.00  0.00     0.233 A  
HETATM   38  O   UNL     1     -10.620   6.157  70.867  1.00  0.00    -0.220 OA 
HETATM   39  O   UNL     1      -9.399   7.970  71.926  1.00  0.00    -0.143 OA 
HETATM   40  C   UNL     1     -11.845   9.597  71.825  1.00  0.00    -0.391 A  
HETATM   41  S   UNL     1     -10.571   7.160  72.126  1.00  0.00    -0.216 S  
HETATM   42  C   UNL     1     -12.000   8.199  71.903  1.00  0.00    -0.320 A  
ENDBRANCH  31  33
ENDBRANCH  30  31
ENDBRANCH  29  30
ENDBRANCH  27  29
ENDBRANCH   4  27
TORSDOF 5
ENDMDL
MODEL       75
REMARK 921   NORMALIZED FREE ENERGY PREDICTED BY IDOCK:   -5.96 KCAL/MOL
REMARK 922        TOTAL FREE ENERGY PREDICTED BY IDOCK:   -8.41 KCAL/MOL
REMARK 923 INTER-LIGAND FREE ENERGY PREDICTED BY IDOCK:   -8.44 KCAL/MOL
REMARK 924 INTRA-LIGAND FREE ENERGY PREDICTED BY IDOCK:    0.02 KCAL/MOL
REMARK 927      BINDING AFFINITY PREDICTED BY RF-SCORE:    0.00 PKD
ROOT
HETATM    1  C   UNL     1      -9.469  11.651  68.592  1.00  0.00    -0.129 C  
HETATM    2  C   UNL     1      -8.178  11.860  69.108  1.00  0.00     0.336 C  
HETATM    3  C   UNL     1      -8.197  11.299  67.712  1.00  0.00    -0.120 C  
HETATM    4  C   UNL     1     -10.013  11.310  66.709  1.00  0.00    -0.206 C  
HETATM    5  C   UNL     1      -6.567  11.576  67.324  1.00  0.00    -0.113 C  
HETATM    6  O   UNL     1     -11.159  12.018  67.306  1.00  0.00    -0.252 OA 
HETATM    7  C   UNL     1      -8.753   6.426  71.147  1.00  0.00    -0.135 C  
HETATM    8  C   UNL     1      -8.882  12.052  66.762  1.00  0.00    -0.198 C  
HETATM    9  C   UNL     1      -9.744   5.327  70.863  1.00  0.00    -0.184 C  
HETATM   10  C   UNL     1      -9.133   7.460  70.371  1.00  0.00    -0.157 C  
HETATM   11  C   UNL     1      -8.693  13.544  66.458  1.00  0.00     0.087 C  
HETATM   12  H   UNL     1     -11.990  12.023  66.847  1.00  0.00     0.000 HD 
HETATM   13  C   UNL     1      -8.415  10.457  65.760  1.00  0.00    -0.170 C  
HETATM   14  C   UNL     1      -8.977   8.956  66.553  1.00  0.00    -0.155 C  
HETATM   15  C   UNL     1     -10.291   8.324  70.832  1.00  0.00    -0.225 C  
HETATM   16  C   UNL     1      -9.008   8.780  68.261  1.00  0.00    -0.141 C  
HETATM   17  C   UNL     1      -7.568   6.730  68.454  1.00  0.00    -0.104 C  
HETATM   18  O   UNL     1     -10.284   8.704  65.992  1.00  0.00    -0.422 OA 
HETATM   19  F   UNL     1      -7.731   9.079  68.809  1.00  0.00    -0.088 F  
HETATM   20  C   UNL     1      -9.956   9.951  68.918  1.00  0.00    -0.188 C  
HETATM   21  C   UNL     1      -9.002   7.300  68.835  1.00  0.00    -0.133 C  
HETATM   22  C   UNL     1      -9.937   6.146  68.493  1.00  0.00    -0.173 C  
HETATM   23  H   UNL     1     -10.582   7.907  66.413  1.00  0.00     0.000 HD 
HETATM   24  O   UNL     1     -10.105   4.559  71.742  1.00  0.00    -0.187 OA 
HETATM   25  C   UNL     1     -10.060   9.775  70.445  1.00  0.00    -0.313 C  
HETATM   26  C   UNL     1     -10.229   5.210  69.434  1.00  0.00    -0.293 C  
ENDROOT
BRANCH   4  27
HETATM   27  C   UNL     1     -10.493  11.879  65.145  1.00  0.00    -0.287 C  
HETATM   28  O   UNL     1      -9.721  12.183  64.220  1.00  0.00    -0.169 OA 
BRANCH  27  29
HETATM   29  C   UNL     1     -12.005  11.961  64.806  1.00  0.00    -0.145 C  
BRANCH  29  30
HETATM   30  O   UNL     1     -12.637  13.145  65.349  1.00  0.00    -0.483 OA 
BRANCH  30  31
HETATM   31  C   UNL     1     -12.282  14.311  64.751  1.00  0.00    -0.443 C  
HETATM   32  O   UNL     1     -12.512  14.599  63.590  1.00  0.00    -0.754 OA 
BRANCH  31  33
HETATM   33  C   UNL     1     -11.526  15.220  65.667  1.00  0.00    -0.123 A  
HETATM   34  C   UNL     1     -10.075  17.017  67.283  1.00  0.00    -0.295 A  
HETATM   35  O   UNL     1      -9.012  15.518  69.826  1.00  0.00    -0.240 OA 
HETATM   36  C   UNL     1     -10.225  17.276  65.927  1.00  0.00    -0.273 A  
HETATM   37  C   UNL     1     -10.949  16.385  65.122  1.00  0.00    -0.242 A  
HETATM   38  O   UNL     1     -11.030  16.905  70.257  1.00  0.00    -0.133 OA 
HETATM   39  O   UNL     1     -11.330  14.515  69.944  1.00  0.00    -0.255 OA 
HETATM   40  C   UNL     1     -11.376  14.960  67.040  1.00  0.00    -0.345 A  
HETATM   41  S   UNL     1     -10.435  15.577  69.567  1.00  0.00    -0.282 S  
HETATM   42  C   UNL     1     -10.640  15.871  67.823  1.00  0.00    -0.302 A  
ENDBRANCH  31  33
ENDBRANCH  30  31
ENDBRANCH  29  30
ENDBRANCH  27  29
ENDBRANCH   4  27
TORSDOF 5
ENDMDL
MODEL       76
REMARK 921   NORMALIZED FREE ENERGY PREDICTED BY IDOCK:   -5.94 KCAL/MOL
REMARK 922        TOTAL FREE ENERGY PREDICTED BY IDOCK:   -8.39 KCAL/MOL
REMARK 923 INTER-LIGAND FREE ENERGY PREDICTED BY IDOCK:   -8.80 KCAL/MOL
REMARK 924 INTRA-LIGAND FREE ENERGY PREDICTED BY IDOCK:    0.41 KCAL/MOL
REMARK 927      BINDING AFFINITY PREDICTED BY RF-SCORE:    0.00 PKD
ROOT
HETATM    1  C   UNL     1     -11.235  12.173  68.015  1.00  0.00    -0.319 C  
HETATM    2  C   UNL     1     -11.782  12.239  66.722  1.00  0.00    -0.411 C  
HETATM    3  C   UNL     1     -10.307  11.949  66.749  1.00  0.00    -0.238 C  
HETATM    4  C   UNL     1      -9.470  11.450  68.581  1.00  0.00    -0.163 C  
HETATM    5  C   UNL     1     -10.134  11.455  65.133  1.00  0.00    -0.319 C  
HETATM    6  O   UNL     1     -10.355  11.218  69.735  1.00  0.00    -0.426 OA 
HETATM    7  C   UNL     1     -10.532  17.921  67.118  1.00  0.00    -0.359 C  
HETATM    8  C   UNL     1      -9.919  10.822  67.469  1.00  0.00    -0.203 C  
HETATM    9  C   UNL     1      -9.694  18.719  68.084  1.00  0.00    -0.341 C  
HETATM   10  C   UNL     1     -10.444  16.644  67.538  1.00  0.00    -0.317 C  
HETATM   11  C   UNL     1     -10.477   9.400  67.325  1.00  0.00    -0.332 C  
HETATM   12  H   UNL     1      -9.972  10.990  70.573  1.00  0.00     0.000 HD 
HETATM   13  C   UNL     1      -8.211  11.599  66.976  1.00  0.00    -0.170 C  
HETATM   14  C   UNL     1      -8.058  13.307  67.484  1.00  0.00    -0.186 C  
HETATM   15  C   UNL     1     -11.300  16.207  68.712  1.00  0.00    -0.359 C  
HETATM   16  C   UNL     1      -9.394  14.384  67.483  1.00  0.00    -0.198 C  
HETATM   17  C   UNL     1      -8.440  16.163  65.986  1.00  0.00    -0.155 C  
HETATM   18  O   UNL     1      -7.448  13.253  68.793  1.00  0.00    -0.150 OA 
HETATM   19  F   UNL     1     -10.017  14.393  66.206  1.00  0.00    -0.261 F  
HETATM   20  C   UNL     1     -10.582  13.791  68.451  1.00  0.00    -0.261 C  
HETATM   21  C   UNL     1      -9.069  15.937  67.429  1.00  0.00    -0.205 C  
HETATM   22  C   UNL     1      -8.153  16.748  68.337  1.00  0.00    -0.219 C  
HETATM   23  H   UNL     1      -7.367  14.160  69.063  1.00  0.00     0.000 HD 
HETATM   24  O   UNL     1     -10.012  19.853  68.410  1.00  0.00    -0.408 OA 
HETATM   25  C   UNL     1     -11.767  14.773  68.526  1.00  0.00    -0.347 C  
HETATM   26  C   UNL     1      -8.431  18.053  68.589  1.00  0.00    -0.277 C  
ENDROOT
BRANCH   4  27
HETATM   27  C   UNL     1      -8.468  10.137  69.101  1.00  0.00    -0.156 C  
HETATM   28  O   UNL     1      -7.229  10.092  69.004  1.00  0.00    -0.066 OA 
BRANCH  27  29
HETATM   29  C   UNL     1      -9.124   8.929  69.819  1.00  0.00    -0.150 C  
BRANCH  29  30
HETATM   30  O   UNL     1      -8.242   7.783  69.907  1.00  0.00    -0.121 OA 
BRANCH  30  31
HETATM   31  C   UNL     1      -8.581   6.736  69.112  1.00  0.00    -0.131 C  
HETATM   32  O   UNL     1      -8.646   6.774  67.897  1.00  0.00    -0.122 OA 
BRANCH  31  33
HETATM   33  C   UNL     1      -8.914   5.505  69.894  1.00  0.00    -0.144 A  
HETATM   34  C   UNL     1      -9.564   3.118  71.245  1.00  0.00    -0.229 A  
HETATM   35  O   UNL     1     -10.485   3.785  74.169  1.00  0.00    -0.172 OA 
HETATM   36  C   UNL     1      -9.601   3.158  69.858  1.00  0.00    -0.144 A  
HETATM   37  C   UNL     1      -9.275   4.343  69.183  1.00  0.00    -0.202 A  
HETATM   38  O   UNL     1      -8.146   2.958  74.026  1.00  0.00    -0.066 OA 
HETATM   39  O   UNL     1      -8.503   5.353  74.211  1.00  0.00    -0.110 OA 
HETATM   40  C   UNL     1      -8.872   5.464  71.298  1.00  0.00    -0.140 A  
HETATM   41  S   UNL     1      -9.162   4.170  73.725  1.00  0.00    -0.091 S  
HETATM   42  C   UNL     1      -9.210   4.260  71.948  1.00  0.00    -0.126 A  
ENDBRANCH  31  33
ENDBRANCH  30  31
ENDBRANCH  29  30
ENDBRANCH  27  29
ENDBRANCH   4  27
TORSDOF 5
ENDMDL
MODEL       77
REMARK 921   NORMALIZED FREE ENERGY PREDICTED BY IDOCK:   -5.93 KCAL/MOL
REMARK 922        TOTAL FREE ENERGY PREDICTED BY IDOCK:   -8.37 KCAL/MOL
REMARK 923 INTER-LIGAND FREE ENERGY PREDICTED BY IDOCK:   -8.79 KCAL/MOL
REMARK 924 INTRA-LIGAND FREE ENERGY PREDICTED BY IDOCK:    0.41 KCAL/MOL
REMARK 927      BINDING AFFINITY PREDICTED BY RF-SCORE:    0.00 PKD
ROOT
HETATM    1  C   UNL     1     -11.375  10.718  67.307  1.00  0.00    -0.173 C  
HETATM    2  C   UNL     1     -11.753  11.036  68.623  1.00  0.00    -0.367 C  
HETATM    3  C   UNL     1     -10.772  12.001  68.018  1.00  0.00    -0.244 C  
HETATM    4  C   UNL     1     -10.437  11.859  65.975  1.00  0.00    -0.245 C  
HETATM    5  C   UNL     1     -10.927  13.245  69.163  1.00  0.00    -0.208 C  
HETATM    6  O   UNL     1     -11.287  10.967  65.168  1.00  0.00     0.063 OA 
HETATM    7  C   UNL     1      -7.265   7.624  70.114  1.00  0.00    -0.067 C  
HETATM    8  C   UNL     1     -11.168  12.611  66.831  1.00  0.00    -0.348 C  
HETATM    9  C   UNL     1      -6.121   7.037  69.327  1.00  0.00    -0.033 C  
HETATM   10  C   UNL     1      -7.988   8.329  69.222  1.00  0.00    -0.114 C  
HETATM   11  C   UNL     1     -12.484  13.358  66.574  1.00  0.00    -0.255 C  
HETATM   12  H   UNL     1     -11.134  10.902  64.233  1.00  0.00     0.000 HD 
HETATM   13  C   UNL     1      -9.341  13.235  67.018  1.00  0.00    -0.242 C  
HETATM   14  C   UNL     1      -8.171  11.895  67.201  1.00  0.00    -0.171 C  
HETATM   15  C   UNL     1      -8.941   7.581  68.309  1.00  0.00    -0.130 C  
HETATM   16  C   UNL     1      -8.556  10.454  68.049  1.00  0.00    -0.123 C  
HETATM   17  C   UNL     1      -6.695  10.502  69.736  1.00  0.00    -0.126 C  
HETATM   18  O   UNL     1      -7.736  11.594  65.856  1.00  0.00    -0.348 OA 
HETATM   19  F   UNL     1      -9.030  10.763  69.353  1.00  0.00    -0.173 F  
HETATM   20  C   UNL     1      -9.866   9.741  67.358  1.00  0.00    -0.219 C  
HETATM   21  C   UNL     1      -7.341   9.595  68.602  1.00  0.00    -0.074 C  
HETATM   22  C   UNL     1      -6.128   9.068  67.845  1.00  0.00    -0.051 C  
HETATM   23  H   UNL     1      -7.115  10.882  65.954  1.00  0.00     0.000 HD 
HETATM   24  O   UNL     1      -5.674   5.930  69.591  1.00  0.00    -0.014 OA 
HETATM   25  C   UNL     1     -10.192   8.406  68.056  1.00  0.00    -0.263 C  
HETATM   26  C   UNL     1      -5.544   7.904  68.229  1.00  0.00    -0.033 C  
ENDROOT
BRANCH   4  27
HETATM   27  C   UNL     1     -10.464  13.023  64.692  1.00  0.00    -0.380 C  
HETATM   28  O   UNL     1     -10.853  12.807  63.531  1.00  0.00    -0.396 OA 
BRANCH  27  29
HETATM   29  C   UNL     1     -10.045  14.485  64.993  1.00  0.00    -0.290 C  
BRANCH  29  30
HETATM   30  O   UNL     1     -11.130  15.428  64.814  1.00  0.00    -0.416 OA 
BRANCH  30  31
HETATM   31  C   UNL     1     -10.826  16.716  65.118  1.00  0.00    -0.186 C  
HETATM   32  O   UNL     1     -11.179  17.688  64.474  1.00  0.00    -0.811 OA 
BRANCH  31  33
HETATM   33  C   UNL     1      -9.959  16.830  66.331  1.00  0.00    -0.317 A  
HETATM   34  C   UNL     1      -8.443  17.030  68.699  1.00  0.00    -0.262 A  
HETATM   35  O   UNL     1      -5.759  18.541  68.102  1.00  0.00    -0.180 OA 
HETATM   36  C   UNL     1      -9.819  16.859  68.774  1.00  0.00    -0.269 A  
HETATM   37  C   UNL     1     -10.575  16.757  67.598  1.00  0.00    -0.325 A  
HETATM   38  O   UNL     1      -5.501  16.073  68.255  1.00  0.00    -0.099 OA 
HETATM   39  O   UNL     1      -5.636  17.074  66.046  1.00  0.00    -0.271 OA 
HETATM   40  C   UNL     1      -8.566  16.999  66.256  1.00  0.00    -0.298 A  
HETATM   41  S   UNL     1      -6.067  17.313  67.398  1.00  0.00    -0.153 S  
HETATM   42  C   UNL     1      -7.834  17.105  67.455  1.00  0.00    -0.175 A  
ENDBRANCH  31  33
ENDBRANCH  30  31
ENDBRANCH  29  30
ENDBRANCH  27  29
ENDBRANCH   4  27
TORSDOF 5
ENDMDL
MODEL       78
REMARK 921   NORMALIZED FREE ENERGY PREDICTED BY IDOCK:   -5.92 KCAL/MOL
REMARK 922        TOTAL FREE ENERGY PREDICTED BY IDOCK:   -8.35 KCAL/MOL
REMARK 923 INTER-LIGAND FREE ENERGY PREDICTED BY IDOCK:   -7.68 KCAL/MOL
REMARK 924 INTRA-LIGAND FREE ENERGY PREDICTED BY IDOCK:   -0.68 KCAL/MOL
REMARK 927      BINDING AFFINITY PREDICTED BY RF-SCORE:    0.00 PKD
ROOT
HETATM    1  C   UNL     1      -9.609   9.377  66.885  1.00  0.00    -0.217 C  
HETATM    2  C   UNL     1      -9.867   9.658  65.532  1.00  0.00    -0.352 C  
HETATM    3  C   UNL     1      -8.492  10.058  65.989  1.00  0.00    -0.137 C  
HETATM    4  C   UNL     1      -7.862   9.353  67.837  1.00  0.00    -0.091 C  
HETATM    5  C   UNL     1      -7.798  10.312  64.459  1.00  0.00    -0.116 C  
HETATM    6  O   UNL     1      -8.685   8.356  68.542  1.00  0.00    -0.135 OA 
HETATM    7  C   UNL     1     -11.872  14.737  67.578  1.00  0.00    -0.326 C  
HETATM    8  C   UNL     1      -7.708   9.041  66.528  1.00  0.00    -0.096 C  
HETATM    9  C   UNL     1     -11.766  15.413  68.921  1.00  0.00    -0.359 C  
HETATM   10  C   UNL     1     -11.206  13.574  67.708  1.00  0.00    -0.308 C  
HETATM   11  C   UNL     1      -7.402   7.679  65.893  1.00  0.00    -0.074 C  
HETATM   12  H   UNL     1      -8.397   8.034  69.388  1.00  0.00     0.000 HD 
HETATM   13  C   UNL     1      -6.603  10.609  66.826  1.00  0.00    -0.091 C  
HETATM   14  C   UNL     1      -7.461  11.897  67.722  1.00  0.00    -0.121 C  
HETATM   15  C   UNL     1     -11.901  12.414  68.397  1.00  0.00    -0.361 C  
HETATM   16  C   UNL     1      -9.138  12.197  67.510  1.00  0.00    -0.180 C  
HETATM   17  C   UNL     1      -9.007  14.619  66.857  1.00  0.00    -0.275 C  
HETATM   18  O   UNL     1      -7.160  11.647  69.113  1.00  0.00    -0.115 OA 
HETATM   19  F   UNL     1      -9.432  12.391  66.133  1.00  0.00    -0.229 F  
HETATM   20  C   UNL     1      -9.991  10.836  67.863  1.00  0.00    -0.196 C  
HETATM   21  C   UNL     1      -9.671  13.636  67.914  1.00  0.00    -0.234 C  
HETATM   22  C   UNL     1      -9.496  14.377  69.234  1.00  0.00     0.137 C  
HETATM   23  H   UNL     1      -7.616  12.331  69.588  1.00  0.00     0.000 HD 
HETATM   24  O   UNL     1     -12.683  16.087  69.365  1.00  0.00     0.082 OA 
HETATM   25  C   UNL     1     -11.505  11.097  67.750  1.00  0.00    -0.349 C  
HETATM   26  C   UNL     1     -10.456  15.237  69.661  1.00  0.00    -0.279 C  
ENDROOT
BRANCH   4  27
HETATM   27  C   UNL     1      -6.434   8.525  68.359  1.00  0.00    -0.055 C  
HETATM   28  O   UNL     1      -5.281   8.746  67.949  1.00  0.00    -0.034 OA 
BRANCH  27  29
HETATM   29  C   UNL     1      -6.548   7.462  69.482  1.00  0.00    -0.037 C  
BRANCH  29  30
HETATM   30  O   UNL     1      -5.973   7.907  70.735  1.00  0.00    -0.033 OA 
BRANCH  30  31
HETATM   31  C   UNL     1      -6.647   8.913  71.350  1.00  0.00    -0.081 C  
HETATM   32  O   UNL     1      -6.307  10.082  71.353  1.00  0.00    -0.316 OA 
BRANCH  31  33
HETATM   33  C   UNL     1      -7.862   8.430  72.077  1.00  0.00    -0.171 A  
HETATM   34  C   UNL     1     -10.066   7.477  73.554  1.00  0.00    -0.378 A  
HETATM   35  O   UNL     1     -12.447   6.862  71.607  1.00  0.00    -0.350 OA 
HETATM   36  C   UNL     1      -8.783   7.361  74.075  1.00  0.00    -0.266 A  
HETATM   37  C   UNL     1      -7.686   7.837  73.344  1.00  0.00    -0.168 A  
HETATM   38  O   UNL     1     -12.684   9.018  72.821  1.00  0.00    -0.309 OA 
HETATM   39  O   UNL     1     -11.866   9.076  70.534  1.00  0.00    -0.207 OA 
HETATM   40  C   UNL     1      -9.159   8.551  71.552  1.00  0.00    -0.281 A  
HETATM   41  S   UNL     1     -11.900   8.201  71.676  1.00  0.00    -0.309 S  
HETATM   42  C   UNL     1     -10.242   8.059  72.308  1.00  0.00    -0.260 A  
ENDBRANCH  31  33
ENDBRANCH  30  31
ENDBRANCH  29  30
ENDBRANCH  27  29
ENDBRANCH   4  27
TORSDOF 5
ENDMDL
MODEL       79
REMARK 921   NORMALIZED FREE ENERGY PREDICTED BY IDOCK:   -5.90 KCAL/MOL
REMARK 922        TOTAL FREE ENERGY PREDICTED BY IDOCK:   -8.34 KCAL/MOL
REMARK 923 INTER-LIGAND FREE ENERGY PREDICTED BY IDOCK:   -7.77 KCAL/MOL
REMARK 924 INTRA-LIGAND FREE ENERGY PREDICTED BY IDOCK:   -0.57 KCAL/MOL
REMARK 927      BINDING AFFINITY PREDICTED BY RF-SCORE:    0.00 PKD
ROOT
HETATM    1  C   UNL     1     -11.408   8.010  71.632  1.00  0.00    -0.306 C  
HETATM    2  C   UNL     1     -12.231   7.324  70.723  1.00  0.00    -0.256 C  
HETATM    3  C   UNL     1     -10.759   7.117  70.494  1.00  0.00    -0.259 C  
HETATM    4  C   UNL     1      -9.467   7.757  71.986  1.00  0.00    -0.163 C  
HETATM    5  C   UNL     1     -10.868   5.794  69.434  1.00  0.00    -0.393 C  
HETATM    6  O   UNL     1     -10.024   8.211  73.271  1.00  0.00    -0.266 OA 
HETATM    7  C   UNL     1     -11.883  12.238  67.602  1.00  0.00    -0.334 C  
HETATM    8  C   UNL     1     -10.040   6.603  71.570  1.00  0.00    -0.200 C  
HETATM    9  C   UNL     1     -10.996  13.452  67.702  1.00  0.00    -0.259 C  
HETATM   10  C   UNL     1     -11.494  11.427  68.605  1.00  0.00    -0.359 C  
HETATM   11  C   UNL     1     -10.373   5.345  72.383  1.00  0.00    -0.257 C  
HETATM   12  H   UNL     1      -9.432   8.504  73.954  1.00  0.00     0.000 HD 
HETATM   13  C   UNL     1      -8.636   6.981  70.285  1.00  0.00    -0.140 C  
HETATM   14  C   UNL     1      -8.659   8.676  69.718  1.00  0.00    -0.131 C  
HETATM   15  C   UNL     1     -11.984  11.725  70.009  1.00  0.00    -0.421 C  
HETATM   16  C   UNL     1     -10.122   9.548  69.500  1.00  0.00    -0.206 C  
HETATM   17  C   UNL     1      -9.832  10.171  67.083  1.00  0.00    -0.231 C  
HETATM   18  O   UNL     1      -7.775   9.382  70.616  1.00  0.00    -0.143 OA 
HETATM   19  F   UNL     1     -11.005   8.822  68.655  1.00  0.00    -0.183 F  
HETATM   20  C   UNL     1     -10.952   9.596  70.918  1.00  0.00    -0.412 C  
HETATM   21  C   UNL     1     -10.079  10.798  68.523  1.00  0.00    -0.187 C  
HETATM   22  C   UNL     1      -9.132  11.992  68.549  1.00  0.00    -0.107 C  
HETATM   23  H   UNL     1      -7.788  10.283  70.315  1.00  0.00     0.000 HD 
HETATM   24  O   UNL     1     -11.417  14.567  67.433  1.00  0.00    -0.335 OA 
HETATM   25  C   UNL     1     -12.236  10.434  70.770  1.00  0.00    -0.457 C  
HETATM   26  C   UNL     1      -9.560  13.205  68.116  1.00  0.00    -0.227 C  
ENDROOT
BRANCH   4  27
HETATM   27  C   UNL     1      -8.171   6.983  72.835  1.00  0.00    -0.106 C  
HETATM   28  O   UNL     1      -8.086   6.866  74.070  1.00  0.00    -0.114 OA 
BRANCH  27  29
HETATM   29  C   UNL     1      -7.038   6.303  72.023  1.00  0.00    -0.082 C  
BRANCH  29  30
HETATM   30  O   UNL     1      -6.857   4.909  72.371  1.00  0.00    -0.057 OA 
BRANCH  30  31
HETATM   31  C   UNL     1      -6.324   4.137  71.390  1.00  0.00    -0.018 C  
HETATM   32  O   UNL     1      -5.133   3.947  71.219  1.00  0.00     0.000 OA 
BRANCH  31  33
HETATM   33  C   UNL     1      -7.366   3.555  70.488  1.00  0.00    -0.041 A  
HETATM   34  C   UNL     1      -9.388   2.395  68.903  1.00  0.00    -0.217 A  
HETATM   35  O   UNL     1      -8.414   2.218  65.925  1.00  0.00    -0.090 OA 
HETATM   36  C   UNL     1      -9.357   2.151  70.270  1.00  0.00    -0.182 A  
HETATM   37  C   UNL     1      -8.355   2.729  71.060  1.00  0.00    -0.083 A  
HETATM   38  O   UNL     1      -9.967   4.111  66.355  1.00  0.00    -0.218 OA 
HETATM   39  O   UNL     1      -7.585   4.580  66.277  1.00  0.00    -0.088 OA 
HETATM   40  C   UNL     1      -7.399   3.805  69.106  1.00  0.00    -0.053 A  
HETATM   41  S   UNL     1      -8.492   3.506  66.583  1.00  0.00    -0.112 S  
HETATM   42  C   UNL     1      -8.416   3.206  68.336  1.00  0.00    -0.080 A  
ENDBRANCH  31  33
ENDBRANCH  30  31
ENDBRANCH  29  30
ENDBRANCH  27  29
ENDBRANCH   4  27
TORSDOF 5
ENDMDL
MODEL       80
REMARK 921   NORMALIZED FREE ENERGY PREDICTED BY IDOCK:   -5.87 KCAL/MOL
REMARK 922        TOTAL FREE ENERGY PREDICTED BY IDOCK:   -8.30 KCAL/MOL
REMARK 923 INTER-LIGAND FREE ENERGY PREDICTED BY IDOCK:   -7.66 KCAL/MOL
REMARK 924 INTRA-LIGAND FREE ENERGY PREDICTED BY IDOCK:   -0.64 KCAL/MOL
REMARK 927      BINDING AFFINITY PREDICTED BY RF-SCORE:    0.00 PKD
ROOT
HETATM    1  C   UNL     1      -6.111   6.228  66.358  1.00  0.00    -0.033 C  
HETATM    2  C   UNL     1      -5.808   4.963  66.889  1.00  0.00    -0.026 C  
HETATM    3  C   UNL     1      -7.090   5.007  66.105  1.00  0.00    -0.072 C  
HETATM    4  C   UNL     1      -7.446   6.701  64.961  1.00  0.00    -0.089 C  
HETATM    5  C   UNL     1      -7.327   3.332  65.945  1.00  0.00    -0.072 C  
HETATM    6  O   UNL     1      -6.375   7.700  64.806  1.00  0.00    -0.044 OA 
HETATM    7  C   UNL     1      -8.755   6.865  71.548  1.00  0.00    -0.122 C  
HETATM    8  C   UNL     1      -6.985   5.440  64.786  1.00  0.00    -0.049 C  
HETATM    9  C   UNL     1      -9.656   8.052  71.774  1.00  0.00    -0.176 C  
HETATM   10  C   UNL     1      -8.363   6.952  70.262  1.00  0.00    -0.134 C  
HETATM   11  C   UNL     1      -6.025   4.905  63.715  1.00  0.00    -0.018 C  
HETATM   12  H   UNL     1      -6.538   8.476  64.283  1.00  0.00     0.000 HD 
HETATM   13  C   UNL     1      -8.905   5.268  65.006  1.00  0.00    -0.111 C  
HETATM   14  C   UNL     1      -9.526   6.201  66.399  1.00  0.00    -0.144 C  
HETATM   15  C   UNL     1      -7.252   7.921  69.907  1.00  0.00    -0.066 C  
HETATM   16  C   UNL     1      -8.624   6.390  67.848  1.00  0.00    -0.116 C  
HETATM   17  C   UNL     1     -10.308   5.457  69.462  1.00  0.00    -0.350 C  
HETATM   18  O   UNL     1      -9.888   7.489  65.853  1.00  0.00    -0.401 OA 
HETATM   19  F   UNL     1      -8.230   5.121  68.350  1.00  0.00    -0.089 F  
HETATM   20  C   UNL     1      -7.180   7.100  67.510  1.00  0.00    -0.090 C  
HETATM   21  C   UNL     1      -9.438   6.752  69.162  1.00  0.00    -0.141 C  
HETATM   22  C   UNL     1     -10.424   7.892  69.384  1.00  0.00    -0.222 C  
HETATM   23  H   UNL     1     -10.217   7.985  66.593  1.00  0.00     0.000 HD 
HETATM   24  O   UNL     1      -9.677   8.635  72.848  1.00  0.00    -0.177 OA 
HETATM   25  C   UNL     1      -6.379   7.348  68.803  1.00  0.00    -0.036 C  
HETATM   26  C   UNL     1     -10.549   8.449  70.617  1.00  0.00    -0.234 C  
ENDROOT
BRANCH   4  27
HETATM   27  C   UNL     1      -7.884   6.932  63.301  1.00  0.00    -0.104 C  
HETATM   28  O   UNL     1      -8.060   6.026  62.468  1.00  0.00    -0.095 OA 
BRANCH  27  29
HETATM   29  C   UNL     1      -8.158   8.370  62.789  1.00  0.00    -0.170 C  
BRANCH  29  30
HETATM   30  O   UNL     1      -8.857   9.187  63.759  1.00  0.00    -0.181 OA 
BRANCH  30  31
HETATM   31  C   UNL     1      -9.099  10.464  63.365  1.00  0.00    -0.260 C  
HETATM   32  O   UNL     1      -8.541  11.028  62.442  1.00  0.00    -0.275 OA 
BRANCH  31  33
HETATM   33  C   UNL     1     -10.118  11.146  64.223  1.00  0.00    -0.382 A  
HETATM   34  C   UNL     1     -12.114  12.456  65.720  1.00  0.00    -0.381 A  
HETATM   35  O   UNL     1     -10.902  13.458  68.435  1.00  0.00    -0.247 OA 
HETATM   36  C   UNL     1     -12.240  12.357  64.341  1.00  0.00    -0.519 A  
HETATM   37  C   UNL     1     -11.250  11.703  63.594  1.00  0.00    -0.497 A  
HETATM   38  O   UNL     1     -12.240  11.374  68.650  1.00  0.00    -0.532 OA 
HETATM   39  O   UNL     1      -9.821  11.175  68.552  1.00  0.00    -0.185 OA 
HETATM   40  C   UNL     1      -9.993  11.243  65.619  1.00  0.00    -0.292 A  
HETATM   41  S   UNL     1     -10.878  12.046  68.113  1.00  0.00    -0.236 S  
HETATM   42  C   UNL     1     -11.001  11.910  66.342  1.00  0.00    -0.292 A  
ENDBRANCH  31  33
ENDBRANCH  30  31
ENDBRANCH  29  30
ENDBRANCH  27  29
ENDBRANCH   4  27
TORSDOF 5
ENDMDL
MODEL       81
REMARK 921   NORMALIZED FREE ENERGY PREDICTED BY IDOCK:   -5.87 KCAL/MOL
REMARK 922        TOTAL FREE ENERGY PREDICTED BY IDOCK:   -8.30 KCAL/MOL
REMARK 923 INTER-LIGAND FREE ENERGY PREDICTED BY IDOCK:   -7.61 KCAL/MOL
REMARK 924 INTRA-LIGAND FREE ENERGY PREDICTED BY IDOCK:   -0.69 KCAL/MOL
REMARK 927      BINDING AFFINITY PREDICTED BY RF-SCORE:    0.00 PKD
ROOT
HETATM    1  C   UNL     1      -7.516  11.118  69.537  1.00  0.00     0.018 C  
HETATM    2  C   UNL     1      -6.190  10.653  69.520  1.00  0.00    -0.059 C  
HETATM    3  C   UNL     1      -6.922  10.465  68.220  1.00  0.00    -0.070 C  
HETATM    4  C   UNL     1      -8.737  11.448  68.002  1.00  0.00    -0.148 C  
HETATM    5  C   UNL     1      -5.580  10.112  67.241  1.00  0.00    -0.042 C  
HETATM    6  O   UNL     1      -9.152  12.423  69.024  1.00  0.00    -0.360 OA 
HETATM    7  C   UNL     1      -8.537   5.658  71.404  1.00  0.00    -0.132 C  
HETATM    8  C   UNL     1      -7.443  11.619  67.640  1.00  0.00    -0.116 C  
HETATM    9  C   UNL     1      -9.958   5.161  71.483  1.00  0.00    -0.187 C  
HETATM   10  C   UNL     1      -8.619   6.896  70.878  1.00  0.00    -0.136 C  
HETATM   11  C   UNL     1      -6.689  12.923  67.347  1.00  0.00    -0.131 C  
HETATM   12  H   UNL     1      -9.983  12.873  68.924  1.00  0.00     0.000 HD 
HETATM   13  C   UNL     1      -8.132  10.230  66.473  1.00  0.00    -0.121 C  
HETATM   14  C   UNL     1      -9.036   8.969  67.362  1.00  0.00    -0.131 C  
HETATM   15  C   UNL     1      -9.017   8.043  71.786  1.00  0.00    -0.194 C  
HETATM   16  C   UNL     1      -8.587   8.461  68.939  1.00  0.00    -0.135 C  
HETATM   17  C   UNL     1      -8.300   6.009  68.476  1.00  0.00    -0.113 C  
HETATM   18  O   UNL     1     -10.411   9.413  67.342  1.00  0.00    -0.251 OA 
HETATM   19  F   UNL     1      -7.220   8.074  68.960  1.00  0.00    -0.069 F  
HETATM   20  C   UNL     1      -8.604   9.750  69.959  1.00  0.00    -0.229 C  
HETATM   21  C   UNL     1      -9.088   7.029  69.406  1.00  0.00    -0.145 C  
HETATM   22  C   UNL     1     -10.506   6.473  69.408  1.00  0.00    -0.262 C  
HETATM   23  H   UNL     1     -10.891   8.743  67.814  1.00  0.00     0.000 HD 
HETATM   24  O   UNL     1     -10.328   4.445  72.402  1.00  0.00    -0.183 OA 
HETATM   25  C   UNL     1      -8.275   9.311  71.398  1.00  0.00     0.130 C  
HETATM   26  C   UNL     1     -10.877   5.567  70.350  1.00  0.00    -0.274 C  
ENDROOT
BRANCH   4  27
HETATM   27  C   UNL     1      -9.375  12.485  66.771  1.00  0.00    -0.230 C  
HETATM   28  O   UNL     1      -9.650  12.141  65.608  1.00  0.00    -0.234 OA 
BRANCH  27  29
HETATM   29  C   UNL     1      -9.715  13.956  67.127  1.00  0.00    -0.244 C  
BRANCH  29  30
HETATM   30  O   UNL     1     -11.128  14.161  67.373  1.00  0.00    -0.291 OA 
BRANCH  30  31
HETATM   31  C   UNL     1     -11.416  14.921  68.461  1.00  0.00    -0.315 C  
HETATM   32  O   UNL     1     -11.212  16.117  68.552  1.00  0.00    -0.337 OA 
BRANCH  31  33
HETATM   33  C   UNL     1     -11.989  14.118  69.586  1.00  0.00    -0.389 A  
HETATM   34  C   UNL     1     -13.111  12.727  71.766  1.00  0.00    -0.455 A  
HETATM   35  O   UNL     1     -11.777   9.897  72.004  1.00  0.00    -0.117 OA 
HETATM   36  C   UNL     1     -13.157  14.115  71.735  1.00  0.00    -0.434 A  
HETATM   37  C   UNL     1     -12.603  14.808  70.651  1.00  0.00    -0.414 A  
HETATM   38  O   UNL     1     -14.024   9.854  70.941  1.00  0.00    -0.051 OA 
HETATM   39  O   UNL     1     -12.073   9.780  69.496  1.00  0.00     0.218 OA 
HETATM   40  C   UNL     1     -11.946  12.714  69.616  1.00  0.00    -0.352 A  
HETATM   41  S   UNL     1     -12.474  10.266  70.789  1.00  0.00    -0.350 S  
HETATM   42  C   UNL     1     -12.506  12.044  70.721  1.00  0.00    -0.279 A  
ENDBRANCH  31  33
ENDBRANCH  30  31
ENDBRANCH  29  30
ENDBRANCH  27  29
ENDBRANCH   4  27
TORSDOF 5
ENDMDL
MODEL       82
REMARK 921   NORMALIZED FREE ENERGY PREDICTED BY IDOCK:   -5.86 KCAL/MOL
REMARK 922        TOTAL FREE ENERGY PREDICTED BY IDOCK:   -8.28 KCAL/MOL
REMARK 923 INTER-LIGAND FREE ENERGY PREDICTED BY IDOCK:   -8.18 KCAL/MOL
REMARK 924 INTRA-LIGAND FREE ENERGY PREDICTED BY IDOCK:   -0.10 KCAL/MOL
REMARK 927      BINDING AFFINITY PREDICTED BY RF-SCORE:    0.00 PKD
ROOT
HETATM    1  C   UNL     1     -10.528  11.169  67.906  1.00  0.00    -0.220 C  
HETATM    2  C   UNL     1     -11.523  11.376  66.936  1.00  0.00    -0.198 C  
HETATM    3  C   UNL     1     -10.340  12.295  66.806  1.00  0.00    -0.238 C  
HETATM    4  C   UNL     1      -8.654  11.837  67.925  1.00  0.00    -0.156 C  
HETATM    5  C   UNL     1     -10.669  12.884  65.247  1.00  0.00    -0.318 C  
HETATM    6  O   UNL     1      -8.600  10.556  68.650  1.00  0.00    -0.124 OA 
HETATM    7  C   UNL     1     -13.765  15.050  70.872  1.00  0.00    -0.319 C  
HETATM    8  C   UNL     1      -9.101  11.678  66.657  1.00  0.00    -0.196 C  
HETATM    9  C   UNL     1     -13.217  15.646  72.143  1.00  0.00    -0.461 C  
HETATM   10  C   UNL     1     -12.780  14.268  70.389  1.00  0.00    -0.355 C  
HETATM   11  C   UNL     1      -8.727  10.599  65.632  1.00  0.00    -0.198 C  
HETATM   12  H   UNL     1      -7.828  10.346  69.162  1.00  0.00     0.000 HD 
HETATM   13  C   UNL     1      -8.608  13.548  66.806  1.00  0.00    -0.043 C  
HETATM   14  C   UNL     1      -9.258  14.316  68.285  1.00  0.00    -0.197 C  
HETATM   15  C   UNL     1     -12.580  12.894  71.000  1.00  0.00    -0.376 C  
HETATM   16  C   UNL     1     -10.789  13.895  68.937  1.00  0.00    -0.255 C  
HETATM   17  C   UNL     1     -11.841  16.176  68.928  1.00  0.00    -0.159 C  
HETATM   18  O   UNL     1      -8.219  14.153  69.276  1.00  0.00    -0.347 OA 
HETATM   19  F   UNL     1     -11.796  14.010  67.941  1.00  0.00    -0.330 F  
HETATM   20  C   UNL     1     -10.817  12.288  69.283  1.00  0.00    -0.082 C  
HETATM   21  C   UNL     1     -11.486  14.959  69.887  1.00  0.00    -0.321 C  
HETATM   22  C   UNL     1     -10.918  15.644  71.123  1.00  0.00    -0.245 C  
HETATM   23  H   UNL     1      -8.564  14.561  70.061  1.00  0.00     0.000 HD 
HETATM   24  O   UNL     1     -13.939  15.853  73.107  1.00  0.00    -0.500 OA 
HETATM   25  C   UNL     1     -12.156  11.895  69.937  1.00  0.00    -0.344 C  
HETATM   26  C   UNL     1     -11.746  16.003  72.139  1.00  0.00    -0.587 C  
ENDROOT
BRANCH   4  27
HETATM   27  C   UNL     1      -6.980  11.661  67.517  1.00  0.00    -0.104 C  
HETATM   28  O   UNL     1      -6.328  12.435  66.794  1.00  0.00    -0.139 OA 
BRANCH  27  29
HETATM   29  C   UNL     1      -6.171  10.495  68.143  1.00  0.00    -0.050 C  
BRANCH  29  30
HETATM   30  O   UNL     1      -6.256   9.274  67.369  1.00  0.00    -0.056 OA 
BRANCH  30  31
HETATM   31  C   UNL     1      -6.137   8.129  68.088  1.00  0.00    -0.046 C  
HETATM   32  O   UNL     1      -5.136   7.781  68.688  1.00  0.00    -0.021 OA 
BRANCH  31  33
HETATM   33  C   UNL     1      -7.375   7.291  68.042  1.00  0.00    -0.097 A  
HETATM   34  C   UNL     1      -9.774   5.819  67.883  1.00  0.00    -0.134 A  
HETATM   35  O   UNL     1      -9.851   3.688  70.185  1.00  0.00    -0.170 OA 
HETATM   36  C   UNL     1      -9.705   7.088  67.324  1.00  0.00    -0.189 A  
HETATM   37  C   UNL     1      -8.513   7.821  67.399  1.00  0.00    -0.119 A  
HETATM   38  O   UNL     1      -9.232   2.741  67.971  1.00  0.00    -0.168 OA 
HETATM   39  O   UNL     1      -7.448   3.223  69.549  1.00  0.00    -0.045 OA 
HETATM   40  C   UNL     1      -7.444   6.006  68.604  1.00  0.00    -0.087 A  
HETATM   41  S   UNL     1      -8.777   3.661  69.213  1.00  0.00    -0.092 S  
HETATM   42  C   UNL     1      -8.657   5.295  68.518  1.00  0.00    -0.094 A  
ENDBRANCH  31  33
ENDBRANCH  30  31
ENDBRANCH  29  30
ENDBRANCH  27  29
ENDBRANCH   4  27
TORSDOF 5
ENDMDL
MODEL       83
REMARK 921   NORMALIZED FREE ENERGY PREDICTED BY IDOCK:   -5.85 KCAL/MOL
REMARK 922        TOTAL FREE ENERGY PREDICTED BY IDOCK:   -8.27 KCAL/MOL
REMARK 923 INTER-LIGAND FREE ENERGY PREDICTED BY IDOCK:   -8.69 KCAL/MOL
REMARK 924 INTRA-LIGAND FREE ENERGY PREDICTED BY IDOCK:    0.43 KCAL/MOL
REMARK 927      BINDING AFFINITY PREDICTED BY RF-SCORE:    0.00 PKD
ROOT
HETATM    1  C   UNL     1     -11.243  12.534  67.943  1.00  0.00    -0.312 C  
HETATM    2  C   UNL     1     -11.771  12.673  66.648  1.00  0.00    -0.464 C  
HETATM    3  C   UNL     1     -10.291  12.411  66.680  1.00  0.00    -0.245 C  
HETATM    4  C   UNL     1      -9.472  11.811  68.490  1.00  0.00    -0.163 C  
HETATM    5  C   UNL     1     -10.083  12.027  65.039  1.00  0.00    -0.293 C  
HETATM    6  O   UNL     1     -10.370  11.486  69.611  1.00  0.00    -0.419 OA 
HETATM    7  C   UNL     1     -10.646  18.341  67.433  1.00  0.00    -0.425 C  
HETATM    8  C   UNL     1      -9.891  11.248  67.332  1.00  0.00    -0.201 C  
HETATM    9  C   UNL     1      -9.840  19.090  68.462  1.00  0.00    -0.411 C  
HETATM   10  C   UNL     1     -10.538  17.041  67.770  1.00  0.00    -0.350 C  
HETATM   11  C   UNL     1     -10.417   9.827  67.086  1.00  0.00    -0.316 C  
HETATM   12  H   UNL     1      -9.995  11.211  70.439  1.00  0.00     0.000 HD 
HETATM   13  C   UNL     1      -8.192  12.089  66.920  1.00  0.00    -0.146 C  
HETATM   14  C   UNL     1      -8.082  13.762  67.540  1.00  0.00    -0.185 C  
HETATM   15  C   UNL     1     -11.403  16.512  68.899  1.00  0.00    -0.206 C  
HETATM   16  C   UNL     1      -9.440  14.811  67.586  1.00  0.00    -0.204 C  
HETATM   17  C   UNL     1      -8.501  16.702  66.225  1.00  0.00    -0.355 C  
HETATM   18  O   UNL     1      -7.492  13.635  68.853  1.00  0.00    -0.171 OA 
HETATM   19  F   UNL     1     -10.044  14.890  66.302  1.00  0.00    -0.246 F  
HETATM   20  C   UNL     1     -10.631  14.132  68.494  1.00  0.00    -0.257 C  
HETATM   21  C   UNL     1      -9.147  16.370  67.638  1.00  0.00    -0.198 C  
HETATM   22  C   UNL     1      -8.262  17.138  68.613  1.00  0.00    -0.255 C  
HETATM   23  H   UNL     1      -7.434  14.524  69.182  1.00  0.00     0.000 HD 
HETATM   24  O   UNL     1     -10.186  20.194  68.856  1.00  0.00    -0.385 OA 
HETATM   25  C   UNL     1     -11.836  15.084  68.612  1.00  0.00    -0.325 C  
HETATM   26  C   UNL     1      -8.572  18.418  68.944  1.00  0.00    -0.163 C  
ENDROOT
BRANCH   4  27
HETATM   27  C   UNL     1      -8.451  10.487  68.941  1.00  0.00    -0.152 C  
HETATM   28  O   UNL     1      -8.749   9.588  69.746  1.00  0.00    -0.158 OA 
BRANCH  27  29
HETATM   29  C   UNL     1      -7.070  10.332  68.251  1.00  0.00    -0.079 C  
BRANCH  29  30
HETATM   30  O   UNL     1      -6.801   8.971  67.835  1.00  0.00    -0.068 OA 
BRANCH  30  31
HETATM   31  C   UNL     1      -6.606   8.808  66.501  1.00  0.00    -0.063 C  
HETATM   32  O   UNL     1      -6.150   9.652  65.752  1.00  0.00    -0.058 OA 
BRANCH  31  33
HETATM   33  C   UNL     1      -7.055   7.465  66.016  1.00  0.00    -0.066 A  
HETATM   34  C   UNL     1      -7.783   4.931  65.021  1.00  0.00    -0.083 A  
HETATM   35  O   UNL     1     -10.879   4.531  65.334  1.00  0.00    -0.271 OA 
HETATM   36  C   UNL     1      -6.616   5.537  64.576  1.00  0.00    -0.042 A  
HETATM   37  C   UNL     1      -6.250   6.796  65.072  1.00  0.00    -0.039 A  
HETATM   38  O   UNL     1      -9.543   3.361  67.072  1.00  0.00    -0.192 OA 
HETATM   39  O   UNL     1     -10.557   5.491  67.650  1.00  0.00    -0.216 OA 
HETATM   40  C   UNL     1      -8.234   6.850  66.468  1.00  0.00    -0.117 A  
HETATM   41  S   UNL     1     -10.063   4.775  66.504  1.00  0.00    -0.260 S  
HETATM   42  C   UNL     1      -8.579   5.587  65.948  1.00  0.00    -0.141 A  
ENDBRANCH  31  33
ENDBRANCH  30  31
ENDBRANCH  29  30
ENDBRANCH  27  29
ENDBRANCH   4  27
TORSDOF 5
ENDMDL
MODEL       84
REMARK 921   NORMALIZED FREE ENERGY PREDICTED BY IDOCK:   -5.82 KCAL/MOL
REMARK 922        TOTAL FREE ENERGY PREDICTED BY IDOCK:   -8.24 KCAL/MOL
REMARK 923 INTER-LIGAND FREE ENERGY PREDICTED BY IDOCK:   -8.91 KCAL/MOL
REMARK 924 INTRA-LIGAND FREE ENERGY PREDICTED BY IDOCK:    0.68 KCAL/MOL
REMARK 927      BINDING AFFINITY PREDICTED BY RF-SCORE:    0.00 PKD
ROOT
HETATM    1  C   UNL     1     -10.547   9.838  69.375  1.00  0.00    -0.248 C  
HETATM    2  C   UNL     1      -9.471   9.831  70.279  1.00  0.00    -0.250 C  
HETATM    3  C   UNL     1      -9.119  10.347  68.911  1.00  0.00    -0.175 C  
HETATM    4  C   UNL     1     -10.690  10.764  67.621  1.00  0.00    -0.258 C  
HETATM    5  C   UNL     1      -7.618  11.041  69.298  1.00  0.00    -0.090 C  
HETATM    6  O   UNL     1     -12.070  10.722  68.133  1.00  0.00    -0.802 OA 
HETATM    7  C   UNL     1      -8.610   4.412  68.303  1.00  0.00    -0.106 C  
HETATM    8  C   UNL     1      -9.863  11.433  68.458  1.00  0.00    -0.200 C  
HETATM    9  C   UNL     1      -9.161   3.655  67.122  1.00  0.00    -0.168 C  
HETATM   10  C   UNL     1      -9.180   5.632  68.244  1.00  0.00    -0.116 C  
HETATM   11  C   UNL     1     -10.106  12.756  69.198  1.00  0.00     0.309 C  
HETATM   12  H   UNL     1     -12.789  10.913  67.542  1.00  0.00     0.000 HD 
HETATM   13  C   UNL     1      -8.789  10.999  66.902  1.00  0.00    -0.150 C  
HETATM   14  C   UNL     1      -8.962   9.291  66.400  1.00  0.00    -0.154 C  
HETATM   15  C   UNL     1     -10.602   5.792  68.746  1.00  0.00    -0.321 C  
HETATM   16  C   UNL     1      -9.176   8.021  67.536  1.00  0.00    -0.137 C  
HETATM   17  C   UNL     1      -7.214   6.597  66.880  1.00  0.00    -0.077 C  
HETATM   18  O   UNL     1     -10.035   9.294  65.432  1.00  0.00    -0.438 OA 
HETATM   19  F   UNL     1      -8.145   8.057  68.513  1.00  0.00    -0.116 F  
HETATM   20  C   UNL     1     -10.523   8.306  68.434  1.00  0.00    -0.206 C  
HETATM   21  C   UNL     1      -8.792   6.556  67.061  1.00  0.00    -0.116 C  
HETATM   22  C   UNL     1      -9.265   5.805  65.822  1.00  0.00    -0.086 C  
HETATM   23  H   UNL     1     -10.126   8.387  65.165  1.00  0.00     0.000 HD 
HETATM   24  O   UNL     1      -9.385   2.455  67.189  1.00  0.00    -0.131 OA 
HETATM   25  C   UNL     1     -10.780   7.146  69.414  1.00  0.00    -0.246 C  
HETATM   26  C   UNL     1      -9.380   4.452  65.854  1.00  0.00    -0.161 C  
ENDROOT
BRANCH   4  27
HETATM   27  C   UNL     1     -11.098  12.153  66.670  1.00  0.00    -0.306 C  
HETATM   28  O   UNL     1     -12.234  12.648  66.567  1.00  0.00    -0.538 OA 
BRANCH  27  29
HETATM   29  C   UNL     1      -9.970  12.916  65.928  1.00  0.00    -0.268 C  
BRANCH  29  30
HETATM   30  O   UNL     1     -10.004  14.343  66.172  1.00  0.00    -0.286 OA 
BRANCH  30  31
HETATM   31  C   UNL     1      -8.882  14.854  66.741  1.00  0.00    -0.261 C  
HETATM   32  O   UNL     1      -7.826  14.260  66.861  1.00  0.00    -0.022 OA 
BRANCH  31  33
HETATM   33  C   UNL     1      -9.083  16.244  67.257  1.00  0.00    -0.214 A  
HETATM   34  C   UNL     1      -9.602  18.838  68.232  1.00  0.00    -0.395 A  
HETATM   35  O   UNL     1      -7.232  20.743  67.459  1.00  0.00    -0.331 OA 
HETATM   36  C   UNL     1     -10.655  17.960  68.010  1.00  0.00    -0.366 A  
HETATM   37  C   UNL     1     -10.399  16.669  67.528  1.00  0.00    -0.294 A  
HETATM   38  O   UNL     1      -7.160  19.970  69.821  1.00  0.00    -0.228 OA 
HETATM   39  O   UNL     1      -5.739  18.843  68.204  1.00  0.00    -0.199 OA 
HETATM   40  C   UNL     1      -8.017  17.131  67.485  1.00  0.00    -0.190 A  
HETATM   41  S   UNL     1      -6.979  19.571  68.271  1.00  0.00    -0.304 S  
HETATM   42  C   UNL     1      -8.305  18.424  67.965  1.00  0.00    -0.272 A  
ENDBRANCH  31  33
ENDBRANCH  30  31
ENDBRANCH  29  30
ENDBRANCH  27  29
ENDBRANCH   4  27
TORSDOF 5
ENDMDL
MODEL       85
REMARK 921   NORMALIZED FREE ENERGY PREDICTED BY IDOCK:   -5.76 KCAL/MOL
REMARK 922        TOTAL FREE ENERGY PREDICTED BY IDOCK:   -8.15 KCAL/MOL
REMARK 923 INTER-LIGAND FREE ENERGY PREDICTED BY IDOCK:   -8.49 KCAL/MOL
REMARK 924 INTRA-LIGAND FREE ENERGY PREDICTED BY IDOCK:    0.34 KCAL/MOL
REMARK 927      BINDING AFFINITY PREDICTED BY RF-SCORE:    0.00 PKD
ROOT
HETATM    1  C   UNL     1      -7.670   8.963  70.431  1.00  0.00    -0.098 C  
HETATM    2  C   UNL     1      -6.483   8.482  69.851  1.00  0.00    -0.035 C  
HETATM    3  C   UNL     1      -7.699   8.323  68.980  1.00  0.00    -0.098 C  
HETATM    4  C   UNL     1      -9.419   9.331  69.558  1.00  0.00    -0.173 C  
HETATM    5  C   UNL     1      -6.902   7.969  67.523  1.00  0.00    -0.070 C  
HETATM    6  O   UNL     1      -9.347  10.295  70.668  1.00  0.00    -0.185 OA 
HETATM    7  C   UNL     1      -7.901   3.487  72.505  1.00  0.00    -0.068 C  
HETATM    8  C   UNL     1      -8.396   9.492  68.685  1.00  0.00    -0.117 C  
HETATM    9  C   UNL     1      -9.164   3.006  73.172  1.00  0.00    -0.089 C  
HETATM   10  C   UNL     1      -8.176   4.734  72.074  1.00  0.00    -0.110 C  
HETATM   11  C   UNL     1      -7.815  10.791  68.112  1.00  0.00    -0.112 C  
HETATM   12  H   UNL     1     -10.134  10.756  70.932  1.00  0.00     0.000 HD 
HETATM   13  C   UNL     1      -9.537   8.130  67.906  1.00  0.00    -0.179 C  
HETATM   14  C   UNL     1     -10.003   6.866  69.082  1.00  0.00    -0.162 C  
HETATM   15  C   UNL     1      -8.133   5.872  73.076  1.00  0.00    -0.117 C  
HETATM   16  C   UNL     1      -8.939   6.329  70.317  1.00  0.00    -0.154 C  
HETATM   17  C   UNL     1      -8.916   3.880  69.755  1.00  0.00    -0.167 C  
HETATM   18  O   UNL     1     -11.250   7.326  69.649  1.00  0.00    -0.419 OA 
HETATM   19  F   UNL     1      -7.698   5.925  69.755  1.00  0.00    -0.080 F  
HETATM   20  C   UNL     1      -8.501   7.602  71.260  1.00  0.00    -0.118 C  
HETATM   21  C   UNL     1      -9.220   4.895  70.939  1.00  0.00    -0.196 C  
HETATM   22  C   UNL     1     -10.514   4.356  71.536  1.00  0.00    -0.007 C  
HETATM   23  H   UNL     1     -11.497   6.655  70.273  1.00  0.00     0.000 HD 
HETATM   24  O   UNL     1      -9.123   2.281  74.155  1.00  0.00    -0.072 OA 
HETATM   25  C   UNL     1      -7.602   7.137  72.422  1.00  0.00    -0.088 C  
HETATM   26  C   UNL     1     -10.468   3.440  72.538  1.00  0.00    -0.136 C  
ENDROOT
BRANCH   4  27
HETATM   27  C   UNL     1     -10.499  10.394  68.721  1.00  0.00    -0.199 C  
HETATM   28  O   UNL     1     -10.387  10.752  67.536  1.00  0.00    -0.187 OA 
BRANCH  27  29
HETATM   29  C   UNL     1     -11.766  10.910  69.454  1.00  0.00    -0.325 C  
BRANCH  29  30
HETATM   30  O   UNL     1     -11.494  12.045  70.312  1.00  0.00    -0.144 OA 
BRANCH  30  31
HETATM   31  C   UNL     1     -11.992  13.229  69.871  1.00  0.00    -0.330 C  
HETATM   32  O   UNL     1     -12.853  13.878  70.436  1.00  0.00    -0.269 OA 
BRANCH  31  33
HETATM   33  C   UNL     1     -11.394  13.653  68.567  1.00  0.00    -0.325 A  
HETATM   34  C   UNL     1     -10.151  14.502  66.183  1.00  0.00    -0.319 A  
HETATM   35  O   UNL     1     -12.328  14.951  63.969  1.00  0.00    -0.713 OA 
HETATM   36  C   UNL     1      -9.514  14.698  67.401  1.00  0.00    -0.201 A  
HETATM   37  C   UNL     1     -10.128  14.275  68.588  1.00  0.00    -0.238 A  
HETATM   38  O   UNL     1     -11.098  12.803  63.736  1.00  0.00    -0.410 OA 
HETATM   39  O   UNL     1     -13.295  12.757  64.771  1.00  0.00    -0.736 OA 
HETATM   40  C   UNL     1     -12.037  13.451  67.335  1.00  0.00    -0.338 A  
HETATM   41  S   UNL     1     -12.180  13.646  64.580  1.00  0.00    -0.385 S  
HETATM   42  C   UNL     1     -11.397  13.892  66.159  1.00  0.00    -0.320 A  
ENDBRANCH  31  33
ENDBRANCH  30  31
ENDBRANCH  29  30
ENDBRANCH  27  29
ENDBRANCH   4  27
TORSDOF 5
ENDMDL
MODEL       86
REMARK 921   NORMALIZED FREE ENERGY PREDICTED BY IDOCK:   -5.74 KCAL/MOL
REMARK 922        TOTAL FREE ENERGY PREDICTED BY IDOCK:   -8.12 KCAL/MOL
REMARK 923 INTER-LIGAND FREE ENERGY PREDICTED BY IDOCK:   -8.45 KCAL/MOL
REMARK 924 INTRA-LIGAND FREE ENERGY PREDICTED BY IDOCK:    0.33 KCAL/MOL
REMARK 927      BINDING AFFINITY PREDICTED BY RF-SCORE:    0.00 PKD
ROOT
HETATM    1  C   UNL     1     -10.663   6.092  70.226  1.00  0.00    -0.367 C  
HETATM    2  C   UNL     1     -10.318   5.189  71.247  1.00  0.00    -0.276 C  
HETATM    3  C   UNL     1      -9.395   6.371  71.136  1.00  0.00    -0.166 C  
HETATM    4  C   UNL     1     -10.012   7.949  69.938  1.00  0.00    -0.192 C  
HETATM    5  C   UNL     1      -8.593   6.184  72.621  1.00  0.00    -0.124 C  
HETATM    6  O   UNL     1     -11.381   7.947  69.397  1.00  0.00    -0.435 OA 
HETATM    7  C   UNL     1      -7.221   2.555  67.066  1.00  0.00    -0.057 C  
HETATM    8  C   UNL     1      -9.990   7.624  71.252  1.00  0.00    -0.195 C  
HETATM    9  C   UNL     1      -6.810   2.976  65.679  1.00  0.00    -0.048 C  
HETATM   10  C   UNL     1      -7.932   3.588  67.558  1.00  0.00    -0.081 C  
HETATM   11  C   UNL     1     -10.917   8.102  72.378  1.00  0.00    -0.414 C  
HETATM   12  H   UNL     1     -11.663   8.670  68.849  1.00  0.00     0.000 HD 
HETATM   13  C   UNL     1      -8.161   8.083  70.798  1.00  0.00    -0.101 C  
HETATM   14  C   UNL     1      -7.604   7.292  69.295  1.00  0.00    -0.102 C  
HETATM   15  C   UNL     1      -9.378   3.743  67.128  1.00  0.00    -0.223 C  
HETATM   16  C   UNL     1      -8.106   5.710  68.854  1.00  0.00    -0.100 C  
HETATM   17  C   UNL     1      -5.842   4.642  68.644  1.00  0.00    -0.025 C  
HETATM   18  O   UNL     1      -7.908   8.234  68.243  1.00  0.00    -0.114 OA 
HETATM   19  F   UNL     1      -7.849   4.800  69.915  1.00  0.00    -0.059 F  
HETATM   20  C   UNL     1      -9.746   5.664  68.740  1.00  0.00    -0.178 C  
HETATM   21  C   UNL     1      -7.183   4.917  67.836  1.00  0.00    -0.070 C  
HETATM   22  C   UNL     1      -6.679   5.360  66.468  1.00  0.00    -0.057 C  
HETATM   23  H   UNL     1      -7.613   7.813  67.444  1.00  0.00     0.000 HD 
HETATM   24  O   UNL     1      -6.736   2.166  64.767  1.00  0.00    -0.030 OA 
HETATM   25  C   UNL     1     -10.221   4.274  68.275  1.00  0.00     0.223 C  
HETATM   26  C   UNL     1      -6.462   4.438  65.494  1.00  0.00    -0.040 C  
ENDROOT
BRANCH   4  27
HETATM   27  C   UNL     1     -10.135   9.656  70.207  1.00  0.00    -0.275 C  
HETATM   28  O   UNL     1      -9.256  10.494  69.941  1.00  0.00     0.007 OA 
BRANCH  27  29
HETATM   29  C   UNL     1     -11.463  10.237  70.759  1.00  0.00    -0.351 C  
BRANCH  29  30
HETATM   30  O   UNL     1     -12.123  11.118  69.818  1.00  0.00    -0.315 OA 
BRANCH  30  31
HETATM   31  C   UNL     1     -12.151  12.426  70.179  1.00  0.00    -0.290 C  
HETATM   32  O   UNL     1     -12.425  12.838  71.292  1.00  0.00    -0.315 OA 
BRANCH  31  33
HETATM   33  C   UNL     1     -11.840  13.343  69.039  1.00  0.00    -0.378 A  
HETATM   34  C   UNL     1     -11.210  15.168  66.985  1.00  0.00    -0.308 A  
HETATM   35  O   UNL     1     -12.878  14.476  64.419  1.00  0.00    -0.603 OA 
HETATM   36  C   UNL     1     -11.002  15.523  68.311  1.00  0.00    -0.305 A  
HETATM   37  C   UNL     1     -11.311  14.617  69.334  1.00  0.00    -0.314 A  
HETATM   38  O   UNL     1     -10.521  13.692  64.317  1.00  0.00    -0.392 OA 
HETATM   39  O   UNL     1     -12.239  12.079  64.907  1.00  0.00    -0.331 OA 
HETATM   40  C   UNL     1     -12.047  12.983  67.697  1.00  0.00    -0.262 A  
HETATM   41  S   UNL     1     -11.976  13.492  64.979  1.00  0.00    -0.397 S  
HETATM   42  C   UNL     1     -11.731  13.917  66.690  1.00  0.00    -0.395 A  
ENDBRANCH  31  33
ENDBRANCH  30  31
ENDBRANCH  29  30
ENDBRANCH  27  29
ENDBRANCH   4  27
TORSDOF 5
ENDMDL
MODEL       87
REMARK 921   NORMALIZED FREE ENERGY PREDICTED BY IDOCK:   -5.71 KCAL/MOL
REMARK 922        TOTAL FREE ENERGY PREDICTED BY IDOCK:   -8.09 KCAL/MOL
REMARK 923 INTER-LIGAND FREE ENERGY PREDICTED BY IDOCK:   -8.69 KCAL/MOL
REMARK 924 INTRA-LIGAND FREE ENERGY PREDICTED BY IDOCK:    0.61 KCAL/MOL
REMARK 927      BINDING AFFINITY PREDICTED BY RF-SCORE:    0.00 PKD
ROOT
HETATM    1  C   UNL     1      -9.817  12.597  64.252  1.00  0.00    -0.085 C  
HETATM    2  C   UNL     1     -10.540  11.794  63.354  1.00  0.00    -0.479 C  
HETATM    3  C   UNL     1     -11.302  12.162  64.597  1.00  0.00    -0.382 C  
HETATM    4  C   UNL     1     -10.492  13.643  65.804  1.00  0.00    -0.293 C  
HETATM    5  C   UNL     1     -12.851  11.704  64.069  1.00  0.00     0.001 C  
HETATM    6  O   UNL     1      -9.324  14.401  65.324  1.00  0.00    -0.409 OA 
HETATM    7  C   UNL     1      -8.148   7.367  66.300  1.00  0.00    -0.117 C  
HETATM    8  C   UNL     1     -11.442  13.525  64.846  1.00  0.00    -0.350 C  
HETATM    9  C   UNL     1      -7.403   7.293  67.608  1.00  0.00    -0.093 C  
HETATM   10  C   UNL     1      -8.456   8.668  66.136  1.00  0.00    -0.140 C  
HETATM   11  C   UNL     1     -11.968  14.590  63.875  1.00  0.00    -0.092 C  
HETATM   12  H   UNL     1      -8.953  15.078  65.877  1.00  0.00     0.000 HD 
HETATM   13  C   UNL     1     -12.211  12.737  66.444  1.00  0.00    -0.242 C  
HETATM   14  C   UNL     1     -11.095  11.603  67.259  1.00  0.00    -0.290 C  
HETATM   15  C   UNL     1      -7.380   9.609  65.629  1.00  0.00    -0.101 C  
HETATM   16  C   UNL     1     -10.009  10.602  66.384  1.00  0.00    -0.222 C  
HETATM   17  C   UNL     1     -10.753   8.373  67.273  1.00  0.00    -0.230 C  
HETATM   18  O   UNL     1     -10.381  12.409  68.222  1.00  0.00    -0.215 OA 
HETATM   19  F   UNL     1     -10.713   9.850  65.406  1.00  0.00    -0.160 F  
HETATM   20  C   UNL     1      -9.018  11.536  65.464  1.00  0.00    -0.037 C  
HETATM   21  C   UNL     1      -9.473   9.302  67.121  1.00  0.00    -0.191 C  
HETATM   22  C   UNL     1      -8.800   9.192  68.483  1.00  0.00    -0.129 C  
HETATM   23  H   UNL     1      -9.788  11.807  68.654  1.00  0.00     0.000 HD 
HETATM   24  O   UNL     1      -6.486   6.501  67.770  1.00  0.00    -0.047 OA 
HETATM   25  C   UNL     1      -7.984  10.668  64.722  1.00  0.00     0.036 C  
HETATM   26  C   UNL     1      -7.878   8.219  68.707  1.00  0.00    -0.115 C  
ENDROOT
BRANCH   4  27
HETATM   27  C   UNL     1     -11.142  15.098  66.482  1.00  0.00    -0.305 C  
HETATM   28  O   UNL     1     -11.216  16.195  65.900  1.00  0.00    -0.035 OA 
BRANCH  27  29
HETATM   29  C   UNL     1     -11.759  15.057  67.904  1.00  0.00    -0.289 C  
BRANCH  29  30
HETATM   30  O   UNL     1     -11.168  16.029  68.800  1.00  0.00    -0.318 OA 
BRANCH  30  31
HETATM   31  C   UNL     1      -9.810  16.019  68.842  1.00  0.00    -0.232 C  
HETATM   32  O   UNL     1      -9.131  15.104  69.268  1.00  0.00    -0.218 OA 
BRANCH  31  33
HETATM   33  C   UNL     1      -9.212  17.294  68.336  1.00  0.00    -0.268 A  
HETATM   34  C   UNL     1      -8.183  19.766  67.456  1.00  0.00    -0.347 A  
HETATM   35  O   UNL     1      -6.601  19.352  64.779  1.00  0.00    -0.430 OA 
HETATM   36  C   UNL     1      -9.284  19.739  68.303  1.00  0.00    -0.388 A  
HETATM   37  C   UNL     1      -9.795  18.511  68.744  1.00  0.00    -0.411 A  
HETATM   38  O   UNL     1      -5.139  19.561  66.779  1.00  0.00    -0.161 OA 
HETATM   39  O   UNL     1      -5.602  17.333  65.928  1.00  0.00    -0.268 OA 
HETATM   40  C   UNL     1      -8.096  17.322  67.482  1.00  0.00    -0.197 A  
HETATM   41  S   UNL     1      -6.192  18.645  65.975  1.00  0.00    -0.220 S  
HETATM   42  C   UNL     1      -7.608  18.571  67.051  1.00  0.00    -0.223 A  
ENDBRANCH  31  33
ENDBRANCH  30  31
ENDBRANCH  29  30
ENDBRANCH  27  29
ENDBRANCH   4  27
TORSDOF 5
ENDMDL
MODEL       88
REMARK 921   NORMALIZED FREE ENERGY PREDICTED BY IDOCK:   -5.70 KCAL/MOL
REMARK 922        TOTAL FREE ENERGY PREDICTED BY IDOCK:   -8.08 KCAL/MOL
REMARK 923 INTER-LIGAND FREE ENERGY PREDICTED BY IDOCK:   -8.00 KCAL/MOL
REMARK 924 INTRA-LIGAND FREE ENERGY PREDICTED BY IDOCK:   -0.08 KCAL/MOL
REMARK 927      BINDING AFFINITY PREDICTED BY RF-SCORE:    0.00 PKD
ROOT
HETATM    1  C   UNL     1     -10.372  11.158  68.035  1.00  0.00    -0.208 C  
HETATM    2  C   UNL     1     -11.292  11.377  66.996  1.00  0.00    -0.309 C  
HETATM    3  C   UNL     1     -10.095  12.285  66.954  1.00  0.00    -0.224 C  
HETATM    4  C   UNL     1      -8.498  11.809  68.192  1.00  0.00    -0.158 C  
HETATM    5  C   UNL     1     -10.304  12.881  65.378  1.00  0.00    -0.310 C  
HETATM    6  O   UNL     1      -8.509  10.526  68.915  1.00  0.00    -0.134 OA 
HETATM    7  C   UNL     1     -13.781  15.063  70.768  1.00  0.00    -0.197 C  
HETATM    8  C   UNL     1      -8.854  11.657  66.894  1.00  0.00    -0.190 C  
HETATM    9  C   UNL     1     -13.322  15.652  72.077  1.00  0.00    -0.455 C  
HETATM   10  C   UNL     1     -12.771  14.273  70.356  1.00  0.00    -0.355 C  
HETATM   11  C   UNL     1      -8.416  10.577  65.896  1.00  0.00    -0.164 C  
HETATM   12  H   UNL     1      -7.778  10.308  69.481  1.00  0.00     0.000 HD 
HETATM   13  C   UNL     1      -8.356  13.522  67.084  1.00  0.00    -0.151 C  
HETATM   14  C   UNL     1      -9.104  14.293  68.514  1.00  0.00    -0.191 C  
HETATM   15  C   UNL     1     -12.628  12.896  70.977  1.00  0.00    -0.376 C  
HETATM   16  C   UNL     1     -10.683  13.885  69.052  1.00  0.00    -0.195 C  
HETATM   17  C   UNL     1     -11.711  16.175  68.973  1.00  0.00    -0.254 C  
HETATM   18  O   UNL     1      -8.142  14.118  69.577  1.00  0.00    -0.336 OA 
HETATM   19  F   UNL     1     -11.613  14.011  67.986  1.00  0.00    -0.288 F  
HETATM   20  C   UNL     1     -10.751  12.277  69.390  1.00  0.00     0.085 C  
HETATM   21  C   UNL     1     -11.437  14.953  69.951  1.00  0.00    -0.321 C  
HETATM   22  C   UNL     1     -10.955  15.631  71.228  1.00  0.00    -0.195 C  
HETATM   23  H   UNL     1      -8.540  14.527  70.337  1.00  0.00     0.000 HD 
HETATM   24  O   UNL     1     -14.110  15.864  72.987  1.00  0.00    -0.518 OA 
HETATM   25  C   UNL     1     -12.137  11.895  69.944  1.00  0.00    -0.344 C  
HETATM   26  C   UNL     1     -11.851  15.994  72.181  1.00  0.00    -0.623 C  
ENDROOT
BRANCH   4  27
HETATM   27  C   UNL     1      -6.801  11.619  67.906  1.00  0.00    -0.074 C  
HETATM   28  O   UNL     1      -6.205  11.931  66.861  1.00  0.00    -0.154 OA 
BRANCH  27  29
HETATM   29  C   UNL     1      -5.900  11.085  69.051  1.00  0.00    -0.040 C  
BRANCH  29  30
HETATM   30  O   UNL     1      -5.701   9.652  68.985  1.00  0.00    -0.036 OA 
BRANCH  30  31
HETATM   31  C   UNL     1      -5.840   8.999  70.168  1.00  0.00    -0.030 C  
HETATM   32  O   UNL     1      -5.224   9.257  71.186  1.00  0.00    -0.029 OA 
BRANCH  31  33
HETATM   33  C   UNL     1      -6.824   7.874  70.089  1.00  0.00    -0.045 A  
HETATM   34  C   UNL     1      -8.656   5.732  70.080  1.00  0.00    -0.128 A  
HETATM   35  O   UNL     1      -8.916   4.585  67.172  1.00  0.00    -0.111 OA 
HETATM   36  C   UNL     1      -8.009   6.082  71.259  1.00  0.00    -0.113 A  
HETATM   37  C   UNL     1      -7.100   7.149  71.266  1.00  0.00    -0.069 A  
HETATM   38  O   UNL     1     -10.798   6.070  67.829  1.00  0.00    -0.281 OA 
HETATM   39  O   UNL     1      -9.028   7.007  66.453  1.00  0.00    -0.145 OA 
HETATM   40  C   UNL     1      -7.481   7.522  68.898  1.00  0.00    -0.096 A  
HETATM   41  S   UNL     1      -9.240   5.972  67.431  1.00  0.00    -0.108 S  
HETATM   42  C   UNL     1      -8.385   6.442  68.920  1.00  0.00    -0.121 A  
ENDBRANCH  31  33
ENDBRANCH  30  31
ENDBRANCH  29  30
ENDBRANCH  27  29
ENDBRANCH   4  27
TORSDOF 5
ENDMDL
MODEL       89
REMARK 921   NORMALIZED FREE ENERGY PREDICTED BY IDOCK:   -5.68 KCAL/MOL
REMARK 922        TOTAL FREE ENERGY PREDICTED BY IDOCK:   -8.06 KCAL/MOL
REMARK 923 INTER-LIGAND FREE ENERGY PREDICTED BY IDOCK:   -7.50 KCAL/MOL
REMARK 924 INTRA-LIGAND FREE ENERGY PREDICTED BY IDOCK:   -0.56 KCAL/MOL
REMARK 927      BINDING AFFINITY PREDICTED BY RF-SCORE:    0.00 PKD
ROOT
HETATM    1  C   UNL     1      -8.521  11.638  67.293  1.00  0.00    -0.156 C  
HETATM    2  C   UNL     1      -9.235  11.404  68.481  1.00  0.00    -0.174 C  
HETATM    3  C   UNL     1     -10.107  11.649  67.281  1.00  0.00    -0.221 C  
HETATM    4  C   UNL     1      -9.191  11.623  65.419  1.00  0.00    -0.065 C  
HETATM    5  C   UNL     1     -11.577  11.116  67.944  1.00  0.00    -0.328 C  
HETATM    6  O   UNL     1      -7.786  11.191  65.316  1.00  0.00    -0.353 OA 
HETATM    7  C   UNL     1      -8.813  17.178  69.180  1.00  0.00    -0.002 C  
HETATM    8  C   UNL     1      -9.916  10.790  66.202  1.00  0.00    -0.283 C  
HETATM    9  C   UNL     1      -8.404  18.293  68.252  1.00  0.00    -0.302 C  
HETATM   10  C   UNL     1      -8.711  16.050  68.450  1.00  0.00    -0.186 C  
HETATM   11  C   UNL     1      -9.917   9.256  66.234  1.00  0.00    -0.357 C  
HETATM   12  H   UNL     1      -7.367  11.180  64.465  1.00  0.00     0.000 HD 
HETATM   13  C   UNL     1     -11.185  12.070  65.484  1.00  0.00    -0.372 C  
HETATM   14  C   UNL     1     -10.617  13.759  65.629  1.00  0.00    -0.298 C  
HETATM   15  C   UNL     1      -7.338  15.439  68.248  1.00  0.00    -0.113 C  
HETATM   16  C   UNL     1      -9.690  14.301  66.969  1.00  0.00    -0.253 C  
HETATM   17  C   UNL     1     -11.185  16.172  67.728  1.00  0.00    -0.199 C  
HETATM   18  O   UNL     1      -9.925  14.028  64.389  1.00  0.00    -0.702 OA 
HETATM   19  F   UNL     1     -10.356  13.988  68.185  1.00  0.00    -0.220 F  
HETATM   20  C   UNL     1      -8.313  13.411  67.082  1.00  0.00    -0.149 C  
HETATM   21  C   UNL     1      -9.696  15.860  67.268  1.00  0.00    -0.224 C  
HETATM   22  C   UNL     1      -9.377  17.010  66.320  1.00  0.00    -0.276 C  
HETATM   23  H   UNL     1      -9.623  14.925  64.467  1.00  0.00     0.000 HD 
HETATM   24  O   UNL     1      -7.794  19.268  68.665  1.00  0.00    -0.338 OA 
HETATM   25  C   UNL     1      -7.426  13.922  68.233  1.00  0.00    -0.118 C  
HETATM   26  C   UNL     1      -8.824  18.152  66.804  1.00  0.00    -0.273 C  
ENDROOT
BRANCH   4  27
HETATM   27  C   UNL     1      -9.542  10.788  63.943  1.00  0.00    -0.293 C  
HETATM   28  O   UNL     1     -10.674  10.633  63.454  1.00  0.00     0.024 OA 
BRANCH  27  29
HETATM   29  C   UNL     1      -8.368  10.235  63.094  1.00  0.00    -0.167 C  
BRANCH  29  30
HETATM   30  O   UNL     1      -8.428   8.799  62.921  1.00  0.00    -0.194 OA 
BRANCH  30  31
HETATM   31  C   UNL     1      -7.299   8.131  63.272  1.00  0.00    -0.103 C  
HETATM   32  O   UNL     1      -6.307   8.022  62.574  1.00  0.00    -0.083 OA 
BRANCH  31  33
HETATM   33  C   UNL     1      -7.405   7.491  64.620  1.00  0.00    -0.078 A  
HETATM   34  C   UNL     1      -7.684   6.181  67.100  1.00  0.00    -0.101 A  
HETATM   35  O   UNL     1      -7.288   8.247  69.428  1.00  0.00    -0.071 OA 
HETATM   36  C   UNL     1      -8.270   5.639  65.964  1.00  0.00    -0.113 A  
HETATM   37  C   UNL     1      -8.131   6.287  64.729  1.00  0.00    -0.127 A  
HETATM   38  O   UNL     1      -5.292   6.826  69.007  1.00  0.00    -0.012 OA 
HETATM   39  O   UNL     1      -5.314   9.070  68.079  1.00  0.00    -0.034 OA 
HETATM   40  C   UNL     1      -6.809   8.037  65.769  1.00  0.00    -0.056 A  
HETATM   41  S   UNL     1      -6.223   8.026  68.472  1.00  0.00    -0.046 S  
HETATM   42  C   UNL     1      -6.970   7.366  66.997  1.00  0.00    -0.082 A  
ENDBRANCH  31  33
ENDBRANCH  30  31
ENDBRANCH  29  30
ENDBRANCH  27  29
ENDBRANCH   4  27
TORSDOF 5
ENDMDL
MODEL       90
REMARK 921   NORMALIZED FREE ENERGY PREDICTED BY IDOCK:   -5.68 KCAL/MOL
REMARK 922        TOTAL FREE ENERGY PREDICTED BY IDOCK:   -8.05 KCAL/MOL
REMARK 923 INTER-LIGAND FREE ENERGY PREDICTED BY IDOCK:   -8.73 KCAL/MOL
REMARK 924 INTRA-LIGAND FREE ENERGY PREDICTED BY IDOCK:    0.68 KCAL/MOL
REMARK 927      BINDING AFFINITY PREDICTED BY RF-SCORE:    0.00 PKD
ROOT
HETATM    1  C   UNL     1      -6.383   7.444  67.475  1.00  0.00    -0.052 C  
HETATM    2  C   UNL     1      -6.277   6.043  67.477  1.00  0.00    -0.029 C  
HETATM    3  C   UNL     1      -7.383   6.572  66.607  1.00  0.00    -0.078 C  
HETATM    4  C   UNL     1      -7.396   8.611  66.222  1.00  0.00    -0.086 C  
HETATM    5  C   UNL     1      -7.706   5.147  65.741  1.00  0.00    -0.091 C  
HETATM    6  O   UNL     1      -6.246   9.429  66.646  1.00  0.00    -0.063 OA 
HETATM    7  C   UNL     1      -9.898   6.360  72.037  1.00  0.00    -0.169 C  
HETATM    8  C   UNL     1      -7.002   7.469  65.612  1.00  0.00    -0.060 C  
HETATM    9  C   UNL     1     -10.738   7.478  72.600  1.00  0.00    -0.303 C  
HETATM   10  C   UNL     1      -9.268   6.888  70.969  1.00  0.00    -0.156 C  
HETATM   11  C   UNL     1      -5.899   7.267  64.564  1.00  0.00    -0.037 C  
HETATM   12  H   UNL     1      -6.252  10.362  66.470  1.00  0.00     0.000 HD 
HETATM   13  C   UNL     1      -8.937   7.498  65.467  1.00  0.00     0.056 C  
HETATM   14  C   UNL     1      -9.738   7.887  67.017  1.00  0.00    -0.206 C  
HETATM   15  C   UNL     1      -8.042   7.751  71.206  1.00  0.00    -0.096 C  
HETATM   16  C   UNL     1      -9.112   7.363  68.528  1.00  0.00    -0.136 C  
HETATM   17  C   UNL     1     -11.130   6.119  69.359  1.00  0.00    -0.479 C  
HETATM   18  O   UNL     1      -9.898   9.323  67.004  1.00  0.00    -0.171 OA 
HETATM   19  F   UNL     1      -8.911   5.956  68.514  1.00  0.00    -0.112 F  
HETATM   20  C   UNL     1      -7.583   7.936  68.720  1.00  0.00    -0.100 C  
HETATM   21  C   UNL     1     -10.129   7.291  69.745  1.00  0.00    -0.196 C  
HETATM   22  C   UNL     1     -11.055   8.379  70.274  1.00  0.00    -0.216 C  
HETATM   23  H   UNL     1     -10.324   9.530  67.827  1.00  0.00     0.000 HD 
HETATM   24  O   UNL     1     -10.917   7.589  73.804  1.00  0.00    -0.266 OA 
HETATM   25  C   UNL     1      -7.022   7.540  70.099  1.00  0.00    -0.059 C  
HETATM   26  C   UNL     1     -11.367   8.419  71.595  1.00  0.00    -0.349 C  
ENDROOT
BRANCH   4  27
HETATM   27  C   UNL     1      -7.498   9.535  64.761  1.00  0.00    -0.112 C  
HETATM   28  O   UNL     1      -6.675  10.390  64.389  1.00  0.00    -0.099 OA 
BRANCH  27  29
HETATM   29  C   UNL     1      -8.658   9.253  63.771  1.00  0.00    -0.192 C  
BRANCH  29  30
HETATM   30  O   UNL     1      -9.811  10.099  64.003  1.00  0.00    -0.290 OA 
BRANCH  30  31
HETATM   31  C   UNL     1      -9.799  11.280  63.332  1.00  0.00    -0.385 C  
HETATM   32  O   UNL     1      -9.138  11.512  62.336  1.00  0.00    -0.289 OA 
BRANCH  31  33
HETATM   33  C   UNL     1     -10.670  12.313  63.975  1.00  0.00    -0.438 A  
HETATM   34  C   UNL     1     -12.422  14.168  65.172  1.00  0.00    -0.453 A  
HETATM   35  O   UNL     1     -11.257  17.064  64.858  1.00  0.00    -0.598 OA 
HETATM   36  C   UNL     1     -12.905  12.937  64.749  1.00  0.00    -0.359 A  
HETATM   37  C   UNL     1     -12.035  12.011  64.156  1.00  0.00    -0.461 A  
HETATM   38  O   UNL     1     -10.900  16.086  67.115  1.00  0.00    -0.310 OA 
HETATM   39  O   UNL     1      -9.055  16.025  65.537  1.00  0.00    -0.320 OA 
HETATM   40  C   UNL     1     -10.181  13.557  64.406  1.00  0.00    -0.194 A  
HETATM   41  S   UNL     1     -10.493  16.052  65.557  1.00  0.00    -0.386 S  
HETATM   42  C   UNL     1     -11.080  14.469  64.993  1.00  0.00    -0.387 A  
ENDBRANCH  31  33
ENDBRANCH  30  31
ENDBRANCH  29  30
ENDBRANCH  27  29
ENDBRANCH   4  27
TORSDOF 5
ENDMDL
MODEL       91
REMARK 921   NORMALIZED FREE ENERGY PREDICTED BY IDOCK:   -5.67 KCAL/MOL
REMARK 922        TOTAL FREE ENERGY PREDICTED BY IDOCK:   -8.04 KCAL/MOL
REMARK 923 INTER-LIGAND FREE ENERGY PREDICTED BY IDOCK:   -8.31 KCAL/MOL
REMARK 924 INTRA-LIGAND FREE ENERGY PREDICTED BY IDOCK:    0.27 KCAL/MOL
REMARK 927      BINDING AFFINITY PREDICTED BY RF-SCORE:    0.00 PKD
ROOT
HETATM    1  C   UNL     1     -11.198   7.840  69.426  1.00  0.00     0.151 C  
HETATM    2  C   UNL     1     -11.385   7.324  70.720  1.00  0.00    -0.312 C  
HETATM    3  C   UNL     1     -10.206   8.249  70.594  1.00  0.00    -0.214 C  
HETATM    4  C   UNL     1     -10.056   9.364  68.850  1.00  0.00    -0.190 C  
HETATM    5  C   UNL     1      -9.921   8.497  72.250  1.00  0.00    -0.385 C  
HETATM    6  O   UNL     1     -11.178   9.357  67.895  1.00  0.00    -0.509 OA 
HETATM    7  C   UNL     1      -7.993   2.970  68.836  1.00  0.00    -0.065 C  
HETATM    8  C   UNL     1     -10.483   9.530  70.124  1.00  0.00    -0.299 C  
HETATM    9  C   UNL     1      -7.121   2.807  67.617  1.00  0.00    -0.049 C  
HETATM   10  C   UNL     1      -8.536   4.199  68.726  1.00  0.00    -0.098 C  
HETATM   11  C   UNL     1     -11.539  10.502  70.667  1.00  0.00    -0.445 C  
HETATM   12  H   UNL     1     -11.109   9.867  67.097  1.00  0.00     0.000 HD 
HETATM   13  C   UNL     1      -8.545   9.540  70.216  1.00  0.00    -0.258 C  
HETATM   14  C   UNL     1      -7.804   8.195  69.301  1.00  0.00    -0.110 C  
HETATM   15  C   UNL     1      -9.720   4.387  67.797  1.00  0.00    -0.191 C  
HETATM   16  C   UNL     1      -8.537   6.646  69.198  1.00  0.00    -0.130 C  
HETATM   17  C   UNL     1      -6.639   5.272  70.106  1.00  0.00    -0.039 C  
HETATM   18  O   UNL     1      -7.561   8.732  67.981  1.00  0.00    -0.095 OA 
HETATM   19  F   UNL     1      -8.817   6.148  70.500  1.00  0.00    -0.138 F  
HETATM   20  C   UNL     1     -10.038   6.788  68.544  1.00  0.00    -0.166 C  
HETATM   21  C   UNL     1      -7.590   5.422  68.842  1.00  0.00    -0.079 C  
HETATM   22  C   UNL     1      -6.632   5.273  67.667  1.00  0.00    -0.053 C  
HETATM   23  H   UNL     1      -7.168   8.017  67.495  1.00  0.00     0.000 HD 
HETATM   24  O   UNL     1      -6.998   1.722  67.068  1.00  0.00    -0.038 OA 
HETATM   25  C   UNL     1     -10.692   5.403  68.374  1.00  0.00    -0.071 C  
HETATM   26  C   UNL     1      -6.387   4.044  67.144  1.00  0.00    -0.040 C  
ENDROOT
BRANCH   4  27
HETATM   27  C   UNL     1      -9.826  11.053  68.546  1.00  0.00    -0.192 C  
HETATM   28  O   UNL     1      -8.761  11.676  68.701  1.00  0.00    -0.153 OA 
BRANCH  27  29
HETATM   29  C   UNL     1     -11.002  11.881  67.964  1.00  0.00    -0.224 C  
BRANCH  29  30
HETATM   30  O   UNL     1     -10.565  12.884  67.014  1.00  0.00    -0.250 OA 
BRANCH  30  31
HETATM   31  C   UNL     1     -11.095  14.120  67.201  1.00  0.00    -0.307 C  
HETATM   32  O   UNL     1     -12.280  14.358  67.343  1.00  0.00    -0.364 OA 
BRANCH  31  33
HETATM   33  C   UNL     1     -10.058  15.198  67.178  1.00  0.00    -0.239 A  
HETATM   34  C   UNL     1      -8.004  17.128  67.119  1.00  0.00    -0.216 A  
HETATM   35  O   UNL     1      -8.999  19.761  68.504  1.00  0.00    -0.320 OA 
HETATM   36  C   UNL     1      -7.686  15.779  67.026  1.00  0.00    -0.267 A  
HETATM   37  C   UNL     1      -8.706  14.818  67.052  1.00  0.00    -0.258 A  
HETATM   38  O   UNL     1      -9.040  19.865  66.020  1.00  0.00    -0.374 OA 
HETATM   39  O   UNL     1     -11.124  19.404  67.181  1.00  0.00    -0.445 OA 
HETATM   40  C   UNL     1     -10.379  16.562  67.268  1.00  0.00    -0.296 A  
HETATM   41  S   UNL     1      -9.704  19.243  67.350  1.00  0.00    -0.338 S  
HETATM   42  C   UNL     1      -9.333  17.506  67.244  1.00  0.00    -0.244 A  
ENDBRANCH  31  33
ENDBRANCH  30  31
ENDBRANCH  29  30
ENDBRANCH  27  29
ENDBRANCH   4  27
TORSDOF 5
ENDMDL
MODEL       92
REMARK 921   NORMALIZED FREE ENERGY PREDICTED BY IDOCK:   -5.67 KCAL/MOL
REMARK 922        TOTAL FREE ENERGY PREDICTED BY IDOCK:   -8.04 KCAL/MOL
REMARK 923 INTER-LIGAND FREE ENERGY PREDICTED BY IDOCK:   -8.18 KCAL/MOL
REMARK 924 INTRA-LIGAND FREE ENERGY PREDICTED BY IDOCK:    0.14 KCAL/MOL
REMARK 927      BINDING AFFINITY PREDICTED BY RF-SCORE:    0.00 PKD
ROOT
HETATM    1  C   UNL     1      -9.902   7.735  68.141  1.00  0.00    -0.190 C  
HETATM    2  C   UNL     1      -8.959   7.161  69.010  1.00  0.00    -0.134 C  
HETATM    3  C   UNL     1      -8.377   8.159  68.047  1.00  0.00    -0.129 C  
HETATM    4  C   UNL     1      -9.710   9.345  66.988  1.00  0.00    -0.178 C  
HETATM    5  C   UNL     1      -6.868   8.361  68.799  1.00  0.00    -0.062 C  
HETATM    6  O   UNL     1     -11.140   9.306  67.338  1.00  0.00    -0.410 OA 
HETATM    7  C   UNL     1      -8.487   3.090  64.861  1.00  0.00    -0.096 C  
HETATM    8  C   UNL     1      -8.926   9.438  68.087  1.00  0.00    -0.128 C  
HETATM    9  C   UNL     1      -8.966   3.025  63.433  1.00  0.00    -0.091 C  
HETATM   10  C   UNL     1      -8.899   4.287  65.322  1.00  0.00    -0.131 C  
HETATM   11  C   UNL     1      -9.107  10.324  69.327  1.00  0.00    -0.206 C  
HETATM   12  H   UNL     1     -11.750   9.849  66.853  1.00  0.00     0.000 HD 
HETATM   13  C   UNL     1      -7.719   9.560  66.573  1.00  0.00    -0.097 C  
HETATM   14  C   UNL     1      -8.023   8.296  65.345  1.00  0.00    -0.127 C  
HETATM   15  C   UNL     1     -10.345   4.439  65.753  1.00  0.00    -0.246 C  
HETATM   16  C   UNL     1      -8.527   6.711  65.770  1.00  0.00    -0.148 C  
HETATM   17  C   UNL     1      -6.675   5.420  64.667  1.00  0.00    -0.047 C  
HETATM   18  O   UNL     1      -8.955   8.895  64.417  1.00  0.00    -0.416 OA 
HETATM   19  F   UNL     1      -7.633   6.150  66.721  1.00  0.00    -0.090 F  
HETATM   20  C   UNL     1      -9.936   6.788  66.614  1.00  0.00    -0.207 C  
HETATM   21  C   UNL     1      -8.258   5.560  64.710  1.00  0.00    -0.133 C  
HETATM   22  C   UNL     1      -8.652   5.512  63.239  1.00  0.00     0.038 C  
HETATM   23  H   UNL     1      -9.117   8.223  63.765  1.00  0.00     0.000 HD 
HETATM   24  O   UNL     1      -9.335   1.970  62.938  1.00  0.00    -0.090 OA 
HETATM   25  C   UNL     1     -10.449   5.374  66.947  1.00  0.00    -0.337 C  
HETATM   26  C   UNL     1      -8.927   4.320  62.650  1.00  0.00    -0.115 C  
ENDROOT
BRANCH   4  27
HETATM   27  C   UNL     1      -9.830  11.055  66.743  1.00  0.00    -0.197 C  
HETATM   28  O   UNL     1      -9.020  11.751  66.106  1.00  0.00    -0.201 OA 
BRANCH  27  29
HETATM   29  C   UNL     1     -11.073  11.808  67.284  1.00  0.00    -0.287 C  
BRANCH  29  30
HETATM   30  O   UNL     1     -11.198  13.146  66.743  1.00  0.00    -0.282 OA 
BRANCH  30  31
HETATM   31  C   UNL     1     -11.389  14.122  67.667  1.00  0.00    -0.319 C  
HETATM   32  O   UNL     1     -12.399  14.267  68.332  1.00  0.00    -0.222 OA 
BRANCH  31  33
HETATM   33  C   UNL     1     -10.223  15.054  67.767  1.00  0.00    -0.236 A  
HETATM   34  C   UNL     1      -7.956  16.708  68.028  1.00  0.00    -0.173 A  
HETATM   35  O   UNL     1      -8.807  19.712  67.716  1.00  0.00    -0.309 OA 
HETATM   36  C   UNL     1      -7.951  15.437  68.588  1.00  0.00    -0.149 A  
HETATM   37  C   UNL     1      -9.076  14.612  68.457  1.00  0.00    -0.188 A  
HETATM   38  O   UNL     1      -7.759  18.756  65.675  1.00  0.00    -0.482 OA 
HETATM   39  O   UNL     1     -10.182  18.899  65.757  1.00  0.00    -0.531 OA 
HETATM   40  C   UNL     1     -10.227  16.338  67.198  1.00  0.00    -0.276 A  
HETATM   41  S   UNL     1      -9.051  18.778  66.637  1.00  0.00    -0.328 S  
HETATM   42  C   UNL     1      -9.083  17.147  67.350  1.00  0.00    -0.224 A  
ENDBRANCH  31  33
ENDBRANCH  30  31
ENDBRANCH  29  30
ENDBRANCH  27  29
ENDBRANCH   4  27
TORSDOF 5
ENDMDL
MODEL       93
REMARK 921   NORMALIZED FREE ENERGY PREDICTED BY IDOCK:   -5.66 KCAL/MOL
REMARK 922        TOTAL FREE ENERGY PREDICTED BY IDOCK:   -8.03 KCAL/MOL
REMARK 923 INTER-LIGAND FREE ENERGY PREDICTED BY IDOCK:   -7.79 KCAL/MOL
REMARK 924 INTRA-LIGAND FREE ENERGY PREDICTED BY IDOCK:   -0.24 KCAL/MOL
REMARK 927      BINDING AFFINITY PREDICTED BY RF-SCORE:    0.00 PKD
ROOT
HETATM    1  C   UNL     1     -10.418  11.133  67.951  1.00  0.00    -0.220 C  
HETATM    2  C   UNL     1     -11.426  11.299  66.987  1.00  0.00    -0.177 C  
HETATM    3  C   UNL     1     -10.256  12.228  66.816  1.00  0.00    -0.229 C  
HETATM    4  C   UNL     1      -8.552  11.824  67.929  1.00  0.00    -0.156 C  
HETATM    5  C   UNL     1     -10.610  12.766  65.244  1.00  0.00    -0.312 C  
HETATM    6  O   UNL     1      -8.474  10.566  68.691  1.00  0.00    -0.122 OA 
HETATM    7  C   UNL     1     -13.671  15.061  70.837  1.00  0.00    -0.319 C  
HETATM    8  C   UNL     1      -9.011  11.621  66.671  1.00  0.00    -0.189 C  
HETATM    9  C   UNL     1     -13.116  15.702  72.083  1.00  0.00    -0.458 C  
HETATM   10  C   UNL     1     -12.681  14.277  70.366  1.00  0.00    -0.355 C  
HETATM   11  C   UNL     1      -8.635  10.517  65.675  1.00  0.00    -0.182 C  
HETATM   12  H   UNL     1      -7.695  10.381  69.200  1.00  0.00     0.000 HD 
HETATM   13  C   UNL     1      -8.540  13.502  66.759  1.00  0.00    -0.043 C  
HETATM   14  C   UNL     1      -9.183  14.305  68.222  1.00  0.00    -0.197 C  
HETATM   15  C   UNL     1     -12.457  12.925  71.016  1.00  0.00    -0.374 C  
HETATM   16  C   UNL     1     -10.701  13.885  68.904  1.00  0.00    -0.236 C  
HETATM   17  C   UNL     1     -11.782  16.152  68.839  1.00  0.00    -0.250 C  
HETATM   18  O   UNL     1      -8.132  14.185  69.206  1.00  0.00    -0.343 OA 
HETATM   19  F   UNL     1     -11.721  13.959  67.916  1.00  0.00    -0.308 F  
HETATM   20  C   UNL     1     -10.706  12.289  69.297  1.00  0.00    -0.011 C  
HETATM   21  C   UNL     1     -11.401  14.968  69.829  1.00  0.00    -0.310 C  
HETATM   22  C   UNL     1     -10.829  15.698  71.038  1.00  0.00    -0.168 C  
HETATM   23  H   UNL     1      -8.473  14.611  69.982  1.00  0.00     0.000 HD 
HETATM   24  O   UNL     1     -13.830  15.929  73.048  1.00  0.00    -0.592 OA 
HETATM   25  C   UNL     1     -12.032  11.900  69.978  1.00  0.00    -0.409 C  
HETATM   26  C   UNL     1     -11.650  16.076  72.052  1.00  0.00    -0.512 C  
ENDROOT
BRANCH   4  27
HETATM   27  C   UNL     1      -6.881  11.656  67.508  1.00  0.00    -0.104 C  
HETATM   28  O   UNL     1      -6.229  12.454  66.812  1.00  0.00    -0.178 OA 
BRANCH  27  29
HETATM   29  C   UNL     1      -6.075  10.463  68.085  1.00  0.00    -0.044 C  
BRANCH  29  30
HETATM   30  O   UNL     1      -5.865   9.408  67.116  1.00  0.00    -0.044 OA 
BRANCH  30  31
HETATM   31  C   UNL     1      -6.265   8.173  67.517  1.00  0.00    -0.052 C  
HETATM   32  O   UNL     1      -6.245   7.771  68.666  1.00  0.00    -0.034 OA 
BRANCH  31  33
HETATM   33  C   UNL     1      -6.711   7.316  66.375  1.00  0.00    -0.060 A  
HETATM   34  C   UNL     1      -7.495   5.797  64.133  1.00  0.00    -0.072 A  
HETATM   35  O   UNL     1      -9.860   3.895  64.930  1.00  0.00    -0.178 OA 
HETATM   36  C   UNL     1      -6.841   7.009  63.951  1.00  0.00    -0.051 A  
HETATM   37  C   UNL     1      -6.447   7.764  65.064  1.00  0.00    -0.044 A  
HETATM   38  O   UNL     1      -7.656   2.751  64.817  1.00  0.00    -0.073 OA 
HETATM   39  O   UNL     1      -8.492   3.409  67.000  1.00  0.00    -0.100 OA 
HETATM   40  C   UNL     1      -7.370   6.089  66.559  1.00  0.00    -0.081 A  
HETATM   41  S   UNL     1      -8.589   3.792  65.617  1.00  0.00    -0.115 S  
HETATM   42  C   UNL     1      -7.758   5.354  65.421  1.00  0.00    -0.092 A  
ENDBRANCH  31  33
ENDBRANCH  30  31
ENDBRANCH  29  30
ENDBRANCH  27  29
ENDBRANCH   4  27
TORSDOF 5
ENDMDL
MODEL       94
REMARK 921   NORMALIZED FREE ENERGY PREDICTED BY IDOCK:   -5.61 KCAL/MOL
REMARK 922        TOTAL FREE ENERGY PREDICTED BY IDOCK:   -7.96 KCAL/MOL
REMARK 923 INTER-LIGAND FREE ENERGY PREDICTED BY IDOCK:   -8.03 KCAL/MOL
REMARK 924 INTRA-LIGAND FREE ENERGY PREDICTED BY IDOCK:    0.07 KCAL/MOL
REMARK 927      BINDING AFFINITY PREDICTED BY RF-SCORE:    0.00 PKD
ROOT
HETATM    1  C   UNL     1      -9.742  14.492  69.387  1.00  0.00     0.093 C  
HETATM    2  C   UNL     1     -10.459  15.112  70.425  1.00  0.00    -0.107 C  
HETATM    3  C   UNL     1     -11.220  15.008  69.133  1.00  0.00    -0.293 C  
HETATM    4  C   UNL     1     -10.426  13.782  67.659  1.00  0.00    -0.242 C  
HETATM    5  C   UNL     1     -12.764  15.375  69.738  1.00  0.00    -0.034 C  
HETATM    6  O   UNL     1      -9.271  12.928  67.981  1.00  0.00    -0.199 OA 
HETATM    7  C   UNL     1      -7.992  19.998  68.414  1.00  0.00    -0.174 C  
HETATM    8  C   UNL     1     -11.378  13.723  68.619  1.00  0.00    -0.321 C  
HETATM    9  C   UNL     1      -7.240  20.318  67.147  1.00  0.00    -0.285 C  
HETATM   10  C   UNL     1      -8.319  18.695  68.317  1.00  0.00    -0.350 C  
HETATM   11  C   UNL     1     -11.923  12.495  69.361  1.00  0.00    -0.315 C  
HETATM   12  H   UNL     1      -8.907  12.368  67.306  1.00  0.00     0.000 HD 
HETATM   13  C   UNL     1     -12.129  14.822  67.207  1.00  0.00    -0.120 C  
HETATM   14  C   UNL     1     -10.994  16.078  66.634  1.00  0.00    -0.092 C  
HETATM   15  C   UNL     1      -7.258  17.657  68.631  1.00  0.00    -0.255 C  
HETATM   16  C   UNL     1      -9.897  16.871  67.691  1.00  0.00    -0.259 C  
HETATM   17  C   UNL     1     -10.607  19.242  67.258  1.00  0.00    -0.590 C  
HETATM   18  O   UNL     1     -10.287  15.467  65.532  1.00  0.00    -0.336 OA 
HETATM   19  F   UNL     1     -10.596  17.426  68.797  1.00  0.00    -0.321 F  
HETATM   20  C   UNL     1      -8.923  15.759  68.410  1.00  0.00    -0.187 C  
HETATM   21  C   UNL     1      -9.340  18.283  67.226  1.00  0.00    -0.256 C  
HETATM   22  C   UNL     1      -8.660  18.650  65.913  1.00  0.00     0.154 C  
HETATM   23  H   UNL     1      -9.684  16.135  65.228  1.00  0.00     0.000 HD 
HETATM   24  O   UNL     1      -6.311  21.112  67.146  1.00  0.00    -0.287 OA 
HETATM   25  C   UNL     1      -7.881  16.449  69.310  1.00  0.00    -0.153 C  
HETATM   26  C   UNL     1      -7.723  19.634  65.887  1.00  0.00    -0.307 C  
ENDROOT
BRANCH   4  27
HETATM   27  C   UNL     1     -11.093  12.499  66.706  1.00  0.00    -0.279 C  
HETATM   28  O   UNL     1     -12.209  12.511  66.160  1.00  0.00    -0.609 OA 
BRANCH  27  29
HETATM   29  C   UNL     1     -10.229  11.241  66.427  1.00  0.00    -0.230 C  
BRANCH  29  30
HETATM   30  O   UNL     1      -9.336  11.413  65.300  1.00  0.00    -0.217 OA 
BRANCH  30  31
HETATM   31  C   UNL     1      -9.557  10.570  64.259  1.00  0.00    -0.307 C  
HETATM   32  O   UNL     1     -10.511  10.627  63.505  1.00  0.00    -0.185 OA 
BRANCH  31  33
HETATM   33  C   UNL     1      -8.508   9.510  64.147  1.00  0.00    -0.194 A  
HETATM   34  C   UNL     1      -6.479   7.580  63.820  1.00  0.00    -0.053 A  
HETATM   35  O   UNL     1      -7.351   4.898  65.194  1.00  0.00    -0.069 OA 
HETATM   36  C   UNL     1      -6.568   8.645  62.933  1.00  0.00    -0.091 A  
HETATM   37  C   UNL     1      -7.574   9.607  63.095  1.00  0.00    -0.117 A  
HETATM   38  O   UNL     1      -5.740   6.229  66.540  1.00  0.00    -0.015 OA 
HETATM   39  O   UNL     1      -8.097   6.368  67.111  1.00  0.00    -0.111 OA 
HETATM   40  C   UNL     1      -8.415   8.435  65.047  1.00  0.00    -0.160 A  
HETATM   41  S   UNL     1      -7.245   6.109  65.980  1.00  0.00    -0.077 S  
HETATM   42  C   UNL     1      -7.396   7.481  64.855  1.00  0.00    -0.079 A  
ENDBRANCH  31  33
ENDBRANCH  30  31
ENDBRANCH  29  30
ENDBRANCH  27  29
ENDBRANCH   4  27
TORSDOF 5
ENDMDL
MODEL       95
REMARK 921   NORMALIZED FREE ENERGY PREDICTED BY IDOCK:   -5.59 KCAL/MOL
REMARK 922        TOTAL FREE ENERGY PREDICTED BY IDOCK:   -7.93 KCAL/MOL
REMARK 923 INTER-LIGAND FREE ENERGY PREDICTED BY IDOCK:   -7.73 KCAL/MOL
REMARK 924 INTRA-LIGAND FREE ENERGY PREDICTED BY IDOCK:   -0.21 KCAL/MOL
REMARK 927      BINDING AFFINITY PREDICTED BY RF-SCORE:    0.00 PKD
ROOT
HETATM    1  C   UNL     1     -10.709  11.234  67.796  1.00  0.00    -0.265 C  
HETATM    2  C   UNL     1     -11.777  11.415  66.900  1.00  0.00     0.062 C  
HETATM    3  C   UNL     1     -10.637  12.375  66.696  1.00  0.00    -0.256 C  
HETATM    4  C   UNL     1      -8.863  11.966  67.691  1.00  0.00    -0.169 C  
HETATM    5  C   UNL     1     -11.094  12.964  65.170  1.00  0.00    -0.321 C  
HETATM    6  O   UNL     1      -8.715  10.683  68.398  1.00  0.00    -0.128 OA 
HETATM    7  C   UNL     1     -13.863  14.979  71.017  1.00  0.00    -0.379 C  
HETATM    8  C   UNL     1      -9.391  11.801  66.456  1.00  0.00    -0.217 C  
HETATM    9  C   UNL     1     -13.248  15.584  72.253  1.00  0.00    -0.448 C  
HETATM   10  C   UNL     1     -12.887  14.235  70.460  1.00  0.00    -0.336 C  
HETATM   11  C   UNL     1      -9.053  10.744  65.397  1.00  0.00    -0.216 C  
HETATM   12  H   UNL     1      -7.903  10.496  68.853  1.00  0.00     0.000 HD 
HETATM   13  C   UNL     1      -8.953  13.687  66.589  1.00  0.00    -0.138 C  
HETATM   14  C   UNL     1      -9.524  14.421  68.117  1.00  0.00    -0.204 C  
HETATM   15  C   UNL     1     -12.598  12.865  71.042  1.00  0.00    -0.376 C  
HETATM   16  C   UNL     1     -10.990  13.942  68.870  1.00  0.00    -0.263 C  
HETATM   17  C   UNL     1     -12.118  16.185  68.956  1.00  0.00     0.090 C  
HETATM   18  O   UNL     1      -8.414  14.286  69.032  1.00  0.00    -0.323 OA 
HETATM   19  F   UNL     1     -12.068  14.030  67.947  1.00  0.00    -0.372 F  
HETATM   20  C   UNL     1     -10.940  12.333  69.201  1.00  0.00    -0.217 C  
HETATM   21  C   UNL     1     -11.656  14.974  69.876  1.00  0.00    -0.328 C  
HETATM   22  C   UNL     1     -11.027  15.670  71.077  1.00  0.00    -0.285 C  
HETATM   23  H   UNL     1      -8.717  14.676  69.843  1.00  0.00     0.000 HD 
HETATM   24  O   UNL     1     -13.907  15.759  73.267  1.00  0.00    -0.432 OA 
HETATM   25  C   UNL     1     -12.216  11.889  69.942  1.00  0.00    -0.269 C  
HETATM   26  C   UNL     1     -11.793  15.991  72.151  1.00  0.00    -0.623 C  
ENDROOT
BRANCH   4  27
HETATM   27  C   UNL     1      -7.216  11.852  67.167  1.00  0.00    -0.144 C  
HETATM   28  O   UNL     1      -6.623  12.687  66.462  1.00  0.00     0.344 OA 
BRANCH  27  29
HETATM   29  C   UNL     1      -6.352  10.660  67.655  1.00  0.00    -0.056 C  
BRANCH  29  30
HETATM   30  O   UNL     1      -6.603   9.443  66.909  1.00  0.00    -0.066 OA 
BRANCH  30  31
HETATM   31  C   UNL     1      -6.355   8.294  67.588  1.00  0.00    -0.053 C  
HETATM   32  O   UNL     1      -5.385   7.578  67.419  1.00  0.00    -0.024 OA 
BRANCH  31  33
HETATM   33  C   UNL     1      -7.437   7.959  68.565  1.00  0.00    -0.096 A  
HETATM   34  C   UNL     1      -9.562   7.299  70.296  1.00  0.00    -0.165 A  
HETATM   35  O   UNL     1      -9.134   8.707  73.067  1.00  0.00    -0.293 OA 
HETATM   36  C   UNL     1      -9.742   7.220  68.921  1.00  0.00    -0.148 A  
HETATM   37  C   UNL     1      -8.686   7.545  68.059  1.00  0.00    -0.121 A  
HETATM   38  O   UNL     1      -8.511   6.300  73.065  1.00  0.00    -0.118 OA 
HETATM   39  O   UNL     1      -6.734   7.943  72.847  1.00  0.00    -0.066 OA 
HETATM   40  C   UNL     1      -7.254   8.035  69.956  1.00  0.00    -0.061 A  
HETATM   41  S   UNL     1      -8.136   7.785  72.565  1.00  0.00    -0.133 S  
HETATM   42  C   UNL     1      -8.335   7.706  70.798  1.00  0.00    -0.117 A  
ENDBRANCH  31  33
ENDBRANCH  30  31
ENDBRANCH  29  30
ENDBRANCH  27  29
ENDBRANCH   4  27
TORSDOF 5
ENDMDL
MODEL       96
REMARK 921   NORMALIZED FREE ENERGY PREDICTED BY IDOCK:   -5.59 KCAL/MOL
REMARK 922        TOTAL FREE ENERGY PREDICTED BY IDOCK:   -7.93 KCAL/MOL
REMARK 923 INTER-LIGAND FREE ENERGY PREDICTED BY IDOCK:   -7.72 KCAL/MOL
REMARK 924 INTRA-LIGAND FREE ENERGY PREDICTED BY IDOCK:   -0.21 KCAL/MOL
REMARK 927      BINDING AFFINITY PREDICTED BY RF-SCORE:    0.00 PKD
ROOT
HETATM    1  C   UNL     1      -8.057  11.106  67.351  1.00  0.00    -0.132 C  
HETATM    2  C   UNL     1      -8.839  10.762  68.467  1.00  0.00    -0.149 C  
HETATM    3  C   UNL     1      -9.527  10.545  67.148  1.00  0.00    -0.182 C  
HETATM    4  C   UNL     1      -8.355  10.648  65.438  1.00  0.00    -0.142 C  
HETATM    5  C   UNL     1     -10.819   9.595  67.708  1.00  0.00    -0.278 C  
HETATM    6  O   UNL     1      -6.892  10.741  65.575  1.00  0.00    -0.312 OA 
HETATM    7  C   UNL     1     -10.524  16.341  68.269  1.00  0.00    -0.284 C  
HETATM    8  C   UNL     1      -8.877   9.700  66.252  1.00  0.00    -0.172 C  
HETATM    9  C   UNL     1     -10.367  17.421  67.229  1.00  0.00    -0.336 C  
HETATM   10  C   UNL     1      -9.924  15.253  67.749  1.00  0.00    -0.224 C  
HETATM   11  C   UNL     1      -8.363   8.281  66.532  1.00  0.00    -0.112 C  
HETATM   12  H   UNL     1      -6.356  10.788  64.793  1.00  0.00     0.000 HD 
HETATM   13  C   UNL     1     -10.364  10.352  65.190  1.00  0.00    -0.260 C  
HETATM   14  C   UNL     1     -10.435  12.138  65.127  1.00  0.00    -0.281 C  
HETATM   15  C   UNL     1      -8.412  15.158  67.814  1.00  0.00    -0.156 C  
HETATM   16  C   UNL     1      -9.987  13.118  66.463  1.00  0.00    -0.268 C  
HETATM   17  C   UNL     1     -12.133  14.398  66.726  1.00  0.00    -0.393 C  
HETATM   18  O   UNL     1      -9.676  12.500  63.953  1.00  0.00    -0.598 OA 
HETATM   19  F   UNL     1     -10.703  12.722  67.626  1.00  0.00    -0.211 F  
HETATM   20  C   UNL     1      -8.430  12.801  66.883  1.00  0.00    -0.106 C  
HETATM   21  C   UNL     1     -10.571  14.594  66.504  1.00  0.00    -0.300 C  
HETATM   22  C   UNL     1     -10.506  15.671  65.428  1.00  0.00    -0.435 C  
HETATM   23  H   UNL     1      -9.714  13.448  63.920  1.00  0.00     0.000 HD 
HETATM   24  O   UNL     1     -10.202  18.588  67.549  1.00  0.00    -0.346 OA 
HETATM   25  C   UNL     1      -7.977  13.719  68.034  1.00  0.00    -0.156 C  
HETATM   26  C   UNL     1     -10.463  16.981  65.784  1.00  0.00    -0.261 C  
ENDROOT
BRANCH   4  27
HETATM   27  C   UNL     1      -8.148   9.587  64.085  1.00  0.00    -0.147 C  
HETATM   28  O   UNL     1      -8.996   9.368  63.203  1.00  0.00    -0.235 OA 
BRANCH  27  29
HETATM   29  C   UNL     1      -6.779   8.887  63.880  1.00  0.00    -0.087 C  
BRANCH  29  30
HETATM   30  O   UNL     1      -6.829   7.837  62.884  1.00  0.00    -0.076 OA 
BRANCH  30  31
HETATM   31  C   UNL     1      -6.311   6.645  63.280  1.00  0.00    -0.042 C  
HETATM   32  O   UNL     1      -5.135   6.339  63.216  1.00  0.00    -0.016 OA 
BRANCH  31  33
HETATM   33  C   UNL     1      -7.359   5.703  63.782  1.00  0.00    -0.058 A  
HETATM   34  C   UNL     1      -9.392   3.929  64.598  1.00  0.00    -0.156 A  
HETATM   35  O   UNL     1      -9.715   4.067  67.716  1.00  0.00    -0.166 OA 
HETATM   36  C   UNL     1      -9.379   4.412  63.296  1.00  0.00    -0.104 A  
HETATM   37  C   UNL     1      -8.368   5.292  62.887  1.00  0.00    -0.109 A  
HETATM   38  O   UNL     1      -8.431   2.087  66.934  1.00  0.00    -0.086 OA 
HETATM   39  O   UNL     1      -7.188   4.000  67.770  1.00  0.00    -0.062 OA 
HETATM   40  C   UNL     1      -7.369   5.211  65.098  1.00  0.00    -0.068 A  
HETATM   41  S   UNL     1      -8.443   3.685  67.140  1.00  0.00    -0.105 S  
HETATM   42  C   UNL     1      -8.402   4.332  65.482  1.00  0.00    -0.110 A  
ENDBRANCH  31  33
ENDBRANCH  30  31
ENDBRANCH  29  30
ENDBRANCH  27  29
ENDBRANCH   4  27
TORSDOF 5
ENDMDL
MODEL       97
REMARK 921   NORMALIZED FREE ENERGY PREDICTED BY IDOCK:   -5.54 KCAL/MOL
REMARK 922        TOTAL FREE ENERGY PREDICTED BY IDOCK:   -7.87 KCAL/MOL
REMARK 923 INTER-LIGAND FREE ENERGY PREDICTED BY IDOCK:   -8.24 KCAL/MOL
REMARK 924 INTRA-LIGAND FREE ENERGY PREDICTED BY IDOCK:    0.37 KCAL/MOL
REMARK 927      BINDING AFFINITY PREDICTED BY RF-SCORE:    0.00 PKD
ROOT
HETATM    1  C   UNL     1     -11.282  12.026  68.069  1.00  0.00    -0.316 C  
HETATM    2  C   UNL     1     -11.848  12.146  66.788  1.00  0.00    -0.304 C  
HETATM    3  C   UNL     1     -10.365  11.900  66.782  1.00  0.00    -0.238 C  
HETATM    4  C   UNL     1      -9.490  11.327  68.574  1.00  0.00    -0.191 C  
HETATM    5  C   UNL     1     -10.198  11.500  65.139  1.00  0.00    -0.322 C  
HETATM    6  O   UNL     1     -10.353  11.005  69.724  1.00  0.00    -0.445 OA 
HETATM    7  C   UNL     1     -10.758  17.833  67.481  1.00  0.00    -0.315 C  
HETATM    8  C   UNL     1      -9.935  10.747  67.434  1.00  0.00    -0.214 C  
HETATM    9  C   UNL     1      -9.931  18.602  68.480  1.00  0.00    -0.388 C  
HETATM   10  C   UNL     1     -10.628  16.538  67.830  1.00  0.00    -0.332 C  
HETATM   11  C   UNL     1     -10.453   9.319  67.219  1.00  0.00    -0.334 C  
HETATM   12  H   UNL     1      -9.952  10.743  70.544  1.00  0.00     0.000 HD 
HETATM   13  C   UNL     1      -8.256  11.600  66.966  1.00  0.00    -0.170 C  
HETATM   14  C   UNL     1      -8.146  13.281  67.565  1.00  0.00    -0.186 C  
HETATM   15  C   UNL     1     -11.456  16.013  68.987  1.00  0.00    -0.360 C  
HETATM   16  C   UNL     1      -9.513  14.317  67.638  1.00  0.00    -0.211 C  
HETATM   17  C   UNL     1      -8.631  16.202  66.231  1.00  0.00    -0.373 C  
HETATM   18  O   UNL     1      -7.519  13.174  68.862  1.00  0.00    -0.233 OA 
HETATM   19  F   UNL     1     -10.153  14.377  66.371  1.00  0.00    -0.255 F  
HETATM   20  C   UNL     1     -10.671  13.636  68.586  1.00  0.00    -0.272 C  
HETATM   21  C   UNL     1      -9.234  15.880  67.666  1.00  0.00    -0.208 C  
HETATM   22  C   UNL     1      -8.330  16.666  68.607  1.00  0.00    -0.246 C  
HETATM   23  H   UNL     1      -7.461  14.067  69.181  1.00  0.00     0.000 HD 
HETATM   24  O   UNL     1     -10.278  19.706  68.872  1.00  0.00    -0.438 OA 
HETATM   25  C   UNL     1     -11.883  14.578  68.728  1.00  0.00    -0.350 C  
HETATM   26  C   UNL     1      -8.644  17.947  68.933  1.00  0.00    -0.122 C  
ENDROOT
BRANCH   4  27
HETATM   27  C   UNL     1      -8.443  10.018  69.010  1.00  0.00    -0.147 C  
HETATM   28  O   UNL     1      -7.535   9.552  68.300  1.00  0.00    -0.077 OA 
BRANCH  27  29
HETATM   29  C   UNL     1      -8.569   9.393  70.424  1.00  0.00    -0.230 C  
BRANCH  29  30
HETATM   30  O   UNL     1      -7.545   8.404  70.693  1.00  0.00    -0.062 OA 
BRANCH  30  31
HETATM   31  C   UNL     1      -7.368   8.104  72.006  1.00  0.00    -0.091 C  
HETATM   32  O   UNL     1      -7.481   8.894  72.925  1.00  0.00    -0.354 OA 
BRANCH  31  33
HETATM   33  C   UNL     1      -6.972   6.677  72.220  1.00  0.00    -0.068 A  
HETATM   34  C   UNL     1      -6.156   4.030  72.740  1.00  0.00    -0.016 A  
HETATM   35  O   UNL     1      -6.232   2.366  70.081  1.00  0.00    -0.023 OA 
HETATM   36  C   UNL     1      -5.761   5.054  73.591  1.00  0.00    -0.018 A  
HETATM   37  C   UNL     1      -6.168   6.370  73.336  1.00  0.00    -0.063 A  
HETATM   38  O   UNL     1      -8.182   1.958  71.568  1.00  0.00    -0.049 OA 
HETATM   39  O   UNL     1      -8.469   3.480  69.696  1.00  0.00    -0.058 OA 
HETATM   40  C   UNL     1      -7.375   5.641  71.361  1.00  0.00    -0.083 A  
HETATM   41  S   UNL     1      -7.442   2.989  70.576  1.00  0.00    -0.040 S  
HETATM   42  C   UNL     1      -6.946   4.328  71.640  1.00  0.00    -0.038 A  
ENDBRANCH  31  33
ENDBRANCH  30  31
ENDBRANCH  29  30
ENDBRANCH  27  29
ENDBRANCH   4  27
TORSDOF 5
ENDMDL
MODEL       98
REMARK 921   NORMALIZED FREE ENERGY PREDICTED BY IDOCK:   -5.54 KCAL/MOL
REMARK 922        TOTAL FREE ENERGY PREDICTED BY IDOCK:   -7.86 KCAL/MOL
REMARK 923 INTER-LIGAND FREE ENERGY PREDICTED BY IDOCK:   -7.47 KCAL/MOL
REMARK 924 INTRA-LIGAND FREE ENERGY PREDICTED BY IDOCK:   -0.40 KCAL/MOL
REMARK 927      BINDING AFFINITY PREDICTED BY RF-SCORE:    0.00 PKD
ROOT
HETATM    1  C   UNL     1      -6.440   7.514  68.095  1.00  0.00    -0.049 C  
HETATM    2  C   UNL     1      -6.596   6.226  67.554  1.00  0.00    -0.052 C  
HETATM    3  C   UNL     1      -7.632   7.213  67.093  1.00  0.00    -0.103 C  
HETATM    4  C   UNL     1      -7.287   9.216  67.512  1.00  0.00    -0.084 C  
HETATM    5  C   UNL     1      -8.262   6.309  65.801  1.00  0.00    -0.136 C  
HETATM    6  O   UNL     1      -5.984   9.620  68.066  1.00  0.00    -0.043 OA 
HETATM    7  C   UNL     1      -9.832   5.260  72.308  1.00  0.00    -0.209 C  
HETATM    8  C   UNL     1      -7.148   8.361  66.472  1.00  0.00    -0.072 C  
HETATM    9  C   UNL     1     -10.416   6.177  73.352  1.00  0.00    -0.253 C  
HETATM   10  C   UNL     1      -9.175   6.065  71.450  1.00  0.00    -0.152 C  
HETATM   11  C   UNL     1      -6.163   8.426  65.297  1.00  0.00    -0.049 C  
HETATM   12  H   UNL     1      -5.826  10.537  68.258  1.00  0.00     0.000 HD 
HETATM   13  C   UNL     1      -9.048   8.733  66.590  1.00  0.00    -0.196 C  
HETATM   14  C   UNL     1      -9.675   8.596  68.259  1.00  0.00    -0.155 C  
HETATM   15  C   UNL     1      -7.800   6.571  71.840  1.00  0.00    -0.103 C  
HETATM   16  C   UNL     1      -9.073   7.433  69.369  1.00  0.00    -0.139 C  
HETATM   17  C   UNL     1     -11.237   6.278  69.913  1.00  0.00    -0.498 C  
HETATM   18  O   UNL     1      -9.566   9.928  68.809  1.00  0.00    -0.151 OA 
HETATM   19  F   UNL     1      -9.137   6.132  68.801  1.00  0.00    -0.125 F  
HETATM   20  C   UNL     1      -7.456   7.649  69.572  1.00  0.00    -0.092 C  
HETATM   21  C   UNL     1     -10.015   7.040  70.585  1.00  0.00    -0.194 C  
HETATM   22  C   UNL     1     -10.691   7.957  71.597  1.00  0.00    -0.268 C  
HETATM   23  H   UNL     1      -9.898   9.855  69.695  1.00  0.00     0.000 HD 
HETATM   24  O   UNL     1     -10.503   5.831  74.520  1.00  0.00    -0.252 OA 
HETATM   25  C   UNL     1      -6.901   6.664  70.618  1.00  0.00    -0.062 C  
HETATM   26  C   UNL     1     -10.916   7.520  72.863  1.00  0.00    -0.434 C  
ENDROOT
BRANCH   4  27
HETATM   27  C   UNL     1      -7.298  10.645  66.532  1.00  0.00    -0.134 C  
HETATM   28  O   UNL     1      -7.924  10.784  65.467  1.00  0.00    -0.145 OA 
BRANCH  27  29
HETATM   29  C   UNL     1      -6.535  11.902  67.026  1.00  0.00    -0.136 C  
BRANCH  29  30
HETATM   30  O   UNL     1      -7.217  12.584  68.105  1.00  0.00    -0.087 OA 
BRANCH  30  31
HETATM   31  C   UNL     1      -7.880  13.713  67.742  1.00  0.00    -0.171 C  
HETATM   32  O   UNL     1      -7.359  14.709  67.275  1.00  0.00    -0.193 OA 
BRANCH  31  33
HETATM   33  C   UNL     1      -9.349  13.627  68.012  1.00  0.00    -0.208 A  
HETATM   34  C   UNL     1     -12.131  13.390  68.401  1.00  0.00    -0.270 A  
HETATM   35  O   UNL     1     -13.136  15.725  70.240  1.00  0.00    -0.311 OA 
HETATM   36  C   UNL     1     -11.538  12.811  67.287  1.00  0.00    -0.420 A  
HETATM   37  C   UNL     1     -10.155  12.925  67.092  1.00  0.00    -0.243 A  
HETATM   38  O   UNL     1     -12.878  13.558  71.432  1.00  0.00    -0.350 OA 
HETATM   39  O   UNL     1     -11.105  15.203  71.654  1.00  0.00    -0.334 OA 
HETATM   40  C   UNL     1      -9.948  14.209  69.142  1.00  0.00     0.015 A  
HETATM   41  S   UNL     1     -12.133  14.802  70.730  1.00  0.00    -0.335 S  
HETATM   42  C   UNL     1     -11.341  14.082  69.308  1.00  0.00    -0.273 A  
ENDBRANCH  31  33
ENDBRANCH  30  31
ENDBRANCH  29  30
ENDBRANCH  27  29
ENDBRANCH   4  27
TORSDOF 5
ENDMDL
MODEL       99
REMARK 921   NORMALIZED FREE ENERGY PREDICTED BY IDOCK:   -5.53 KCAL/MOL
REMARK 922        TOTAL FREE ENERGY PREDICTED BY IDOCK:   -7.85 KCAL/MOL
REMARK 923 INTER-LIGAND FREE ENERGY PREDICTED BY IDOCK:   -8.35 KCAL/MOL
REMARK 924 INTRA-LIGAND FREE ENERGY PREDICTED BY IDOCK:    0.49 KCAL/MOL
REMARK 927      BINDING AFFINITY PREDICTED BY RF-SCORE:    0.00 PKD
ROOT
HETATM    1  C   UNL     1     -10.485  11.787  65.668  1.00  0.00    -0.308 C  
HETATM    2  C   UNL     1     -11.306  10.804  66.247  1.00  0.00     0.349 C  
HETATM    3  C   UNL     1     -10.248  11.340  67.171  1.00  0.00    -0.235 C  
HETATM    4  C   UNL     1      -9.236  13.048  66.565  1.00  0.00    -0.181 C  
HETATM    5  C   UNL     1     -10.866  10.717  68.625  1.00  0.00    -0.260 C  
HETATM    6  O   UNL     1      -9.700  13.772  65.370  1.00  0.00    -0.527 OA 
HETATM    7  C   UNL     1      -7.357   7.083  64.109  1.00  0.00    -0.090 C  
HETATM    8  C   UNL     1     -10.263  12.716  67.383  1.00  0.00    -0.219 C  
HETATM    9  C   UNL     1      -5.978   7.275  63.533  1.00  0.00    -0.045 C  
HETATM   10  C   UNL     1      -7.785   8.319  64.434  1.00  0.00    -0.125 C  
HETATM   11  C   UNL     1     -11.464  13.568  67.814  1.00  0.00    -0.349 C  
HETATM   12  H   UNL     1      -9.237  14.553  65.093  1.00  0.00     0.000 HD 
HETATM   13  C   UNL     1      -8.653  12.177  68.322  1.00  0.00    -0.175 C  
HETATM   14  C   UNL     1      -7.523  11.260  67.283  1.00  0.00    -0.126 C  
HETATM   15  C   UNL     1      -8.320   9.213  63.333  1.00  0.00    -0.192 C  
HETATM   16  C   UNL     1      -8.071  10.182  66.065  1.00  0.00    -0.129 C  
HETATM   17  C   UNL     1      -6.895   8.104  66.846  1.00  0.00    -0.069 C  
HETATM   18  O   UNL     1      -6.641  12.257  66.722  1.00  0.00    -0.368 OA 
HETATM   19  F   UNL     1      -8.976   9.236  66.617  1.00  0.00    -0.136 F  
HETATM   20  C   UNL     1      -9.018  10.994  64.995  1.00  0.00    -0.137 C  
HETATM   21  C   UNL     1      -7.057   9.059  65.586  1.00  0.00    -0.081 C  
HETATM   22  C   UNL     1      -5.626   9.221  65.087  1.00  0.00    -0.053 C  
HETATM   23  H   UNL     1      -6.041  11.770  66.169  1.00  0.00     0.000 HD 
HETATM   24  O   UNL     1      -5.570   6.573  62.620  1.00  0.00    -0.022 OA 
HETATM   25  C   UNL     1      -9.467  10.066  63.850  1.00  0.00    -0.280 C  
HETATM   26  C   UNL     1      -5.126   8.351  64.172  1.00  0.00    -0.040 C  
ENDROOT
BRANCH   4  27
HETATM   27  C   UNL     1      -8.909  14.562  67.340  1.00  0.00    -0.198 C  
HETATM   28  O   UNL     1      -7.940  14.799  68.082  1.00  0.00    -0.117 OA 
BRANCH  27  29
HETATM   29  C   UNL     1      -9.840  15.770  67.053  1.00  0.00    -0.234 C  
BRANCH  29  30
HETATM   30  O   UNL     1      -9.718  16.261  65.696  1.00  0.00    -0.464 OA 
BRANCH  30  31
HETATM   31  C   UNL     1     -10.289  17.472  65.471  1.00  0.00    -0.019 C  
HETATM   32  O   UNL     1     -11.283  17.661  64.793  1.00  0.00    -0.834 OA 
BRANCH  31  33
HETATM   33  C   UNL     1      -9.538  18.591  66.122  1.00  0.00    -0.203 A  
HETATM   34  C   UNL     1      -8.249  20.761  67.376  1.00  0.00    -0.225 A  
HETATM   35  O   UNL     1      -5.287  20.951  66.360  1.00  0.00    -0.176 OA 
HETATM   36  C   UNL     1      -9.634  20.749  67.271  1.00  0.00    -0.494 A  
HETATM   37  C   UNL     1     -10.278  19.669  66.650  1.00  0.00    -0.576 A  
HETATM   38  O   UNL     1      -5.505  19.905  68.604  1.00  0.00    -0.200 OA 
HETATM   39  O   UNL     1      -5.238  18.444  66.682  1.00  0.00    -0.135 OA 
HETATM   40  C   UNL     1      -8.138  18.602  66.233  1.00  0.00    -0.267 A  
HETATM   41  S   UNL     1      -5.747  19.747  67.019  1.00  0.00    -0.171 S  
HETATM   42  C   UNL     1      -7.519  19.703  66.857  1.00  0.00    -0.235 A  
ENDBRANCH  31  33
ENDBRANCH  30  31
ENDBRANCH  29  30
ENDBRANCH  27  29
ENDBRANCH   4  27
TORSDOF 5
ENDMDL
MODEL      100
REMARK 921   NORMALIZED FREE ENERGY PREDICTED BY IDOCK:   -5.52 KCAL/MOL
REMARK 922        TOTAL FREE ENERGY PREDICTED BY IDOCK:   -7.84 KCAL/MOL
REMARK 923 INTER-LIGAND FREE ENERGY PREDICTED BY IDOCK:   -9.43 KCAL/MOL
REMARK 924 INTRA-LIGAND FREE ENERGY PREDICTED BY IDOCK:    1.59 KCAL/MOL
REMARK 927      BINDING AFFINITY PREDICTED BY RF-SCORE:    0.00 PKD
ROOT
HETATM    1  C   UNL     1     -10.308   9.761  69.222  1.00  0.00    -0.230 C  
HETATM    2  C   UNL     1      -9.184   9.859  70.060  1.00  0.00    -0.224 C  
HETATM    3  C   UNL     1      -8.903  10.183  68.619  1.00  0.00    -0.136 C  
HETATM    4  C   UNL     1     -10.538  10.447  67.368  1.00  0.00    -0.269 C  
HETATM    5  C   UNL     1      -7.378  10.899  68.830  1.00  0.00    -0.111 C  
HETATM    6  O   UNL     1     -11.889  10.495  67.953  1.00  0.00    -0.731 OA 
HETATM    7  C   UNL     1      -8.474   4.213  68.786  1.00  0.00    -0.098 C  
HETATM    8  C   UNL     1      -9.662  11.210  68.064  1.00  0.00    -0.183 C  
HETATM    9  C   UNL     1      -9.094   3.313  67.748  1.00  0.00    -0.173 C  
HETATM   10  C   UNL     1      -9.036   5.422  68.594  1.00  0.00    -0.130 C  
HETATM   11  C   UNL     1      -9.854  12.622  68.632  1.00  0.00    -0.077 C  
HETATM   12  H   UNL     1     -12.637  10.615  67.381  1.00  0.00     0.000 HD 
HETATM   13  C   UNL     1      -8.677  10.555  66.526  1.00  0.00    -0.145 C  
HETATM   14  C   UNL     1      -8.891   8.799  66.267  1.00  0.00    -0.157 C  
HETATM   15  C   UNL     1     -10.428   5.669  69.145  1.00  0.00    -0.339 C  
HETATM   16  C   UNL     1      -9.053   7.695  67.573  1.00  0.00    -0.125 C  
HETATM   17  C   UNL     1      -7.139   6.167  67.012  1.00  0.00    -0.073 C  
HETATM   18  O   UNL     1     -10.014   8.689  65.365  1.00  0.00    -0.258 OA 
HETATM   19  F   UNL     1      -7.970   7.846  68.480  1.00  0.00    -0.111 F  
HETATM   20  C   UNL     1     -10.347   8.118  68.494  1.00  0.00    -0.230 C  
HETATM   21  C   UNL     1      -8.706   6.174  67.279  1.00  0.00    -0.108 C  
HETATM   22  C   UNL     1      -9.251   5.271  66.179  1.00  0.00    -0.158 C  
HETATM   23  H   UNL     1     -10.127   7.756  65.228  1.00  0.00     0.000 HD 
HETATM   24  O   UNL     1      -9.323   2.137  67.987  1.00  0.00    -0.186 OA 
HETATM   25  C   UNL     1     -10.559   7.102  69.633  1.00  0.00    -0.249 C  
HETATM   26  C   UNL     1      -9.375   3.937  66.398  1.00  0.00    -0.192 C  
ENDROOT
BRANCH   4  27
HETATM   27  C   UNL     1     -10.987  11.703  66.263  1.00  0.00    -0.289 C  
HETATM   28  O   UNL     1     -12.119  11.865  65.777  1.00  0.00    -0.451 OA 
BRANCH  27  29
HETATM   29  C   UNL     1      -9.936  12.778  65.879  1.00  0.00    -0.266 C  
BRANCH  29  30
HETATM   30  O   UNL     1     -10.362  13.605  64.768  1.00  0.00    -0.400 OA 
BRANCH  30  31
HETATM   31  C   UNL     1     -11.015  14.743  65.118  1.00  0.00    -0.393 C  
HETATM   32  O   UNL     1     -12.206  14.941  64.964  1.00  0.00    -0.287 OA 
BRANCH  31  33
HETATM   33  C   UNL     1     -10.098  15.776  65.693  1.00  0.00    -0.401 A  
HETATM   34  C   UNL     1      -8.471  17.822  66.747  1.00  0.00    -0.269 A  
HETATM   35  O   UNL     1      -5.467  16.918  66.669  1.00  0.00    -0.272 OA 
HETATM   36  C   UNL     1      -9.722  18.133  66.229  1.00  0.00    -0.280 A  
HETATM   37  C   UNL     1     -10.534  17.117  65.707  1.00  0.00    -0.242 A  
HETATM   38  O   UNL     1      -6.511  16.718  68.917  1.00  0.00    -0.158 OA 
HETATM   39  O   UNL     1      -6.327  14.713  67.558  1.00  0.00    -0.286 OA 
HETATM   40  C   UNL     1      -8.835  15.461  66.220  1.00  0.00    -0.302 A  
HETATM   41  S   UNL     1      -6.435  16.141  67.415  1.00  0.00    -0.184 S  
HETATM   42  C   UNL     1      -8.038  16.504  66.733  1.00  0.00    -0.251 A  
ENDBRANCH  31  33
ENDBRANCH  30  31
ENDBRANCH  29  30
ENDBRANCH  27  29
ENDBRANCH   4  27
TORSDOF 5
ENDMDL
MODEL      101
REMARK 921   NORMALIZED FREE ENERGY PREDICTED BY IDOCK:   -5.51 KCAL/MOL
REMARK 922        TOTAL FREE ENERGY PREDICTED BY IDOCK:   -7.83 KCAL/MOL
REMARK 923 INTER-LIGAND FREE ENERGY PREDICTED BY IDOCK:   -8.92 KCAL/MOL
REMARK 924 INTRA-LIGAND FREE ENERGY PREDICTED BY IDOCK:    1.10 KCAL/MOL
REMARK 927      BINDING AFFINITY PREDICTED BY RF-SCORE:    0.00 PKD
ROOT
HETATM    1  C   UNL     1     -11.633  15.060  66.109  1.00  0.00    -0.159 C  
HETATM    2  C   UNL     1     -11.150  14.911  64.798  1.00  0.00    -0.395 C  
HETATM    3  C   UNL     1     -10.405  14.098  65.821  1.00  0.00    -0.338 C  
HETATM    4  C   UNL     1     -11.256  13.935  67.706  1.00  0.00    -0.293 C  
HETATM    5  C   UNL     1      -9.564  13.083  64.750  1.00  0.00     0.268 C  
HETATM    6  O   UNL     1     -12.619  14.449  67.926  1.00  0.00    -0.512 OA 
HETATM    7  C   UNL     1      -7.767  19.463  66.156  1.00  0.00    -0.314 C  
HETATM    8  C   UNL     1     -11.171  13.207  66.568  1.00  0.00    -0.339 C  
HETATM    9  C   UNL     1      -7.439  20.140  67.462  1.00  0.00    -0.297 C  
HETATM   10  C   UNL     1      -8.611  18.462  66.473  1.00  0.00    -0.287 C  
HETATM   11  C   UNL     1     -12.141  12.148  66.027  1.00  0.00    -0.101 C  
HETATM   12  H   UNL     1     -13.008  14.374  68.789  1.00  0.00     0.000 HD 
HETATM   13  C   UNL     1      -9.432  13.058  67.414  1.00  0.00    -0.210 C  
HETATM   14  C   UNL     1      -8.789  14.638  67.952  1.00  0.00    -0.170 C  
HETATM   15  C   UNL     1     -10.070  18.794  66.720  1.00  0.00    -0.409 C  
HETATM   16  C   UNL     1      -9.067  16.086  67.072  1.00  0.00    -0.214 C  
HETATM   17  C   UNL     1      -6.677  16.770  66.708  1.00  0.00    -0.257 C  
HETATM   18  O   UNL     1      -9.238  14.778  69.318  1.00  0.00    -0.353 OA 
HETATM   19  F   UNL     1      -8.669  15.922  65.717  1.00  0.00    -0.338 F  
HETATM   20  C   UNL     1     -10.685  16.345  66.934  1.00  0.00    -0.202 C  
HETATM   21  C   UNL     1      -8.054  17.283  67.314  1.00  0.00    -0.210 C  
HETATM   22  C   UNL     1      -7.637  17.923  68.632  1.00  0.00    -0.285 C  
HETATM   23  H   UNL     1      -8.897  15.617  69.603  1.00  0.00     0.000 HD 
HETATM   24  O   UNL     1      -7.263  21.348  67.522  1.00  0.00    -0.499 OA 
HETATM   25  C   UNL     1     -10.964  17.676  66.210  1.00  0.00     0.273 C  
HETATM   26  C   UNL     1      -7.305  19.239  68.672  1.00  0.00    -0.373 C  
ENDROOT
BRANCH   4  27
HETATM   27  C   UNL     1     -11.617  12.581  68.724  1.00  0.00    -0.322 C  
HETATM   28  O   UNL     1     -12.253  12.630  69.791  1.00  0.00    -0.244 OA 
BRANCH  27  29
HETATM   29  C   UNL     1     -11.192  11.161  68.266  1.00  0.00    -0.279 C  
BRANCH  29  30
HETATM   30  O   UNL     1     -10.813  10.306  69.372  1.00  0.00    -0.214 OA 
BRANCH  30  31
HETATM   31  C   UNL     1      -9.570   9.768  69.281  1.00  0.00    -0.197 C  
HETATM   32  O   UNL     1      -8.646  10.012  70.035  1.00  0.00    -0.190 OA 
BRANCH  31  33
HETATM   33  C   UNL     1      -9.427   8.848  68.110  1.00  0.00    -0.155 A  
HETATM   34  C   UNL     1      -9.116   7.227  65.824  1.00  0.00     0.005 A  
HETATM   35  O   UNL     1     -10.896   4.660  66.109  1.00  0.00    -0.195 OA 
HETATM   36  C   UNL     1      -8.844   8.587  65.748  1.00  0.00    -0.229 A  
HETATM   37  C   UNL     1      -8.995   9.395  66.884  1.00  0.00    -0.148 A  
HETATM   38  O   UNL     1      -8.492   4.265  66.602  1.00  0.00    -0.108 OA 
HETATM   39  O   UNL     1     -10.010   4.564  68.475  1.00  0.00    -0.126 OA 
HETATM   40  C   UNL     1      -9.698   7.472  68.188  1.00  0.00    -0.167 A  
HETATM   41  S   UNL     1      -9.871   4.938  67.092  1.00  0.00    -0.195 S  
HETATM   42  C   UNL     1      -9.542   6.686  67.028  1.00  0.00    -0.150 A  
ENDBRANCH  31  33
ENDBRANCH  30  31
ENDBRANCH  29  30
ENDBRANCH  27  29
ENDBRANCH   4  27
TORSDOF 5
ENDMDL
MODEL      102
REMARK 921   NORMALIZED FREE ENERGY PREDICTED BY IDOCK:   -5.50 KCAL/MOL
REMARK 922        TOTAL FREE ENERGY PREDICTED BY IDOCK:   -7.82 KCAL/MOL
REMARK 923 INTER-LIGAND FREE ENERGY PREDICTED BY IDOCK:   -7.44 KCAL/MOL
REMARK 924 INTRA-LIGAND FREE ENERGY PREDICTED BY IDOCK:   -0.38 KCAL/MOL
REMARK 927      BINDING AFFINITY PREDICTED BY RF-SCORE:    0.00 PKD
ROOT
HETATM    1  C   UNL     1      -7.817  11.211  66.012  1.00  0.00    -0.020 C  
HETATM    2  C   UNL     1      -6.953  10.223  65.509  1.00  0.00    -0.138 C  
HETATM    3  C   UNL     1      -8.411   9.871  65.406  1.00  0.00    -0.155 C  
HETATM    4  C   UNL     1      -9.782  11.390  65.754  1.00  0.00    -0.233 C  
HETATM    5  C   UNL     1      -8.263   8.558  64.339  1.00  0.00    -0.153 C  
HETATM    6  O   UNL     1      -9.298  12.773  65.903  1.00  0.00    -0.442 OA 
HETATM    7  C   UNL     1      -7.001   8.225  70.987  1.00  0.00    -0.054 C  
HETATM    8  C   UNL     1      -9.208  10.767  64.698  1.00  0.00    -0.249 C  
HETATM    9  C   UNL     1      -7.867   8.535  72.182  1.00  0.00    -0.082 C  
HETATM   10  C   UNL     1      -7.469   9.005  69.994  1.00  0.00    -0.062 C  
HETATM   11  C   UNL     1      -8.953  11.307  63.284  1.00  0.00    -0.093 C  
HETATM   12  H   UNL     1      -9.925  13.468  66.062  1.00  0.00     0.000 HD 
HETATM   13  C   UNL     1     -10.520   9.517  65.391  1.00  0.00     0.751 C  
HETATM   14  C   UNL     1     -10.425   9.332  67.167  1.00  0.00    -0.249 C  
HETATM   15  C   UNL     1      -7.062  10.466  69.966  1.00  0.00    -0.155 C  
HETATM   16  C   UNL     1      -8.933   9.391  68.014  1.00  0.00    -0.127 C  
HETATM   17  C   UNL     1      -9.058   7.155  69.151  1.00  0.00    -0.137 C  
HETATM   18  O   UNL     1     -11.349  10.310  67.693  1.00  0.00    -0.481 OA 
HETATM   19  F   UNL     1      -8.014   8.462  67.457  1.00  0.00    -0.101 F  
HETATM   20  C   UNL     1      -8.194  10.832  67.728  1.00  0.00    -0.112 C  
HETATM   21  C   UNL     1      -8.889   8.707  69.446  1.00  0.00    -0.144 C  
HETATM   22  C   UNL     1      -9.810   8.937  70.637  1.00  0.00    -0.261 C  
HETATM   23  H   UNL     1     -11.299  10.211  68.636  1.00  0.00     0.000 HD 
HETATM   24  O   UNL     1      -7.406   8.537  73.313  1.00  0.00    -0.292 OA 
HETATM   25  C   UNL     1      -6.886  10.942  68.534  1.00  0.00    -0.059 C  
HETATM   26  C   UNL     1      -9.330   8.802  71.901  1.00  0.00    -0.343 C  
ENDROOT
BRANCH   4  27
HETATM   27  C   UNL     1     -11.145  11.976  64.861  1.00  0.00    -0.316 C  
HETATM   28  O   UNL     1     -12.254  11.420  64.789  1.00  0.00     0.141 OA 
BRANCH  27  29
HETATM   29  C   UNL     1     -11.037  13.342  64.134  1.00  0.00    -0.327 C  
BRANCH  29  30
HETATM   30  O   UNL     1     -11.932  14.341  64.682  1.00  0.00    -0.408 OA 
BRANCH  30  31
HETATM   31  C   UNL     1     -11.460  15.614  64.649  1.00  0.00    -0.303 C  
HETATM   32  O   UNL     1     -11.310  16.277  63.639  1.00  0.00    -0.653 OA 
BRANCH  31  33
HETATM   33  C   UNL     1     -11.094  16.126  66.006  1.00  0.00     0.064 A  
HETATM   34  C   UNL     1     -10.359  17.212  68.501  1.00  0.00    -0.364 A  
HETATM   35  O   UNL     1      -9.917  14.891  70.565  1.00  0.00     0.259 OA 
HETATM   36  C   UNL     1     -10.143  17.942  67.340  1.00  0.00    -0.341 A  
HETATM   37  C   UNL     1     -10.510  17.406  66.098  1.00  0.00    -0.284 A  
HETATM   38  O   UNL     1     -12.106  16.042  70.814  1.00  0.00    -0.380 OA 
HETATM   39  O   UNL     1     -12.055  13.927  69.621  1.00  0.00    -0.321 OA 
HETATM   40  C   UNL     1     -11.317  15.389  67.181  1.00  0.00    -0.203 A  
HETATM   41  S   UNL     1     -11.205  15.048  69.923  1.00  0.00    -0.286 S  
HETATM   42  C   UNL     1     -10.932  15.952  68.414  1.00  0.00    -0.331 A  
ENDBRANCH  31  33
ENDBRANCH  30  31
ENDBRANCH  29  30
ENDBRANCH  27  29
ENDBRANCH   4  27
TORSDOF 5
ENDMDL
MODEL      103
REMARK 921   NORMALIZED FREE ENERGY PREDICTED BY IDOCK:   -5.50 KCAL/MOL
REMARK 922        TOTAL FREE ENERGY PREDICTED BY IDOCK:   -7.82 KCAL/MOL
REMARK 923 INTER-LIGAND FREE ENERGY PREDICTED BY IDOCK:   -8.53 KCAL/MOL
REMARK 924 INTRA-LIGAND FREE ENERGY PREDICTED BY IDOCK:    0.72 KCAL/MOL
REMARK 927      BINDING AFFINITY PREDICTED BY RF-SCORE:    0.00 PKD
ROOT
HETATM    1  C   UNL     1     -10.949   7.089  68.444  1.00  0.00    -0.137 C  
HETATM    2  C   UNL     1     -11.123   6.166  69.490  1.00  0.00    -0.490 C  
HETATM    3  C   UNL     1      -9.903   7.032  69.635  1.00  0.00    -0.166 C  
HETATM    4  C   UNL     1      -9.748   8.673  68.374  1.00  0.00    -0.162 C  
HETATM    5  C   UNL     1      -9.557   6.683  71.260  1.00  0.00    -0.176 C  
HETATM    6  O   UNL     1     -10.895   9.038  67.526  1.00  0.00    -0.451 OA 
HETATM    7  C   UNL     1      -8.017   2.602  66.075  1.00  0.00    -0.082 C  
HETATM    8  C   UNL     1     -10.127   8.406  69.646  1.00  0.00    -0.199 C  
HETATM    9  C   UNL     1      -7.191   2.835  64.836  1.00  0.00    -0.062 C  
HETATM   10  C   UNL     1      -8.499   3.813  66.418  1.00  0.00    -0.110 C  
HETATM   11  C   UNL     1     -11.115   9.171  70.536  1.00  0.00    -0.308 C  
HETATM   12  H   UNL     1     -10.824   9.789  66.949  1.00  0.00     0.000 HD 
HETATM   13  C   UNL     1      -8.189   8.310  69.648  1.00  0.00    -0.118 C  
HETATM   14  C   UNL     1      -7.546   7.335  68.294  1.00  0.00    -0.118 C  
HETATM   15  C   UNL     1      -9.699   4.354  65.665  1.00  0.00    -0.211 C  
HETATM   16  C   UNL     1      -8.360   5.945  67.700  1.00  0.00    -0.104 C  
HETATM   17  C   UNL     1      -6.510   4.272  67.995  1.00  0.00    -0.038 C  
HETATM   18  O   UNL     1      -7.315   8.284  67.229  1.00  0.00    -0.086 OA 
HETATM   19  F   UNL     1      -8.627   5.041  68.763  1.00  0.00    -0.087 F  
HETATM   20  C   UNL     1      -9.871   6.361  67.203  1.00  0.00    -0.182 C  
HETATM   21  C   UNL     1      -7.489   4.884  66.903  1.00  0.00    -0.087 C  
HETATM   22  C   UNL     1      -6.575   5.113  65.706  1.00  0.00    -0.044 C  
HETATM   23  H   UNL     1      -6.973   7.766  66.510  1.00  0.00     0.000 HD 
HETATM   24  O   UNL     1      -7.141   2.002  63.944  1.00  0.00    -0.038 OA 
HETATM   25  C   UNL     1     -10.599   5.146  66.598  1.00  0.00    -0.295 C  
HETATM   26  C   UNL     1      -6.409   4.130  64.783  1.00  0.00    -0.034 C  
ENDROOT
BRANCH   4  27
HETATM   27  C   UNL     1      -9.439  10.353  68.658  1.00  0.00    -0.167 C  
HETATM   28  O   UNL     1      -8.579  10.809  69.431  1.00  0.00    -0.096 OA 
BRANCH  27  29
HETATM   29  C   UNL     1     -10.232  11.412  67.846  1.00  0.00    -0.182 C  
BRANCH  29  30
HETATM   30  O   UNL     1     -11.563  11.637  68.370  1.00  0.00    -0.267 OA 
BRANCH  30  31
HETATM   31  C   UNL     1     -11.635  12.530  69.390  1.00  0.00    -0.305 C  
HETATM   32  O   UNL     1     -11.956  12.261  70.533  1.00  0.00    -0.335 OA 
BRANCH  31  33
HETATM   33  C   UNL     1     -11.308  13.924  68.957  1.00  0.00    -0.324 A  
HETATM   34  C   UNL     1     -10.723  16.596  68.273  1.00  0.00    -0.351 A  
HETATM   35  O   UNL     1     -11.017  16.973  65.172  1.00  0.00    -0.528 OA 
HETATM   36  C   UNL     1     -11.134  16.288  69.563  1.00  0.00    -0.330 A  
HETATM   37  C   UNL     1     -11.423  14.960  69.907  1.00  0.00    -0.321 A  
HETATM   38  O   UNL     1      -8.660  16.749  65.930  1.00  0.00    -0.500 OA 
HETATM   39  O   UNL     1      -9.754  14.790  64.999  1.00  0.00    -0.158 OA 
HETATM   40  C   UNL     1     -10.889  14.235  67.653  1.00  0.00    -0.273 A  
HETATM   41  S   UNL     1     -10.071  16.009  65.694  1.00  0.00    -0.318 S  
HETATM   42  C   UNL     1     -10.611  15.580  67.335  1.00  0.00    -0.292 A  
ENDBRANCH  31  33
ENDBRANCH  30  31
ENDBRANCH  29  30
ENDBRANCH  27  29
ENDBRANCH   4  27
TORSDOF 5
ENDMDL
MODEL      104
REMARK 921   NORMALIZED FREE ENERGY PREDICTED BY IDOCK:   -5.44 KCAL/MOL
REMARK 922        TOTAL FREE ENERGY PREDICTED BY IDOCK:   -7.74 KCAL/MOL
REMARK 923 INTER-LIGAND FREE ENERGY PREDICTED BY IDOCK:   -9.08 KCAL/MOL
REMARK 924 INTRA-LIGAND FREE ENERGY PREDICTED BY IDOCK:    1.35 KCAL/MOL
REMARK 927      BINDING AFFINITY PREDICTED BY RF-SCORE:    0.00 PKD
ROOT
HETATM    1  C   UNL     1      -7.995   9.085  68.785  1.00  0.00    -0.101 C  
HETATM    2  C   UNL     1      -7.271   8.414  67.785  1.00  0.00    -0.088 C  
HETATM    3  C   UNL     1      -8.763   8.296  67.644  1.00  0.00    -0.133 C  
HETATM    4  C   UNL     1      -9.930   9.546  68.819  1.00  0.00    -0.174 C  
HETATM    5  C   UNL     1      -8.804   7.697  66.055  1.00  0.00    -0.186 C  
HETATM    6  O   UNL     1      -9.278  10.614  69.597  1.00  0.00    -0.408 OA 
HETATM    7  C   UNL     1      -7.407   3.932  71.513  1.00  0.00    -0.047 C  
HETATM    8  C   UNL     1      -9.464   9.495  67.549  1.00  0.00    -0.155 C  
HETATM    9  C   UNL     1      -8.196   3.672  72.771  1.00  0.00    -0.082 C  
HETATM   10  C   UNL     1      -7.805   5.147  71.086  1.00  0.00    -0.101 C  
HETATM   11  C   UNL     1      -9.186  10.650  66.578  1.00  0.00    -0.187 C  
HETATM   12  H   UNL     1      -9.812  11.186  70.135  1.00  0.00     0.000 HD 
HETATM   13  C   UNL     1     -10.898   8.191  67.633  1.00  0.00    -0.093 C  
HETATM   14  C   UNL     1     -10.777   7.125  69.063  1.00  0.00    -0.184 C  
HETATM   15  C   UNL     1      -7.226   6.377  71.758  1.00  0.00    -0.087 C  
HETATM   16  C   UNL     1      -9.266   6.612  69.697  1.00  0.00    -0.145 C  
HETATM   17  C   UNL     1      -9.629   4.129  69.570  1.00  0.00    -0.274 C  
HETATM   18  O   UNL     1     -11.562   7.781  70.084  1.00  0.00    -0.473 OA 
HETATM   19  F   UNL     1      -8.482   6.013  68.674  1.00  0.00    -0.110 F  
HETATM   20  C   UNL     1      -8.367   7.925  70.108  1.00  0.00    -0.127 C  
HETATM   21  C   UNL     1      -9.265   5.297  70.586  1.00  0.00    -0.187 C  
HETATM   22  C   UNL     1     -10.119   4.974  71.806  1.00  0.00    -0.262 C  
HETATM   23  H   UNL     1     -11.497   7.214  70.844  1.00  0.00     0.000 HD 
HETATM   24  O   UNL     1      -7.707   3.060  73.709  1.00  0.00    -0.058 OA 
HETATM   25  C   UNL     1      -7.033   7.494  70.746  1.00  0.00    -0.048 C  
HETATM   26  C   UNL     1      -9.624   4.176  72.787  1.00  0.00    -0.170 C  
ENDROOT
BRANCH   4  27
HETATM   27  C   UNL     1     -11.236  10.625  68.458  1.00  0.00    -0.282 C  
HETATM   28  O   UNL     1     -12.202  10.862  69.202  1.00  0.00    -0.421 OA 
BRANCH  27  29
HETATM   29  C   UNL     1     -11.198  11.436  67.136  1.00  0.00    -0.296 C  
BRANCH  29  30
HETATM   30  O   UNL     1     -12.322  12.339  67.001  1.00  0.00    -0.393 OA 
BRANCH  30  31
HETATM   31  C   UNL     1     -12.436  12.935  65.786  1.00  0.00    -0.262 C  
HETATM   32  O   UNL     1     -12.976  12.441  64.813  1.00  0.00    -0.786 OA 
BRANCH  31  33
HETATM   33  C   UNL     1     -11.783  14.280  65.743  1.00  0.00    -0.359 A  
HETATM   34  C   UNL     1     -10.589  16.825  65.525  1.00  0.00    -0.243 A  
HETATM   35  O   UNL     1      -8.421  17.162  67.767  1.00  0.00    -0.202 OA 
HETATM   36  C   UNL     1     -11.196  16.250  64.416  1.00  0.00    -0.119 A  
HETATM   37  C   UNL     1     -11.793  14.986  64.523  1.00  0.00    -0.377 A  
HETATM   38  O   UNL     1     -10.565  18.314  68.273  1.00  0.00    -0.335 OA 
HETATM   39  O   UNL     1     -10.156  16.152  69.304  1.00  0.00    -0.232 OA 
HETATM   40  C   UNL     1     -11.172  14.864  66.866  1.00  0.00    -0.343 A  
HETATM   41  S   UNL     1      -9.799  16.904  68.130  1.00  0.00    -0.276 S  
HETATM   42  C   UNL     1     -10.576  16.133  66.727  1.00  0.00    -0.277 A  
ENDBRANCH  31  33
ENDBRANCH  30  31
ENDBRANCH  29  30
ENDBRANCH  27  29
ENDBRANCH   4  27
TORSDOF 5
ENDMDL
MODEL      105
REMARK 921   NORMALIZED FREE ENERGY PREDICTED BY IDOCK:   -5.40 KCAL/MOL
REMARK 922        TOTAL FREE ENERGY PREDICTED BY IDOCK:   -7.69 KCAL/MOL
REMARK 923 INTER-LIGAND FREE ENERGY PREDICTED BY IDOCK:   -7.62 KCAL/MOL
REMARK 924 INTRA-LIGAND FREE ENERGY PREDICTED BY IDOCK:   -0.07 KCAL/MOL
REMARK 927      BINDING AFFINITY PREDICTED BY RF-SCORE:    0.00 PKD
ROOT
HETATM    1  C   UNL     1     -10.779   5.361  69.696  1.00  0.00    -0.267 C  
HETATM    2  C   UNL     1      -9.861   4.369  70.081  1.00  0.00    -0.288 C  
HETATM    3  C   UNL     1      -9.466   5.762  70.488  1.00  0.00    -0.201 C  
HETATM    4  C   UNL     1     -10.907   7.245  70.320  1.00  0.00    -0.245 C  
HETATM    5  C   UNL     1      -8.237   5.348  71.586  1.00  0.00    -0.118 C  
HETATM    6  O   UNL     1     -12.292   6.867  69.994  1.00  0.00    -0.619 OA 
HETATM    7  C   UNL     1      -7.481   5.374  64.852  1.00  0.00    -0.070 C  
HETATM    8  C   UNL     1     -10.381   6.449  71.281  1.00  0.00    -0.244 C  
HETATM    9  C   UNL     1      -7.675   6.468  63.834  1.00  0.00    -0.108 C  
HETATM   10  C   UNL     1      -8.312   5.679  65.868  1.00  0.00    -0.128 C  
HETATM   11  C   UNL     1     -11.028   5.954  72.581  1.00  0.00    -0.305 C  
HETATM   12  H   UNL     1     -12.952   7.546  69.917  1.00  0.00     0.000 HD 
HETATM   13  C   UNL     1      -9.040   7.808  70.937  1.00  0.00    -0.150 C  
HETATM   14  C   UNL     1      -8.733   8.048  69.192  1.00  0.00    -0.137 C  
HETATM   15  C   UNL     1      -9.785   5.346  65.724  1.00  0.00    -0.040 C  
HETATM   16  C   UNL     1      -8.786   6.752  68.067  1.00  0.00    -0.118 C  
HETATM   17  C   UNL     1      -6.471   6.985  67.118  1.00  0.00    -0.053 C  
HETATM   18  O   UNL     1      -9.638   9.103  68.796  1.00  0.00    -0.155 OA 
HETATM   19  F   UNL     1      -7.930   5.699  68.491  1.00  0.00    -0.094 F  
HETATM   20  C   UNL     1     -10.267   6.042  68.113  1.00  0.00    -0.214 C  
HETATM   21  C   UNL     1      -8.004   6.951  66.700  1.00  0.00    -0.108 C  
HETATM   22  C   UNL     1      -8.117   8.095  65.700  1.00  0.00    -0.119 C  
HETATM   23  H   UNL     1      -9.475   9.230  67.869  1.00  0.00     0.000 HD 
HETATM   24  O   UNL     1      -7.614   6.234  62.636  1.00  0.00    -0.062 OA 
HETATM   25  C   UNL     1     -10.367   4.920  67.062  1.00  0.00    -0.209 C  
HETATM   26  C   UNL     1      -7.910   7.861  64.378  1.00  0.00    -0.139 C  
ENDROOT
BRANCH   4  27
HETATM   27  C   UNL     1     -11.507   8.437  71.424  1.00  0.00    -0.277 C  
HETATM   28  O   UNL     1     -11.376   8.407  72.660  1.00  0.00    -0.372 OA 
BRANCH  27  29
HETATM   29  C   UNL     1     -12.208   9.700  70.860  1.00  0.00    -0.285 C  
BRANCH  29  30
HETATM   30  O   UNL     1     -11.272  10.683  70.354  1.00  0.00    -0.304 OA 
BRANCH  30  31
HETATM   31  C   UNL     1     -11.840  11.796  69.822  1.00  0.00    -0.349 C  
HETATM   32  O   UNL     1     -12.893  12.286  70.188  1.00  0.00     0.172 OA 
BRANCH  31  33
HETATM   33  C   UNL     1     -11.047  12.358  68.685  1.00  0.00    -0.297 A  
HETATM   34  C   UNL     1      -9.657  13.378  66.455  1.00  0.00    -0.265 A  
HETATM   35  O   UNL     1      -6.588  13.493  67.094  1.00  0.00    -0.190 OA 
HETATM   36  C   UNL     1     -10.901  12.785  66.281  1.00  0.00    -0.299 A  
HETATM   37  C   UNL     1     -11.595  12.280  67.389  1.00  0.00    -0.425 A  
HETATM   38  O   UNL     1      -7.726  15.695  67.275  1.00  0.00    -0.168 OA 
HETATM   39  O   UNL     1      -7.301  14.455  69.320  1.00  0.00    -0.131 OA 
HETATM   40  C   UNL     1      -9.790  12.961  68.862  1.00  0.00     0.136 A  
HETATM   41  S   UNL     1      -7.523  14.231  67.916  1.00  0.00    -0.170 S  
HETATM   42  C   UNL     1      -9.114  13.455  67.729  1.00  0.00    -0.202 A  
ENDBRANCH  31  33
ENDBRANCH  30  31
ENDBRANCH  29  30
ENDBRANCH  27  29
ENDBRANCH   4  27
TORSDOF 5
ENDMDL
MODEL      106
REMARK 921   NORMALIZED FREE ENERGY PREDICTED BY IDOCK:   -5.37 KCAL/MOL
REMARK 922        TOTAL FREE ENERGY PREDICTED BY IDOCK:   -7.65 KCAL/MOL
REMARK 923 INTER-LIGAND FREE ENERGY PREDICTED BY IDOCK:   -7.81 KCAL/MOL
REMARK 924 INTRA-LIGAND FREE ENERGY PREDICTED BY IDOCK:    0.16 KCAL/MOL
REMARK 927      BINDING AFFINITY PREDICTED BY RF-SCORE:    0.00 PKD
ROOT
HETATM    1  C   UNL     1     -10.927  10.654  66.559  1.00  0.00    -0.098 C  
HETATM    2  C   UNL     1     -10.492  10.779  65.228  1.00  0.00    -0.282 C  
HETATM    3  C   UNL     1      -9.382  10.546  66.216  1.00  0.00    -0.202 C  
HETATM    4  C   UNL     1      -9.924   9.967  68.134  1.00  0.00    -0.151 C  
HETATM    5  C   UNL     1      -8.155  10.161  65.107  1.00  0.00    -0.148 C  
HETATM    6  O   UNL     1     -11.330   9.628  68.411  1.00  0.00    -0.507 OA 
HETATM    7  C   UNL     1     -10.215  16.470  66.472  1.00  0.00    -0.305 C  
HETATM    8  C   UNL     1      -9.485   9.393  66.989  1.00  0.00    -0.200 C  
HETATM    9  C   UNL     1     -10.278  17.238  67.767  1.00  0.00    -0.332 C  
HETATM   10  C   UNL     1     -10.336  15.174  66.818  1.00  0.00    -0.273 C  
HETATM   11  C   UNL     1      -9.709   7.962  66.482  1.00  0.00    -0.279 C  
HETATM   12  H   UNL     1     -11.578   9.363  69.288  1.00  0.00     0.000 HD 
HETATM   13  C   UNL     1      -7.935  10.265  67.764  1.00  0.00    -0.102 C  
HETATM   14  C   UNL     1      -8.274  11.942  68.282  1.00  0.00    -0.157 C  
HETATM   15  C   UNL     1     -11.719  14.631  67.125  1.00  0.00    -0.392 C  
HETATM   16  C   UNL     1      -9.352  12.965  67.422  1.00  0.00    -0.194 C  
HETATM   17  C   UNL     1      -7.778  14.869  66.966  1.00  0.00    -0.079 C  
HETATM   18  O   UNL     1      -8.674  11.830  69.666  1.00  0.00     0.341 OA 
HETATM   19  F   UNL     1      -8.980  13.028  66.052  1.00  0.00    -0.089 F  
HETATM   20  C   UNL     1     -10.838  12.265  67.351  1.00  0.00    -0.277 C  
HETATM   21  C   UNL     1      -9.182  14.529  67.629  1.00  0.00    -0.195 C  
HETATM   22  C   UNL     1      -9.150  15.317  68.933  1.00  0.00    -0.209 C  
HETATM   23  H   UNL     1      -8.855  12.721  69.941  1.00  0.00     0.000 HD 
HETATM   24  O   UNL     1     -10.811  18.336  67.826  1.00  0.00    -0.386 OA 
HETATM   25  C   UNL     1     -11.845  13.194  66.646  1.00  0.00    -0.449 C  
HETATM   26  C   UNL     1      -9.616  16.592  68.965  1.00  0.00    -0.246 C  
ENDROOT
BRANCH   4  27
HETATM   27  C   UNL     1      -9.422   8.664  69.158  1.00  0.00    -0.157 C  
HETATM   28  O   UNL     1      -8.452   7.915  68.950  1.00  0.00    -0.126 OA 
BRANCH  27  29
HETATM   29  C   UNL     1     -10.175   8.423  70.493  1.00  0.00    -0.196 C  
BRANCH  29  30
HETATM   30  O   UNL     1     -11.253   7.464  70.363  1.00  0.00    -0.266 OA 
BRANCH  30  31
HETATM   31  C   UNL     1     -10.859   6.192  70.095  1.00  0.00    -0.329 C  
HETATM   32  O   UNL     1     -10.978   5.635  69.018  1.00  0.00    -0.256 OA 
BRANCH  31  33
HETATM   33  C   UNL     1     -10.283   5.506  71.293  1.00  0.00    -0.283 A  
HETATM   34  C   UNL     1      -9.329   4.204  73.604  1.00  0.00    -0.113 A  
HETATM   35  O   UNL     1      -6.288   4.866  74.000  1.00  0.00    -0.059 OA 
HETATM   36  C   UNL     1     -10.685   4.474  73.474  1.00  0.00    -0.333 A  
HETATM   37  C   UNL     1     -11.162   5.119  72.324  1.00  0.00    -0.123 A  
HETATM   38  O   UNL     1      -6.699   2.619  73.018  1.00  0.00    -0.024 OA 
HETATM   39  O   UNL     1      -6.085   4.429  71.518  1.00  0.00    -0.016 OA 
HETATM   40  C   UNL     1      -8.911   5.229  71.422  1.00  0.00    -0.156 A  
HETATM   41  S   UNL     1      -6.730   4.213  72.786  1.00  0.00    -0.048 S  
HETATM   42  C   UNL     1      -8.460   4.585  72.591  1.00  0.00    -0.114 A  
ENDBRANCH  31  33
ENDBRANCH  30  31
ENDBRANCH  29  30
ENDBRANCH  27  29
ENDBRANCH   4  27
TORSDOF 5
ENDMDL
MODEL      107
REMARK 921   NORMALIZED FREE ENERGY PREDICTED BY IDOCK:   -5.36 KCAL/MOL
REMARK 922        TOTAL FREE ENERGY PREDICTED BY IDOCK:   -7.64 KCAL/MOL
REMARK 923 INTER-LIGAND FREE ENERGY PREDICTED BY IDOCK:   -6.47 KCAL/MOL
REMARK 924 INTRA-LIGAND FREE ENERGY PREDICTED BY IDOCK:   -1.17 KCAL/MOL
REMARK 927      BINDING AFFINITY PREDICTED BY RF-SCORE:    0.00 PKD
ROOT
HETATM    1  C   UNL     1      -8.665   7.486  69.911  1.00  0.00    -0.140 C  
HETATM    2  C   UNL     1      -9.481   7.814  71.007  1.00  0.00    -0.165 C  
HETATM    3  C   UNL     1     -10.231   7.249  69.833  1.00  0.00    -0.210 C  
HETATM    4  C   UNL     1      -9.110   6.377  68.320  1.00  0.00    -0.114 C  
HETATM    5  C   UNL     1     -11.702   6.936  70.621  1.00  0.00    -0.417 C  
HETATM    6  O   UNL     1      -7.665   6.175  68.523  1.00  0.00    -0.096 OA 
HETATM    7  C   UNL     1      -9.757  13.063  68.479  1.00  0.00    -0.132 C  
HETATM    8  C   UNL     1      -9.828   5.989  69.400  1.00  0.00    -0.203 C  
HETATM    9  C   UNL     1      -9.366  13.561  67.111  1.00  0.00    -0.240 C  
HETATM   10  C   UNL     1      -9.453  11.750  68.483  1.00  0.00    -0.165 C  
HETATM   11  C   UNL     1      -9.669   4.727  70.259  1.00  0.00    -0.296 C  
HETATM   12  H   UNL     1      -7.152   5.776  67.830  1.00  0.00     0.000 HD 
HETATM   13  C   UNL     1     -11.135   6.483  68.054  1.00  0.00    -0.332 C  
HETATM   14  C   UNL     1     -10.770   8.054  67.282  1.00  0.00    -0.210 C  
HETATM   15  C   UNL     1      -8.009  11.341  68.697  1.00  0.00    -0.145 C  
HETATM   16  C   UNL     1     -10.065   9.357  68.149  1.00  0.00    -0.181 C  
HETATM   17  C   UNL     1     -11.827  11.094  67.714  1.00  0.00    -0.098 C  
HETATM   18  O   UNL     1      -9.973   7.723  66.123  1.00  0.00    -0.463 OA 
HETATM   19  F   UNL     1     -10.828   9.642  69.314  1.00  0.00    -0.216 F  
HETATM   20  C   UNL     1      -8.623   8.883  68.780  1.00  0.00    -0.136 C  
HETATM   21  C   UNL     1     -10.271  10.814  67.555  1.00  0.00    -0.231 C  
HETATM   22  C   UNL     1      -9.969  11.317  66.149  1.00  0.00    -0.268 C  
HETATM   23  H   UNL     1      -9.779   8.557  65.714  1.00  0.00     0.000 HD 
HETATM   24  O   UNL     1      -8.913  14.685  66.953  1.00  0.00    -0.229 OA 
HETATM   25  C   UNL     1      -7.934  10.056  69.504  1.00  0.00    -0.161 C  
HETATM   26  C   UNL     1      -9.600  12.610  65.957  1.00  0.00    -0.190 C  
ENDROOT
BRANCH   4  27
HETATM   27  C   UNL     1      -9.199   4.844  67.520  1.00  0.00    -0.123 C  
HETATM   28  O   UNL     1     -10.108   4.482  66.753  1.00  0.00    -0.220 OA 
BRANCH  27  29
HETATM   29  C   UNL     1      -8.032   3.836  67.692  1.00  0.00    -0.085 C  
BRANCH  29  30
HETATM   30  O   UNL     1      -7.599   3.261  66.436  1.00  0.00    -0.075 OA 
BRANCH  30  31
HETATM   31  C   UNL     1      -6.536   3.879  65.859  1.00  0.00    -0.033 C  
HETATM   32  O   UNL     1      -5.372   3.706  66.173  1.00  0.00    -0.012 OA 
BRANCH  31  33
HETATM   33  C   UNL     1      -6.944   4.850  64.796  1.00  0.00    -0.050 A  
HETATM   34  C   UNL     1      -7.740   6.567  62.708  1.00  0.00    -0.097 A  
HETATM   35  O   UNL     1      -6.465   9.402  63.138  1.00  0.00    -0.091 OA 
HETATM   36  C   UNL     1      -7.752   5.192  62.513  1.00  0.00    -0.064 A  
HETATM   37  C   UNL     1      -7.360   4.336  63.551  1.00  0.00    -0.054 A  
HETATM   38  O   UNL     1      -8.854   9.270  63.814  1.00  0.00    -0.201 OA 
HETATM   39  O   UNL     1      -7.162   9.117  65.551  1.00  0.00    -0.081 OA 
HETATM   40  C   UNL     1      -6.935   6.240  64.995  1.00  0.00    -0.052 A  
HETATM   41  S   UNL     1      -7.337   8.843  64.149  1.00  0.00    -0.107 S  
HETATM   42  C   UNL     1      -7.330   7.076  63.931  1.00  0.00    -0.084 A  
ENDBRANCH  31  33
ENDBRANCH  30  31
ENDBRANCH  29  30
ENDBRANCH  27  29
ENDBRANCH   4  27
TORSDOF 5
ENDMDL
MODEL      108
REMARK 921   NORMALIZED FREE ENERGY PREDICTED BY IDOCK:   -5.34 KCAL/MOL
REMARK 922        TOTAL FREE ENERGY PREDICTED BY IDOCK:   -7.62 KCAL/MOL
REMARK 923 INTER-LIGAND FREE ENERGY PREDICTED BY IDOCK:   -8.25 KCAL/MOL
REMARK 924 INTRA-LIGAND FREE ENERGY PREDICTED BY IDOCK:    0.63 KCAL/MOL
REMARK 927      BINDING AFFINITY PREDICTED BY RF-SCORE:    0.00 PKD
ROOT
HETATM    1  C   UNL     1      -7.677  10.007  69.206  1.00  0.00    -0.117 C  
HETATM    2  C   UNL     1      -6.679   9.075  68.874  1.00  0.00    -0.053 C  
HETATM    3  C   UNL     1      -7.817   9.129  67.893  1.00  0.00    -0.100 C  
HETATM    4  C   UNL     1      -9.143  10.716  68.063  1.00  0.00    -0.147 C  
HETATM    5  C   UNL     1      -7.083   8.258  66.632  1.00  0.00    -0.077 C  
HETATM    6  O   UNL     1      -8.833  11.814  68.994  1.00  0.00    -0.376 OA 
HETATM    7  C   UNL     1      -9.843   5.413  72.128  1.00  0.00    -0.209 C  
HETATM    8  C   UNL     1      -8.067  10.371  67.316  1.00  0.00    -0.114 C  
HETATM    9  C   UNL     1     -11.236   5.494  72.697  1.00  0.00    -0.295 C  
HETATM   10  C   UNL     1      -9.661   6.569  71.461  1.00  0.00    -0.169 C  
HETATM   11  C   UNL     1      -7.052  11.281  66.612  1.00  0.00    -0.127 C  
HETATM   12  H   UNL     1      -9.440  12.540  69.071  1.00  0.00     0.000 HD 
HETATM   13  C   UNL     1      -9.538   9.303  66.637  1.00  0.00    -0.263 C  
HETATM   14  C   UNL     1     -10.474   8.512  67.939  1.00  0.00    -0.201 C  
HETATM   15  C   UNL     1      -9.314   7.816  72.252  1.00  0.00    -0.212 C  
HETATM   16  C   UNL     1      -9.733   7.932  69.375  1.00  0.00    -0.170 C  
HETATM   17  C   UNL     1     -10.481   5.537  69.243  1.00  0.00    -0.336 C  
HETATM   18  O   UNL     1     -11.535   9.441  68.253  1.00  0.00    -0.372 OA 
HETATM   19  F   UNL     1      -8.659   7.058  69.056  1.00  0.00    -0.125 F  
HETATM   20  C   UNL     1      -8.966   9.170  70.138  1.00  0.00    -0.219 C  
HETATM   21  C   UNL     1     -10.513   6.814  70.189  1.00  0.00    -0.240 C  
HETATM   22  C   UNL     1     -11.950   6.836  70.694  1.00  0.00    -0.418 C  
HETATM   23  H   UNL     1     -12.032   9.021  68.944  1.00  0.00     0.000 HD 
HETATM   24  O   UNL     1     -11.504   5.006  73.785  1.00  0.00    -0.159 OA 
HETATM   25  C   UNL     1      -8.352   8.693  71.468  1.00  0.00    -0.220 C  
HETATM   26  C   UNL     1     -12.277   6.174  71.834  1.00  0.00    -0.156 C  
ENDROOT
BRANCH   4  27
HETATM   27  C   UNL     1      -9.753  11.870  66.925  1.00  0.00    -0.200 C  
HETATM   28  O   UNL     1      -9.115  12.348  65.970  1.00  0.00    -0.119 OA 
BRANCH  27  29
HETATM   29  C   UNL     1     -11.235  12.317  67.026  1.00  0.00    -0.310 C  
BRANCH  29  30
HETATM   30  O   UNL     1     -11.665  12.524  68.394  1.00  0.00    -0.295 OA 
BRANCH  30  31
HETATM   31  C   UNL     1     -11.807  13.825  68.759  1.00  0.00    -0.363 C  
HETATM   32  O   UNL     1     -12.700  14.259  69.463  1.00  0.00    -0.127 OA 
BRANCH  31  33
HETATM   33  C   UNL     1     -10.752  14.705  68.168  1.00  0.00    -0.242 A  
HETATM   34  C   UNL     1      -8.854  16.392  66.944  1.00  0.00    -0.232 A  
HETATM   35  O   UNL     1      -5.978  15.633  67.942  1.00  0.00    -0.125 OA 
HETATM   36  C   UNL     1     -10.088  16.189  66.339  1.00  0.00    -0.321 A  
HETATM   37  C   UNL     1     -11.034  15.353  66.947  1.00  0.00    -0.294 A  
HETATM   38  O   UNL     1      -6.918  17.650  69.051  1.00  0.00    -0.238 OA 
HETATM   39  O   UNL     1      -7.030  15.534  70.239  1.00  0.00     0.030 OA 
HETATM   40  C   UNL     1      -9.505  14.914  68.781  1.00  0.00    -0.214 A  
HETATM   41  S   UNL     1      -6.985  16.048  68.895  1.00  0.00    -0.160 S  
HETATM   42  C   UNL     1      -8.572  15.756  68.144  1.00  0.00    -0.164 A  
ENDBRANCH  31  33
ENDBRANCH  30  31
ENDBRANCH  29  30
ENDBRANCH  27  29
ENDBRANCH   4  27
TORSDOF 5
ENDMDL
MODEL      109
REMARK 921   NORMALIZED FREE ENERGY PREDICTED BY IDOCK:   -5.33 KCAL/MOL
REMARK 922        TOTAL FREE ENERGY PREDICTED BY IDOCK:   -7.60 KCAL/MOL
REMARK 923 INTER-LIGAND FREE ENERGY PREDICTED BY IDOCK:   -9.35 KCAL/MOL
REMARK 924 INTRA-LIGAND FREE ENERGY PREDICTED BY IDOCK:    1.75 KCAL/MOL
REMARK 927      BINDING AFFINITY PREDICTED BY RF-SCORE:    0.00 PKD
ROOT
HETATM    1  C   UNL     1     -11.544  15.280  66.368  1.00  0.00     0.007 C  
HETATM    2  C   UNL     1     -11.103  15.058  65.052  1.00  0.00    -0.421 C  
HETATM    3  C   UNL     1     -10.374  14.246  66.087  1.00  0.00    -0.305 C  
HETATM    4  C   UNL     1     -11.183  14.198  67.997  1.00  0.00    -0.281 C  
HETATM    5  C   UNL     1      -9.615  13.149  65.036  1.00  0.00     0.212 C  
HETATM    6  O   UNL     1     -12.512  14.790  68.230  1.00  0.00    -0.584 OA 
HETATM    7  C   UNL     1      -7.458  19.475  66.151  1.00  0.00    -0.303 C  
HETATM    8  C   UNL     1     -11.165  13.425  66.886  1.00  0.00    -0.330 C  
HETATM    9  C   UNL     1      -7.062  20.182  67.422  1.00  0.00    -0.269 C  
HETATM   10  C   UNL     1      -8.343  18.532  66.527  1.00  0.00    -0.297 C  
HETATM   11  C   UNL     1     -12.201  12.398  66.410  1.00  0.00    -0.012 C  
HETATM   12  H   UNL     1     -12.882  14.767  69.104  1.00  0.00     0.000 HD 
HETATM   13  C   UNL     1      -9.414  13.217  67.696  1.00  0.00    -0.211 C  
HETATM   14  C   UNL     1      -8.677  14.780  68.156  1.00  0.00    -0.168 C  
HETATM   15  C   UNL     1      -9.777  18.949  66.796  1.00  0.00    -0.362 C  
HETATM   16  C   UNL     1      -8.905  16.206  67.228  1.00  0.00    -0.186 C  
HETATM   17  C   UNL     1      -6.493  16.751  66.781  1.00  0.00    -0.226 C  
HETATM   18  O   UNL     1      -9.083  14.994  69.526  1.00  0.00    -0.399 OA 
HETATM   19  F   UNL     1      -8.550  15.972  65.871  1.00  0.00    -0.355 F  
HETATM   20  C   UNL     1     -10.510  16.544  67.119  1.00  0.00    -0.300 C  
HETATM   21  C   UNL     1      -7.826  17.358  67.399  1.00  0.00    -0.212 C  
HETATM   22  C   UNL     1      -7.342  18.024  68.681  1.00  0.00    -0.286 C  
HETATM   23  H   UNL     1      -8.692  15.824  69.770  1.00  0.00     0.000 HD 
HETATM   24  O   UNL     1      -6.823  21.381  67.431  1.00  0.00    -0.573 OA 
HETATM   25  C   UNL     1     -10.739  17.860  66.352  1.00  0.00    -0.114 C  
HETATM   26  C   UNL     1      -6.942  19.322  68.662  1.00  0.00    -0.343 C  
ENDROOT
BRANCH   4  27
HETATM   27  C   UNL     1     -11.586  12.903  69.075  1.00  0.00    -0.322 C  
HETATM   28  O   UNL     1     -12.185  13.025  70.157  1.00  0.00    -0.321 OA 
BRANCH  27  29
HETATM   29  C   UNL     1     -11.253  11.446  68.659  1.00  0.00    -0.243 C  
BRANCH  29  30
HETATM   30  O   UNL     1     -10.132  10.896  69.393  1.00  0.00    -0.189 OA 
BRANCH  30  31
HETATM   31  C   UNL     1      -9.389   9.988  68.710  1.00  0.00    -0.162 C  
HETATM   32  O   UNL     1      -9.116  10.058  67.525  1.00  0.00    -0.134 OA 
BRANCH  31  33
HETATM   33  C   UNL     1      -8.957   8.840  69.566  1.00  0.00    -0.145 A  
HETATM   34  C   UNL     1      -8.033   6.656  71.089  1.00  0.00    -0.107 A  
HETATM   35  O   UNL     1     -10.399   5.483  72.784  1.00  0.00    -0.180 OA 
HETATM   36  C   UNL     1      -7.354   7.029  69.937  1.00  0.00    -0.085 A  
HETATM   37  C   UNL     1      -7.810   8.117  69.179  1.00  0.00    -0.107 A  
HETATM   38  O   UNL     1      -8.856   6.928  74.092  1.00  0.00    -0.150 OA 
HETATM   39  O   UNL     1     -10.941   7.896  73.308  1.00  0.00    -0.334 OA 
HETATM   40  C   UNL     1      -9.641   8.464  70.734  1.00  0.00    -0.203 A  
HETATM   41  S   UNL     1     -10.001   6.864  72.961  1.00  0.00    -0.206 S  
HETATM   42  C   UNL     1      -9.162   7.364  71.472  1.00  0.00    -0.140 A  
ENDBRANCH  31  33
ENDBRANCH  30  31
ENDBRANCH  29  30
ENDBRANCH  27  29
ENDBRANCH   4  27
TORSDOF 5
ENDMDL
MODEL      110
REMARK 921   NORMALIZED FREE ENERGY PREDICTED BY IDOCK:   -5.32 KCAL/MOL
REMARK 922        TOTAL FREE ENERGY PREDICTED BY IDOCK:   -7.59 KCAL/MOL
REMARK 923 INTER-LIGAND FREE ENERGY PREDICTED BY IDOCK:   -8.45 KCAL/MOL
REMARK 924 INTRA-LIGAND FREE ENERGY PREDICTED BY IDOCK:    0.86 KCAL/MOL
REMARK 927      BINDING AFFINITY PREDICTED BY RF-SCORE:    0.00 PKD
ROOT
HETATM    1  C   UNL     1     -10.689  11.798  64.959  1.00  0.00    -0.344 C  
HETATM    2  C   UNL     1     -11.655  11.005  65.603  1.00  0.00     0.653 C  
HETATM    3  C   UNL     1     -10.917  11.938  66.523  1.00  0.00    -0.337 C  
HETATM    4  C   UNL     1      -9.755  13.415  65.643  1.00  0.00    -0.082 C  
HETATM    5  C   UNL     1     -11.948  11.811  67.867  1.00  0.00    -0.168 C  
HETATM    6  O   UNL     1      -9.833  13.618  64.187  1.00  0.00    -0.693 OA 
HETATM    7  C   UNL     1      -7.281   7.193  66.190  1.00  0.00    -0.074 C  
HETATM    8  C   UNL     1     -10.982  13.291  66.200  1.00  0.00    -0.292 C  
HETATM    9  C   UNL     1      -5.790   7.309  65.998  1.00  0.00    -0.036 C  
HETATM   10  C   UNL     1      -7.775   8.413  65.903  1.00  0.00    -0.086 C  
HETATM   11  C   UNL     1     -12.250  14.114  65.931  1.00  0.00    -0.458 C  
HETATM   12  H   UNL     1      -9.301  14.294  63.784  1.00  0.00     0.000 HD 
HETATM   13  C   UNL     1      -9.733  13.287  67.684  1.00  0.00    -0.219 C  
HETATM   14  C   UNL     1      -8.352  12.182  67.419  1.00  0.00    -0.174 C  
HETATM   15  C   UNL     1      -7.948   8.800  64.447  1.00  0.00    -0.144 C  
HETATM   16  C   UNL     1      -8.519  10.693  66.582  1.00  0.00    -0.137 C  
HETATM   17  C   UNL     1      -7.650   9.157  68.371  1.00  0.00    -0.083 C  
HETATM   18  O   UNL     1      -7.333  13.001  66.803  1.00  0.00    -0.309 OA 
HETATM   19  F   UNL     1      -9.557   9.916  67.165  1.00  0.00    -0.167 F  
HETATM   20  C   UNL     1      -9.096  10.973  65.068  1.00  0.00    -0.182 C  
HETATM   21  C   UNL     1      -7.419   9.583  66.857  1.00  0.00    -0.094 C  
HETATM   22  C   UNL     1      -5.903   9.703  66.758  1.00  0.00    -0.055 C  
HETATM   23  H   UNL     1      -6.600  12.414  66.662  1.00  0.00     0.000 HD 
HETATM   24  O   UNL     1      -5.134   6.375  65.562  1.00  0.00    -0.013 OA 
HETATM   25  C   UNL     1      -9.188   9.659  64.269  1.00  0.00    -0.235 C  
HETATM   26  C   UNL     1      -5.159   8.622  66.408  1.00  0.00    -0.030 C  
ENDROOT
BRANCH   4  27
HETATM   27  C   UNL     1      -9.661  15.130  65.864  1.00  0.00    -0.350 C  
HETATM   28  O   UNL     1      -9.856  15.983  64.981  1.00  0.00    -0.338 OA 
BRANCH  27  29
HETATM   29  C   UNL     1      -9.385  15.693  67.283  1.00  0.00    -0.215 C  
BRANCH  29  30
HETATM   30  O   UNL     1     -10.327  16.723  67.671  1.00  0.00    -0.291 OA 
BRANCH  30  31
HETATM   31  C   UNL     1     -10.270  17.089  68.977  1.00  0.00    -0.313 C  
HETATM   32  O   UNL     1      -9.544  17.955  69.429  1.00  0.00     0.007 OA 
BRANCH  31  33
HETATM   33  C   UNL     1     -11.184  16.278  69.840  1.00  0.00    -0.319 A  
HETATM   34  C   UNL     1     -12.925  14.660  71.357  1.00  0.00    -0.404 A  
HETATM   35  O   UNL     1     -14.157  16.350  73.696  1.00  0.00    -0.193 OA 
HETATM   36  C   UNL     1     -12.643  14.324  70.039  1.00  0.00    -0.277 A  
HETATM   37  C   UNL     1     -11.776  15.126  69.284  1.00  0.00    -0.352 A  
HETATM   38  O   UNL     1     -12.299  14.862  74.413  1.00  0.00    -0.560 OA 
HETATM   39  O   UNL     1     -11.803  17.210  74.033  1.00  0.00    -0.177 OA 
HETATM   40  C   UNL     1     -11.466  16.616  71.175  1.00  0.00     0.109 A  
HETATM   41  S   UNL     1     -12.721  16.189  73.602  1.00  0.00    -0.558 S  
HETATM   42  C   UNL     1     -12.346  15.794  71.907  1.00  0.00    -0.459 A  
ENDBRANCH  31  33
ENDBRANCH  30  31
ENDBRANCH  29  30
ENDBRANCH  27  29
ENDBRANCH   4  27
TORSDOF 5
ENDMDL
MODEL      111
REMARK 921   NORMALIZED FREE ENERGY PREDICTED BY IDOCK:   -5.28 KCAL/MOL
REMARK 922        TOTAL FREE ENERGY PREDICTED BY IDOCK:   -7.53 KCAL/MOL
REMARK 923 INTER-LIGAND FREE ENERGY PREDICTED BY IDOCK:   -7.34 KCAL/MOL
REMARK 924 INTRA-LIGAND FREE ENERGY PREDICTED BY IDOCK:   -0.19 KCAL/MOL
REMARK 927      BINDING AFFINITY PREDICTED BY RF-SCORE:    0.00 PKD
ROOT
HETATM    1  C   UNL     1      -8.773  12.261  68.273  1.00  0.00    -0.178 C  
HETATM    2  C   UNL     1      -8.850  13.438  67.509  1.00  0.00    -0.210 C  
HETATM    3  C   UNL     1     -10.093  12.594  67.459  1.00  0.00    -0.212 C  
HETATM    4  C   UNL     1     -10.246  11.047  68.834  1.00  0.00    -0.203 C  
HETATM    5  C   UNL     1     -11.134  13.746  66.771  1.00  0.00    -0.316 C  
HETATM    6  O   UNL     1      -9.246  10.942  69.911  1.00  0.00    -0.192 OA 
HETATM    7  C   UNL     1      -6.601  10.130  63.265  1.00  0.00    -0.134 C  
HETATM    8  C   UNL     1     -10.692  12.316  68.685  1.00  0.00    -0.261 C  
HETATM    9  C   UNL     1      -6.413   8.642  63.120  1.00  0.00    -0.090 C  
HETATM   10  C   UNL     1      -7.176  10.302  64.471  1.00  0.00    -0.073 C  
HETATM   11  C   UNL     1     -11.090  13.331  69.766  1.00  0.00     0.083 C  
HETATM   12  H   UNL     1      -9.316  10.234  70.540  1.00  0.00     0.000 HD 
HETATM   13  C   UNL     1     -11.750  11.244  67.463  1.00  0.00    -0.166 C  
HETATM   14  C   UNL     1     -10.752  10.135  66.477  1.00  0.00    -0.048 C  
HETATM   15  C   UNL     1      -6.299  10.246  65.707  1.00  0.00    -0.111 C  
HETATM   16  C   UNL     1      -9.183  10.562  65.926  1.00  0.00    -0.179 C  
HETATM   17  C   UNL     1      -9.550  10.239  63.462  1.00  0.00    -0.321 C  
HETATM   18  O   UNL     1     -10.709   8.903  67.231  1.00  0.00    -0.362 OA 
HETATM   19  F   UNL     1      -9.228  11.800  65.229  1.00  0.00    -0.201 F  
HETATM   20  C   UNL     1      -8.224  10.917  67.213  1.00  0.00    -0.123 C  
HETATM   21  C   UNL     1      -8.622   9.776  64.667  1.00  0.00    -0.199 C  
HETATM   22  C   UNL     1      -8.508   8.271  64.460  1.00  0.00    -0.040 C  
HETATM   23  H   UNL     1     -10.179   8.315  66.707  1.00  0.00     0.000 HD 
HETATM   24  O   UNL     1      -5.442   8.181  62.539  1.00  0.00    -0.067 OA 
HETATM   25  C   UNL     1      -6.789  11.234  66.753  1.00  0.00    -0.140 C  
HETATM   26  C   UNL     1      -7.506   7.766  63.696  1.00  0.00    -0.108 C  
ENDROOT
BRANCH   4  27
HETATM   27  C   UNL     1     -11.482  10.583  69.955  1.00  0.00    -0.310 C  
HETATM   28  O   UNL     1     -12.476  11.267  70.256  1.00  0.00    -0.290 OA 
BRANCH  27  29
HETATM   29  C   UNL     1     -11.420   9.176  70.604  1.00  0.00    -0.262 C  
BRANCH  29  30
HETATM   30  O   UNL     1     -10.833   9.195  71.928  1.00  0.00    -0.359 OA 
BRANCH  30  31
HETATM   31  C   UNL     1      -9.693   8.469  72.061  1.00  0.00    -0.307 C  
HETATM   32  O   UNL     1      -8.770   8.747  72.805  1.00  0.00    -0.398 OA 
BRANCH  31  33
HETATM   33  C   UNL     1      -9.661   7.281  71.153  1.00  0.00    -0.171 A  
HETATM   34  C   UNL     1      -9.695   4.978  69.527  1.00  0.00    -0.259 A  
HETATM   35  O   UNL     1      -7.047   4.838  67.851  1.00  0.00    -0.060 OA 
HETATM   36  C   UNL     1     -10.475   5.024  70.676  1.00  0.00    -0.227 A  
HETATM   37  C   UNL     1     -10.462   6.169  71.484  1.00  0.00    -0.268 A  
HETATM   38  O   UNL     1      -9.002   5.666  66.558  1.00  0.00    -0.119 OA 
HETATM   39  O   UNL     1      -7.431   7.301  67.430  1.00  0.00    -0.092 OA 
HETATM   40  C   UNL     1      -8.875   7.236  69.989  1.00  0.00    -0.141 A  
HETATM   41  S   UNL     1      -7.926   5.980  67.715  1.00  0.00    -0.106 S  
HETATM   42  C   UNL     1      -8.905   6.070  69.199  1.00  0.00    -0.119 A  
ENDBRANCH  31  33
ENDBRANCH  30  31
ENDBRANCH  29  30
ENDBRANCH  27  29
ENDBRANCH   4  27
TORSDOF 5
ENDMDL
MODEL      112
REMARK 921   NORMALIZED FREE ENERGY PREDICTED BY IDOCK:   -5.26 KCAL/MOL
REMARK 922        TOTAL FREE ENERGY PREDICTED BY IDOCK:   -7.51 KCAL/MOL
REMARK 923 INTER-LIGAND FREE ENERGY PREDICTED BY IDOCK:   -8.25 KCAL/MOL
REMARK 924 INTRA-LIGAND FREE ENERGY PREDICTED BY IDOCK:    0.74 KCAL/MOL
REMARK 927      BINDING AFFINITY PREDICTED BY RF-SCORE:    0.00 PKD
ROOT
HETATM    1  C   UNL     1     -10.914  13.561  68.723  1.00  0.00    -0.291 C  
HETATM    2  C   UNL     1     -12.261  13.685  68.342  1.00  0.00    -0.168 C  
HETATM    3  C   UNL     1     -11.334  13.334  67.211  1.00  0.00    -0.347 C  
HETATM    4  C   UNL     1      -9.406  12.750  67.710  1.00  0.00    -0.199 C  
HETATM    5  C   UNL     1     -12.511  12.878  66.074  1.00  0.00    -0.171 C  
HETATM    6  O   UNL     1      -9.069  12.523  69.125  1.00  0.00    -0.201 OA 
HETATM    7  C   UNL     1     -10.903  19.298  67.526  1.00  0.00    -0.524 C  
HETATM    8  C   UNL     1     -10.584  12.173  67.375  1.00  0.00    -0.253 C  
HETATM    9  C   UNL     1      -9.588  20.033  67.463  1.00  0.00    -0.393 C  
HETATM   10  C   UNL     1     -10.581  18.007  67.740  1.00  0.00    -0.409 C  
HETATM   11  C   UNL     1     -11.112  10.779  67.743  1.00  0.00    -0.381 C  
HETATM   12  H   UNL     1      -8.186  12.256  69.353  1.00  0.00     0.000 HD 
HETATM   13  C   UNL     1      -9.866  12.891  65.722  1.00  0.00    -0.216 C  
HETATM   14  C   UNL     1      -9.293  14.576  65.894  1.00  0.00    -0.095 C  
HETATM   15  C   UNL     1     -10.219  17.574  69.148  1.00  0.00    -0.256 C  
HETATM   16  C   UNL     1     -10.076  15.708  66.920  1.00  0.00    -0.263 C  
HETATM   17  C   UNL     1     -10.565  17.486  65.213  1.00  0.00     0.122 C  
HETATM   18  O   UNL     1      -7.894  14.460  66.236  1.00  0.00     0.286 OA 
HETATM   19  F   UNL     1     -11.461  15.777  66.608  1.00  0.00    -0.177 F  
HETATM   20  C   UNL     1     -10.090  15.138  68.461  1.00  0.00    -0.228 C  
HETATM   21  C   UNL     1      -9.842  17.247  66.608  1.00  0.00    -0.299 C  
HETATM   22  C   UNL     1      -8.524  17.993  66.448  1.00  0.00    -0.262 C  
HETATM   23  H   UNL     1      -7.590  15.356  66.328  1.00  0.00     0.000 HD 
HETATM   24  O   UNL     1      -9.478  21.170  67.898  1.00  0.00     0.010 OA 
HETATM   25  C   UNL     1     -10.723  16.166  69.417  1.00  0.00    -0.307 C  
HETATM   26  C   UNL     1      -8.439  19.302  66.803  1.00  0.00    -0.321 C  
ENDROOT
BRANCH   4  27
HETATM   27  C   UNL     1      -8.438  11.383  67.273  1.00  0.00    -0.148 C  
HETATM   28  O   UNL     1      -7.357  11.431  66.660  1.00  0.00    -0.144 OA 
BRANCH  27  29
HETATM   29  C   UNL     1      -8.884   9.968  67.726  1.00  0.00    -0.125 C  
BRANCH  29  30
HETATM   30  O   UNL     1      -7.924   9.332  68.604  1.00  0.00    -0.098 OA 
BRANCH  30  31
HETATM   31  C   UNL     1      -7.833   7.984  68.473  1.00  0.00    -0.115 C  
HETATM   32  O   UNL     1      -7.085   7.404  67.707  1.00  0.00    -0.079 OA 
BRANCH  31  33
HETATM   33  C   UNL     1      -8.794   7.256  69.359  1.00  0.00    -0.137 A  
HETATM   34  C   UNL     1     -10.630   5.793  70.919  1.00  0.00    -0.329 A  
HETATM   35  O   UNL     1     -11.738   7.616  73.220  1.00  0.00    -0.142 OA 
HETATM   36  C   UNL     1     -10.377   5.408  69.609  1.00  0.00    -0.361 A  
HETATM   37  C   UNL     1      -9.463   6.131  68.832  1.00  0.00    -0.131 A  
HETATM   38  O   UNL     1      -9.979   6.027  73.967  1.00  0.00    -0.189 OA 
HETATM   39  O   UNL     1      -9.331   8.327  73.529  1.00  0.00    -0.210 OA 
HETATM   40  C   UNL     1      -9.047   7.643  70.685  1.00  0.00    -0.158 A  
HETATM   41  S   UNL     1     -10.316   7.358  73.126  1.00  0.00    -0.365 S  
HETATM   42  C   UNL     1      -9.976   6.899  71.440  1.00  0.00    -0.181 A  
ENDBRANCH  31  33
ENDBRANCH  30  31
ENDBRANCH  29  30
ENDBRANCH  27  29
ENDBRANCH   4  27
TORSDOF 5
ENDMDL
MODEL      113
REMARK 921   NORMALIZED FREE ENERGY PREDICTED BY IDOCK:   -5.26 KCAL/MOL
REMARK 922        TOTAL FREE ENERGY PREDICTED BY IDOCK:   -7.50 KCAL/MOL
REMARK 923 INTER-LIGAND FREE ENERGY PREDICTED BY IDOCK:   -7.58 KCAL/MOL
REMARK 924 INTRA-LIGAND FREE ENERGY PREDICTED BY IDOCK:    0.08 KCAL/MOL
REMARK 927      BINDING AFFINITY PREDICTED BY RF-SCORE:    0.00 PKD
ROOT
HETATM    1  C   UNL     1      -7.515   9.089  67.500  1.00  0.00    -0.081 C  
HETATM    2  C   UNL     1      -7.195   7.864  66.891  1.00  0.00    -0.089 C  
HETATM    3  C   UNL     1      -8.655   8.219  66.824  1.00  0.00    -0.131 C  
HETATM    4  C   UNL     1      -9.185  10.158  67.339  1.00  0.00    -0.141 C  
HETATM    5  C   UNL     1      -9.124   7.076  65.659  1.00  0.00     0.097 C  
HETATM    6  O   UNL     1      -8.125  11.155  67.567  1.00  0.00    -0.114 OA 
HETATM    7  C   UNL     1      -8.120   5.652  72.206  1.00  0.00    -0.108 C  
HETATM    8  C   UNL     1      -8.960   9.434  66.217  1.00  0.00    -0.189 C  
HETATM    9  C   UNL     1      -8.746   6.218  73.455  1.00  0.00    -0.124 C  
HETATM   10  C   UNL     1      -8.188   6.639  71.292  1.00  0.00    -0.120 C  
HETATM   11  C   UNL     1      -8.495   9.917  64.837  1.00  0.00    -0.168 C  
HETATM   12  H   UNL     1      -8.368  12.043  67.803  1.00  0.00     0.000 HD 
HETATM   13  C   UNL     1     -10.694   8.859  66.871  1.00  0.00    -0.153 C  
HETATM   14  C   UNL     1     -10.686   8.503  68.624  1.00  0.00    -0.041 C  
HETATM   15  C   UNL     1      -7.162   7.755  71.354  1.00  0.00    -0.063 C  
HETATM   16  C   UNL     1      -9.326   7.811  69.410  1.00  0.00    -0.152 C  
HETATM   17  C   UNL     1     -10.447   5.785  70.385  1.00  0.00    -0.342 C  
HETATM   18  O   UNL     1     -11.063   9.745  69.258  1.00  0.00    -0.320 OA 
HETATM   19  F   UNL     1      -8.932   6.616  68.748  1.00  0.00    -0.126 F  
HETATM   20  C   UNL     1      -8.015   8.779  69.199  1.00  0.00    -0.109 C  
HETATM   21  C   UNL     1      -9.590   7.063  70.785  1.00  0.00    -0.164 C  
HETATM   22  C   UNL     1     -10.302   7.584  72.028  1.00  0.00    -0.236 C  
HETATM   23  H   UNL     1     -11.058   9.556  70.189  1.00  0.00     0.000 HD 
HETATM   24  O   UNL     1      -8.329   5.917  74.564  1.00  0.00    -0.111 OA 
HETATM   25  C   UNL     1      -6.795   8.218  69.955  1.00  0.00    -0.043 C  
HETATM   26  C   UNL     1      -9.930   7.141  73.256  1.00  0.00    -0.296 C  
ENDROOT
BRANCH   4  27
HETATM   27  C   UNL     1     -10.137  11.370  66.549  1.00  0.00    -0.215 C  
HETATM   28  O   UNL     1     -11.365  11.316  66.364  1.00  0.00    -0.279 OA 
BRANCH  27  29
HETATM   29  C   UNL     1      -9.450  12.680  66.081  1.00  0.00    -0.175 C  
BRANCH  29  30
HETATM   30  O   UNL     1      -9.617  13.767  67.024  1.00  0.00    -0.235 OA 
BRANCH  30  31
HETATM   31  C   UNL     1     -10.368  14.805  66.575  1.00  0.00    -0.286 C  
HETATM   32  O   UNL     1     -11.335  14.703  65.843  1.00  0.00    -0.334 OA 
BRANCH  31  33
HETATM   33  C   UNL     1      -9.858  16.130  67.049  1.00  0.00    -0.248 A  
HETATM   34  C   UNL     1      -9.009  18.633  68.028  1.00  0.00    -0.324 A  
HETATM   35  O   UNL     1      -7.119  19.995  65.926  1.00  0.00    -0.270 OA 
HETATM   36  C   UNL     1     -10.184  18.067  68.506  1.00  0.00    -0.392 A  
HETATM   37  C   UNL     1     -10.606  16.821  68.023  1.00  0.00    -0.347 A  
HETATM   38  O   UNL     1      -5.906  18.946  67.826  1.00  0.00    -0.192 OA 
HETATM   39  O   UNL     1      -6.039  17.717  65.734  1.00  0.00    -0.205 OA 
HETATM   40  C   UNL     1      -8.668  16.700  66.567  1.00  0.00    -0.317 A  
HETATM   41  S   UNL     1      -6.766  18.707  66.485  1.00  0.00    -0.210 S  
HETATM   42  C   UNL     1      -8.271  17.956  67.068  1.00  0.00    -0.226 A  
ENDBRANCH  31  33
ENDBRANCH  30  31
ENDBRANCH  29  30
ENDBRANCH  27  29
ENDBRANCH   4  27
TORSDOF 5
ENDMDL
MODEL      114
REMARK 921   NORMALIZED FREE ENERGY PREDICTED BY IDOCK:   -5.20 KCAL/MOL
REMARK 922        TOTAL FREE ENERGY PREDICTED BY IDOCK:   -7.44 KCAL/MOL
REMARK 923 INTER-LIGAND FREE ENERGY PREDICTED BY IDOCK:   -7.39 KCAL/MOL
REMARK 924 INTRA-LIGAND FREE ENERGY PREDICTED BY IDOCK:   -0.05 KCAL/MOL
REMARK 927      BINDING AFFINITY PREDICTED BY RF-SCORE:    0.00 PKD
ROOT
HETATM    1  C   UNL     1      -6.948   9.178  68.952  1.00  0.00    -0.064 C  
HETATM    2  C   UNL     1      -5.802   8.367  69.017  1.00  0.00    -0.039 C  
HETATM    3  C   UNL     1      -6.759   7.988  67.921  1.00  0.00    -0.068 C  
HETATM    4  C   UNL     1      -8.279   9.330  67.482  1.00  0.00    -0.114 C  
HETATM    5  C   UNL     1      -5.725   6.960  67.050  1.00  0.00    -0.018 C  
HETATM    6  O   UNL     1      -8.266  10.661  68.111  1.00  0.00    -0.110 OA 
HETATM    7  C   UNL     1      -8.990   5.172  72.711  1.00  0.00    -0.123 C  
HETATM    8  C   UNL     1      -7.061   8.989  67.001  1.00  0.00    -0.079 C  
HETATM    9  C   UNL     1     -10.458   5.166  73.053  1.00  0.00    -0.210 C  
HETATM   10  C   UNL     1      -8.842   6.138  71.783  1.00  0.00    -0.138 C  
HETATM   11  C   UNL     1      -6.062   9.846  66.212  1.00  0.00    -0.066 C  
HETATM   12  H   UNL     1      -8.962  11.275  67.910  1.00  0.00     0.000 HD 
HETATM   13  C   UNL     1      -8.255   7.561  66.455  1.00  0.00    -0.123 C  
HETATM   14  C   UNL     1      -9.291   6.979  67.792  1.00  0.00    -0.125 C  
HETATM   15  C   UNL     1      -8.788   7.582  72.244  1.00  0.00    -0.161 C  
HETATM   16  C   UNL     1      -8.734   6.906  69.415  1.00  0.00    -0.133 C  
HETATM   17  C   UNL     1      -9.149   4.465  69.843  1.00  0.00    -0.173 C  
HETATM   18  O   UNL     1     -10.495   7.773  67.703  1.00  0.00    -0.226 OA 
HETATM   19  F   UNL     1      -7.522   6.166  69.485  1.00  0.00    -0.081 F  
HETATM   20  C   UNL     1      -8.262   8.402  69.904  1.00  0.00    -0.122 C  
HETATM   21  C   UNL     1      -9.495   5.916  70.394  1.00  0.00    -0.192 C  
HETATM   22  C   UNL     1     -10.988   5.830  70.687  1.00  0.00    -0.319 C  
HETATM   23  H   UNL     1     -11.045   7.464  68.413  1.00  0.00     0.000 HD 
HETATM   24  O   UNL     1     -10.841   4.929  74.189  1.00  0.00    -0.295 OA 
HETATM   25  C   UNL     1      -7.824   8.380  71.381  1.00  0.00    -0.137 C  
HETATM   26  C   UNL     1     -11.416   5.430  71.912  1.00  0.00     0.025 C  
ENDROOT
BRANCH   4  27
HETATM   27  C   UNL     1      -8.828  10.048  66.004  1.00  0.00    -0.145 C  
HETATM   28  O   UNL     1      -8.145  10.195  64.976  1.00  0.00    -0.140 OA 
BRANCH  27  29
HETATM   29  C   UNL     1     -10.310  10.493  65.889  1.00  0.00    -0.206 C  
BRANCH  29  30
HETATM   30  O   UNL     1     -10.482  11.919  66.074  1.00  0.00    -0.231 OA 
BRANCH  30  31
HETATM   31  C   UNL     1     -11.713  12.297  66.506  1.00  0.00    -0.352 C  
HETATM   32  O   UNL     1     -12.632  12.642  65.784  1.00  0.00    -0.575 OA 
BRANCH  31  33
HETATM   33  C   UNL     1     -11.826  12.285  67.997  1.00  0.00    -0.368 A  
HETATM   34  C   UNL     1     -12.038  12.406  70.805  1.00  0.00    -0.245 A  
HETATM   35  O   UNL     1     -11.010   9.717  72.052  1.00  0.00     0.004 OA 
HETATM   36  C   UNL     1     -11.960  13.580  70.068  1.00  0.00    -0.410 A  
HETATM   37  C   UNL     1     -11.857  13.523  68.671  1.00  0.00    -0.404 A  
HETATM   38  O   UNL     1     -13.488   9.885  71.951  1.00  0.00    -0.397 OA 
HETATM   39  O   UNL     1     -12.358   8.601  70.227  1.00  0.00     0.306 OA 
HETATM   40  C   UNL     1     -11.909  11.097  68.743  1.00  0.00    -0.388 A  
HETATM   41  S   UNL     1     -12.119   9.702  71.122  1.00  0.00    -0.385 S  
HETATM   42  C   UNL     1     -12.006  11.187  70.146  1.00  0.00    -0.365 A  
ENDBRANCH  31  33
ENDBRANCH  30  31
ENDBRANCH  29  30
ENDBRANCH  27  29
ENDBRANCH   4  27
TORSDOF 5
ENDMDL
MODEL      115
REMARK 921   NORMALIZED FREE ENERGY PREDICTED BY IDOCK:   -5.19 KCAL/MOL
REMARK 922        TOTAL FREE ENERGY PREDICTED BY IDOCK:   -7.41 KCAL/MOL
REMARK 923 INTER-LIGAND FREE ENERGY PREDICTED BY IDOCK:   -7.48 KCAL/MOL
REMARK 924 INTRA-LIGAND FREE ENERGY PREDICTED BY IDOCK:    0.07 KCAL/MOL
REMARK 927      BINDING AFFINITY PREDICTED BY RF-SCORE:    0.00 PKD
ROOT
HETATM    1  C   UNL     1      -8.433   8.789  66.422  1.00  0.00    -0.127 C  
HETATM    2  C   UNL     1      -7.129   8.655  66.930  1.00  0.00    -0.075 C  
HETATM    3  C   UNL     1      -7.190   9.239  65.546  1.00  0.00    -0.086 C  
HETATM    4  C   UNL     1      -9.050   9.837  64.848  1.00  0.00    -0.229 C  
HETATM    5  C   UNL     1      -5.593   9.810  65.459  1.00  0.00    -0.056 C  
HETATM    6  O   UNL     1     -10.195   9.847  65.775  1.00  0.00    -0.265 OA 
HETATM    7  C   UNL     1      -7.377   3.337  64.550  1.00  0.00    -0.070 C  
HETATM    8  C   UNL     1      -7.950  10.397  65.404  1.00  0.00    -0.147 C  
HETATM    9  C   UNL     1      -8.333   2.696  63.577  1.00  0.00    -0.085 C  
HETATM   10  C   UNL     1      -7.836   4.591  64.729  1.00  0.00    -0.086 C  
HETATM   11  C   UNL     1      -7.839  11.679  66.239  1.00  0.00     0.117 C  
HETATM   12  H   UNL     1     -11.047  10.120  65.455  1.00  0.00     0.000 HD 
HETATM   13  C   UNL     1      -7.464  10.001  63.567  1.00  0.00    -0.140 C  
HETATM   14  C   UNL     1      -7.924   8.345  63.074  1.00  0.00    -0.161 C  
HETATM   15  C   UNL     1      -9.008   4.805  65.669  1.00  0.00    -0.142 C  
HETATM   16  C   UNL     1      -7.867   7.018  64.162  1.00  0.00    -0.106 C  
HETATM   17  C   UNL     1      -6.335   5.521  62.849  1.00  0.00    -0.021 C  
HETATM   18  O   UNL     1      -9.244   8.479  62.503  1.00  0.00    -0.441 OA 
HETATM   19  F   UNL     1      -6.579   6.924  64.756  1.00  0.00    -0.039 F  
HETATM   20  C   UNL     1      -8.831   7.325  65.457  1.00  0.00     0.011 C  
HETATM   21  C   UNL     1      -7.772   5.567  63.526  1.00  0.00    -0.089 C  
HETATM   22  C   UNL     1      -8.672   4.930  62.474  1.00  0.00    -0.123 C  
HETATM   23  H   UNL     1      -9.488   7.599  62.242  1.00  0.00     0.000 HD 
HETATM   24  O   UNL     1      -8.620   1.511  63.660  1.00  0.00    -0.075 OA 
HETATM   25  C   UNL     1      -8.856   6.120  66.417  1.00  0.00    -0.144 C  
HETATM   26  C   UNL     1      -8.879   3.588  62.483  1.00  0.00    -0.085 C  
ENDROOT
BRANCH   4  27
HETATM   27  C   UNL     1      -9.627  11.309  64.141  1.00  0.00    -0.225 C  
HETATM   28  O   UNL     1      -9.118  11.890  63.168  1.00  0.00    -0.147 OA 
BRANCH  27  29
HETATM   29  C   UNL     1     -10.928  11.950  64.693  1.00  0.00    -0.316 C  
BRANCH  29  30
HETATM   30  O   UNL     1     -10.669  13.012  65.644  1.00  0.00    -0.270 OA 
BRANCH  30  31
HETATM   31  C   UNL     1     -10.806  14.269  65.151  1.00  0.00    -0.378 C  
HETATM   32  O   UNL     1     -11.421  14.561  64.141  1.00  0.00    -0.226 OA 
BRANCH  31  33
HETATM   33  C   UNL     1     -10.078  15.289  65.969  1.00  0.00    -0.340 A  
HETATM   34  C   UNL     1      -8.622  17.104  67.559  1.00  0.00    -0.209 A  
HETATM   35  O   UNL     1     -10.372  19.648  68.117  1.00  0.00    -0.428 OA 
HETATM   36  C   UNL     1      -8.294  15.755  67.576  1.00  0.00    -0.183 A  
HETATM   37  C   UNL     1      -9.014  14.851  66.784  1.00  0.00    -0.295 A  
HETATM   38  O   UNL     1      -8.668  19.982  66.339  1.00  0.00    -0.334 OA 
HETATM   39  O   UNL     1     -10.955  19.527  65.660  1.00  0.00    -0.394 OA 
HETATM   40  C   UNL     1     -10.408  16.654  65.949  1.00  0.00    -0.355 A  
HETATM   41  S   UNL     1     -10.055  19.276  66.754  1.00  0.00    -0.427 S  
HETATM   42  C   UNL     1      -9.669  17.539  66.759  1.00  0.00    -0.295 A  
ENDBRANCH  31  33
ENDBRANCH  30  31
ENDBRANCH  29  30
ENDBRANCH  27  29
ENDBRANCH   4  27
TORSDOF 5
ENDMDL
MODEL      116
REMARK 921   NORMALIZED FREE ENERGY PREDICTED BY IDOCK:   -5.16 KCAL/MOL
REMARK 922        TOTAL FREE ENERGY PREDICTED BY IDOCK:   -7.37 KCAL/MOL
REMARK 923 INTER-LIGAND FREE ENERGY PREDICTED BY IDOCK:   -6.72 KCAL/MOL
REMARK 924 INTRA-LIGAND FREE ENERGY PREDICTED BY IDOCK:   -0.65 KCAL/MOL
REMARK 927      BINDING AFFINITY PREDICTED BY RF-SCORE:    0.00 PKD
ROOT
HETATM    1  C   UNL     1     -10.622   7.180  70.875  1.00  0.00    -0.238 C  
HETATM    2  C   UNL     1     -11.614   6.225  71.152  1.00  0.00    -0.339 C  
HETATM    3  C   UNL     1     -10.233   5.814  71.580  1.00  0.00    -0.255 C  
HETATM    4  C   UNL     1      -8.763   7.279  71.578  1.00  0.00    -0.118 C  
HETATM    5  C   UNL     1     -10.671   4.501  72.564  1.00  0.00    -0.192 C  
HETATM    6  O   UNL     1      -9.148   8.681  71.344  1.00  0.00    -0.186 OA 
HETATM    7  C   UNL     1     -10.388   4.263  65.799  1.00  0.00    -0.180 C  
HETATM    8  C   UNL     1      -9.587   6.673  72.465  1.00  0.00    -0.162 C  
HETATM    9  C   UNL     1      -9.260   4.545  64.839  1.00  0.00    -0.156 C  
HETATM   10  C   UNL     1     -10.131   5.017  66.885  1.00  0.00    -0.261 C  
HETATM   11  C   UNL     1     -10.138   7.213  73.792  1.00  0.00    -0.391 C  
HETATM   12  H   UNL     1      -8.475   9.351  71.343  1.00  0.00     0.000 HD 
HETATM   13  C   UNL     1      -8.199   5.375  72.071  1.00  0.00    -0.115 C  
HETATM   14  C   UNL     1      -7.891   5.206  70.318  1.00  0.00    -0.079 C  
HETATM   15  C   UNL     1     -10.478   6.493  66.842  1.00  0.00    -0.347 C  
HETATM   16  C   UNL     1      -9.146   5.331  69.153  1.00  0.00    -0.108 C  
HETATM   17  C   UNL     1      -8.848   3.099  68.040  1.00  0.00    -0.158 C  
HETATM   18  O   UNL     1      -6.835   6.149  70.033  1.00  0.00    -0.053 OA 
HETATM   19  F   UNL     1     -10.202   4.435  69.471  1.00  0.00    -0.285 F  
HETATM   20  C   UNL     1      -9.876   6.798  69.285  1.00  0.00    -0.160 C  
HETATM   21  C   UNL     1      -8.887   4.659  67.739  1.00  0.00    -0.115 C  
HETATM   22  C   UNL     1      -7.709   4.859  66.793  1.00  0.00    -0.092 C  
HETATM   23  H   UNL     1      -6.672   6.059  69.101  1.00  0.00     0.000 HD 
HETATM   24  O   UNL     1      -9.449   4.574  63.632  1.00  0.00    -0.108 OA 
HETATM   25  C   UNL     1     -10.960   6.966  68.203  1.00  0.00    -0.220 C  
HETATM   26  C   UNL     1      -7.891   4.752  65.452  1.00  0.00    -0.091 C  
ENDROOT
BRANCH   4  27
HETATM   27  C   UNL     1      -7.620   7.804  72.768  1.00  0.00    -0.104 C  
HETATM   28  O   UNL     1      -7.596   7.439  73.957  1.00  0.00    -0.107 OA 
BRANCH  27  29
HETATM   29  C   UNL     1      -6.471   8.754  72.341  1.00  0.00    -0.022 C  
BRANCH  29  30
HETATM   30  O   UNL     1      -6.525   9.102  70.936  1.00  0.00    -0.058 OA 
BRANCH  30  31
HETATM   31  C   UNL     1      -6.200  10.389  70.651  1.00  0.00    -0.083 C  
HETATM   32  O   UNL     1      -5.541  11.119  71.369  1.00  0.00    -0.339 OA 
BRANCH  31  33
HETATM   33  C   UNL     1      -6.780  10.853  69.352  1.00  0.00    -0.107 A  
HETATM   34  C   UNL     1      -7.739  11.760  66.861  1.00  0.00    -0.129 A  
HETATM   35  O   UNL     1     -10.768  12.532  67.122  1.00  0.00    -0.232 OA 
HETATM   36  C   UNL     1      -6.380  11.821  67.141  1.00  0.00    -0.145 A  
HETATM   37  C   UNL     1      -5.900  11.368  68.378  1.00  0.00    -0.045 A  
HETATM   38  O   UNL     1     -10.393  10.314  66.064  1.00  0.00    -0.237 OA 
HETATM   39  O   UNL     1     -10.990  10.373  68.418  1.00  0.00    -0.230 OA 
HETATM   40  C   UNL     1      -8.154  10.787  69.067  1.00  0.00    -0.140 A  
HETATM   41  S   UNL     1     -10.341  11.182  67.421  1.00  0.00    -0.206 S  
HETATM   42  C   UNL     1      -8.607  11.255  67.818  1.00  0.00    -0.126 A  
ENDBRANCH  31  33
ENDBRANCH  30  31
ENDBRANCH  29  30
ENDBRANCH  27  29
ENDBRANCH   4  27
TORSDOF 5
ENDMDL
MODEL      117
REMARK 921   NORMALIZED FREE ENERGY PREDICTED BY IDOCK:   -5.15 KCAL/MOL
REMARK 922        TOTAL FREE ENERGY PREDICTED BY IDOCK:   -7.37 KCAL/MOL
REMARK 923 INTER-LIGAND FREE ENERGY PREDICTED BY IDOCK:   -7.65 KCAL/MOL
REMARK 924 INTRA-LIGAND FREE ENERGY PREDICTED BY IDOCK:    0.28 KCAL/MOL
REMARK 927      BINDING AFFINITY PREDICTED BY RF-SCORE:    0.00 PKD
ROOT
HETATM    1  C   UNL     1     -10.706  11.180  68.638  1.00  0.00    -0.234 C  
HETATM    2  C   UNL     1     -11.758  11.244  67.709  1.00  0.00    -0.254 C  
HETATM    3  C   UNL     1     -10.636  12.205  67.431  1.00  0.00    -0.253 C  
HETATM    4  C   UNL     1      -8.874  11.940  68.494  1.00  0.00    -0.108 C  
HETATM    5  C   UNL     1     -11.073  12.628  65.845  1.00  0.00    -0.323 C  
HETATM    6  O   UNL     1      -8.713  10.738  69.329  1.00  0.00    -0.314 OA 
HETATM    7  C   UNL     1     -14.005  15.153  71.407  1.00  0.00    -0.595 C  
HETATM    8  C   UNL     1      -9.373  11.640  67.272  1.00  0.00    -0.170 C  
HETATM    9  C   UNL     1     -13.429  15.894  72.587  1.00  0.00    -0.473 C  
HETATM   10  C   UNL     1     -13.003  14.380  70.945  1.00  0.00    -0.413 C  
HETATM   11  C   UNL     1      -8.991  10.490  66.331  1.00  0.00    -0.174 C  
HETATM   12  H   UNL     1      -7.906  10.617  69.816  1.00  0.00     0.000 HD 
HETATM   13  C   UNL     1      -8.978  13.540  67.223  1.00  0.00    -0.222 C  
HETATM   14  C   UNL     1      -9.596  14.409  68.658  1.00  0.00    -0.208 C  
HETATM   15  C   UNL     1     -12.696  13.082  71.668  1.00  0.00    -0.308 C  
HETATM   16  C   UNL     1     -11.067  13.974  69.428  1.00  0.00    -0.203 C  
HETATM   17  C   UNL     1     -12.244  16.188  69.268  1.00  0.00     0.191 C  
HETATM   18  O   UNL     1      -8.502  14.393  69.602  1.00  0.00    -0.311 OA 
HETATM   19  F   UNL     1     -12.127  13.944  68.482  1.00  0.00    -0.366 F  
HETATM   20  C   UNL     1     -10.990  12.408  69.920  1.00  0.00     0.400 C  
HETATM   21  C   UNL     1     -11.775  15.086  70.313  1.00  0.00    -0.338 C  
HETATM   22  C   UNL     1     -11.186  15.913  71.449  1.00  0.00    -0.298 C  
HETATM   23  H   UNL     1      -8.831  14.855  70.365  1.00  0.00     0.000 HD 
HETATM   24  O   UNL     1     -14.113  16.154  73.566  1.00  0.00    -0.257 OA 
HETATM   25  C   UNL     1     -12.270  12.010  70.679  1.00  0.00    -0.409 C  
HETATM   26  C   UNL     1     -11.982  16.323  72.471  1.00  0.00    -0.648 C  
ENDROOT
BRANCH   4  27
HETATM   27  C   UNL     1      -7.214  11.813  68.014  1.00  0.00    -0.084 C  
HETATM   28  O   UNL     1      -6.616  12.608  67.269  1.00  0.00    -0.160 OA 
BRANCH  27  29
HETATM   29  C   UNL     1      -6.348  10.666  68.598  1.00  0.00    -0.046 C  
BRANCH  29  30
HETATM   30  O   UNL     1      -6.868   9.352  68.278  1.00  0.00    -0.062 OA 
BRANCH  30  31
HETATM   31  C   UNL     1      -6.167   8.315  68.802  1.00  0.00    -0.045 C  
HETATM   32  O   UNL     1      -5.144   8.421  69.454  1.00  0.00    -0.029 OA 
BRANCH  31  33
HETATM   33  C   UNL     1      -6.766   6.987  68.462  1.00  0.00    -0.064 A  
HETATM   34  C   UNL     1      -7.889   4.450  67.961  1.00  0.00    -0.080 A  
HETATM   35  O   UNL     1      -7.421   3.672  64.958  1.00  0.00    -0.071 OA 
HETATM   36  C   UNL     1      -7.532   4.803  69.256  1.00  0.00    -0.053 A  
HETATM   37  C   UNL     1      -6.977   6.065  69.508  1.00  0.00    -0.067 A  
HETATM   38  O   UNL     1      -9.719   4.493  65.428  1.00  0.00    -0.172 OA 
HETATM   39  O   UNL     1      -8.127   6.046  64.451  1.00  0.00    -0.129 OA 
HETATM   40  C   UNL     1      -7.131   6.631  67.153  1.00  0.00    -0.076 A  
HETATM   41  S   UNL     1      -8.161   4.873  65.284  1.00  0.00    -0.119 S  
HETATM   42  C   UNL     1      -7.682   5.354  66.929  1.00  0.00    -0.100 A  
ENDBRANCH  31  33
ENDBRANCH  30  31
ENDBRANCH  29  30
ENDBRANCH  27  29
ENDBRANCH   4  27
TORSDOF 5
ENDMDL
MODEL      118
REMARK 921   NORMALIZED FREE ENERGY PREDICTED BY IDOCK:   -5.14 KCAL/MOL
REMARK 922        TOTAL FREE ENERGY PREDICTED BY IDOCK:   -7.35 KCAL/MOL
REMARK 923 INTER-LIGAND FREE ENERGY PREDICTED BY IDOCK:   -7.91 KCAL/MOL
REMARK 924 INTRA-LIGAND FREE ENERGY PREDICTED BY IDOCK:    0.56 KCAL/MOL
REMARK 927      BINDING AFFINITY PREDICTED BY RF-SCORE:    0.00 PKD
ROOT
HETATM    1  C   UNL     1     -11.149  10.125  66.878  1.00  0.00     0.004 C  
HETATM    2  C   UNL     1     -11.203  10.057  68.281  1.00  0.00    -0.195 C  
HETATM    3  C   UNL     1     -10.251  11.095  67.754  1.00  0.00    -0.205 C  
HETATM    4  C   UNL     1     -10.367  11.551  65.733  1.00  0.00    -0.248 C  
HETATM    5  C   UNL     1     -10.002  11.945  69.203  1.00  0.00     0.196 C  
HETATM    6  O   UNL     1     -11.474  10.998  64.935  1.00  0.00     0.128 OA 
HETATM    7  C   UNL     1      -6.986   6.076  67.664  1.00  0.00    -0.069 C  
HETATM    8  C   UNL     1     -10.801  12.057  66.911  1.00  0.00    -0.302 C  
HETATM    9  C   UNL     1      -6.116   5.680  66.499  1.00  0.00    -0.030 C  
HETATM   10  C   UNL     1      -7.780   7.061  67.200  1.00  0.00    -0.108 C  
HETATM   11  C   UNL     1     -12.033  12.929  67.190  1.00  0.00    -0.374 C  
HETATM   12  H   UNL     1     -11.527  11.207  64.010  1.00  0.00     0.000 HD 
HETATM   13  C   UNL     1      -8.909  12.478  66.828  1.00  0.00    -0.177 C  
HETATM   14  C   UNL     1      -7.911  11.073  66.351  1.00  0.00    -0.150 C  
HETATM   15  C   UNL     1      -8.990   6.684  66.367  1.00  0.00    -0.161 C  
HETATM   16  C   UNL     1      -8.297   9.471  66.832  1.00  0.00    -0.116 C  
HETATM   17  C   UNL     1      -6.137   8.892  67.978  1.00  0.00    -0.051 C  
HETATM   18  O   UNL     1      -7.806  11.162  64.912  1.00  0.00    -0.286 OA 
HETATM   19  F   UNL     1      -8.447   9.405  68.244  1.00  0.00    -0.116 F  
HETATM   20  C   UNL     1      -9.803   9.083  66.299  1.00  0.00    -0.361 C  
HETATM   21  C   UNL     1      -7.116   8.410  66.822  1.00  0.00    -0.074 C  
HETATM   22  C   UNL     1      -6.165   8.059  65.685  1.00  0.00    -0.038 C  
HETATM   23  H   UNL     1      -7.276  10.416  64.659  1.00  0.00     0.000 HD 
HETATM   24  O   UNL     1      -5.772   4.519  66.333  1.00  0.00    -0.020 OA 
HETATM   25  C   UNL     1     -10.148   7.625  66.655  1.00  0.00    -0.278 C  
HETATM   26  C   UNL     1      -5.670   6.798  65.581  1.00  0.00    -0.030 C  
ENDROOT
BRANCH   4  27
HETATM   27  C   UNL     1     -10.507  13.045  64.868  1.00  0.00    -0.339 C  
HETATM   28  O   UNL     1     -11.156  13.214  63.821  1.00  0.00    -0.371 OA 
BRANCH  27  29
HETATM   29  C   UNL     1      -9.841  14.319  65.451  1.00  0.00    -0.221 C  
BRANCH  29  30
HETATM   30  O   UNL     1     -10.334  15.537  64.844  1.00  0.00    -0.382 OA 
BRANCH  30  31
HETATM   31  C   UNL     1     -10.437  16.597  65.686  1.00  0.00    -0.297 C  
HETATM   32  O   UNL     1     -10.684  17.740  65.346  1.00  0.00    -0.626 OA 
BRANCH  31  33
HETATM   33  C   UNL     1     -10.175  16.224  67.111  1.00  0.00    -0.276 A  
HETATM   34  C   UNL     1      -9.541  15.532  69.769  1.00  0.00    -0.205 A  
HETATM   35  O   UNL     1     -11.940  13.962  71.045  1.00  0.00    -0.314 OA 
HETATM   36  C   UNL     1      -8.522  15.781  68.859  1.00  0.00    -0.218 A  
HETATM   37  C   UNL     1      -8.835  16.129  67.538  1.00  0.00    -0.198 A  
HETATM   38  O   UNL     1     -11.828  16.347  71.738  1.00  0.00    -0.472 OA 
HETATM   39  O   UNL     1     -13.392  15.738  69.982  1.00  0.00     0.028 OA 
HETATM   40  C   UNL     1     -11.206  15.976  68.033  1.00  0.00    -0.303 A  
HETATM   41  S   UNL     1     -12.142  15.307  70.548  1.00  0.00    -0.387 S  
HETATM   42  C   UNL     1     -10.861  15.624  69.353  1.00  0.00    -0.264 A  
ENDBRANCH  31  33
ENDBRANCH  30  31
ENDBRANCH  29  30
ENDBRANCH  27  29
ENDBRANCH   4  27
TORSDOF 5
ENDMDL
MODEL      119
REMARK 921   NORMALIZED FREE ENERGY PREDICTED BY IDOCK:   -5.12 KCAL/MOL
REMARK 922        TOTAL FREE ENERGY PREDICTED BY IDOCK:   -7.33 KCAL/MOL
REMARK 923 INTER-LIGAND FREE ENERGY PREDICTED BY IDOCK:   -7.43 KCAL/MOL
REMARK 924 INTRA-LIGAND FREE ENERGY PREDICTED BY IDOCK:    0.10 KCAL/MOL
REMARK 927      BINDING AFFINITY PREDICTED BY RF-SCORE:    0.00 PKD
ROOT
HETATM    1  C   UNL     1      -8.385  10.573  65.242  1.00  0.00    -0.155 C  
HETATM    2  C   UNL     1      -9.495  10.481  64.384  1.00  0.00    -0.333 C  
HETATM    3  C   UNL     1      -9.850  10.764  65.818  1.00  0.00    -0.292 C  
HETATM    4  C   UNL     1      -8.302  11.299  67.092  1.00  0.00    -0.151 C  
HETATM    5  C   UNL     1     -11.468  11.221  65.575  1.00  0.00     0.153 C  
HETATM    6  O   UNL     1      -6.967  11.562  66.529  1.00  0.00    -0.297 OA 
HETATM    7  C   UNL     1      -9.299   4.803  65.697  1.00  0.00    -0.166 C  
HETATM    8  C   UNL     1      -9.278  11.904  66.375  1.00  0.00    -0.218 C  
HETATM    9  C   UNL     1      -8.559   4.022  66.754  1.00  0.00    -0.106 C  
HETATM   10  C   UNL     1      -8.944   6.088  65.888  1.00  0.00    -0.144 C  
HETATM   11  C   UNL     1      -9.308  13.325  65.798  1.00  0.00     0.150 C  
HETATM   12  H   UNL     1      -6.259  11.806  67.112  1.00  0.00     0.000 HD 
HETATM   13  C   UNL     1     -10.170  11.107  67.903  1.00  0.00    -0.202 C  
HETATM   14  C   UNL     1      -9.678   9.411  68.181  1.00  0.00    -0.145 C  
HETATM   15  C   UNL     1      -7.602   6.556  65.358  1.00  0.00    -0.089 C  
HETATM   16  C   UNL     1      -9.316   8.340  66.889  1.00  0.00    -0.176 C  
HETATM   17  C   UNL     1     -10.964   6.524  67.432  1.00  0.00    -0.458 C  
HETATM   18  O   UNL     1      -8.569   9.491  69.103  1.00  0.00    -0.127 OA 
HETATM   19  F   UNL     1     -10.393   8.307  65.962  1.00  0.00    -0.214 F  
HETATM   20  C   UNL     1      -8.092   8.962  65.985  1.00  0.00    -0.111 C  
HETATM   21  C   UNL     1      -9.415   6.785  67.190  1.00  0.00    -0.167 C  
HETATM   22  C   UNL     1      -8.751   5.990  68.307  1.00  0.00    -0.113 C  
HETATM   23  H   UNL     1      -8.307   8.590  69.250  1.00  0.00     0.000 HD 
HETATM   24  O   UNL     1      -8.137   2.897  66.529  1.00  0.00    -0.080 OA 
HETATM   25  C   UNL     1      -7.697   7.988  64.859  1.00  0.00    -0.118 C  
HETATM   26  C   UNL     1      -8.407   4.692  68.102  1.00  0.00    -0.094 C  
ENDROOT
BRANCH   4  27
HETATM   27  C   UNL     1      -8.083  12.618  68.193  1.00  0.00    -0.164 C  
HETATM   28  O   UNL     1      -8.968  13.111  68.913  1.00  0.00     0.095 OA 
BRANCH  27  29
HETATM   29  C   UNL     1      -6.664  13.215  68.379  1.00  0.00    -0.095 C  
BRANCH  29  30
HETATM   30  O   UNL     1      -6.688  14.562  68.912  1.00  0.00    -0.088 OA 
BRANCH  30  31
HETATM   31  C   UNL     1      -6.650  15.548  67.979  1.00  0.00    -0.143 C  
HETATM   32  O   UNL     1      -5.750  15.717  67.177  1.00  0.00    -0.335 OA 
BRANCH  31  33
HETATM   33  C   UNL     1      -7.836  16.458  68.057  1.00  0.00    -0.159 A  
HETATM   34  C   UNL     1     -10.118  18.092  68.314  1.00  0.00    -0.398 A  
HETATM   35  O   UNL     1     -10.664  19.564  65.598  1.00  0.00    -0.491 OA 
HETATM   36  C   UNL     1      -9.948  17.006  69.163  1.00  0.00    -0.229 A  
HETATM   37  C   UNL     1      -8.813  16.194  69.039  1.00  0.00    -0.251 A  
HETATM   38  O   UNL     1      -9.561  20.997  67.303  1.00  0.00    -0.399 OA 
HETATM   39  O   UNL     1      -8.174  20.001  65.575  1.00  0.00    -0.258 OA 
HETATM   40  C   UNL     1      -8.005  17.559  67.201  1.00  0.00    -0.229 A  
HETATM   41  S   UNL     1      -9.404  19.761  66.283  1.00  0.00    -0.366 S  
HETATM   42  C   UNL     1      -9.159  18.354  67.346  1.00  0.00    -0.264 A  
ENDBRANCH  31  33
ENDBRANCH  30  31
ENDBRANCH  29  30
ENDBRANCH  27  29
ENDBRANCH   4  27
TORSDOF 5
ENDMDL
MODEL      120
REMARK 921   NORMALIZED FREE ENERGY PREDICTED BY IDOCK:   -5.08 KCAL/MOL
REMARK 922        TOTAL FREE ENERGY PREDICTED BY IDOCK:   -7.27 KCAL/MOL
REMARK 923 INTER-LIGAND FREE ENERGY PREDICTED BY IDOCK:   -7.50 KCAL/MOL
REMARK 924 INTRA-LIGAND FREE ENERGY PREDICTED BY IDOCK:    0.23 KCAL/MOL
REMARK 927      BINDING AFFINITY PREDICTED BY RF-SCORE:    0.00 PKD
ROOT
HETATM    1  C   UNL     1      -7.509   9.285  66.075  1.00  0.00    -0.095 C  
HETATM    2  C   UNL     1      -6.496  10.033  65.451  1.00  0.00    -0.106 C  
HETATM    3  C   UNL     1      -6.605  10.266  66.932  1.00  0.00    -0.076 C  
HETATM    4  C   UNL     1      -7.789   8.951  68.016  1.00  0.00    -0.102 C  
HETATM    5  C   UNL     1      -5.126  11.071  67.155  1.00  0.00    -0.047 C  
HETATM    6  O   UNL     1      -8.321   7.750  67.351  1.00  0.00    -0.121 OA 
HETATM    7  C   UNL     1     -10.711  13.984  64.660  1.00  0.00    -0.416 C  
HETATM    8  C   UNL     1      -6.477   9.138  67.739  1.00  0.00    -0.056 C  
HETATM    9  C   UNL     1     -12.099  14.127  65.232  1.00  0.00    -0.405 C  
HETATM   10  C   UNL     1     -10.208  12.865  65.218  1.00  0.00    -0.294 C  
HETATM   11  C   UNL     1      -5.342   8.106  67.705  1.00  0.00    -0.034 C  
HETATM   12  H   UNL     1      -8.863   7.148  67.847  1.00  0.00     0.000 HD 
HETATM   13  C   UNL     1      -6.939  10.512  69.029  1.00  0.00    -0.076 C  
HETATM   14  C   UNL     1      -8.451  11.370  68.611  1.00  0.00    -0.131 C  
HETATM   15  C   UNL     1     -10.629  11.522  64.652  1.00  0.00    -0.369 C  
HETATM   16  C   UNL     1      -8.898  11.694  66.985  1.00  0.00    -0.177 C  
HETATM   17  C   UNL     1      -9.129  14.190  67.151  1.00  0.00    -0.240 C  
HETATM   18  O   UNL     1      -9.495  10.638  69.290  1.00  0.00    -0.295 OA 
HETATM   19  F   UNL     1      -7.845  12.370  66.311  1.00  0.00     0.126 F  
HETATM   20  C   UNL     1      -9.003  10.282  66.150  1.00  0.00    -0.174 C  
HETATM   21  C   UNL     1      -9.928  12.878  66.743  1.00  0.00    -0.243 C  
HETATM   22  C   UNL     1     -11.296  13.092  67.378  1.00  0.00    -0.344 C  
HETATM   23  H   UNL     1     -10.298  11.094  69.067  1.00  0.00     0.000 HD 
HETATM   24  O   UNL     1     -13.016  14.578  64.560  1.00  0.00    -0.536 OA 
HETATM   25  C   UNL     1      -9.473  10.537  64.705  1.00  0.00    -0.316 C  
HETATM   26  C   UNL     1     -12.276  13.721  66.679  1.00  0.00    -0.454 C  
ENDROOT
BRANCH   4  27
HETATM   27  C   UNL     1      -7.508   8.017  69.448  1.00  0.00    -0.096 C  
HETATM   28  O   UNL     1      -6.403   7.598  69.831  1.00  0.00    -0.027 OA 
BRANCH  27  29
HETATM   29  C   UNL     1      -8.699   7.719  70.397  1.00  0.00    -0.139 C  
BRANCH  29  30
HETATM   30  O   UNL     1      -8.771   6.325  70.784  1.00  0.00    -0.134 OA 
BRANCH  30  31
HETATM   31  C   UNL     1      -9.933   5.701  70.462  1.00  0.00    -0.205 C  
HETATM   32  O   UNL     1     -10.795   5.374  71.257  1.00  0.00    -0.218 OA 
BRANCH  31  33
HETATM   33  C   UNL     1     -10.041   5.409  68.998  1.00  0.00    -0.283 A  
HETATM   34  C   UNL     1     -10.350   4.956  66.233  1.00  0.00    -0.336 A  
HETATM   35  O   UNL     1      -9.235   2.115  65.505  1.00  0.00    -0.115 OA 
HETATM   36  C   UNL     1     -11.166   5.878  66.877  1.00  0.00     0.009 A  
HETATM   37  C   UNL     1     -11.012   6.107  68.251  1.00  0.00    -0.397 A  
HETATM   38  O   UNL     1      -7.684   3.972  64.933  1.00  0.00    -0.079 OA 
HETATM   39  O   UNL     1      -7.281   2.735  66.984  1.00  0.00    -0.055 OA 
HETATM   40  C   UNL     1      -9.214   4.479  68.346  1.00  0.00    -0.178 A  
HETATM   41  S   UNL     1      -8.360   3.100  66.106  1.00  0.00    -0.105 S  
HETATM   42  C   UNL     1      -9.395   4.266  66.965  1.00  0.00    -0.167 A  
ENDBRANCH  31  33
ENDBRANCH  30  31
ENDBRANCH  29  30
ENDBRANCH  27  29
ENDBRANCH   4  27
TORSDOF 5
ENDMDL
MODEL      121
REMARK 921   NORMALIZED FREE ENERGY PREDICTED BY IDOCK:   -5.07 KCAL/MOL
REMARK 922        TOTAL FREE ENERGY PREDICTED BY IDOCK:   -7.27 KCAL/MOL
REMARK 923 INTER-LIGAND FREE ENERGY PREDICTED BY IDOCK:   -7.49 KCAL/MOL
REMARK 924 INTRA-LIGAND FREE ENERGY PREDICTED BY IDOCK:    0.23 KCAL/MOL
REMARK 927      BINDING AFFINITY PREDICTED BY RF-SCORE:    0.00 PKD
ROOT
HETATM    1  C   UNL     1     -10.372  11.158  68.035  1.00  0.00    -0.208 C  
HETATM    2  C   UNL     1     -11.294  11.381  66.998  1.00  0.00    -0.309 C  
HETATM    3  C   UNL     1     -10.092  12.283  66.953  1.00  0.00    -0.224 C  
HETATM    4  C   UNL     1      -8.495  11.800  68.186  1.00  0.00    -0.158 C  
HETATM    5  C   UNL     1     -10.303  12.879  65.376  1.00  0.00    -0.310 C  
HETATM    6  O   UNL     1      -8.510  10.517  68.910  1.00  0.00    -0.134 OA 
HETATM    7  C   UNL     1     -13.755  15.081  70.775  1.00  0.00    -0.197 C  
HETATM    8  C   UNL     1      -8.854  11.649  66.890  1.00  0.00    -0.190 C  
HETATM    9  C   UNL     1     -13.288  15.668  72.083  1.00  0.00    -0.460 C  
HETATM   10  C   UNL     1     -12.749  14.286  70.361  1.00  0.00    -0.355 C  
HETATM   11  C   UNL     1      -8.425  10.566  65.891  1.00  0.00    -0.164 C  
HETATM   12  H   UNL     1      -7.779  10.296  69.475  1.00  0.00     0.000 HD 
HETATM   13  C   UNL     1      -8.347  13.512  67.077  1.00  0.00    -0.096 C  
HETATM   14  C   UNL     1      -9.088  14.287  68.508  1.00  0.00    -0.191 C  
HETATM   15  C   UNL     1     -12.611  12.909  70.982  1.00  0.00    -0.376 C  
HETATM   16  C   UNL     1     -10.666  13.887  69.051  1.00  0.00    -0.195 C  
HETATM   17  C   UNL     1     -11.684  16.182  68.974  1.00  0.00    -0.254 C  
HETATM   18  O   UNL     1      -8.123  14.108  69.569  1.00  0.00    -0.336 OA 
HETATM   19  F   UNL     1     -11.600  14.017  67.988  1.00  0.00    -0.288 F  
HETATM   20  C   UNL     1     -10.742  12.280  69.391  1.00  0.00     0.085 C  
HETATM   21  C   UNL     1     -11.413  14.959  69.952  1.00  0.00    -0.321 C  
HETATM   22  C   UNL     1     -10.924  15.635  71.227  1.00  0.00    -0.195 C  
HETATM   23  H   UNL     1      -8.517  14.520  70.329  1.00  0.00     0.000 HD 
HETATM   24  O   UNL     1     -14.073  15.885  72.995  1.00  0.00    -0.518 OA 
HETATM   25  C   UNL     1     -12.128  11.905  69.949  1.00  0.00    -0.344 C  
HETATM   26  C   UNL     1     -11.816  16.004  72.183  1.00  0.00    -0.623 C  
ENDROOT
BRANCH   4  27
HETATM   27  C   UNL     1      -6.799  11.601  67.896  1.00  0.00    -0.074 C  
HETATM   28  O   UNL     1      -6.237  11.719  66.793  1.00  0.00    -0.147 OA 
BRANCH  27  29
HETATM   29  C   UNL     1      -5.857  11.324  69.097  1.00  0.00    -0.043 C  
BRANCH  29  30
HETATM   30  O   UNL     1      -5.674   9.909  69.350  1.00  0.00    -0.038 OA 
BRANCH  30  31
HETATM   31  C   UNL     1      -5.771   9.543  70.654  1.00  0.00    -0.057 C  
HETATM   32  O   UNL     1      -5.739  10.310  71.600  1.00  0.00    -0.283 OA 
BRANCH  31  33
HETATM   33  C   UNL     1      -5.887   8.062  70.827  1.00  0.00    -0.033 A  
HETATM   34  C   UNL     1      -6.041   5.254  71.025  1.00  0.00    -0.022 A  
HETATM   35  O   UNL     1      -8.334   4.467  73.016  1.00  0.00    -0.098 OA 
HETATM   36  C   UNL     1      -5.477   5.837  69.897  1.00  0.00    -0.008 A  
HETATM   37  C   UNL     1      -5.396   7.232  69.798  1.00  0.00    -0.022 A  
HETATM   38  O   UNL     1      -6.059   4.319  74.007  1.00  0.00    -0.026 OA 
HETATM   39  O   UNL     1      -7.392   6.291  74.491  1.00  0.00    -0.096 OA 
HETATM   40  C   UNL     1      -6.454   7.472  71.969  1.00  0.00    -0.042 A  
HETATM   41  S   UNL     1      -7.232   5.286  73.474  1.00  0.00    -0.087 S  
HETATM   42  C   UNL     1      -6.525   6.067  72.039  1.00  0.00    -0.054 A  
ENDBRANCH  31  33
ENDBRANCH  30  31
ENDBRANCH  29  30
ENDBRANCH  27  29
ENDBRANCH   4  27
TORSDOF 5
ENDMDL
MODEL      122
REMARK 921   NORMALIZED FREE ENERGY PREDICTED BY IDOCK:   -5.07 KCAL/MOL
REMARK 922        TOTAL FREE ENERGY PREDICTED BY IDOCK:   -7.26 KCAL/MOL
REMARK 923 INTER-LIGAND FREE ENERGY PREDICTED BY IDOCK:   -7.32 KCAL/MOL
REMARK 924 INTRA-LIGAND FREE ENERGY PREDICTED BY IDOCK:    0.06 KCAL/MOL
REMARK 927      BINDING AFFINITY PREDICTED BY RF-SCORE:    0.00 PKD
ROOT
HETATM    1  C   UNL     1      -9.208   6.515  69.293  1.00  0.00    -0.139 C  
HETATM    2  C   UNL     1      -9.005   5.282  69.936  1.00  0.00    -0.146 C  
HETATM    3  C   UNL     1      -7.742   5.927  69.437  1.00  0.00    -0.093 C  
HETATM    4  C   UNL     1      -7.865   7.905  68.822  1.00  0.00    -0.118 C  
HETATM    5  C   UNL     1      -6.631   4.961  70.284  1.00  0.00    -0.036 C  
HETATM    6  O   UNL     1      -9.109   8.655  69.063  1.00  0.00    -0.144 OA 
HETATM    7  C   UNL     1      -9.801   3.041  64.611  1.00  0.00    -0.062 C  
HETATM    8  C   UNL     1      -7.479   7.207  69.916  1.00  0.00    -0.086 C  
HETATM    9  C   UNL     1      -9.844   3.660  63.237  1.00  0.00    -0.149 C  
HETATM   10  C   UNL     1      -9.585   4.066  65.459  1.00  0.00    -0.189 C  
HETATM   11  C   UNL     1      -7.456   7.654  71.384  1.00  0.00    -0.079 C  
HETATM   12  H   UNL     1      -9.166   9.561  68.781  1.00  0.00     0.000 HD 
HETATM   13  C   UNL     1      -6.062   6.962  68.614  1.00  0.00    -0.026 C  
HETATM   14  C   UNL     1      -6.682   6.525  66.995  1.00  0.00    -0.060 C  
HETATM   15  C   UNL     1     -10.758   4.947  65.843  1.00  0.00    -0.233 C  
HETATM   16  C   UNL     1      -8.068   5.535  66.782  1.00  0.00    -0.105 C  
HETATM   17  C   UNL     1      -7.028   3.731  65.375  1.00  0.00    -0.061 C  
HETATM   18  O   UNL     1      -6.846   7.785  66.306  1.00  0.00    -0.059 OA 
HETATM   19  F   UNL     1      -7.918   4.319  67.504  1.00  0.00    -0.089 F  
HETATM   20  C   UNL     1      -9.360   6.228  67.525  1.00  0.00    -0.113 C  
HETATM   21  C   UNL     1      -8.215   4.789  65.389  1.00  0.00    -0.118 C  
HETATM   22  C   UNL     1      -8.169   5.380  63.986  1.00  0.00    -0.125 C  
HETATM   23  H   UNL     1      -7.175   7.553  65.446  1.00  0.00     0.000 HD 
HETATM   24  O   UNL     1     -10.590   3.226  62.372  1.00  0.00    -0.143 OA 
HETATM   25  C   UNL     1     -10.635   5.396  67.289  1.00  0.00    -0.250 C  
HETATM   26  C   UNL     1      -8.893   4.811  62.987  1.00  0.00    -0.115 C  
ENDROOT
BRANCH   4  27
HETATM   27  C   UNL     1      -6.950   9.322  69.216  1.00  0.00    -0.053 C  
HETATM   28  O   UNL     1      -5.709   9.400  69.224  1.00  0.00    -0.035 OA 
BRANCH  27  29
HETATM   29  C   UNL     1      -7.703  10.643  69.521  1.00  0.00    -0.106 C  
BRANCH  29  30
HETATM   30  O   UNL     1      -7.612  11.603  68.440  1.00  0.00    -0.111 OA 
BRANCH  30  31
HETATM   31  C   UNL     1      -8.159  11.196  67.266  1.00  0.00    -0.137 C  
HETATM   32  O   UNL     1      -7.639  10.421  66.483  1.00  0.00    -0.108 OA 
BRANCH  31  33
HETATM   33  C   UNL     1      -9.483  11.838  66.997  1.00  0.00    -0.191 A  
HETATM   34  C   UNL     1     -11.987  13.080  66.631  1.00  0.00    -0.453 A  
HETATM   35  O   UNL     1     -13.333  11.976  64.020  1.00  0.00    -0.703 OA 
HETATM   36  C   UNL     1     -11.428  13.016  67.900  1.00  0.00    -0.352 A  
HETATM   37  C   UNL     1     -10.182  12.402  68.085  1.00  0.00    -0.225 A  
HETATM   38  O   UNL     1     -12.287  14.213  63.733  1.00  0.00    -0.716 OA 
HETATM   39  O   UNL     1     -11.050  12.265  62.973  1.00  0.00    -0.265 OA 
HETATM   40  C   UNL     1     -10.047  11.906  65.712  1.00  0.00    -0.272 A  
HETATM   41  S   UNL     1     -12.046  12.634  63.944  1.00  0.00    -0.519 S  
HETATM   42  C   UNL     1     -11.304  12.525  65.559  1.00  0.00    -0.331 A  
ENDBRANCH  31  33
ENDBRANCH  30  31
ENDBRANCH  29  30
ENDBRANCH  27  29
ENDBRANCH   4  27
TORSDOF 5
ENDMDL
MODEL      123
REMARK 921   NORMALIZED FREE ENERGY PREDICTED BY IDOCK:   -5.04 KCAL/MOL
REMARK 922        TOTAL FREE ENERGY PREDICTED BY IDOCK:   -7.22 KCAL/MOL
REMARK 923 INTER-LIGAND FREE ENERGY PREDICTED BY IDOCK:   -6.99 KCAL/MOL
REMARK 924 INTRA-LIGAND FREE ENERGY PREDICTED BY IDOCK:   -0.23 KCAL/MOL
REMARK 927      BINDING AFFINITY PREDICTED BY RF-SCORE:    0.00 PKD
ROOT
HETATM    1  C   UNL     1      -7.839  11.052  68.218  1.00  0.00    -0.121 C  
HETATM    2  C   UNL     1      -8.254  11.321  69.534  1.00  0.00     0.437 C  
HETATM    3  C   UNL     1      -9.268  10.575  68.712  1.00  0.00    -0.177 C  
HETATM    4  C   UNL     1      -8.630   9.789  66.900  1.00  0.00    -0.124 C  
HETATM    5  C   UNL     1     -10.291  10.092  69.979  1.00  0.00    -0.323 C  
HETATM    6  O   UNL     1      -7.195   9.822  66.569  1.00  0.00    -0.091 OA 
HETATM    7  C   UNL     1     -10.272  16.294  67.251  1.00  0.00    -0.279 C  
HETATM    8  C   UNL     1      -8.843   9.365  68.168  1.00  0.00    -0.124 C  
HETATM    9  C   UNL     1     -10.480  16.758  65.832  1.00  0.00    -0.301 C  
HETATM   10  C   UNL     1      -9.775  15.046  67.151  1.00  0.00    -0.228 C  
HETATM   11  C   UNL     1      -8.184   8.200  68.918  1.00  0.00    -0.124 C  
HETATM   12  H   UNL     1      -6.903   9.463  65.740  1.00  0.00     0.000 HD 
HETATM   13  C   UNL     1     -10.605   9.568  67.382  1.00  0.00    -0.337 C  
HETATM   14  C   UNL     1     -10.803  11.123  66.523  1.00  0.00    -0.245 C  
HETATM   15  C   UNL     1      -8.302  14.876  66.832  1.00  0.00    -0.212 C  
HETATM   16  C   UNL     1     -10.061  12.571  67.072  1.00  0.00    -0.216 C  
HETATM   17  C   UNL     1     -12.124  13.988  67.293  1.00  0.00    -0.405 C  
HETATM   18  O   UNL     1     -10.426  10.844  65.156  1.00  0.00    -0.283 OA 
HETATM   19  F   UNL     1     -10.397  12.810  68.432  1.00  0.00    -0.219 F  
HETATM   20  C   UNL     1      -8.432  12.364  67.142  1.00  0.00    -0.185 C  
HETATM   21  C   UNL     1     -10.702  13.939  66.585  1.00  0.00    -0.281 C  
HETATM   22  C   UNL     1     -11.007  14.392  65.162  1.00  0.00    -0.380 C  
HETATM   23  H   UNL     1     -10.531  11.671  64.700  1.00  0.00     0.000 HD 
HETATM   24  O   UNL     1     -10.306  17.925  65.516  1.00  0.00    -0.616 OA 
HETATM   25  C   UNL     1      -7.734  13.672  67.563  1.00  0.00    -0.183 C  
HETATM   26  C   UNL     1     -10.949  15.711  64.844  1.00  0.00    -0.447 C  
ENDROOT
BRANCH   4  27
HETATM   27  C   UNL     1      -8.743   8.212  66.194  1.00  0.00    -0.156 C  
HETATM   28  O   UNL     1      -9.760   7.497  66.182  1.00  0.00    -0.083 OA 
BRANCH  27  29
HETATM   29  C   UNL     1      -7.516   7.636  65.439  1.00  0.00    -0.078 C  
BRANCH  29  30
HETATM   30  O   UNL     1      -7.781   6.342  64.844  1.00  0.00    -0.086 OA 
BRANCH  30  31
HETATM   31  C   UNL     1      -7.086   5.309  65.386  1.00  0.00    -0.066 C  
HETATM   32  O   UNL     1      -5.964   4.971  65.053  1.00  0.00    -0.024 OA 
BRANCH  31  33
HETATM   33  C   UNL     1      -7.865   4.579  66.433  1.00  0.00    -0.099 A  
HETATM   34  C   UNL     1      -9.394   3.126  68.303  1.00  0.00    -0.246 A  
HETATM   35  O   UNL     1      -9.719   4.812  70.929  1.00  0.00    -0.164 OA 
HETATM   36  C   UNL     1      -9.510   2.843  66.948  1.00  0.00    -0.042 A  
HETATM   37  C   UNL     1      -8.749   3.562  66.017  1.00  0.00    -0.122 A  
HETATM   38  O   UNL     1      -7.993   3.030  71.096  1.00  0.00    -0.055 OA 
HETATM   39  O   UNL     1      -7.253   5.304  70.667  1.00  0.00    -0.064 OA 
HETATM   40  C   UNL     1      -7.746   4.862  67.804  1.00  0.00    -0.083 A  
HETATM   41  S   UNL     1      -8.396   4.455  70.461  1.00  0.00    -0.074 S  
HETATM   42  C   UNL     1      -8.527   4.126  68.716  1.00  0.00    -0.083 A  
ENDBRANCH  31  33
ENDBRANCH  30  31
ENDBRANCH  29  30
ENDBRANCH  27  29
ENDBRANCH   4  27
TORSDOF 5
ENDMDL
MODEL      124
REMARK 921   NORMALIZED FREE ENERGY PREDICTED BY IDOCK:   -5.01 KCAL/MOL
REMARK 922        TOTAL FREE ENERGY PREDICTED BY IDOCK:   -7.19 KCAL/MOL
REMARK 923 INTER-LIGAND FREE ENERGY PREDICTED BY IDOCK:   -8.02 KCAL/MOL
REMARK 924 INTRA-LIGAND FREE ENERGY PREDICTED BY IDOCK:    0.83 KCAL/MOL
REMARK 927      BINDING AFFINITY PREDICTED BY RF-SCORE:    0.00 PKD
ROOT
HETATM    1  C   UNL     1      -7.212   6.736  69.332  1.00  0.00    -0.089 C  
HETATM    2  C   UNL     1      -6.193   7.477  68.709  1.00  0.00    -0.032 C  
HETATM    3  C   UNL     1      -7.580   7.977  68.415  1.00  0.00    -0.108 C  
HETATM    4  C   UNL     1      -9.128   7.217  69.570  1.00  0.00    -0.146 C  
HETATM    5  C   UNL     1      -7.154   9.481  67.751  1.00  0.00    -0.081 C  
HETATM    6  O   UNL     1      -8.807   6.375  70.735  1.00  0.00    -0.142 OA 
HETATM    7  C   UNL     1      -6.825   3.604  64.394  1.00  0.00    -0.045 C  
HETATM    8  C   UNL     1      -8.351   8.324  69.521  1.00  0.00    -0.121 C  
HETATM    9  C   UNL     1      -7.878   2.568  64.096  1.00  0.00    -0.077 C  
HETATM   10  C   UNL     1      -7.220   4.199  65.537  1.00  0.00    -0.071 C  
HETATM   11  C   UNL     1      -7.952   9.272  70.660  1.00  0.00    -0.189 C  
HETATM   12  H   UNL     1      -9.516   6.028  71.264  1.00  0.00     0.000 HD 
HETATM   13  C   UNL     1      -9.620   8.512  68.065  1.00  0.00    -0.168 C  
HETATM   14  C   UNL     1      -9.762   7.028  67.079  1.00  0.00    -0.167 C  
HETATM   15  C   UNL     1      -6.958   3.489  66.851  1.00  0.00    -0.054 C  
HETATM   16  C   UNL     1      -8.419   6.004  66.769  1.00  0.00    -0.110 C  
HETATM   17  C   UNL     1      -8.485   6.048  64.257  1.00  0.00     0.074 C  
HETATM   18  O   UNL     1     -10.842   6.282  67.681  1.00  0.00    -0.280 OA 
HETATM   19  F   UNL     1      -7.343   6.756  66.223  1.00  0.00    -0.067 F  
HETATM   20  C   UNL     1      -7.790   5.473  68.191  1.00  0.00    -0.092 C  
HETATM   21  C   UNL     1      -8.512   5.056  65.499  1.00  0.00    -0.134 C  
HETATM   22  C   UNL     1      -9.612   4.068  65.130  1.00  0.00    -0.181 C  
HETATM   23  H   UNL     1     -10.917   5.493  67.157  1.00  0.00     0.000 HD 
HETATM   24  O   UNL     1      -7.586   1.499  63.582  1.00  0.00    -0.054 OA 
HETATM   25  C   UNL     1      -6.627   4.494  67.942  1.00  0.00    -0.046 C  
HETATM   26  C   UNL     1      -9.306   2.943  64.433  1.00  0.00    -0.143 C  
ENDROOT
BRANCH   4  27
HETATM   27  C   UNL     1     -10.400   7.965  70.476  1.00  0.00    -0.205 C  
HETATM   28  O   UNL     1     -10.762   7.636  71.619  1.00  0.00    -0.210 OA 
BRANCH  27  29
HETATM   29  C   UNL     1     -11.126   9.198  69.877  1.00  0.00    -0.159 C  
BRANCH  29  30
HETATM   30  O   UNL     1     -10.970  10.388  70.686  1.00  0.00    -0.289 OA 
BRANCH  30  31
HETATM   31  C   UNL     1     -12.063  11.192  70.743  1.00  0.00    -0.357 C  
HETATM   32  O   UNL     1     -13.045  10.988  71.434  1.00  0.00    -0.395 OA 
BRANCH  31  33
HETATM   33  C   UNL     1     -11.962  12.364  69.819  1.00  0.00    -0.359 A  
HETATM   34  C   UNL     1     -11.759  14.659  68.194  1.00  0.00    -0.360 A  
HETATM   35  O   UNL     1     -13.044  14.076  65.392  1.00  0.00    -0.763 OA 
HETATM   36  C   UNL     1     -11.721  14.787  69.577  1.00  0.00    -0.358 A  
HETATM   37  C   UNL     1     -11.819  13.647  70.387  1.00  0.00    -0.308 A  
HETATM   38  O   UNL     1     -10.560  13.970  65.391  1.00  0.00    -0.306 OA 
HETATM   39  O   UNL     1     -11.795  11.882  65.510  1.00  0.00    -0.364 OA 
HETATM   40  C   UNL     1     -11.996  12.235  68.421  1.00  0.00    -0.266 A  
HETATM   41  S   UNL     1     -11.935  13.271  65.857  1.00  0.00    -0.441 S  
HETATM   42  C   UNL     1     -11.901  13.399  67.633  1.00  0.00    -0.354 A  
ENDBRANCH  31  33
ENDBRANCH  30  31
ENDBRANCH  29  30
ENDBRANCH  27  29
ENDBRANCH   4  27
TORSDOF 5
ENDMDL
MODEL      125
REMARK 921   NORMALIZED FREE ENERGY PREDICTED BY IDOCK:   -4.99 KCAL/MOL
REMARK 922        TOTAL FREE ENERGY PREDICTED BY IDOCK:   -7.16 KCAL/MOL
REMARK 923 INTER-LIGAND FREE ENERGY PREDICTED BY IDOCK:   -7.51 KCAL/MOL
REMARK 924 INTRA-LIGAND FREE ENERGY PREDICTED BY IDOCK:    0.35 KCAL/MOL
REMARK 927      BINDING AFFINITY PREDICTED BY RF-SCORE:    0.00 PKD
ROOT
HETATM    1  C   UNL     1      -7.289   8.830  67.601  1.00  0.00    -0.085 C  
HETATM    2  C   UNL     1      -6.729   8.108  66.533  1.00  0.00    -0.063 C  
HETATM    3  C   UNL     1      -8.232   8.168  66.511  1.00  0.00    -0.107 C  
HETATM    4  C   UNL     1      -9.147   9.512  67.799  1.00  0.00    -0.125 C  
HETATM    5  C   UNL     1      -8.467   7.622  64.920  1.00  0.00     0.008 C  
HETATM    6  O   UNL     1      -8.316  10.475  68.542  1.00  0.00    -0.116 OA 
HETATM    7  C   UNL     1      -7.104   3.571  70.178  1.00  0.00    -0.041 C  
HETATM    8  C   UNL     1      -8.791   9.443  66.495  1.00  0.00    -0.155 C  
HETATM    9  C   UNL     1      -7.818   3.369  71.490  1.00  0.00    -0.057 C  
HETATM   10  C   UNL     1      -7.388   4.834  69.806  1.00  0.00    -0.055 C  
HETATM   11  C   UNL     1      -8.455  10.584  65.526  1.00  0.00    -0.177 C  
HETATM   12  H   UNL     1      -8.735  11.090  69.132  1.00  0.00     0.000 HD 
HETATM   13  C   UNL     1     -10.358   8.312  66.670  1.00  0.00    -0.293 C  
HETATM   14  C   UNL     1     -10.254   7.200  68.066  1.00  0.00    -0.185 C  
HETATM   15  C   UNL     1      -6.616   5.970  70.452  1.00  0.00    -0.044 C  
HETATM   16  C   UNL     1      -8.769   6.498  68.567  1.00  0.00    -0.122 C  
HETATM   17  C   UNL     1      -9.431   4.079  68.424  1.00  0.00    -0.211 C  
HETATM   18  O   UNL     1     -10.873   7.914  69.159  1.00  0.00    -0.385 OA 
HETATM   19  F   UNL     1      -8.143   5.841  67.473  1.00  0.00    -0.100 F  
HETATM   20  C   UNL     1      -7.691   7.686  68.928  1.00  0.00    -0.117 C  
HETATM   21  C   UNL     1      -8.854   5.167  69.428  1.00  0.00    -0.119 C  
HETATM   22  C   UNL     1      -9.642   4.912  70.707  1.00  0.00    -0.251 C  
HETATM   23  H   UNL     1     -10.817   7.323  69.900  1.00  0.00     0.000 HD 
HETATM   24  O   UNL     1      -7.333   2.678  72.374  1.00  0.00    -0.037 OA 
HETATM   25  C   UNL     1      -6.372   7.085  69.449  1.00  0.00    -0.035 C  
HETATM   26  C   UNL     1      -9.170   4.035  71.630  1.00  0.00    -0.186 C  
ENDROOT
BRANCH   4  27
HETATM   27  C   UNL     1     -10.341  10.745  67.564  1.00  0.00    -0.206 C  
HETATM   28  O   UNL     1     -11.525  10.550  67.239  1.00  0.00    -0.366 OA 
BRANCH  27  29
HETATM   29  C   UNL     1      -9.961  12.223  67.842  1.00  0.00    -0.202 C  
BRANCH  29  30
HETATM   30  O   UNL     1     -10.862  13.162  67.206  1.00  0.00    -0.252 OA 
BRANCH  30  31
HETATM   31  C   UNL     1     -10.315  13.886  66.196  1.00  0.00    -0.301 C  
HETATM   32  O   UNL     1     -10.456  13.649  65.010  1.00  0.00    -0.347 OA 
BRANCH  31  33
HETATM   33  C   UNL     1      -9.467  15.014  66.693  1.00  0.00    -0.288 A  
HETATM   34  C   UNL     1      -7.757  17.048  67.635  1.00  0.00    -0.183 A  
HETATM   35  O   UNL     1      -9.464  19.318  68.969  1.00  0.00    -0.378 OA 
HETATM   36  C   UNL     1      -7.266  15.761  67.457  1.00  0.00    -0.212 A  
HETATM   37  C   UNL     1      -8.113  14.749  66.986  1.00  0.00    -0.177 A  
HETATM   38  O   UNL     1      -8.697  19.868  66.669  1.00  0.00    -0.322 OA 
HETATM   39  O   UNL     1     -10.975  19.074  66.956  1.00  0.00    -0.399 OA 
HETATM   40  C   UNL     1      -9.962  16.316  66.869  1.00  0.00    -0.263 A  
HETATM   41  S   UNL     1      -9.681  18.975  67.579  1.00  0.00    -0.326 S  
HETATM   42  C   UNL     1      -9.089  17.312  67.349  1.00  0.00    -0.226 A  
ENDBRANCH  31  33
ENDBRANCH  30  31
ENDBRANCH  29  30
ENDBRANCH  27  29
ENDBRANCH   4  27
TORSDOF 5
ENDMDL
MODEL      126
REMARK 921   NORMALIZED FREE ENERGY PREDICTED BY IDOCK:   -4.99 KCAL/MOL
REMARK 922        TOTAL FREE ENERGY PREDICTED BY IDOCK:   -7.16 KCAL/MOL
REMARK 923 INTER-LIGAND FREE ENERGY PREDICTED BY IDOCK:   -7.38 KCAL/MOL
REMARK 924 INTRA-LIGAND FREE ENERGY PREDICTED BY IDOCK:    0.22 KCAL/MOL
REMARK 927      BINDING AFFINITY PREDICTED BY RF-SCORE:    0.00 PKD
ROOT
HETATM    1  C   UNL     1     -11.062  12.721  68.559  1.00  0.00    -0.300 C  
HETATM    2  C   UNL     1     -12.265  12.897  67.854  1.00  0.00    -0.029 C  
HETATM    3  C   UNL     1     -11.065  12.685  66.973  1.00  0.00    -0.322 C  
HETATM    4  C   UNL     1      -9.319  12.035  67.888  1.00  0.00    -0.190 C  
HETATM    5  C   UNL     1     -11.889  12.379  65.520  1.00  0.00    -0.469 C  
HETATM    6  O   UNL     1      -9.358  11.632  69.303  1.00  0.00    -0.376 OA 
HETATM    7  C   UNL     1     -10.899  18.561  68.111  1.00  0.00    -0.064 C  
HETATM    8  C   UNL     1     -10.351  11.509  67.187  1.00  0.00    -0.248 C  
HETATM    9  C   UNL     1      -9.636  19.292  68.486  1.00  0.00    -0.403 C  
HETATM   10  C   UNL     1     -10.609  17.252  68.244  1.00  0.00    -0.383 C  
HETATM   11  C   UNL     1     -10.918  10.083  67.231  1.00  0.00    -0.225 C  
HETATM   12  H   UNL     1      -8.559  11.334  69.722  1.00  0.00     0.000 HD 
HETATM   13  C   UNL     1      -9.246  12.424  65.881  1.00  0.00     0.007 C  
HETATM   14  C   UNL     1      -8.786  14.071  66.400  1.00  0.00     0.089 C  
HETATM   15  C   UNL     1     -10.616  16.646  69.634  1.00  0.00    -0.274 C  
HETATM   16  C   UNL     1      -9.842  15.071  67.313  1.00  0.00    -0.228 C  
HETATM   17  C   UNL     1      -9.917  17.049  65.767  1.00  0.00    -0.177 C  
HETATM   18  O   UNL     1      -7.523  13.908  67.083  1.00  0.00    -0.343 OA 
HETATM   19  F   UNL     1     -11.098  15.185  66.659  1.00  0.00    -0.318 F  
HETATM   20  C   UNL     1     -10.243  14.313  68.716  1.00  0.00    -0.226 C  
HETATM   21  C   UNL     1      -9.578  16.635  67.263  1.00  0.00    -0.243 C  
HETATM   22  C   UNL     1      -8.285  17.390  67.548  1.00  0.00    -0.209 C  
HETATM   23  H   UNL     1      -7.279  14.783  67.359  1.00  0.00     0.000 HD 
HETATM   24  O   UNL     1      -9.676  20.366  69.069  1.00  0.00     0.093 OA 
HETATM   25  C   UNL     1     -11.134  15.218  69.589  1.00  0.00    -0.284 C  
HETATM   26  C   UNL     1      -8.333  18.644  68.068  1.00  0.00    -0.299 C  
ENDROOT
BRANCH   4  27
HETATM   27  C   UNL     1      -8.232  10.728  67.559  1.00  0.00    -0.112 C  
HETATM   28  O   UNL     1      -8.018  10.231  66.439  1.00  0.00    -0.114 OA 
BRANCH  27  29
HETATM   29  C   UNL     1      -7.380  10.147  68.718  1.00  0.00    -0.084 C  
BRANCH  29  30
HETATM   30  O   UNL     1      -7.742   8.785  69.050  1.00  0.00    -0.088 OA 
BRANCH  30  31
HETATM   31  C   UNL     1      -6.853   8.133  69.844  1.00  0.00    -0.044 C  
HETATM   32  O   UNL     1      -5.687   7.923  69.563  1.00  0.00    -0.026 OA 
BRANCH  31  33
HETATM   33  C   UNL     1      -7.469   7.651  71.120  1.00  0.00    -0.078 A  
HETATM   34  C   UNL     1      -8.563   6.849  73.591  1.00  0.00    -0.156 A  
HETATM   35  O   UNL     1      -9.378   3.823  73.444  1.00  0.00    -0.104 OA 
HETATM   36  C   UNL     1      -7.707   7.942  73.537  1.00  0.00    -0.202 A  
HETATM   37  C   UNL     1      -7.165   8.345  72.309  1.00  0.00    -0.119 A  
HETATM   38  O   UNL     1     -11.298   5.385  73.208  1.00  0.00    -0.289 OA 
HETATM   39  O   UNL     1     -10.358   4.414  71.189  1.00  0.00    -0.109 OA 
HETATM   40  C   UNL     1      -8.337   6.548  71.174  1.00  0.00    -0.122 A  
HETATM   41  S   UNL     1      -9.971   4.774  72.528  1.00  0.00    -0.171 S  
HETATM   42  C   UNL     1      -8.863   6.164  72.423  1.00  0.00    -0.136 A  
ENDBRANCH  31  33
ENDBRANCH  30  31
ENDBRANCH  29  30
ENDBRANCH  27  29
ENDBRANCH   4  27
TORSDOF 5
ENDMDL
MODEL      127
REMARK 921   NORMALIZED FREE ENERGY PREDICTED BY IDOCK:   -4.99 KCAL/MOL
REMARK 922        TOTAL FREE ENERGY PREDICTED BY IDOCK:   -7.16 KCAL/MOL
REMARK 923 INTER-LIGAND FREE ENERGY PREDICTED BY IDOCK:   -7.88 KCAL/MOL
REMARK 924 INTRA-LIGAND FREE ENERGY PREDICTED BY IDOCK:    0.73 KCAL/MOL
REMARK 927      BINDING AFFINITY PREDICTED BY RF-SCORE:    0.00 PKD
ROOT
HETATM    1  C   UNL     1     -11.178  10.994  66.109  1.00  0.00     0.024 C  
HETATM    2  C   UNL     1     -10.589  11.114  64.838  1.00  0.00    -0.356 C  
HETATM    3  C   UNL     1      -9.609  10.832  65.943  1.00  0.00    -0.252 C  
HETATM    4  C   UNL     1     -10.386  10.258  67.779  1.00  0.00    -0.204 C  
HETATM    5  C   UNL     1      -8.277  10.412  64.976  1.00  0.00    -0.152 C  
HETATM    6  O   UNL     1     -11.825   9.968  67.890  1.00  0.00    -0.435 OA 
HETATM    7  C   UNL     1     -10.256  16.780  66.173  1.00  0.00    -0.363 C  
HETATM    8  C   UNL     1      -9.840   9.677  66.685  1.00  0.00    -0.285 C  
HETATM    9  C   UNL     1     -10.439  17.540  67.463  1.00  0.00    -0.355 C  
HETATM   10  C   UNL     1     -10.461  15.487  66.488  1.00  0.00    -0.301 C  
HETATM   11  C   UNL     1     -10.054   8.259  66.139  1.00  0.00     0.055 C  
HETATM   12  H   UNL     1     -12.181   9.706  68.731  1.00  0.00     0.000 HD 
HETATM   13  C   UNL     1      -8.358  10.486  67.641  1.00  0.00    -0.114 C  
HETATM   14  C   UNL     1      -8.695  12.170  68.138  1.00  0.00    -0.185 C  
HETATM   15  C   UNL     1     -11.888  14.992  66.629  1.00  0.00    -0.071 C  
HETATM   16  C   UNL     1      -9.631  13.238  67.173  1.00  0.00    -0.240 C  
HETATM   17  C   UNL     1      -7.949  15.088  66.922  1.00  0.00    -0.109 C  
HETATM   18  O   UNL     1      -9.254  12.062  69.466  1.00  0.00     0.246 OA 
HETATM   19  F   UNL     1      -9.103  13.300  65.855  1.00  0.00    -0.089 F  
HETATM   20  C   UNL     1     -11.123  12.594  66.926  1.00  0.00    -0.315 C  
HETATM   21  C   UNL     1      -9.431  14.794  67.417  1.00  0.00    -0.207 C  
HETATM   22  C   UNL     1      -9.520  15.570  68.726  1.00  0.00    -0.210 C  
HETATM   23  H   UNL     1      -9.434  12.957  69.730  1.00  0.00     0.000 HD 
HETATM   24  O   UNL     1     -10.937  18.656  67.474  1.00  0.00    -0.392 OA 
HETATM   25  C   UNL     1     -12.009  13.565  66.122  1.00  0.00    -0.454 C  
HETATM   26  C   UNL     1      -9.941  16.861  68.720  1.00  0.00    -0.276 C  
ENDROOT
BRANCH   4  27
HETATM   27  C   UNL     1     -10.050   8.930  68.838  1.00  0.00    -0.197 C  
HETATM   28  O   UNL     1     -10.681   7.859  68.876  1.00  0.00    -0.179 OA 
BRANCH  27  29
HETATM   29  C   UNL     1      -8.824   9.013  69.785  1.00  0.00    -0.153 C  
BRANCH  29  30
HETATM   30  O   UNL     1      -9.149   9.589  71.074  1.00  0.00    -0.224 OA 
BRANCH  30  31
HETATM   31  C   UNL     1      -9.961   8.828  71.853  1.00  0.00    -0.331 C  
HETATM   32  O   UNL     1     -11.144   9.041  72.047  1.00  0.00    -0.364 OA 
BRANCH  31  33
HETATM   33  C   UNL     1      -9.234   7.692  72.500  1.00  0.00    -0.208 A  
HETATM   34  C   UNL     1      -7.803   5.645  73.808  1.00  0.00    -0.104 A  
HETATM   35  O   UNL     1      -7.559   3.159  71.910  1.00  0.00    -0.050 OA 
HETATM   36  C   UNL     1      -7.637   6.966  74.205  1.00  0.00    -0.116 A  
HETATM   37  C   UNL     1      -8.350   7.985  73.558  1.00  0.00    -0.292 A  
HETATM   38  O   UNL     1      -9.316   2.914  73.651  1.00  0.00    -0.084 OA 
HETATM   39  O   UNL     1     -10.005   3.562  71.414  1.00  0.00    -0.171 OA 
HETATM   40  C   UNL     1      -9.405   6.356  72.101  1.00  0.00    -0.149 A  
HETATM   41  S   UNL     1      -8.867   3.649  72.290  1.00  0.00    -0.093 S  
HETATM   42  C   UNL     1      -8.671   5.353  72.766  1.00  0.00    -0.123 A  
ENDBRANCH  31  33
ENDBRANCH  30  31
ENDBRANCH  29  30
ENDBRANCH  27  29
ENDBRANCH   4  27
TORSDOF 5
ENDMDL
MODEL      128
REMARK 921   NORMALIZED FREE ENERGY PREDICTED BY IDOCK:   -4.97 KCAL/MOL
REMARK 922        TOTAL FREE ENERGY PREDICTED BY IDOCK:   -7.13 KCAL/MOL
REMARK 923 INTER-LIGAND FREE ENERGY PREDICTED BY IDOCK:   -7.38 KCAL/MOL
REMARK 924 INTRA-LIGAND FREE ENERGY PREDICTED BY IDOCK:    0.25 KCAL/MOL
REMARK 927      BINDING AFFINITY PREDICTED BY RF-SCORE:    0.00 PKD
ROOT
HETATM    1  C   UNL     1      -8.713  12.370  67.970  1.00  0.00    -0.186 C  
HETATM    2  C   UNL     1      -8.832  13.518  67.168  1.00  0.00    -0.231 C  
HETATM    3  C   UNL     1     -10.047  12.632  67.153  1.00  0.00    -0.224 C  
HETATM    4  C   UNL     1     -10.143  11.128  68.579  1.00  0.00    -0.201 C  
HETATM    5  C   UNL     1     -11.128  13.726  66.433  1.00  0.00    -0.309 C  
HETATM    6  O   UNL     1      -9.135  11.091  69.653  1.00  0.00    -0.348 OA 
HETATM    7  C   UNL     1      -6.496  10.145  63.023  1.00  0.00    -0.136 C  
HETATM    8  C   UNL     1     -10.631  12.376  68.391  1.00  0.00    -0.251 C  
HETATM    9  C   UNL     1      -6.260   8.660  62.926  1.00  0.00    -0.087 C  
HETATM   10  C   UNL     1      -7.071  10.339  64.226  1.00  0.00    -0.056 C  
HETATM   11  C   UNL     1     -11.057  13.412  69.439  1.00  0.00    -0.160 C  
HETATM   12  H   UNL     1      -9.179  10.403  70.305  1.00  0.00     0.000 HD 
HETATM   13  C   UNL     1     -11.659  11.230  67.210  1.00  0.00    -0.171 C  
HETATM   14  C   UNL     1     -10.630  10.122  66.257  1.00  0.00    -0.051 C  
HETATM   15  C   UNL     1      -6.187  10.352  65.458  1.00  0.00    -0.125 C  
HETATM   16  C   UNL     1      -9.079  10.581  65.683  1.00  0.00    -0.182 C  
HETATM   17  C   UNL     1      -9.446  10.164  63.233  1.00  0.00    -0.302 C  
HETATM   18  O   UNL     1     -10.543   8.918  67.050  1.00  0.00    -0.274 OA 
HETATM   19  F   UNL     1      -9.167  11.793  64.946  1.00  0.00    -0.157 F  
HETATM   20  C   UNL     1      -8.126  11.009  66.952  1.00  0.00    -0.142 C  
HETATM   21  C   UNL     1      -8.498   9.773  64.447  1.00  0.00    -0.185 C  
HETATM   22  C   UNL     1      -8.336   8.266  64.289  1.00  0.00    -0.068 C  
HETATM   23  H   UNL     1      -9.996   8.330  66.544  1.00  0.00     0.000 HD 
HETATM   24  O   UNL     1      -5.277   8.211  62.355  1.00  0.00    -0.062 OA 
HETATM   25  C   UNL     1      -6.704  11.358  66.473  1.00  0.00    -0.070 C  
HETATM   26  C   UNL     1      -7.320   7.769  63.536  1.00  0.00    -0.097 C  
ENDROOT
BRANCH   4  27
HETATM   27  C   UNL     1     -11.358  10.661  69.721  1.00  0.00    -0.301 C  
HETATM   28  O   UNL     1     -12.245  11.405  70.176  1.00  0.00    -0.317 OA 
BRANCH  27  29
HETATM   29  C   UNL     1     -11.425   9.183  70.188  1.00  0.00    -0.087 C  
BRANCH  29  30
HETATM   30  O   UNL     1     -11.230   9.037  71.615  1.00  0.00    -0.312 OA 
BRANCH  30  31
HETATM   31  C   UNL     1     -10.042   8.486  71.978  1.00  0.00    -0.316 C  
HETATM   32  O   UNL     1      -9.034   9.114  72.248  1.00  0.00    -0.273 OA 
BRANCH  31  33
HETATM   33  C   UNL     1     -10.079   6.991  71.976  1.00  0.00    -0.201 A  
HETATM   34  C   UNL     1     -10.243   4.178  72.082  1.00  0.00    -0.220 A  
HETATM   35  O   UNL     1      -7.660   2.929  70.813  1.00  0.00    -0.039 OA 
HETATM   36  C   UNL     1     -10.981   4.947  72.973  1.00  0.00    -0.358 A  
HETATM   37  C   UNL     1     -10.904   6.345  72.921  1.00  0.00    -0.286 A  
HETATM   38  O   UNL     1      -9.632   2.894  69.299  1.00  0.00    -0.132 OA 
HETATM   39  O   UNL     1      -7.981   4.648  68.987  1.00  0.00    -0.070 OA 
HETATM   40  C   UNL     1      -9.336   6.214  71.072  1.00  0.00    -0.176 A  
HETATM   41  S   UNL     1      -8.507   3.795  70.019  1.00  0.00    -0.061 S  
HETATM   42  C   UNL     1      -9.430   4.810  71.152  1.00  0.00    -0.157 A  
ENDBRANCH  31  33
ENDBRANCH  30  31
ENDBRANCH  29  30
ENDBRANCH  27  29
ENDBRANCH   4  27
TORSDOF 5
ENDMDL
MODEL      129
REMARK 921   NORMALIZED FREE ENERGY PREDICTED BY IDOCK:   -4.92 KCAL/MOL
REMARK 922        TOTAL FREE ENERGY PREDICTED BY IDOCK:   -7.07 KCAL/MOL
REMARK 923 INTER-LIGAND FREE ENERGY PREDICTED BY IDOCK:   -7.06 KCAL/MOL
REMARK 924 INTRA-LIGAND FREE ENERGY PREDICTED BY IDOCK:   -0.01 KCAL/MOL
REMARK 927      BINDING AFFINITY PREDICTED BY RF-SCORE:    0.00 PKD
ROOT
HETATM    1  C   UNL     1     -11.195  14.305  67.651  1.00  0.00    -0.321 C  
HETATM    2  C   UNL     1     -11.357  14.758  66.330  1.00  0.00    -0.339 C  
HETATM    3  C   UNL     1     -10.258  13.746  66.500  1.00  0.00    -0.284 C  
HETATM    4  C   UNL     1     -10.176  12.727  68.305  1.00  0.00    -0.244 C  
HETATM    5  C   UNL     1     -10.019  13.379  64.859  1.00  0.00    -0.162 C  
HETATM    6  O   UNL     1     -11.278  12.884  69.269  1.00  0.00    -0.331 OA 
HETATM    7  C   UNL     1      -7.588  18.915  67.917  1.00  0.00    -0.283 C  
HETATM    8  C   UNL     1     -10.633  12.523  67.048  1.00  0.00    -0.251 C  
HETATM    9  C   UNL     1      -6.687  19.076  69.115  1.00  0.00    -0.304 C  
HETATM   10  C   UNL     1      -8.229  17.745  68.105  1.00  0.00    -0.260 C  
HETATM   11  C   UNL     1     -11.775  11.613  66.574  1.00  0.00    -0.034 C  
HETATM   12  H   UNL     1     -11.240  12.418  70.096  1.00  0.00     0.000 HD 
HETATM   13  C   UNL     1      -8.704  12.345  66.937  1.00  0.00    -0.191 C  
HETATM   14  C   UNL     1      -7.841  13.675  67.763  1.00  0.00    -0.171 C  
HETATM   15  C   UNL     1      -9.411  17.712  69.055  1.00  0.00    -0.099 C  
HETATM   16  C   UNL     1      -8.440  15.283  67.780  1.00  0.00    -0.152 C  
HETATM   17  C   UNL     1      -6.449  16.437  66.773  1.00  0.00    -0.051 C  
HETATM   18  O   UNL     1      -7.624  13.198  69.110  1.00  0.00    -0.321 OA 
HETATM   19  F   UNL     1      -8.698  15.725  66.454  1.00  0.00    -0.264 F  
HETATM   20  C   UNL     1      -9.938  15.306  68.457  1.00  0.00    -0.222 C  
HETATM   21  C   UNL     1      -7.391  16.442  68.053  1.00  0.00    -0.144 C  
HETATM   22  C   UNL     1      -6.406  16.579  69.208  1.00  0.00    -0.194 C  
HETATM   23  H   UNL     1      -7.165  13.905  69.549  1.00  0.00     0.000 HD 
HETATM   24  O   UNL     1      -6.466  20.177  69.597  1.00  0.00    -0.336 OA 
HETATM   25  C   UNL     1     -10.472  16.748  68.550  1.00  0.00    -0.335 C  
HETATM   26  C   UNL     1      -6.052  17.812  69.653  1.00  0.00    -0.240 C  
ENDROOT
BRANCH   4  27
HETATM   27  C   UNL     1     -10.082  11.045  68.707  1.00  0.00    -0.203 C  
HETATM   28  O   UNL     1      -9.155  10.279  68.392  1.00  0.00    -0.129 OA 
BRANCH  27  29
HETATM   29  C   UNL     1     -11.191  10.420  69.594  1.00  0.00    -0.277 C  
BRANCH  29  30
HETATM   30  O   UNL     1     -10.720  10.076  70.920  1.00  0.00    -0.300 OA 
BRANCH  30  31
HETATM   31  C   UNL     1     -10.599   8.744  71.157  1.00  0.00    -0.241 C  
HETATM   32  O   UNL     1     -11.528   7.963  71.250  1.00  0.00    -0.256 OA 
BRANCH  31  33
HETATM   33  C   UNL     1      -9.175   8.322  71.338  1.00  0.00    -0.218 A  
HETATM   34  C   UNL     1      -6.460   7.660  71.712  1.00  0.00    -0.042 A  
HETATM   35  O   UNL     1      -5.786   5.049  70.109  1.00  0.00    -0.015 OA 
HETATM   36  C   UNL     1      -6.883   8.971  71.892  1.00  0.00     0.043 A  
HETATM   37  C   UNL     1      -8.232   9.302  71.710  1.00  0.00     0.465 A  
HETATM   38  O   UNL     1      -6.118   4.667  72.543  1.00  0.00    -0.019 OA 
HETATM   39  O   UNL     1      -7.963   4.166  71.044  1.00  0.00    -0.068 OA 
HETATM   40  C   UNL     1      -8.749   6.995  71.159  1.00  0.00    -0.137 A  
HETATM   41  S   UNL     1      -6.810   5.022  71.132  1.00  0.00    -0.045 S  
HETATM   42  C   UNL     1      -7.385   6.694  71.344  1.00  0.00    -0.083 A  
ENDBRANCH  31  33
ENDBRANCH  30  31
ENDBRANCH  29  30
ENDBRANCH  27  29
ENDBRANCH   4  27
TORSDOF 5
ENDMDL
MODEL      130
REMARK 921   NORMALIZED FREE ENERGY PREDICTED BY IDOCK:   -4.90 KCAL/MOL
REMARK 922        TOTAL FREE ENERGY PREDICTED BY IDOCK:   -7.05 KCAL/MOL
REMARK 923 INTER-LIGAND FREE ENERGY PREDICTED BY IDOCK:   -7.61 KCAL/MOL
REMARK 924 INTRA-LIGAND FREE ENERGY PREDICTED BY IDOCK:    0.56 KCAL/MOL
REMARK 927      BINDING AFFINITY PREDICTED BY RF-SCORE:    0.00 PKD
ROOT
HETATM    1  C   UNL     1      -7.599   9.253  66.125  1.00  0.00    -0.096 C  
HETATM    2  C   UNL     1      -6.597  10.000  65.481  1.00  0.00    -0.100 C  
HETATM    3  C   UNL     1      -6.672  10.227  66.965  1.00  0.00    -0.079 C  
HETATM    4  C   UNL     1      -7.836   8.911  68.070  1.00  0.00    -0.102 C  
HETATM    5  C   UNL     1      -5.185  11.026  67.158  1.00  0.00    -0.048 C  
HETATM    6  O   UNL     1      -8.388   7.715  67.412  1.00  0.00    -0.114 OA 
HETATM    7  C   UNL     1     -10.816  13.969  64.803  1.00  0.00    -0.430 C  
HETATM    8  C   UNL     1      -6.530   9.096  67.764  1.00  0.00    -0.056 C  
HETATM    9  C   UNL     1     -12.190  14.115  65.406  1.00  0.00    -0.433 C  
HETATM   10  C   UNL     1     -10.304  12.846  65.344  1.00  0.00    -0.310 C  
HETATM   11  C   UNL     1      -5.400   8.059  67.700  1.00  0.00    -0.033 C  
HETATM   12  H   UNL     1      -8.920   7.113  67.917  1.00  0.00     0.000 HD 
HETATM   13  C   UNL     1      -6.958  10.465  69.071  1.00  0.00    -0.071 C  
HETATM   14  C   UNL     1      -8.476  11.330  68.690  1.00  0.00    -0.143 C  
HETATM   15  C   UNL     1     -10.742  11.507  64.783  1.00  0.00    -0.366 C  
HETATM   16  C   UNL     1      -8.959  11.663  67.076  1.00  0.00    -0.182 C  
HETATM   17  C   UNL     1      -9.177  14.159  67.258  1.00  0.00    -0.222 C  
HETATM   18  O   UNL     1      -9.507  10.598  69.389  1.00  0.00    -0.351 OA 
HETATM   19  F   UNL     1      -7.919  12.338  66.382  1.00  0.00    -0.041 F  
HETATM   20  C   UNL     1      -9.087  10.255  66.238  1.00  0.00    -0.178 C  
HETATM   21  C   UNL     1      -9.989  12.851  66.862  1.00  0.00    -0.238 C  
HETATM   22  C   UNL     1     -11.342  13.067  67.529  1.00  0.00    -0.346 C  
HETATM   23  H   UNL     1     -10.313  11.058  69.187  1.00  0.00     0.000 HD 
HETATM   24  O   UNL     1     -13.120  14.571  64.758  1.00  0.00    -0.485 OA 
HETATM   25  C   UNL     1      -9.589  10.518  64.805  1.00  0.00    -0.342 C  
HETATM   26  C   UNL     1     -12.336  13.702  66.855  1.00  0.00    -0.309 C  
ENDROOT
BRANCH   4  27
HETATM   27  C   UNL     1      -7.526   7.971  69.491  1.00  0.00    -0.092 C  
HETATM   28  O   UNL     1      -6.404   7.737  69.972  1.00  0.00    -0.033 OA 
BRANCH  27  29
HETATM   29  C   UNL     1      -8.726   7.415  70.301  1.00  0.00    -0.146 C  
BRANCH  29  30
HETATM   30  O   UNL     1     -10.004   7.720  69.691  1.00  0.00    -0.184 OA 
BRANCH  30  31
HETATM   31  C   UNL     1     -10.937   6.738  69.794  1.00  0.00    -0.297 C  
HETATM   32  O   UNL     1     -12.120   6.869  69.536  1.00  0.00     0.128 OA 
BRANCH  31  33
HETATM   33  C   UNL     1     -10.365   5.454  70.305  1.00  0.00    -0.357 A  
HETATM   34  C   UNL     1      -9.264   2.994  71.131  1.00  0.00    -0.197 A  
HETATM   35  O   UNL     1     -10.301   2.295  74.009  1.00  0.00    -0.107 OA 
HETATM   36  C   UNL     1      -9.364   3.285  69.777  1.00  0.00    -0.229 A  
HETATM   37  C   UNL     1      -9.908   4.509  69.363  1.00  0.00    -0.260 A  
HETATM   38  O   UNL     1      -7.991   3.212  73.978  1.00  0.00    -0.067 OA 
HETATM   39  O   UNL     1      -9.812   4.717  74.545  1.00  0.00    -0.147 OA 
HETATM   40  C   UNL     1     -10.261   5.161  71.675  1.00  0.00    -0.276 A  
HETATM   41  S   UNL     1      -9.561   3.519  73.787  1.00  0.00    -0.104 S  
HETATM   42  C   UNL     1      -9.714   3.921  72.060  1.00  0.00    -0.164 A  
ENDBRANCH  31  33
ENDBRANCH  30  31
ENDBRANCH  29  30
ENDBRANCH  27  29
ENDBRANCH   4  27
TORSDOF 5
ENDMDL
MODEL      131
REMARK 921   NORMALIZED FREE ENERGY PREDICTED BY IDOCK:   -4.86 KCAL/MOL
REMARK 922        TOTAL FREE ENERGY PREDICTED BY IDOCK:   -6.99 KCAL/MOL
REMARK 923 INTER-LIGAND FREE ENERGY PREDICTED BY IDOCK:   -6.75 KCAL/MOL
REMARK 924 INTRA-LIGAND FREE ENERGY PREDICTED BY IDOCK:   -0.23 KCAL/MOL
REMARK 927      BINDING AFFINITY PREDICTED BY RF-SCORE:    0.00 PKD
ROOT
HETATM    1  C   UNL     1      -7.977   7.984  71.080  1.00  0.00    -0.092 C  
HETATM    2  C   UNL     1      -8.390   8.684  72.227  1.00  0.00    -0.128 C  
HETATM    3  C   UNL     1      -9.445   7.785  71.645  1.00  0.00    -0.179 C  
HETATM    4  C   UNL     1      -8.842   6.424  70.199  1.00  0.00    -0.150 C  
HETATM    5  C   UNL     1     -10.519   7.798  72.961  1.00  0.00    -0.432 C  
HETATM    6  O   UNL     1      -7.405   6.255  69.928  1.00  0.00    -0.075 OA 
HETATM    7  C   UNL     1      -9.996  12.799  68.420  1.00  0.00    -0.210 C  
HETATM    8  C   UNL     1      -9.104   6.440  71.527  1.00  0.00    -0.144 C  
HETATM    9  C   UNL     1     -10.149  12.802  66.920  1.00  0.00    -0.232 C  
HETATM   10  C   UNL     1      -9.593  11.554  68.737  1.00  0.00    -0.112 C  
HETATM   11  C   UNL     1      -8.545   5.532  72.630  1.00  0.00    -0.124 C  
HETATM   12  H   UNL     1      -7.129   5.633  69.266  1.00  0.00     0.000 HD 
HETATM   13  C   UNL     1     -10.835   6.500  70.652  1.00  0.00    -0.317 C  
HETATM   14  C   UNL     1     -10.903   7.712  69.340  1.00  0.00    -0.127 C  
HETATM   15  C   UNL     1      -8.132  11.193  68.542  1.00  0.00    -0.146 C  
HETATM   16  C   UNL     1     -10.063   9.206  69.431  1.00  0.00    -0.197 C  
HETATM   17  C   UNL     1     -12.016  10.755  69.117  1.00  0.00    -0.302 C  
HETATM   18  O   UNL     1     -10.529   6.990  68.146  1.00  0.00    -0.182 OA 
HETATM   19  F   UNL     1     -10.399   9.886  70.633  1.00  0.00    -0.321 F  
HETATM   20  C   UNL     1      -8.455   8.924  69.624  1.00  0.00    -0.129 C  
HETATM   21  C   UNL     1     -10.592  10.389  68.514  1.00  0.00    -0.237 C  
HETATM   22  C   UNL     1     -10.842  10.386  67.011  1.00  0.00    -0.269 C  
HETATM   23  H   UNL     1     -10.565   7.634  67.449  1.00  0.00     0.000 HD 
HETATM   24  O   UNL     1      -9.882  13.794  66.259  1.00  0.00    -0.290 OA 
HETATM   25  C   UNL     1      -7.667  10.248  69.637  1.00  0.00    -0.166 C  
HETATM   26  C   UNL     1     -10.680  11.530  66.295  1.00  0.00    -0.321 C  
ENDROOT
BRANCH   4  27
HETATM   27  C   UNL     1      -9.063   4.716  70.022  1.00  0.00    -0.106 C  
HETATM   28  O   UNL     1     -10.156   4.141  69.879  1.00  0.00    -0.153 OA 
BRANCH  27  29
HETATM   29  C   UNL     1      -7.814   3.798  69.959  1.00  0.00    -0.047 C  
BRANCH  29  30
HETATM   30  O   UNL     1      -7.734   3.045  68.724  1.00  0.00    -0.048 OA 
BRANCH  30  31
HETATM   31  C   UNL     1      -7.063   3.664  67.718  1.00  0.00    -0.055 C  
HETATM   32  O   UNL     1      -6.253   4.561  67.867  1.00  0.00    -0.033 OA 
BRANCH  31  33
HETATM   33  C   UNL     1      -7.451   3.149  66.368  1.00  0.00    -0.076 A  
HETATM   34  C   UNL     1      -8.061   2.103  63.823  1.00  0.00    -0.080 A  
HETATM   35  O   UNL     1     -10.039   4.035  62.341  1.00  0.00    -0.150 OA 
HETATM   36  C   UNL     1      -6.886   1.726  64.460  1.00  0.00    -0.035 A  
HETATM   37  C   UNL     1      -6.581   2.243  65.727  1.00  0.00    -0.028 A  
HETATM   38  O   UNL     1     -11.146   2.038  63.325  1.00  0.00    -0.239 OA 
HETATM   39  O   UNL     1     -11.266   4.133  64.550  1.00  0.00    -0.328 OA 
HETATM   40  C   UNL     1      -8.641   3.527  65.725  1.00  0.00    -0.115 A  
HETATM   41  S   UNL     1     -10.420   3.448  63.609  1.00  0.00    -0.268 S  
HETATM   42  C   UNL     1      -8.918   2.995  64.450  1.00  0.00    -0.113 A  
ENDBRANCH  31  33
ENDBRANCH  30  31
ENDBRANCH  29  30
ENDBRANCH  27  29
ENDBRANCH   4  27
TORSDOF 5
ENDMDL
MODEL      132
REMARK 921   NORMALIZED FREE ENERGY PREDICTED BY IDOCK:   -4.85 KCAL/MOL
REMARK 922        TOTAL FREE ENERGY PREDICTED BY IDOCK:   -6.98 KCAL/MOL
REMARK 923 INTER-LIGAND FREE ENERGY PREDICTED BY IDOCK:   -7.68 KCAL/MOL
REMARK 924 INTRA-LIGAND FREE ENERGY PREDICTED BY IDOCK:    0.71 KCAL/MOL
REMARK 927      BINDING AFFINITY PREDICTED BY RF-SCORE:    0.00 PKD
ROOT
HETATM    1  C   UNL     1     -10.775  13.306  64.431  1.00  0.00    -0.432 C  
HETATM    2  C   UNL     1     -12.095  12.871  64.226  1.00  0.00    -0.487 C  
HETATM    3  C   UNL     1     -11.910  13.702  65.465  1.00  0.00    -0.382 C  
HETATM    4  C   UNL     1     -10.110  14.713  65.670  1.00  0.00    -0.363 C  
HETATM    5  C   UNL     1     -13.548  14.012  65.788  1.00  0.00     1.417 C  
HETATM    6  O   UNL     1      -9.167  14.737  64.539  1.00  0.00     0.809 OA 
HETATM    7  C   UNL     1     -10.407   8.196  67.277  1.00  0.00    -0.373 C  
HETATM    8  C   UNL     1     -11.377  14.974  65.273  1.00  0.00    -0.349 C  
HETATM    9  C   UNL     1      -9.190   7.910  68.119  1.00  0.00    -0.136 C  
HETATM   10  C   UNL     1     -10.239   9.453  66.821  1.00  0.00    -0.320 C  
HETATM   11  C   UNL     1     -11.880  16.045  64.295  1.00  0.00     0.005 C  
HETATM   12  H   UNL     1      -8.343  15.200  64.633  1.00  0.00     0.000 HD 
HETATM   13  C   UNL     1     -11.451  14.851  67.208  1.00  0.00    -0.350 C  
HETATM   14  C   UNL     1     -10.599  13.411  67.840  1.00  0.00    -0.245 C  
HETATM   15  C   UNL     1      -9.313   9.678  65.640  1.00  0.00    -0.296 C  
HETATM   16  C   UNL     1     -10.584  11.915  66.999  1.00  0.00    -0.227 C  
HETATM   17  C   UNL     1     -11.544  10.458  68.806  1.00  0.00    -0.188 C  
HETATM   18  O   UNL     1      -9.252  13.861  68.103  1.00  0.00    -0.190 OA 
HETATM   19  F   UNL     1     -11.912  11.506  66.701  1.00  0.00    -0.240 F  
HETATM   20  C   UNL     1      -9.937  12.130  65.503  1.00  0.00    -0.269 C  
HETATM   21  C   UNL     1     -10.282  10.611  67.851  1.00  0.00    -0.206 C  
HETATM   22  C   UNL     1      -9.108  10.334  68.781  1.00  0.00    -0.159 C  
HETATM   23  H   UNL     1      -8.799  13.097  68.439  1.00  0.00     0.000 HD 
HETATM   24  O   UNL     1      -8.697   6.792  68.158  1.00  0.00    -0.123 OA 
HETATM   25  C   UNL     1      -9.845  10.789  64.751  1.00  0.00    -0.358 C  
HETATM   26  C   UNL     1      -8.647   9.065  68.932  1.00  0.00    -0.131 C  
ENDROOT
BRANCH   4  27
HETATM   27  C   UNL     1      -9.717  16.364  66.015  1.00  0.00    -0.326 C  
HETATM   28  O   UNL     1      -8.825  17.026  65.457  1.00  0.00    -0.319 OA 
BRANCH  27  29
HETATM   29  C   UNL     1     -10.573  17.141  67.050  1.00  0.00    -0.227 C  
BRANCH  29  30
HETATM   30  O   UNL     1     -10.395  18.575  66.961  1.00  0.00    -0.361 OA 
BRANCH  30  31
HETATM   31  C   UNL     1      -9.945  19.169  68.097  1.00  0.00    -0.388 C  
HETATM   32  O   UNL     1     -10.604  19.906  68.808  1.00  0.00    -0.252 OA 
BRANCH  31  33
HETATM   33  C   UNL     1      -8.511  18.853  68.380  1.00  0.00    -0.385 A  
HETATM   34  C   UNL     1      -5.775  18.392  68.881  1.00  0.00    -0.207 A  
HETATM   35  O   UNL     1      -5.161  15.327  68.612  1.00  0.00    -0.086 OA 
HETATM   36  C   UNL     1      -6.199  19.648  68.465  1.00  0.00    -0.279 A  
HETATM   37  C   UNL     1      -7.559  19.880  68.218  1.00  0.00    -0.306 A  
HETATM   38  O   UNL     1      -5.366  16.100  70.966  1.00  0.00    -0.130 OA 
HETATM   39  O   UNL     1      -7.280  15.000  69.952  1.00  0.00    -0.187 OA 
HETATM   40  C   UNL     1      -8.083  17.584  68.804  1.00  0.00    -0.232 A  
HETATM   41  S   UNL     1      -6.131  15.785  69.584  1.00  0.00    -0.166 S  
HETATM   42  C   UNL     1      -6.709  17.379  69.040  1.00  0.00    -0.243 A  
ENDBRANCH  31  33
ENDBRANCH  30  31
ENDBRANCH  29  30
ENDBRANCH  27  29
ENDBRANCH   4  27
TORSDOF 5
ENDMDL
MODEL      133
REMARK 921   NORMALIZED FREE ENERGY PREDICTED BY IDOCK:   -4.85 KCAL/MOL
REMARK 922        TOTAL FREE ENERGY PREDICTED BY IDOCK:   -6.97 KCAL/MOL
REMARK 923 INTER-LIGAND FREE ENERGY PREDICTED BY IDOCK:   -7.13 KCAL/MOL
REMARK 924 INTRA-LIGAND FREE ENERGY PREDICTED BY IDOCK:    0.16 KCAL/MOL
REMARK 927      BINDING AFFINITY PREDICTED BY RF-SCORE:    0.00 PKD
ROOT
HETATM    1  C   UNL     1      -7.910   8.146  66.942  1.00  0.00    -0.096 C  
HETATM    2  C   UNL     1      -7.000   8.540  65.946  1.00  0.00    -0.071 C  
HETATM    3  C   UNL     1      -6.706   9.111  67.305  1.00  0.00    -0.069 C  
HETATM    4  C   UNL     1      -7.735   8.307  68.917  1.00  0.00    -0.102 C  
HETATM    5  C   UNL     1      -5.130   9.663  66.993  1.00  0.00    -0.034 C  
HETATM    6  O   UNL     1      -8.562   7.105  68.713  1.00  0.00    -0.125 OA 
HETATM    7  C   UNL     1     -10.755  12.915  65.073  1.00  0.00    -0.326 C  
HETATM    8  C   UNL     1      -6.521   8.187  68.330  1.00  0.00    -0.055 C  
HETATM    9  C   UNL     1     -11.927  13.431  65.868  1.00  0.00    -0.409 C  
HETATM   10  C   UNL     1     -10.272  11.876  65.780  1.00  0.00    -0.276 C  
HETATM   11  C   UNL     1      -5.569   6.984  68.324  1.00  0.00    -0.021 C  
HETATM   12  H   UNL     1      -9.033   6.737  69.451  1.00  0.00     0.000 HD 
HETATM   13  C   UNL     1      -6.473   9.873  69.289  1.00  0.00    -0.048 C  
HETATM   14  C   UNL     1      -7.922  10.876  68.993  1.00  0.00    -0.131 C  
HETATM   15  C   UNL     1     -10.984  10.540  65.684  1.00  0.00     0.196 C  
HETATM   16  C   UNL     1      -8.718  10.908  67.472  1.00  0.00    -0.130 C  
HETATM   17  C   UNL     1      -8.588  13.378  67.031  1.00  0.00    -0.168 C  
HETATM   18  O   UNL     1      -8.846  10.515  70.043  1.00  0.00    -0.336 OA 
HETATM   19  F   UNL     1      -7.791  11.214  66.439  1.00  0.00    -0.144 F  
HETATM   20  C   UNL     1      -9.202   9.389  67.071  1.00  0.00    -0.171 C  
HETATM   21  C   UNL     1      -9.620  12.175  67.155  1.00  0.00    -0.195 C  
HETATM   22  C   UNL     1     -10.748  12.770  67.988  1.00  0.00    -0.246 C  
HETATM   23  H   UNL     1      -9.616  11.048  69.886  1.00  0.00     0.000 HD 
HETATM   24  O   UNL     1     -12.919  13.880  65.313  1.00  0.00    -0.747 OA 
HETATM   25  C   UNL     1      -9.983   9.398  65.743  1.00  0.00    -0.278 C  
HETATM   26  C   UNL     1     -11.787  13.395  67.375  1.00  0.00    -0.418 C  
ENDROOT
BRANCH   4  27
HETATM   27  C   UNL     1      -7.224   7.679  70.448  1.00  0.00    -0.063 C  
HETATM   28  O   UNL     1      -6.254   6.924  70.631  1.00  0.00    -0.031 OA 
BRANCH  27  29
HETATM   29  C   UNL     1      -7.969   8.129  71.733  1.00  0.00    -0.121 C  
BRANCH  29  30
HETATM   30  O   UNL     1      -8.614   7.030  72.421  1.00  0.00    -0.120 OA 
BRANCH  30  31
HETATM   31  C   UNL     1      -9.493   6.320  71.668  1.00  0.00    -0.147 C  
HETATM   32  O   UNL     1      -9.220   5.313  71.040  1.00  0.00    -0.142 OA 
BRANCH  31  33
HETATM   33  C   UNL     1     -10.859   6.929  71.652  1.00  0.00    -0.252 A  
HETATM   34  C   UNL     1     -13.485   7.953  71.666  1.00  0.00    -0.386 A  
HETATM   35  O   UNL     1     -13.657  10.427  69.745  1.00  0.00     0.346 OA 
HETATM   36  C   UNL     1     -13.258   6.630  72.021  1.00  0.00    -0.033 A  
HETATM   37  C   UNL     1     -11.953   6.119  72.018  1.00  0.00    -0.310 A  
HETATM   38  O   UNL     1     -13.505  11.041  72.149  1.00  0.00    -0.377 OA 
HETATM   39  O   UNL     1     -11.479  11.141  70.812  1.00  0.00    -0.143 OA 
HETATM   40  C   UNL     1     -11.088   8.269  71.296  1.00  0.00    -0.296 A  
HETATM   41  S   UNL     1     -12.738  10.446  70.863  1.00  0.00    -0.395 S  
HETATM   42  C   UNL     1     -12.411   8.752  71.303  1.00  0.00    -0.260 A  
ENDBRANCH  31  33
ENDBRANCH  30  31
ENDBRANCH  29  30
ENDBRANCH  27  29
ENDBRANCH   4  27
TORSDOF 5
ENDMDL
MODEL      134
REMARK 921   NORMALIZED FREE ENERGY PREDICTED BY IDOCK:   -4.83 KCAL/MOL
REMARK 922        TOTAL FREE ENERGY PREDICTED BY IDOCK:   -6.96 KCAL/MOL
REMARK 923 INTER-LIGAND FREE ENERGY PREDICTED BY IDOCK:   -7.28 KCAL/MOL
REMARK 924 INTRA-LIGAND FREE ENERGY PREDICTED BY IDOCK:    0.32 KCAL/MOL
REMARK 927      BINDING AFFINITY PREDICTED BY RF-SCORE:    0.00 PKD
ROOT
HETATM    1  C   UNL     1      -8.599  10.039  65.537  1.00  0.00    -0.162 C  
HETATM    2  C   UNL     1      -9.930  10.160  65.100  1.00  0.00    -0.379 C  
HETATM    3  C   UNL     1      -9.741  10.430  66.566  1.00  0.00    -0.241 C  
HETATM    4  C   UNL     1      -7.794  10.661  67.246  1.00  0.00    -0.112 C  
HETATM    5  C   UNL     1     -11.251  11.144  66.872  1.00  0.00    -0.258 C  
HETATM    6  O   UNL     1      -6.696  10.738  66.267  1.00  0.00    -0.120 OA 
HETATM    7  C   UNL     1     -10.230   4.467  66.331  1.00  0.00    -0.249 C  
HETATM    8  C   UNL     1      -8.840  11.442  66.890  1.00  0.00    -0.173 C  
HETATM    9  C   UNL     1      -9.319   3.535  67.088  1.00  0.00    -0.200 C  
HETATM   10  C   UNL     1      -9.630   5.673  66.379  1.00  0.00    -0.175 C  
HETATM   11  C   UNL     1      -8.830  12.875  66.341  1.00  0.00     0.061 C  
HETATM   12  H   UNL     1      -5.805  10.843  66.579  1.00  0.00     0.000 HD 
HETATM   13  C   UNL     1      -9.293  10.727  68.636  1.00  0.00    -0.184 C  
HETATM   14  C   UNL     1      -9.018   8.964  68.751  1.00  0.00    -0.134 C  
HETATM   15  C   UNL     1      -8.482   5.948  65.427  1.00  0.00    -0.153 C  
HETATM   16  C   UNL     1      -9.281   7.909  67.423  1.00  0.00    -0.140 C  
HETATM   17  C   UNL     1     -10.928   6.349  68.504  1.00  0.00    -0.396 C  
HETATM   18  O   UNL     1      -7.668   8.830  69.249  1.00  0.00    -0.090 OA 
HETATM   19  F   UNL     1     -10.594   8.084  66.909  1.00  0.00    -0.365 F  
HETATM   20  C   UNL     1      -8.341   8.372  66.156  1.00  0.00    -0.127 C  
HETATM   21  C   UNL     1      -9.525   6.376  67.757  1.00  0.00    -0.115 C  
HETATM   22  C   UNL     1      -8.666   5.438  68.596  1.00  0.00    -0.097 C  
HETATM   23  H   UNL     1      -7.522   7.893  69.310  1.00  0.00     0.000 HD 
HETATM   24  O   UNL     1      -9.183   2.370  66.747  1.00  0.00    -0.125 OA 
HETATM   25  C   UNL     1      -8.504   7.398  64.973  1.00  0.00     0.007 C  
HETATM   26  C   UNL     1      -8.624   4.113  68.302  1.00  0.00    -0.110 C  
ENDROOT
BRANCH   4  27
HETATM   27  C   UNL     1      -7.013  11.880  68.197  1.00  0.00    -0.078 C  
HETATM   28  O   UNL     1      -6.985  11.918  69.440  1.00  0.00    -0.088 OA 
BRANCH  27  29
HETATM   29  C   UNL     1      -6.209  12.995  67.479  1.00  0.00    -0.139 C  
BRANCH  29  30
HETATM   30  O   UNL     1      -6.034  14.176  68.299  1.00  0.00    -0.098 OA 
BRANCH  30  31
HETATM   31  C   UNL     1      -6.113  15.356  67.631  1.00  0.00    -0.126 C  
HETATM   32  O   UNL     1      -5.162  15.978  67.196  1.00  0.00    -0.322 OA 
BRANCH  31  33
HETATM   33  C   UNL     1      -7.519  15.852  67.508  1.00  0.00    -0.194 A  
HETATM   34  C   UNL     1     -10.121  16.888  67.188  1.00  0.00    -0.287 A  
HETATM   35  O   UNL     1     -11.892  16.051  69.639  1.00  0.00    -0.312 OA 
HETATM   36  C   UNL     1      -9.054  17.490  66.534  1.00  0.00    -0.284 A  
HETATM   37  C   UNL     1      -7.759  16.974  66.689  1.00  0.00    -0.302 A  
HETATM   38  O   UNL     1     -12.291  14.677  67.606  1.00  0.00    -0.171 OA 
HETATM   39  O   UNL     1     -10.854  13.766  69.340  1.00  0.00    -0.167 OA 
HETATM   40  C   UNL     1      -8.600  15.241  68.166  1.00  0.00    -0.160 A  
HETATM   41  S   UNL     1     -11.282  15.033  68.810  1.00  0.00    -0.295 S  
HETATM   42  C   UNL     1      -9.889  15.785  67.996  1.00  0.00    -0.217 A  
ENDBRANCH  31  33
ENDBRANCH  30  31
ENDBRANCH  29  30
ENDBRANCH  27  29
ENDBRANCH   4  27
TORSDOF 5
ENDMDL
MODEL      135
REMARK 921   NORMALIZED FREE ENERGY PREDICTED BY IDOCK:   -4.82 KCAL/MOL
REMARK 922        TOTAL FREE ENERGY PREDICTED BY IDOCK:   -6.94 KCAL/MOL
REMARK 923 INTER-LIGAND FREE ENERGY PREDICTED BY IDOCK:   -6.47 KCAL/MOL
REMARK 924 INTRA-LIGAND FREE ENERGY PREDICTED BY IDOCK:   -0.47 KCAL/MOL
REMARK 927      BINDING AFFINITY PREDICTED BY RF-SCORE:    0.00 PKD
ROOT
HETATM    1  C   UNL     1      -6.542  10.833  66.995  1.00  0.00    -0.085 C  
HETATM    2  C   UNL     1      -6.300  10.595  68.359  1.00  0.00    -0.054 C  
HETATM    3  C   UNL     1      -7.321   9.675  67.748  1.00  0.00    -0.086 C  
HETATM    4  C   UNL     1      -7.479   9.673  65.679  1.00  0.00    -0.101 C  
HETATM    5  C   UNL     1      -7.379   8.524  68.996  1.00  0.00    -0.081 C  
HETATM    6  O   UNL     1      -6.485  10.412  64.882  1.00  0.00    -0.198 OA 
HETATM    7  C   UNL     1     -10.536  14.516  69.190  1.00  0.00    -0.242 C  
HETATM    8  C   UNL     1      -6.894   8.933  66.650  1.00  0.00    -0.076 C  
HETATM    9  C   UNL     1     -11.551  15.137  68.265  1.00  0.00    -0.339 C  
HETATM   10  C   UNL     1      -9.818  13.675  68.421  1.00  0.00    -0.223 C  
HETATM   11  C   UNL     1      -5.642   8.050  66.566  1.00  0.00    -0.032 C  
HETATM   12  H   UNL     1      -6.558  10.411  63.935  1.00  0.00     0.000 HD 
HETATM   13  C   UNL     1      -8.783   8.497  66.728  1.00  0.00    -0.133 C  
HETATM   14  C   UNL     1      -9.827   9.948  66.705  1.00  0.00    -0.201 C  
HETATM   15  C   UNL     1      -8.727  14.252  67.539  1.00  0.00    -0.204 C  
HETATM   16  C   UNL     1      -9.370  11.415  67.470  1.00  0.00    -0.164 C  
HETATM   17  C   UNL     1     -11.353  11.681  68.989  1.00  0.00    -0.337 C  
HETATM   18  O   UNL     1     -10.124  10.172  65.309  1.00  0.00    -0.319 OA 
HETATM   19  F   UNL     1      -9.032  11.176  68.829  1.00  0.00    -0.157 F  
HETATM   20  C   UNL     1      -7.947  11.945  66.841  1.00  0.00    -0.132 C  
HETATM   21  C   UNL     1     -10.535  12.426  67.848  1.00  0.00    -0.227 C  
HETATM   22  C   UNL     1     -11.627  12.994  66.951  1.00  0.00    -0.419 C  
HETATM   23  H   UNL     1     -10.678  10.943  65.297  1.00  0.00     0.000 HD 
HETATM   24  O   UNL     1     -11.907  16.298  68.404  1.00  0.00    -0.202 OA 
HETATM   25  C   UNL     1      -7.548  13.298  67.458  1.00  0.00    -0.169 C  
HETATM   26  C   UNL     1     -12.124  14.235  67.192  1.00  0.00    -0.412 C  
ENDROOT
BRANCH   4  27
HETATM   27  C   UNL     1      -7.466   8.407  64.497  1.00  0.00    -0.099 C  
HETATM   28  O   UNL     1      -6.804   8.409  63.445  1.00  0.00    -0.084 OA 
BRANCH  27  29
HETATM   29  C   UNL     1      -8.278   7.114  64.770  1.00  0.00    -0.050 C  
BRANCH  29  30
HETATM   30  O   UNL     1      -7.473   5.914  64.669  1.00  0.00    -0.069 OA 
BRANCH  30  31
HETATM   31  C   UNL     1      -8.003   4.815  65.265  1.00  0.00    -0.096 C  
HETATM   32  O   UNL     1      -8.576   3.912  64.682  1.00  0.00    -0.107 OA 
BRANCH  31  33
HETATM   33  C   UNL     1      -7.847   4.838  66.752  1.00  0.00    -0.099 A  
HETATM   34  C   UNL     1      -7.414   4.855  69.537  1.00  0.00    -0.056 A  
HETATM   35  O   UNL     1     -10.099   4.200  71.021  1.00  0.00    -0.167 OA 
HETATM   36  C   UNL     1      -6.348   4.634  68.674  1.00  0.00    -0.036 A  
HETATM   37  C   UNL     1      -6.561   4.628  67.289  1.00  0.00    -0.047 A  
HETATM   38  O   UNL     1      -9.531   6.620  71.012  1.00  0.00    -0.164 OA 
HETATM   39  O   UNL     1     -11.151   5.819  69.389  1.00  0.00    -0.346 OA 
HETATM   40  C   UNL     1      -8.924   5.065  67.625  1.00  0.00    -0.115 A  
HETATM   41  S   UNL     1     -10.021   5.352  70.148  1.00  0.00    -0.254 S  
HETATM   42  C   UNL     1      -8.681   5.061  69.013  1.00  0.00    -0.088 A  
ENDBRANCH  31  33
ENDBRANCH  30  31
ENDBRANCH  29  30
ENDBRANCH  27  29
ENDBRANCH   4  27
TORSDOF 5
ENDMDL
MODEL      136
REMARK 921   NORMALIZED FREE ENERGY PREDICTED BY IDOCK:   -4.77 KCAL/MOL
REMARK 922        TOTAL FREE ENERGY PREDICTED BY IDOCK:   -6.87 KCAL/MOL
REMARK 923 INTER-LIGAND FREE ENERGY PREDICTED BY IDOCK:   -7.71 KCAL/MOL
REMARK 924 INTRA-LIGAND FREE ENERGY PREDICTED BY IDOCK:    0.84 KCAL/MOL
REMARK 927      BINDING AFFINITY PREDICTED BY RF-SCORE:    0.00 PKD
ROOT
HETATM    1  C   UNL     1     -11.395  16.302  67.217  1.00  0.00     0.164 C  
HETATM    2  C   UNL     1     -11.311  16.813  65.911  1.00  0.00     0.677 C  
HETATM    3  C   UNL     1     -10.493  15.573  66.137  1.00  0.00    -0.323 C  
HETATM    4  C   UNL     1     -10.833  14.517  67.890  1.00  0.00    -0.256 C  
HETATM    5  C   UNL     1     -10.172  15.201  64.511  1.00  0.00     0.469 C  
HETATM    6  O   UNL     1     -11.967  14.898  68.750  1.00  0.00    -0.447 OA 
HETATM    7  C   UNL     1      -6.888  19.952  68.054  1.00  0.00    -0.309 C  
HETATM    8  C   UNL     1     -11.190  14.454  66.586  1.00  0.00    -0.340 C  
HETATM    9  C   UNL     1      -6.106  19.872  69.340  1.00  0.00    -0.303 C  
HETATM   10  C   UNL     1      -7.793  18.957  68.123  1.00  0.00    -0.327 C  
HETATM   11  C   UNL     1     -12.451  13.843  65.961  1.00  0.00    -0.501 C  
HETATM   12  H   UNL     1     -12.122  14.415  69.552  1.00  0.00     0.000 HD 
HETATM   13  C   UNL     1      -9.351  13.841  66.654  1.00  0.00    -0.277 C  
HETATM   14  C   UNL     1      -8.301  14.916  67.623  1.00  0.00    -0.167 C  
HETATM   15  C   UNL     1      -9.046  19.172  68.951  1.00  0.00    -0.350 C  
HETATM   16  C   UNL     1      -8.520  16.618  67.660  1.00  0.00    -0.192 C  
HETATM   17  C   UNL     1      -6.225  17.308  66.907  1.00  0.00    -0.220 C  
HETATM   18  O   UNL     1      -8.340  14.368  68.960  1.00  0.00    -0.289 OA 
HETATM   19  F   UNL     1      -8.530  17.141  66.338  1.00  0.00    -0.237 F  
HETATM   20  C   UNL     1     -10.037  16.967  68.189  1.00  0.00    -0.308 C  
HETATM   21  C   UNL     1      -7.270  17.497  68.089  1.00  0.00    -0.216 C  
HETATM   22  C   UNL     1      -6.407  17.375  69.339  1.00  0.00    -0.246 C  
HETATM   23  H   UNL     1      -7.783  14.939  69.474  1.00  0.00     0.000 HD 
HETATM   24  O   UNL     1      -5.694  20.880  69.894  1.00  0.00    -0.468 OA 
HETATM   25  C   UNL     1     -10.238  18.491  68.300  1.00  0.00    -0.412 C  
HETATM   26  C   UNL     1      -5.833  18.483  69.876  1.00  0.00    -0.242 C  
ENDROOT
BRANCH   4  27
HETATM   27  C   UNL     1     -11.165  12.848  68.217  1.00  0.00    -0.270 C  
HETATM   28  O   UNL     1     -11.562  12.391  69.303  1.00  0.00    -0.282 OA 
BRANCH  27  29
HETATM   29  C   UNL     1     -11.037  11.816  67.066  1.00  0.00    -0.304 C  
BRANCH  29  30
HETATM   30  O   UNL     1     -11.503  10.497  67.442  1.00  0.00    -0.405 OA 
BRANCH  30  31
HETATM   31  C   UNL     1     -10.668   9.479  67.114  1.00  0.00    -0.182 C  
HETATM   32  O   UNL     1     -11.023   8.364  66.777  1.00  0.00    -0.031 OA 
BRANCH  31  33
HETATM   33  C   UNL     1      -9.226   9.854  67.248  1.00  0.00    -0.156 A  
HETATM   34  C   UNL     1      -6.505  10.585  67.358  1.00  0.00    -0.062 A  
HETATM   35  O   UNL     1      -5.188   9.343  69.920  1.00  0.00    -0.032 OA 
HETATM   36  C   UNL     1      -7.170  10.582  66.138  1.00  0.00    -0.136 A  
HETATM   37  C   UNL     1      -8.524  10.222  66.081  1.00  0.00    -0.144 A  
HETATM   38  O   UNL     1      -5.749  11.753  70.157  1.00  0.00    -0.112 OA 
HETATM   39  O   UNL     1      -7.275  10.124  71.114  1.00  0.00    -0.158 OA 
HETATM   40  C   UNL     1      -8.554   9.860  68.481  1.00  0.00    -0.117 A  
HETATM   41  S   UNL     1      -6.311  10.247  70.053  1.00  0.00    -0.118 S  
HETATM   42  C   UNL     1      -7.192  10.222  68.507  1.00  0.00    -0.080 A  
ENDBRANCH  31  33
ENDBRANCH  30  31
ENDBRANCH  29  30
ENDBRANCH  27  29
ENDBRANCH   4  27
TORSDOF 5
ENDMDL
MODEL      137
REMARK 921   NORMALIZED FREE ENERGY PREDICTED BY IDOCK:   -4.76 KCAL/MOL
REMARK 922        TOTAL FREE ENERGY PREDICTED BY IDOCK:   -6.86 KCAL/MOL
REMARK 923 INTER-LIGAND FREE ENERGY PREDICTED BY IDOCK:   -7.42 KCAL/MOL
REMARK 924 INTRA-LIGAND FREE ENERGY PREDICTED BY IDOCK:    0.56 KCAL/MOL
REMARK 927      BINDING AFFINITY PREDICTED BY RF-SCORE:    0.00 PKD
ROOT
HETATM    1  C   UNL     1      -8.313   6.331  68.586  1.00  0.00    -0.112 C  
HETATM    2  C   UNL     1      -7.339   5.838  67.700  1.00  0.00    -0.077 C  
HETATM    3  C   UNL     1      -6.805   6.802  68.724  1.00  0.00    -0.066 C  
HETATM    4  C   UNL     1      -8.052   7.293  70.308  1.00  0.00    -0.121 C  
HETATM    5  C   UNL     1      -5.150   6.489  68.502  1.00  0.00    -0.007 C  
HETATM    6  O   UNL     1      -9.318   6.560  70.479  1.00  0.00    -0.161 OA 
HETATM    7  C   UNL     1      -8.870  10.402  64.409  1.00  0.00    -0.223 C  
HETATM    8  C   UNL     1      -7.017   6.457  70.056  1.00  0.00    -0.066 C  
HETATM    9  C   UNL     1      -9.694  11.634  64.687  1.00  0.00    -0.185 C  
HETATM   10  C   UNL     1      -8.867   9.705  65.562  1.00  0.00    -0.204 C  
HETATM   11  C   UNL     1      -6.673   5.121  70.728  1.00  0.00    -0.039 C  
HETATM   12  H   UNL     1      -9.889   6.785  71.204  1.00  0.00     0.000 HD 
HETATM   13  C   UNL     1      -6.234   8.225  70.213  1.00  0.00    -0.035 C  
HETATM   14  C   UNL     1      -7.118   9.457  69.265  1.00  0.00    -0.058 C  
HETATM   15  C   UNL     1     -10.085   8.869  65.906  1.00  0.00     0.046 C  
HETATM   16  C   UNL     1      -7.849   9.098  67.754  1.00  0.00    -0.100 C  
HETATM   17  C   UNL     1      -6.681  10.824  66.352  1.00  0.00    -0.131 C  
HETATM   18  O   UNL     1      -8.090  10.007  70.183  1.00  0.00    -0.249 OA 
HETATM   19  F   UNL     1      -6.898   8.512  66.876  1.00  0.00    -0.064 F  
HETATM   20  C   UNL     1      -8.945   7.888  67.946  1.00  0.00    -0.129 C  
HETATM   21  C   UNL     1      -8.126  10.319  66.778  1.00  0.00    -0.121 C  
HETATM   22  C   UNL     1      -8.876  11.613  67.065  1.00  0.00    -0.177 C  
HETATM   23  H   UNL     1      -8.559  10.661  69.680  1.00  0.00     0.000 HD 
HETATM   24  O   UNL     1     -10.407  12.126  63.825  1.00  0.00    -0.369 OA 
HETATM   25  C   UNL     1      -9.669   7.593  66.618  1.00  0.00    -0.283 C  
HETATM   26  C   UNL     1      -9.556  12.237  66.069  1.00  0.00    -0.230 C  
ENDROOT
BRANCH   4  27
HETATM   27  C   UNL     1      -7.833   7.290  72.026  1.00  0.00    -0.090 C  
HETATM   28  O   UNL     1      -7.128   6.488  72.662  1.00  0.00    -0.073 OA 
BRANCH  27  29
HETATM   29  C   UNL     1      -8.498   8.409  72.871  1.00  0.00    -0.150 C  
BRANCH  29  30
HETATM   30  O   UNL     1      -9.612   7.928  73.661  1.00  0.00    -0.280 OA 
BRANCH  30  31
HETATM   31  C   UNL     1     -10.594   7.314  72.953  1.00  0.00    -0.301 C  
HETATM   32  O   UNL     1     -10.685   6.112  72.781  1.00  0.00    -0.216 OA 
BRANCH  31  33
HETATM   33  C   UNL     1     -11.562   8.285  72.354  1.00  0.00    -0.464 A  
HETATM   34  C   UNL     1     -13.488  10.055  71.305  1.00  0.00    -0.331 A  
HETATM   35  O   UNL     1     -12.512  11.141  68.528  1.00  0.00    -0.452 OA 
HETATM   36  C   UNL     1     -13.866   9.097  72.237  1.00  0.00    -0.527 A  
HETATM   37  C   UNL     1     -12.910   8.217  72.762  1.00  0.00     0.022 A  
HETATM   38  O   UNL     1     -12.189  12.749  70.397  1.00  0.00    -0.350 OA 
HETATM   39  O   UNL     1     -10.276  11.441  69.669  1.00  0.00     0.110 OA 
HETATM   40  C   UNL     1     -11.179   9.256  71.415  1.00  0.00    -0.433 A  
HETATM   41  S   UNL     1     -11.712  11.370  69.713  1.00  0.00    -0.367 S  
HETATM   42  C   UNL     1     -12.163  10.123  70.900  1.00  0.00    -0.356 A  
ENDBRANCH  31  33
ENDBRANCH  30  31
ENDBRANCH  29  30
ENDBRANCH  27  29
ENDBRANCH   4  27
TORSDOF 5
ENDMDL
MODEL      138
REMARK 921   NORMALIZED FREE ENERGY PREDICTED BY IDOCK:   -4.76 KCAL/MOL
REMARK 922        TOTAL FREE ENERGY PREDICTED BY IDOCK:   -6.86 KCAL/MOL
REMARK 923 INTER-LIGAND FREE ENERGY PREDICTED BY IDOCK:   -7.94 KCAL/MOL
REMARK 924 INTRA-LIGAND FREE ENERGY PREDICTED BY IDOCK:    1.08 KCAL/MOL
REMARK 927      BINDING AFFINITY PREDICTED BY RF-SCORE:    0.00 PKD
ROOT
HETATM    1  C   UNL     1     -11.650  11.254  67.165  1.00  0.00    -0.113 C  
HETATM    2  C   UNL     1     -12.097  11.288  68.497  1.00  0.00    -0.161 C  
HETATM    3  C   UNL     1     -10.987  12.258  68.198  1.00  0.00    -0.269 C  
HETATM    4  C   UNL     1     -10.512  12.571  66.203  1.00  0.00    -0.249 C  
HETATM    5  C   UNL     1     -11.113  13.202  69.604  1.00  0.00     0.014 C  
HETATM    6  O   UNL     1     -11.376  11.994  65.160  1.00  0.00    -0.319 OA 
HETATM    7  C   UNL     1      -8.072   7.153  69.339  1.00  0.00    -0.130 C  
HETATM    8  C   UNL     1     -11.233  13.172  67.178  1.00  0.00    -0.326 C  
HETATM    9  C   UNL     1      -6.931   6.649  68.493  1.00  0.00    -0.080 C  
HETATM   10  C   UNL     1      -8.657   8.124  68.611  1.00  0.00    -0.127 C  
HETATM   11  C   UNL     1     -12.450  14.097  67.044  1.00  0.00    -0.092 C  
HETATM   12  H   UNL     1     -11.158  12.138  64.247  1.00  0.00     0.000 HD 
HETATM   13  C   UNL     1      -9.375  13.531  67.607  1.00  0.00    -0.216 C  
HETATM   14  C   UNL     1      -8.352  12.068  67.517  1.00  0.00    -0.166 C  
HETATM   15  C   UNL     1      -9.602   7.724  67.494  1.00  0.00    -0.184 C  
HETATM   16  C   UNL     1      -8.934  10.516  67.966  1.00  0.00    -0.135 C  
HETATM   17  C   UNL     1      -7.211   9.959  69.707  1.00  0.00    -0.118 C  
HETATM   18  O   UNL     1      -7.845  12.050  66.164  1.00  0.00    -0.339 OA 
HETATM   19  F   UNL     1      -9.475  10.555  69.279  1.00  0.00    -0.191 F  
HETATM   20  C   UNL     1     -10.247  10.135  67.054  1.00  0.00    -0.290 C  
HETATM   21  C   UNL     1      -7.850   9.423  68.354  1.00  0.00    -0.090 C  
HETATM   22  C   UNL     1      -6.636   8.964  67.555  1.00  0.00    -0.062 C  
HETATM   23  H   UNL     1      -7.302  11.272  66.116  1.00  0.00     0.000 HD 
HETATM   24  O   UNL     1      -6.611   5.470  68.501  1.00  0.00    -0.048 OA 
HETATM   25  C   UNL     1     -10.748   8.716  67.385  1.00  0.00    -0.212 C  
HETATM   26  C   UNL     1      -6.193   7.685  67.672  1.00  0.00    -0.049 C  
ENDROOT
BRANCH   4  27
HETATM   27  C   UNL     1     -10.332  14.002  65.244  1.00  0.00    -0.383 C  
HETATM   28  O   UNL     1     -10.984  14.271  64.220  1.00  0.00    -0.253 OA 
BRANCH  27  29
HETATM   29  C   UNL     1      -9.336  15.098  65.707  1.00  0.00    -0.172 C  
BRANCH  29  30
HETATM   30  O   UNL     1      -9.914  16.426  65.683  1.00  0.00    -0.469 OA 
BRANCH  30  31
HETATM   31  C   UNL     1      -9.809  17.118  66.847  1.00  0.00    -0.285 C  
HETATM   32  O   UNL     1     -10.725  17.327  67.621  1.00  0.00    -0.359 OA 
BRANCH  31  33
HETATM   33  C   UNL     1      -8.429  17.649  67.075  1.00  0.00    -0.252 A  
HETATM   34  C   UNL     1      -5.790  18.591  67.382  1.00  0.00    -0.157 A  
HETATM   35  O   UNL     1      -5.203  19.098  70.422  1.00  0.00    -0.194 OA 
HETATM   36  C   UNL     1      -6.133  17.853  66.256  1.00  0.00    -0.241 A  
HETATM   37  C   UNL     1      -7.445  17.386  66.100  1.00  0.00    -0.331 A  
HETATM   38  O   UNL     1      -5.696  21.172  69.143  1.00  0.00    -0.331 OA 
HETATM   39  O   UNL     1      -7.483  20.190  70.463  1.00  0.00     0.360 OA 
HETATM   40  C   UNL     1      -8.083  18.399  68.212  1.00  0.00    -0.315 A  
HETATM   41  S   UNL     1      -6.282  19.808  69.768  1.00  0.00    -0.356 S  
HETATM   42  C   UNL     1      -6.755  18.850  68.344  1.00  0.00    -0.248 A  
ENDBRANCH  31  33
ENDBRANCH  30  31
ENDBRANCH  29  30
ENDBRANCH  27  29
ENDBRANCH   4  27
TORSDOF 5
ENDMDL
MODEL      139
REMARK 921   NORMALIZED FREE ENERGY PREDICTED BY IDOCK:   -4.75 KCAL/MOL
REMARK 922        TOTAL FREE ENERGY PREDICTED BY IDOCK:   -6.84 KCAL/MOL
REMARK 923 INTER-LIGAND FREE ENERGY PREDICTED BY IDOCK:   -7.04 KCAL/MOL
REMARK 924 INTRA-LIGAND FREE ENERGY PREDICTED BY IDOCK:    0.20 KCAL/MOL
REMARK 927      BINDING AFFINITY PREDICTED BY RF-SCORE:    0.00 PKD
ROOT
HETATM    1  C   UNL     1      -6.223   5.864  67.354  1.00  0.00    -0.033 C  
HETATM    2  C   UNL     1      -6.172   4.488  67.635  1.00  0.00    -0.036 C  
HETATM    3  C   UNL     1      -7.411   4.916  66.900  1.00  0.00    -0.087 C  
HETATM    4  C   UNL     1      -7.426   6.829  66.096  1.00  0.00    -0.081 C  
HETATM    5  C   UNL     1      -7.956   3.375  66.438  1.00  0.00    -0.084 C  
HETATM    6  O   UNL     1      -6.184   7.622  66.107  1.00  0.00    -0.040 OA 
HETATM    7  C   UNL     1      -8.776   6.009  72.626  1.00  0.00    -0.121 C  
HETATM    8  C   UNL     1      -7.207   5.559  65.682  1.00  0.00    -0.068 C  
HETATM    9  C   UNL     1      -9.441   7.281  73.086  1.00  0.00    -0.184 C  
HETATM   10  C   UNL     1      -8.356   6.258  71.371  1.00  0.00    -0.123 C  
HETATM   11  C   UNL     1      -6.349   5.062  64.511  1.00  0.00    -0.034 C  
HETATM   12  H   UNL     1      -6.191   8.497  65.740  1.00  0.00     0.000 HD 
HETATM   13  C   UNL     1      -9.128   5.712  65.906  1.00  0.00    -0.158 C  
HETATM   14  C   UNL     1      -9.583   6.470  67.460  1.00  0.00    -0.124 C  
HETATM   15  C   UNL     1      -7.077   7.051  71.178  1.00  0.00    -0.074 C  
HETATM   16  C   UNL     1      -8.683   6.214  68.900  1.00  0.00    -0.123 C  
HETATM   17  C   UNL     1     -10.535   5.329  70.348  1.00  0.00    -0.322 C  
HETATM   18  O   UNL     1      -9.689   7.881  67.170  1.00  0.00    -0.162 OA 
HETATM   19  F   UNL     1      -8.541   4.822  69.150  1.00  0.00    -0.080 F  
HETATM   20  C   UNL     1      -7.127   6.691  68.670  1.00  0.00    -0.083 C  
HETATM   21  C   UNL     1      -9.433   6.472  70.275  1.00  0.00    -0.169 C  
HETATM   22  C   UNL     1     -10.190   7.714  70.726  1.00  0.00    -0.201 C  
HETATM   23  H   UNL     1      -9.930   8.284  67.996  1.00  0.00     0.000 HD 
HETATM   24  O   UNL     1      -9.368   7.648  74.250  1.00  0.00    -0.152 OA 
HETATM   25  C   UNL     1      -6.312   6.540  69.968  1.00  0.00    -0.039 C  
HETATM   26  C   UNL     1     -10.226   8.046  72.042  1.00  0.00    -0.288 C  
ENDROOT
BRANCH   4  27
HETATM   27  C   UNL     1      -7.788   7.443  64.518  1.00  0.00    -0.129 C  
HETATM   28  O   UNL     1      -7.500   6.887  63.444  1.00  0.00    -0.074 OA 
BRANCH  27  29
HETATM   29  C   UNL     1      -8.602   8.757  64.390  1.00  0.00    -0.084 C  
BRANCH  29  30
HETATM   30  O   UNL     1      -7.764   9.939  64.399  1.00  0.00    -0.132 OA 
BRANCH  30  31
HETATM   31  C   UNL     1      -7.691  10.581  65.594  1.00  0.00    -0.139 C  
HETATM   32  O   UNL     1      -6.698  10.644  66.294  1.00  0.00    -0.113 OA 
BRANCH  31  33
HETATM   33  C   UNL     1      -8.997  11.188  65.998  1.00  0.00    -0.210 A  
HETATM   34  C   UNL     1     -11.424  12.306  66.897  1.00  0.00    -0.418 A  
HETATM   35  O   UNL     1     -13.535  12.234  64.577  1.00  0.00    -0.686 OA 
HETATM   36  C   UNL     1     -10.523  11.784  67.816  1.00  0.00    -0.219 A  
HETATM   37  C   UNL     1      -9.314  11.230  67.372  1.00  0.00    -0.168 A  
HETATM   38  O   UNL     1     -12.493  14.466  64.907  1.00  0.00    -0.487 OA 
HETATM   39  O   UNL     1     -11.645  13.061  63.115  1.00  0.00    -0.370 OA 
HETATM   40  C   UNL     1      -9.908  11.719  65.069  1.00  0.00    -0.257 A  
HETATM   41  S   UNL     1     -12.290  12.952  64.397  1.00  0.00    -0.387 S  
HETATM   42  C   UNL     1     -11.117  12.264  65.545  1.00  0.00    -0.307 A  
ENDBRANCH  31  33
ENDBRANCH  30  31
ENDBRANCH  29  30
ENDBRANCH  27  29
ENDBRANCH   4  27
TORSDOF 5
ENDMDL
MODEL      140
REMARK 921   NORMALIZED FREE ENERGY PREDICTED BY IDOCK:   -4.73 KCAL/MOL
REMARK 922        TOTAL FREE ENERGY PREDICTED BY IDOCK:   -6.82 KCAL/MOL
REMARK 923 INTER-LIGAND FREE ENERGY PREDICTED BY IDOCK:   -6.80 KCAL/MOL
REMARK 924 INTRA-LIGAND FREE ENERGY PREDICTED BY IDOCK:   -0.02 KCAL/MOL
REMARK 927      BINDING AFFINITY PREDICTED BY RF-SCORE:    0.00 PKD
ROOT
HETATM    1  C   UNL     1     -10.890   8.887  70.991  1.00  0.00    -0.326 C  
HETATM    2  C   UNL     1     -11.984   8.247  70.384  1.00  0.00     0.186 C  
HETATM    3  C   UNL     1     -10.648   7.824  69.839  1.00  0.00    -0.239 C  
HETATM    4  C   UNL     1      -8.963   8.402  70.903  1.00  0.00    -0.160 C  
HETATM    5  C   UNL     1     -11.164   6.447  68.990  1.00  0.00    -0.402 C  
HETATM    6  O   UNL     1      -9.129   9.030  72.225  1.00  0.00    -0.351 OA 
HETATM    7  C   UNL     1     -11.874  12.798  66.740  1.00  0.00    -0.452 C  
HETATM    8  C   UNL     1      -9.747   7.307  70.766  1.00  0.00    -0.171 C  
HETATM    9  C   UNL     1     -10.860  13.885  66.492  1.00  0.00    -0.295 C  
HETATM   10  C   UNL     1     -11.342  12.026  67.708  1.00  0.00    -0.370 C  
HETATM   11  C   UNL     1     -10.006   6.176  71.770  1.00  0.00    -0.197 C  
HETATM   12  H   UNL     1      -8.357   9.295  72.711  1.00  0.00     0.000 HD 
HETATM   13  C   UNL     1      -8.672   7.385  69.152  1.00  0.00    -0.136 C  
HETATM   14  C   UNL     1      -8.646   9.016  68.420  1.00  0.00    -0.130 C  
HETATM   15  C   UNL     1     -11.432  12.501  69.145  1.00  0.00    -0.361 C  
HETATM   16  C   UNL     1     -10.010  10.057  68.458  1.00  0.00    -0.162 C  
HETATM   17  C   UNL     1     -10.261  10.437  65.987  1.00  0.00    -0.295 C  
HETATM   18  O   UNL     1      -7.493   9.666  69.000  1.00  0.00    -0.071 OA 
HETATM   19  F   UNL     1     -11.151   9.392  67.932  1.00  0.00    -0.276 F  
HETATM   20  C   UNL     1     -10.451  10.333  70.017  1.00  0.00    -0.293 C  
HETATM   21  C   UNL     1     -10.071  11.207  67.365  1.00  0.00    -0.213 C  
HETATM   22  C   UNL     1      -9.020  12.259  67.033  1.00  0.00    -0.204 C  
HETATM   23  H   UNL     1      -7.480  10.532  68.611  1.00  0.00     0.000 HD 
HETATM   24  O   UNL     1     -11.208  15.022  66.206  1.00  0.00    -0.344 OA 
HETATM   25  C   UNL     1     -11.630  11.322  70.084  1.00  0.00    -0.393 C  
HETATM   26  C   UNL     1      -9.404  13.480  66.580  1.00  0.00    -0.227 C  
ENDROOT
BRANCH   4  27
HETATM   27  C   UNL     1      -7.592   7.531  71.504  1.00  0.00    -0.084 C  
HETATM   28  O   UNL     1      -6.791   6.879  70.812  1.00  0.00    -0.056 OA 
BRANCH  27  29
HETATM   29  C   UNL     1      -7.258   7.604  73.017  1.00  0.00    -0.078 C  
BRANCH  29  30
HETATM   30  O   UNL     1      -7.589   6.383  73.723  1.00  0.00    -0.089 OA 
BRANCH  30  31
HETATM   31  C   UNL     1      -6.552   5.524  73.901  1.00  0.00    -0.078 C  
HETATM   32  O   UNL     1      -5.490   5.809  74.423  1.00  0.00    -0.034 OA 
BRANCH  31  33
HETATM   33  C   UNL     1      -6.832   4.164  73.343  1.00  0.00    -0.054 A  
HETATM   34  C   UNL     1      -7.307   1.546  72.413  1.00  0.00    -0.031 A  
HETATM   35  O   UNL     1      -7.419   1.551  69.277  1.00  0.00    -0.042 OA 
HETATM   36  C   UNL     1      -6.745   1.741  73.668  1.00  0.00    -0.018 A  
HETATM   37  C   UNL     1      -6.511   3.042  74.134  1.00  0.00    -0.029 A  
HETATM   38  O   UNL     1      -9.658   1.475  70.354  1.00  0.00    -0.104 OA 
HETATM   39  O   UNL     1      -8.852   3.617  69.541  1.00  0.00    -0.078 OA 
HETATM   40  C   UNL     1      -7.404   3.967  72.075  1.00  0.00    -0.060 A  
HETATM   41  S   UNL     1      -8.352   2.361  70.033  1.00  0.00    -0.043 S  
HETATM   42  C   UNL     1      -7.623   2.648  71.631  1.00  0.00    -0.041 A  
ENDBRANCH  31  33
ENDBRANCH  30  31
ENDBRANCH  29  30
ENDBRANCH  27  29
ENDBRANCH   4  27
TORSDOF 5
ENDMDL
MODEL      141
REMARK 921   NORMALIZED FREE ENERGY PREDICTED BY IDOCK:   -4.69 KCAL/MOL
REMARK 922        TOTAL FREE ENERGY PREDICTED BY IDOCK:   -6.77 KCAL/MOL
REMARK 923 INTER-LIGAND FREE ENERGY PREDICTED BY IDOCK:   -7.42 KCAL/MOL
REMARK 924 INTRA-LIGAND FREE ENERGY PREDICTED BY IDOCK:    0.65 KCAL/MOL
REMARK 927      BINDING AFFINITY PREDICTED BY RF-SCORE:    0.00 PKD
ROOT
HETATM    1  C   UNL     1     -10.424   8.126  69.054  1.00  0.00    -0.211 C  
HETATM    2  C   UNL     1      -9.936   8.005  70.367  1.00  0.00    -0.188 C  
HETATM    3  C   UNL     1      -9.059   8.824  69.461  1.00  0.00    -0.146 C  
HETATM    4  C   UNL     1      -9.853   9.392  67.629  1.00  0.00    -0.174 C  
HETATM    5  C   UNL     1      -8.075   9.526  70.654  1.00  0.00    -0.152 C  
HETATM    6  O   UNL     1     -11.279   9.143  67.357  1.00  0.00    -0.353 OA 
HETATM    7  C   UNL     1      -7.323   3.207  68.326  1.00  0.00    -0.050 C  
HETATM    8  C   UNL     1      -9.662   9.926  68.859  1.00  0.00    -0.176 C  
HETATM    9  C   UNL     1      -7.096   2.681  66.932  1.00  0.00    -0.049 C  
HETATM   10  C   UNL     1      -7.990   4.367  68.166  1.00  0.00    -0.079 C  
HETATM   11  C   UNL     1     -10.453  11.039  69.559  1.00  0.00    -0.133 C  
HETATM   12  H   UNL     1     -11.642   9.403  66.519  1.00  0.00     0.000 HD 
HETATM   13  C   UNL     1      -7.913   9.911  68.019  1.00  0.00    -0.100 C  
HETATM   14  C   UNL     1      -7.530   8.341  67.253  1.00  0.00    -0.089 C  
HETATM   15  C   UNL     1      -9.481   4.314  67.895  1.00  0.00    -0.216 C  
HETATM   16  C   UNL     1      -8.048   6.847  67.920  1.00  0.00    -0.114 C  
HETATM   17  C   UNL     1      -5.805   5.740  68.150  1.00  0.00    -0.013 C  
HETATM   18  O   UNL     1      -7.982   8.473  65.887  1.00  0.00    -0.098 OA 
HETATM   19  F   UNL     1      -7.642   6.748  69.279  1.00  0.00    -0.087 F  
HETATM   20  C   UNL     1      -9.688   6.836  68.041  1.00  0.00    -0.130 C  
HETATM   21  C   UNL     1      -7.241   5.548  67.496  1.00  0.00    -0.075 C  
HETATM   22  C   UNL     1      -6.919   5.045  66.094  1.00  0.00    -0.070 C  
HETATM   23  H   UNL     1      -7.778   7.639  65.481  1.00  0.00     0.000 HD 
HETATM   24  O   UNL     1      -7.118   1.482  66.697  1.00  0.00    -0.044 OA 
HETATM   25  C   UNL     1     -10.187   5.478  68.570  1.00  0.00    -0.250 C  
HETATM   26  C   UNL     1      -6.805   3.712  65.862  1.00  0.00    -0.057 C  
ENDROOT
BRANCH   4  27
HETATM   27  C   UNL     1      -9.979  10.918  66.821  1.00  0.00    -0.205 C  
HETATM   28  O   UNL     1     -11.026  11.409  66.364  1.00  0.00    -0.285 OA 
BRANCH  27  29
HETATM   29  C   UNL     1      -8.717  11.812  66.699  1.00  0.00    -0.186 C  
BRANCH  29  30
HETATM   30  O   UNL     1      -9.027  13.226  66.719  1.00  0.00    -0.228 OA 
BRANCH  30  31
HETATM   31  C   UNL     1      -8.482  13.918  67.753  1.00  0.00    -0.183 C  
HETATM   32  O   UNL     1      -7.570  13.522  68.455  1.00  0.00    -0.123 OA 
BRANCH  31  33
HETATM   33  C   UNL     1      -9.153  15.236  67.977  1.00  0.00    -0.176 A  
HETATM   34  C   UNL     1     -10.484  17.662  68.513  1.00  0.00    -0.337 A  
HETATM   35  O   UNL     1     -10.578  19.406  65.907  1.00  0.00    -0.497 OA 
HETATM   36  C   UNL     1     -10.724  16.552  69.313  1.00  0.00    -0.331 A  
HETATM   37  C   UNL     1     -10.061  15.346  69.050  1.00  0.00    -0.234 A  
HETATM   38  O   UNL     1      -8.826  20.119  67.520  1.00  0.00    -0.334 OA 
HETATM   39  O   UNL     1      -8.153  18.747  65.632  1.00  0.00    -0.426 OA 
HETATM   40  C   UNL     1      -8.907  16.360  67.171  1.00  0.00    -0.214 A  
HETATM   41  S   UNL     1      -9.301  19.004  66.459  1.00  0.00    -0.345 S  
HETATM   42  C   UNL     1      -9.592  17.558  67.456  1.00  0.00    -0.265 A  
ENDBRANCH  31  33
ENDBRANCH  30  31
ENDBRANCH  29  30
ENDBRANCH  27  29
ENDBRANCH   4  27
TORSDOF 5
ENDMDL
MODEL      142
REMARK 921   NORMALIZED FREE ENERGY PREDICTED BY IDOCK:   -4.64 KCAL/MOL
REMARK 922        TOTAL FREE ENERGY PREDICTED BY IDOCK:   -6.71 KCAL/MOL
REMARK 923 INTER-LIGAND FREE ENERGY PREDICTED BY IDOCK:   -7.40 KCAL/MOL
REMARK 924 INTRA-LIGAND FREE ENERGY PREDICTED BY IDOCK:    0.70 KCAL/MOL
REMARK 927      BINDING AFFINITY PREDICTED BY RF-SCORE:    0.00 PKD
ROOT
HETATM    1  C   UNL     1     -10.879   7.080  69.415  1.00  0.00    -0.253 C  
HETATM    2  C   UNL     1     -11.486   7.177  70.679  1.00  0.00    -0.346 C  
HETATM    3  C   UNL     1     -10.392   8.182  70.446  1.00  0.00    -0.208 C  
HETATM    4  C   UNL     1      -9.692   8.391  68.504  1.00  0.00    -0.160 C  
HETATM    5  C   UNL     1     -10.729   9.207  71.758  1.00  0.00    -0.405 C  
HETATM    6  O   UNL     1     -10.397   7.704  67.409  1.00  0.00    -0.223 OA 
HETATM    7  C   UNL     1      -7.413   3.321  72.277  1.00  0.00    -0.056 C  
HETATM    8  C   UNL     1     -10.553   9.015  69.342  1.00  0.00    -0.231 C  
HETATM    9  C   UNL     1      -6.157   2.824  71.609  1.00  0.00    -0.014 C  
HETATM   10  C   UNL     1      -7.947   4.211  71.419  1.00  0.00    -0.077 C  
HETATM   11  C   UNL     1     -11.784   9.864  69.001  1.00  0.00     0.203 C  
HETATM   12  H   UNL     1     -10.077   7.800  66.520  1.00  0.00     0.000 HD 
HETATM   13  C   UNL     1      -8.778   9.497  69.962  1.00  0.00    -0.242 C  
HETATM   14  C   UNL     1      -7.688   8.087  70.096  1.00  0.00    -0.087 C  
HETATM   15  C   UNL     1      -8.732   3.691  70.229  1.00  0.00    -0.125 C  
HETATM   16  C   UNL     1      -8.250   6.539  70.580  1.00  0.00    -0.118 C  
HETATM   17  C   UNL     1      -6.728   6.185  72.548  1.00  0.00    -0.069 C  
HETATM   18  O   UNL     1      -7.020   8.009  68.816  1.00  0.00    -0.063 OA 
HETATM   19  F   UNL     1      -8.948   6.634  71.814  1.00  0.00    -0.139 F  
HETATM   20  C   UNL     1      -9.425   6.031  69.548  1.00  0.00    -0.161 C  
HETATM   21  C   UNL     1      -7.174   5.532  71.169  1.00  0.00    -0.075 C  
HETATM   22  C   UNL     1      -5.853   5.086  70.553  1.00  0.00    -0.017 C  
HETATM   23  H   UNL     1      -6.441   7.260  68.888  1.00  0.00     0.000 HD 
HETATM   24  O   UNL     1      -5.787   1.666  71.737  1.00  0.00    -0.008 OA 
HETATM   25  C   UNL     1      -9.899   4.613  69.917  1.00  0.00    -0.296 C  
HETATM   26  C   UNL     1      -5.371   3.843  70.811  1.00  0.00    -0.004 C  
ENDROOT
BRANCH   4  27
HETATM   27  C   UNL     1      -9.461   9.765  67.475  1.00  0.00    -0.147 C  
HETATM   28  O   UNL     1      -8.362  10.238  67.139  1.00  0.00    -0.121 OA 
BRANCH  27  29
HETATM   29  C   UNL     1     -10.701  10.448  66.841  1.00  0.00    -0.207 C  
BRANCH  29  30
HETATM   30  O   UNL     1     -10.348  11.490  65.899  1.00  0.00    -0.232 OA 
BRANCH  30  31
HETATM   31  C   UNL     1     -11.334  12.386  65.639  1.00  0.00    -0.347 C  
HETATM   32  O   UNL     1     -12.459  12.100  65.273  1.00  0.00    -0.520 OA 
BRANCH  31  33
HETATM   33  C   UNL     1     -10.882  13.802  65.812  1.00  0.00    -0.277 A  
HETATM   34  C   UNL     1     -10.115  16.506  66.027  1.00  0.00    -0.368 A  
HETATM   35  O   UNL     1      -7.349  16.697  67.496  1.00  0.00    -0.136 OA 
HETATM   36  C   UNL     1     -11.006  16.118  65.035  1.00  0.00    -0.357 A  
HETATM   37  C   UNL     1     -11.392  14.775  64.928  1.00  0.00    -0.411 A  
HETATM   38  O   UNL     1      -9.291  17.229  68.954  1.00  0.00    -0.257 OA 
HETATM   39  O   UNL     1      -8.323  15.006  69.103  1.00  0.00    -0.184 OA 
HETATM   40  C   UNL     1      -9.984  14.195  66.818  1.00  0.00    -0.267 A  
HETATM   41  S   UNL     1      -8.479  16.085  68.164  1.00  0.00    -0.173 S  
HETATM   42  C   UNL     1      -9.611  15.551  66.898  1.00  0.00    -0.228 A  
ENDBRANCH  31  33
ENDBRANCH  30  31
ENDBRANCH  29  30
ENDBRANCH  27  29
ENDBRANCH   4  27
TORSDOF 5
ENDMDL
MODEL      143
REMARK 921   NORMALIZED FREE ENERGY PREDICTED BY IDOCK:   -4.63 KCAL/MOL
REMARK 922        TOTAL FREE ENERGY PREDICTED BY IDOCK:   -6.70 KCAL/MOL
REMARK 923 INTER-LIGAND FREE ENERGY PREDICTED BY IDOCK:   -7.07 KCAL/MOL
REMARK 924 INTRA-LIGAND FREE ENERGY PREDICTED BY IDOCK:    0.37 KCAL/MOL
REMARK 927      BINDING AFFINITY PREDICTED BY RF-SCORE:    0.00 PKD
ROOT
HETATM    1  C   UNL     1     -10.849   8.773  68.425  1.00  0.00    -0.019 C  
HETATM    2  C   UNL     1     -11.136   8.211  69.681  1.00  0.00    -0.015 C  
HETATM    3  C   UNL     1      -9.777   8.847  69.590  1.00  0.00    -0.175 C  
HETATM    4  C   UNL     1      -9.393  10.035  67.933  1.00  0.00    -0.140 C  
HETATM    5  C   UNL     1      -9.424   8.889  71.251  1.00  0.00    -0.343 C  
HETATM    6  O   UNL     1     -10.495  10.362  67.013  1.00  0.00    -0.231 OA 
HETATM    7  C   UNL     1      -8.864   3.361  67.374  1.00  0.00    -0.150 C  
HETATM    8  C   UNL     1      -9.755  10.191  69.227  1.00  0.00    -0.238 C  
HETATM    9  C   UNL     1      -8.066   3.100  66.122  1.00  0.00    -0.089 C  
HETATM   10  C   UNL     1      -9.109   4.685  67.373  1.00  0.00    -0.135 C  
HETATM   11  C   UNL     1     -10.552  11.333  69.873  1.00  0.00     0.253 C  
HETATM   12  H   UNL     1     -10.319  10.905  66.254  1.00  0.00     0.000 HD 
HETATM   13  C   UNL     1      -7.866   9.749  69.264  1.00  0.00    -0.105 C  
HETATM   14  C   UNL     1      -7.467   8.348  68.228  1.00  0.00    -0.096 C  
HETATM   15  C   UNL     1     -10.228   5.215  66.497  1.00  0.00    -0.300 C  
HETATM   16  C   UNL     1      -8.539   7.021  68.030  1.00  0.00    -0.124 C  
HETATM   17  C   UNL     1      -7.000   5.181  68.775  1.00  0.00    -0.053 C  
HETATM   18  O   UNL     1      -7.121   8.918  66.946  1.00  0.00    -0.079 OA 
HETATM   19  F   UNL     1      -8.913   6.499  69.297  1.00  0.00    -0.129 F  
HETATM   20  C   UNL     1      -9.973   7.556  67.432  1.00  0.00    -0.246 C  
HETATM   21  C   UNL     1      -7.905   5.646  67.554  1.00  0.00    -0.101 C  
HETATM   22  C   UNL     1      -7.020   5.376  66.343  1.00  0.00    -0.064 C  
HETATM   23  H   UNL     1      -6.909   8.174  66.396  1.00  0.00     0.000 HD 
HETATM   24  O   UNL     1      -8.203   2.064  65.489  1.00  0.00    -0.082 OA 
HETATM   25  C   UNL     1     -10.931   6.377  67.176  1.00  0.00    -0.476 C  
HETATM   26  C   UNL     1      -7.071   4.169  65.722  1.00  0.00    -0.067 C  
ENDROOT
BRANCH   4  27
HETATM   27  C   UNL     1      -8.781  11.645  67.751  1.00  0.00    -0.152 C  
HETATM   28  O   UNL     1      -7.598  11.990  67.913  1.00  0.00    -0.106 OA 
BRANCH  27  29
HETATM   29  C   UNL     1      -9.743  12.767  67.278  1.00  0.00    -0.206 C  
BRANCH  29  30
HETATM   30  O   UNL     1      -9.042  13.918  66.748  1.00  0.00    -0.245 OA 
BRANCH  30  31
HETATM   31  C   UNL     1      -9.729  14.627  65.815  1.00  0.00    -0.297 C  
HETATM   32  O   UNL     1     -10.280  14.149  64.840  1.00  0.00    -0.412 OA 
BRANCH  31  33
HETATM   33  C   UNL     1      -9.712  16.098  66.086  1.00  0.00    -0.352 A  
HETATM   34  C   UNL     1      -9.791  18.885  66.506  1.00  0.00    -0.405 A  
HETATM   35  O   UNL     1      -6.991  19.872  67.518  1.00  0.00    -0.225 OA 
HETATM   36  C   UNL     1     -10.693  18.293  65.631  1.00  0.00    -0.053 A  
HETATM   37  C   UNL     1     -10.658  16.907  65.423  1.00  0.00    -0.177 A  
HETATM   38  O   UNL     1      -8.681  19.646  69.327  1.00  0.00    -0.185 OA 
HETATM   39  O   UNL     1      -7.065  17.855  69.041  1.00  0.00    -0.260 OA 
HETATM   40  C   UNL     1      -8.802  16.697  66.973  1.00  0.00    -0.220 A  
HETATM   41  S   UNL     1      -7.724  18.883  68.279  1.00  0.00    -0.313 S  
HETATM   42  C   UNL     1      -8.858  18.092  67.158  1.00  0.00    -0.259 A  
ENDBRANCH  31  33
ENDBRANCH  30  31
ENDBRANCH  29  30
ENDBRANCH  27  29
ENDBRANCH   4  27
TORSDOF 5
ENDMDL
MODEL      144
REMARK 921   NORMALIZED FREE ENERGY PREDICTED BY IDOCK:   -4.60 KCAL/MOL
REMARK 922        TOTAL FREE ENERGY PREDICTED BY IDOCK:   -6.65 KCAL/MOL
REMARK 923 INTER-LIGAND FREE ENERGY PREDICTED BY IDOCK:   -6.53 KCAL/MOL
REMARK 924 INTRA-LIGAND FREE ENERGY PREDICTED BY IDOCK:   -0.12 KCAL/MOL
REMARK 927      BINDING AFFINITY PREDICTED BY RF-SCORE:    0.00 PKD
ROOT
HETATM    1  C   UNL     1      -7.602   9.201  68.822  1.00  0.00    -0.083 C  
HETATM    2  C   UNL     1      -7.412   9.778  70.090  1.00  0.00    -0.170 C  
HETATM    3  C   UNL     1      -8.703   9.021  69.949  1.00  0.00    -0.160 C  
HETATM    4  C   UNL     1      -8.920   7.815  68.274  1.00  0.00    -0.131 C  
HETATM    5  C   UNL     1      -9.108   8.935  71.596  1.00  0.00    -0.280 C  
HETATM    6  O   UNL     1      -7.760   7.597  67.392  1.00  0.00    -0.112 OA 
HETATM    7  C   UNL     1     -10.038  14.417  67.724  1.00  0.00    -0.226 C  
HETATM    8  C   UNL     1      -8.589   7.683  69.580  1.00  0.00    -0.136 C  
HETATM    9  C   UNL     1     -10.812  14.612  66.446  1.00  0.00    -0.315 C  
HETATM   10  C   UNL     1      -9.673  13.120  67.727  1.00  0.00    -0.218 C  
HETATM   11  C   UNL     1      -7.714   6.615  70.249  1.00  0.00    -0.098 C  
HETATM   12  H   UNL     1      -7.859   7.045  66.626  1.00  0.00     0.000 HD 
HETATM   13  C   UNL     1     -10.511   7.951  69.552  1.00  0.00    -0.226 C  
HETATM   14  C   UNL     1     -11.001   9.317  68.508  1.00  0.00     0.011 C  
HETATM   15  C   UNL     1      -8.480  12.702  66.888  1.00  0.00    -0.118 C  
HETATM   16  C   UNL     1     -10.049  10.737  68.353  1.00  0.00    -0.169 C  
HETATM   17  C   UNL     1     -11.774  12.424  69.052  1.00  0.00    -0.372 C  
HETATM   18  O   UNL     1     -11.249   8.726  67.213  1.00  0.00    -0.276 OA 
HETATM   19  F   UNL     1      -9.768  11.283  69.635  1.00  0.00     0.015 F  
HETATM   20  C   UNL     1      -8.551  10.340  67.804  1.00  0.00    -0.118 C  
HETATM   21  C   UNL     1     -10.789  12.052  67.861  1.00  0.00    -0.254 C  
HETATM   22  C   UNL     1     -11.652  12.249  66.621  1.00  0.00    -0.438 C  
HETATM   23  H   UNL     1     -11.509   9.452  66.659  1.00  0.00     0.000 HD 
HETATM   24  O   UNL     1     -10.748  15.662  65.822  1.00  0.00    -0.323 OA 
HETATM   25  C   UNL     1      -7.697  11.603  67.587  1.00  0.00    -0.133 C  
HETATM   26  C   UNL     1     -11.690  13.460  66.007  1.00  0.00    -0.398 C  
ENDROOT
BRANCH   4  27
HETATM   27  C   UNL     1      -9.374   6.157  68.065  1.00  0.00    -0.114 C  
HETATM   28  O   UNL     1     -10.540   5.727  68.038  1.00  0.00    -0.225 OA 
BRANCH  27  29
HETATM   29  C   UNL     1      -8.268   5.099  67.815  1.00  0.00    -0.098 C  
BRANCH  29  30
HETATM   30  O   UNL     1      -8.712   3.748  68.090  1.00  0.00    -0.094 OA 
BRANCH  30  31
HETATM   31  C   UNL     1      -7.791   2.954  68.694  1.00  0.00    -0.054 C  
HETATM   32  O   UNL     1      -6.876   2.388  68.124  1.00  0.00    -0.042 OA 
BRANCH  31  33
HETATM   33  C   UNL     1      -8.037   2.804  70.162  1.00  0.00    -0.056 A  
HETATM   34  C   UNL     1      -8.387   2.434  72.934  1.00  0.00    -0.062 A  
HETATM   35  O   UNL     1     -11.367   3.042  73.705  1.00  0.00    -0.213 OA 
HETATM   36  C   UNL     1      -7.348   1.788  72.278  1.00  0.00    -0.038 A  
HETATM   37  C   UNL     1      -7.170   1.973  70.900  1.00  0.00    -0.033 A  
HETATM   38  O   UNL     1      -9.800   4.895  74.245  1.00  0.00    -0.145 OA 
HETATM   39  O   UNL     1     -11.119   5.067  72.212  1.00  0.00    -0.160 OA 
HETATM   40  C   UNL     1      -9.087   3.460  70.826  1.00  0.00    -0.183 A  
HETATM   41  S   UNL     1     -10.559   4.071  73.087  1.00  0.00    -0.187 S  
HETATM   42  C   UNL     1      -9.244   3.251  72.211  1.00  0.00    -0.105 A  
ENDBRANCH  31  33
ENDBRANCH  30  31
ENDBRANCH  29  30
ENDBRANCH  27  29
ENDBRANCH   4  27
TORSDOF 5
ENDMDL
MODEL      145
REMARK 921   NORMALIZED FREE ENERGY PREDICTED BY IDOCK:   -4.58 KCAL/MOL
REMARK 922        TOTAL FREE ENERGY PREDICTED BY IDOCK:   -6.63 KCAL/MOL
REMARK 923 INTER-LIGAND FREE ENERGY PREDICTED BY IDOCK:   -6.25 KCAL/MOL
REMARK 924 INTRA-LIGAND FREE ENERGY PREDICTED BY IDOCK:   -0.38 KCAL/MOL
REMARK 927      BINDING AFFINITY PREDICTED BY RF-SCORE:    0.00 PKD
ROOT
HETATM    1  C   UNL     1      -7.711   8.942  67.456  1.00  0.00    -0.100 C  
HETATM    2  C   UNL     1      -7.486   9.363  66.135  1.00  0.00    -0.096 C  
HETATM    3  C   UNL     1      -8.921   9.031  66.436  1.00  0.00    -0.189 C  
HETATM    4  C   UNL     1      -9.438   8.771  68.428  1.00  0.00    -0.141 C  
HETATM    5  C   UNL     1      -9.621   9.733  65.056  1.00  0.00    -0.333 C  
HETATM    6  O   UNL     1      -8.454   9.097  69.474  1.00  0.00    -0.117 OA 
HETATM    7  C   UNL     1      -6.533   3.702  65.113  1.00  0.00    -0.035 C  
HETATM    8  C   UNL     1      -9.506   9.738  67.483  1.00  0.00    -0.170 C  
HETATM    9  C   UNL     1      -6.793   2.458  65.924  1.00  0.00    -0.040 C  
HETATM   10  C   UNL     1      -6.966   4.724  65.876  1.00  0.00    -0.063 C  
HETATM   11  C   UNL     1      -9.532  11.262  67.663  1.00  0.00    -0.173 C  
HETATM   12  H   UNL     1      -8.690   8.978  70.386  1.00  0.00     0.000 HD 
HETATM   13  C   UNL     1     -10.896   8.464  67.027  1.00  0.00    -0.039 C  
HETATM   14  C   UNL     1     -10.318   6.772  67.060  1.00  0.00    -0.268 C  
HETATM   15  C   UNL     1      -6.075   5.217  67.000  1.00  0.00    -0.031 C  
HETATM   16  C   UNL     1      -8.727   6.339  66.585  1.00  0.00    -0.126 C  
HETATM   17  C   UNL     1      -9.309   4.673  64.797  1.00  0.00    -0.109 C  
HETATM   18  O   UNL     1     -10.592   6.312  68.402  1.00  0.00    -0.203 OA 
HETATM   19  F   UNL     1      -8.449   6.839  65.284  1.00  0.00    -0.138 F  
HETATM   20  C   UNL     1      -7.636   7.146  67.513  1.00  0.00    -0.110 C  
HETATM   21  C   UNL     1      -8.488   4.832  66.149  1.00  0.00    -0.114 C  
HETATM   22  C   UNL     1      -8.827   3.557  66.912  1.00  0.00    -0.145 C  
HETATM   23  H   UNL     1     -10.285   5.413  68.420  1.00  0.00     0.000 HD 
HETATM   24  O   UNL     1      -6.031   1.504  65.880  1.00  0.00    -0.017 OA 
HETATM   25  C   UNL     1      -6.198   6.723  67.156  1.00  0.00    -0.033 C  
HETATM   26  C   UNL     1      -8.058   2.449  66.755  1.00  0.00    -0.082 C  
ENDROOT
BRANCH   4  27
HETATM   27  C   UNL     1     -10.691   9.442  69.419  1.00  0.00    -0.217 C  
HETATM   28  O   UNL     1     -11.242  10.542  69.239  1.00  0.00    -0.231 OA 
BRANCH  27  29
HETATM   29  C   UNL     1     -11.252   8.601  70.596  1.00  0.00    -0.252 C  
BRANCH  29  30
HETATM   30  O   UNL     1     -10.724   9.013  71.880  1.00  0.00    -0.347 OA 
BRANCH  30  31
HETATM   31  C   UNL     1      -9.622   8.336  72.292  1.00  0.00    -0.285 C  
HETATM   32  O   UNL     1      -8.539   8.840  72.526  1.00  0.00    -0.403 OA 
BRANCH  31  33
HETATM   33  C   UNL     1      -9.860   6.863  72.397  1.00  0.00    -0.172 A  
HETATM   34  C   UNL     1     -10.418   4.114  72.684  1.00  0.00    -0.228 A  
HETATM   35  O   UNL     1      -7.853   2.446  71.988  1.00  0.00    -0.050 OA 
HETATM   36  C   UNL     1     -11.182   5.049  73.370  1.00  0.00    -0.391 A  
HETATM   37  C   UNL     1     -10.909   6.416  73.227  1.00  0.00    -0.270 A  
HETATM   38  O   UNL     1      -9.534   2.500  70.157  1.00  0.00    -0.129 OA 
HETATM   39  O   UNL     1      -7.632   4.004  70.010  1.00  0.00    -0.048 OA 
HETATM   40  C   UNL     1      -9.090   5.917  71.699  1.00  0.00    -0.149 A  
HETATM   41  S   UNL     1      -8.432   3.325  70.994  1.00  0.00    -0.068 S  
HETATM   42  C   UNL     1      -9.384   4.550  71.867  1.00  0.00    -0.140 A  
ENDBRANCH  31  33
ENDBRANCH  30  31
ENDBRANCH  29  30
ENDBRANCH  27  29
ENDBRANCH   4  27
TORSDOF 5
ENDMDL
MODEL      146
REMARK 921   NORMALIZED FREE ENERGY PREDICTED BY IDOCK:   -4.51 KCAL/MOL
REMARK 922        TOTAL FREE ENERGY PREDICTED BY IDOCK:   -6.54 KCAL/MOL
REMARK 923 INTER-LIGAND FREE ENERGY PREDICTED BY IDOCK:   -6.90 KCAL/MOL
REMARK 924 INTRA-LIGAND FREE ENERGY PREDICTED BY IDOCK:    0.36 KCAL/MOL
REMARK 927      BINDING AFFINITY PREDICTED BY RF-SCORE:    0.00 PKD
ROOT
HETATM    1  C   UNL     1     -10.288   6.731  69.250  1.00  0.00    -0.221 C  
HETATM    2  C   UNL     1      -9.600   6.074  70.285  1.00  0.00    -0.194 C  
HETATM    3  C   UNL     1      -8.881   7.276  69.739  1.00  0.00    -0.142 C  
HETATM    4  C   UNL     1      -9.956   8.539  68.491  1.00  0.00    -0.184 C  
HETATM    5  C   UNL     1      -7.727   7.443  70.974  1.00  0.00    -0.091 C  
HETATM    6  O   UNL     1     -11.405   8.330  68.333  1.00  0.00    -0.106 OA 
HETATM    7  C   UNL     1      -7.309   2.909  65.956  1.00  0.00    -0.071 C  
HETATM    8  C   UNL     1      -9.578   8.480  69.790  1.00  0.00    -0.170 C  
HETATM    9  C   UNL     1      -7.299   3.080  64.458  1.00  0.00    -0.066 C  
HETATM   10  C   UNL     1      -8.000   3.963  66.432  1.00  0.00    -0.097 C  
HETATM   11  C   UNL     1     -10.257   9.099  71.019  1.00  0.00    -0.372 C  
HETATM   12  H   UNL     1     -11.896   8.908  67.762  1.00  0.00     0.000 HD 
HETATM   13  C   UNL     1      -7.982   8.975  68.805  1.00  0.00    -0.101 C  
HETATM   14  C   UNL     1      -7.713   7.948  67.366  1.00  0.00    -0.109 C  
HETATM   15  C   UNL     1      -9.515   3.923  66.372  1.00  0.00    -0.204 C  
HETATM   16  C   UNL     1      -8.112   6.278  67.347  1.00  0.00    -0.109 C  
HETATM   17  C   UNL     1      -5.853   5.360  66.741  1.00  0.00    -0.018 C  
HETATM   18  O   UNL     1      -8.374   8.642  66.285  1.00  0.00    -0.114 OA 
HETATM   19  F   UNL     1      -7.498   5.615  68.444  1.00  0.00    -0.071 F  
HETATM   20  C   UNL     1      -9.712   6.090  67.673  1.00  0.00    -0.120 C  
HETATM   21  C   UNL     1      -7.372   5.372  66.274  1.00  0.00    -0.082 C  
HETATM   22  C   UNL     1      -7.271   5.575  64.768  1.00  0.00    -0.062 C  
HETATM   23  H   UNL     1      -8.232   8.096  65.521  1.00  0.00     0.000 HD 
HETATM   24  O   UNL     1      -7.350   2.114  63.711  1.00  0.00    -0.050 OA 
HETATM   25  C   UNL     1     -10.113   4.605  67.592  1.00  0.00    -0.111 C  
HETATM   26  C   UNL     1      -7.186   4.499  63.943  1.00  0.00    -0.050 C  
ENDROOT
BRANCH   4  27
HETATM   27  C   UNL     1     -10.216  10.251  68.488  1.00  0.00    -0.172 C  
HETATM   28  O   UNL     1      -9.767  11.051  69.328  1.00  0.00    -0.139 OA 
BRANCH  27  29
HETATM   29  C   UNL     1     -11.010  10.890  67.318  1.00  0.00    -0.294 C  
BRANCH  29  30
HETATM   30  O   UNL     1     -12.051  11.789  67.772  1.00  0.00    -0.595 OA 
BRANCH  30  31
HETATM   31  C   UNL     1     -12.006  13.035  67.235  1.00  0.00    -0.321 C  
HETATM   32  O   UNL     1     -12.622  13.393  66.247  1.00  0.00    -0.333 OA 
BRANCH  31  33
HETATM   33  C   UNL     1     -11.072  13.944  67.970  1.00  0.00    -0.279 A  
HETATM   34  C   UNL     1      -9.423  15.696  69.437  1.00  0.00    -0.279 A  
HETATM   35  O   UNL     1      -6.911  16.459  67.718  1.00  0.00    -0.124 OA 
HETATM   36  C   UNL     1     -10.773  15.599  69.746  1.00  0.00    -0.309 A  
HETATM   37  C   UNL     1     -11.595  14.726  69.020  1.00  0.00    -0.324 A  
HETATM   38  O   UNL     1      -6.450  14.730  69.444  1.00  0.00    -0.111 OA 
HETATM   39  O   UNL     1      -6.810  13.996  67.156  1.00  0.00    -0.153 OA 
HETATM   40  C   UNL     1      -9.705  14.039  67.660  1.00  0.00    -0.228 A  
HETATM   41  S   UNL     1      -7.168  15.071  68.043  1.00  0.00    -0.147 S  
HETATM   42  C   UNL     1      -8.905  14.929  68.404  1.00  0.00    -0.178 A  
ENDBRANCH  31  33
ENDBRANCH  30  31
ENDBRANCH  29  30
ENDBRANCH  27  29
ENDBRANCH   4  27
TORSDOF 5
ENDMDL
MODEL      147
REMARK 921   NORMALIZED FREE ENERGY PREDICTED BY IDOCK:   -4.51 KCAL/MOL
REMARK 922        TOTAL FREE ENERGY PREDICTED BY IDOCK:   -6.53 KCAL/MOL
REMARK 923 INTER-LIGAND FREE ENERGY PREDICTED BY IDOCK:   -6.46 KCAL/MOL
REMARK 924 INTRA-LIGAND FREE ENERGY PREDICTED BY IDOCK:   -0.07 KCAL/MOL
REMARK 927      BINDING AFFINITY PREDICTED BY RF-SCORE:    0.00 PKD
ROOT
HETATM    1  C   UNL     1     -10.136   7.594  69.702  1.00  0.00    -0.194 C  
HETATM    2  C   UNL     1     -10.399   6.463  70.495  1.00  0.00    -0.247 C  
HETATM    3  C   UNL     1      -8.941   6.820  70.401  1.00  0.00    -0.152 C  
HETATM    4  C   UNL     1      -8.467   8.670  69.589  1.00  0.00    -0.129 C  
HETATM    5  C   UNL     1      -8.377   5.845  71.672  1.00  0.00    -0.127 C  
HETATM    6  O   UNL     1      -9.548   9.630  69.308  1.00  0.00    -0.167 OA 
HETATM    7  C   UNL     1      -9.863   3.546  65.473  1.00  0.00    -0.016 C  
HETATM    8  C   UNL     1      -8.600   8.106  70.812  1.00  0.00    -0.138 C  
HETATM    9  C   UNL     1      -9.338   3.936  64.115  1.00  0.00    -0.150 C  
HETATM   10  C   UNL     1      -9.734   4.648  66.237  1.00  0.00    -0.212 C  
HETATM   11  C   UNL     1      -8.963   8.773  72.146  1.00  0.00    -0.184 C  
HETATM   12  H   UNL     1      -9.331  10.476  68.936  1.00  0.00     0.000 HD 
HETATM   13  C   UNL     1      -6.917   7.443  70.112  1.00  0.00    -0.060 C  
HETATM   14  C   UNL     1      -7.055   6.851  68.430  1.00  0.00    -0.086 C  
HETATM   15  C   UNL     1     -10.770   5.748  66.102  1.00  0.00     0.030 C  
HETATM   16  C   UNL     1      -8.466   6.062  67.851  1.00  0.00    -0.115 C  
HETATM   17  C   UNL     1      -7.406   3.920  67.077  1.00  0.00    -0.072 C  
HETATM   18  O   UNL     1      -6.737   7.995  67.606  1.00  0.00    -0.065 OA 
HETATM   19  F   UNL     1      -8.799   4.970  68.697  1.00  0.00    -0.096 F  
HETATM   20  C   UNL     1      -9.764   7.054  68.028  1.00  0.00    -0.140 C  
HETATM   21  C   UNL     1      -8.300   5.134  66.574  1.00  0.00    -0.108 C  
HETATM   22  C   UNL     1      -7.689   5.479  65.222  1.00  0.00    -0.090 C  
HETATM   23  H   UNL     1      -6.811   7.680  66.713  1.00  0.00     0.000 HD 
HETATM   24  O   UNL     1      -9.836   3.488  63.093  1.00  0.00    -0.115 OA 
HETATM   25  C   UNL     1     -11.033   6.399  67.450  1.00  0.00    -0.463 C  
HETATM   26  C   UNL     1      -8.150   4.873  64.096  1.00  0.00    -0.115 C  
ENDROOT
BRANCH   4  27
HETATM   27  C   UNL     1      -7.467   9.975  70.132  1.00  0.00    -0.166 C  
HETATM   28  O   UNL     1      -6.984  10.088  71.272  1.00  0.00    -0.278 OA 
BRANCH  27  29
HETATM   29  C   UNL     1      -7.058  11.080  69.123  1.00  0.00    -0.116 C  
BRANCH  29  30
HETATM   30  O   UNL     1      -7.701  10.929  67.834  1.00  0.00    -0.100 OA 
BRANCH  30  31
HETATM   31  C   UNL     1      -7.512  11.962  66.974  1.00  0.00    -0.126 C  
HETATM   32  O   UNL     1      -6.489  12.173  66.348  1.00  0.00     0.108 OA 
BRANCH  31  33
HETATM   33  C   UNL     1      -8.701  12.867  66.894  1.00  0.00    -0.164 A  
HETATM   34  C   UNL     1     -11.007  14.471  66.663  1.00  0.00    -0.321 A  
HETATM   35  O   UNL     1     -10.248  17.475  67.158  1.00  0.00    -0.304 OA 
HETATM   36  C   UNL     1     -10.963  13.233  66.036  1.00  0.00    -0.292 A  
HETATM   37  C   UNL     1      -9.819  12.432  66.152  1.00  0.00    -0.263 A  
HETATM   38  O   UNL     1     -11.319  16.382  69.117  1.00  0.00    -0.308 OA 
HETATM   39  O   UNL     1      -8.899  16.595  69.106  1.00  0.00    -0.235 OA 
HETATM   40  C   UNL     1      -8.748  14.118  67.531  1.00  0.00    -0.208 A  
HETATM   41  S   UNL     1     -10.005  16.491  68.191  1.00  0.00    -0.257 S  
HETATM   42  C   UNL     1      -9.909  14.903  67.393  1.00  0.00    -0.221 A  
ENDBRANCH  31  33
ENDBRANCH  30  31
ENDBRANCH  29  30
ENDBRANCH  27  29
ENDBRANCH   4  27
TORSDOF 5
ENDMDL
MODEL      148
REMARK 921   NORMALIZED FREE ENERGY PREDICTED BY IDOCK:   -4.48 KCAL/MOL
REMARK 922        TOTAL FREE ENERGY PREDICTED BY IDOCK:   -6.50 KCAL/MOL
REMARK 923 INTER-LIGAND FREE ENERGY PREDICTED BY IDOCK:   -5.80 KCAL/MOL
REMARK 924 INTRA-LIGAND FREE ENERGY PREDICTED BY IDOCK:   -0.70 KCAL/MOL
REMARK 927      BINDING AFFINITY PREDICTED BY RF-SCORE:    0.00 PKD
ROOT
HETATM    1  C   UNL     1      -8.064   7.805  71.406  1.00  0.00    -0.103 C  
HETATM    2  C   UNL     1      -8.473   8.487  72.565  1.00  0.00    -0.181 C  
HETATM    3  C   UNL     1      -9.526   7.588  71.980  1.00  0.00    -0.174 C  
HETATM    4  C   UNL     1      -8.925   6.251  70.511  1.00  0.00    -0.151 C  
HETATM    5  C   UNL     1     -10.589   7.576  73.304  1.00  0.00    -0.438 C  
HETATM    6  O   UNL     1      -7.488   6.096  70.226  1.00  0.00    -0.085 OA 
HETATM    7  C   UNL     1     -10.139  12.640  68.825  1.00  0.00    -0.057 C  
HETATM    8  C   UNL     1      -9.177   6.247  71.841  1.00  0.00    -0.147 C  
HETATM    9  C   UNL     1     -10.303  12.661  67.327  1.00  0.00    -0.224 C  
HETATM   10  C   UNL     1      -9.724  11.393  69.122  1.00  0.00     0.065 C  
HETATM   11  C   UNL     1      -8.602   5.329  72.928  1.00  0.00    -0.115 C  
HETATM   12  H   UNL     1      -7.213   5.484  69.554  1.00  0.00     0.000 HD 
HETATM   13  C   UNL     1     -10.915   6.306  70.981  1.00  0.00    -0.340 C  
HETATM   14  C   UNL     1     -11.002   7.535  69.685  1.00  0.00    -0.153 C  
HETATM   15  C   UNL     1      -8.263  11.046  68.912  1.00  0.00    -0.127 C  
HETATM   16  C   UNL     1     -10.172   9.034  69.790  1.00  0.00    -0.205 C  
HETATM   17  C   UNL     1     -12.139  10.572  69.512  1.00  0.00    -0.208 C  
HETATM   18  O   UNL     1     -10.632   6.831  68.479  1.00  0.00    -0.195 OA 
HETATM   19  F   UNL     1     -10.503   9.696  71.003  1.00  0.00    -0.333 F  
HETATM   20  C   UNL     1      -8.561   8.761  69.966  1.00  0.00    -0.136 C  
HETATM   21  C   UNL     1     -10.717  10.225  68.892  1.00  0.00    -0.256 C  
HETATM   22  C   UNL     1     -10.979  10.240  67.391  1.00  0.00    -0.317 C  
HETATM   23  H   UNL     1     -10.678   7.484  67.791  1.00  0.00     0.000 HD 
HETATM   24  O   UNL     1     -10.050  13.664  66.677  1.00  0.00    -0.265 OA 
HETATM   25  C   UNL     1      -7.782  10.090  69.990  1.00  0.00    -0.181 C  
HETATM   26  C   UNL     1     -10.831  11.393  66.690  1.00  0.00    -0.339 C  
ENDROOT
BRANCH   4  27
HETATM   27  C   UNL     1      -9.135   4.543  70.313  1.00  0.00    -0.101 C  
HETATM   28  O   UNL     1     -10.220   3.967  70.120  1.00  0.00     0.009 OA 
BRANCH  27  29
HETATM   29  C   UNL     1      -7.883   3.628  70.297  1.00  0.00    -0.047 C  
BRANCH  29  30
HETATM   30  O   UNL     1      -7.978   2.565  69.318  1.00  0.00    -0.045 OA 
BRANCH  30  31
HETATM   31  C   UNL     1      -7.111   2.665  68.278  1.00  0.00    -0.048 C  
HETATM   32  O   UNL     1      -6.076   2.034  68.168  1.00  0.00    -0.023 OA 
BRANCH  31  33
HETATM   33  C   UNL     1      -7.540   3.682  67.268  1.00  0.00    -0.078 A  
HETATM   34  C   UNL     1      -8.436   5.499  65.307  1.00  0.00    -0.147 A  
HETATM   35  O   UNL     1      -6.312   7.780  64.943  1.00  0.00    -0.044 OA 
HETATM   36  C   UNL     1      -8.918   4.196  65.313  1.00  0.00    -0.134 A  
HETATM   37  C   UNL     1      -8.477   3.292  66.288  1.00  0.00    -0.108 A  
HETATM   38  O   UNL     1      -8.268   8.450  66.324  1.00  0.00    -0.104 OA 
HETATM   39  O   UNL     1      -6.224   7.812  67.470  1.00  0.00    -0.047 OA 
HETATM   40  C   UNL     1      -7.055   5.000  67.264  1.00  0.00    -0.066 A  
HETATM   41  S   UNL     1      -6.925   7.565  66.238  1.00  0.00    -0.067 S  
HETATM   42  C   UNL     1      -7.513   5.886  66.268  1.00  0.00    -0.086 A  
ENDBRANCH  31  33
ENDBRANCH  30  31
ENDBRANCH  29  30
ENDBRANCH  27  29
ENDBRANCH   4  27
TORSDOF 5
ENDMDL
MODEL      149
REMARK 921   NORMALIZED FREE ENERGY PREDICTED BY IDOCK:   -4.47 KCAL/MOL
REMARK 922        TOTAL FREE ENERGY PREDICTED BY IDOCK:   -6.49 KCAL/MOL
REMARK 923 INTER-LIGAND FREE ENERGY PREDICTED BY IDOCK:   -6.07 KCAL/MOL
REMARK 924 INTRA-LIGAND FREE ENERGY PREDICTED BY IDOCK:   -0.42 KCAL/MOL
REMARK 927      BINDING AFFINITY PREDICTED BY RF-SCORE:    0.00 PKD
ROOT
HETATM    1  C   UNL     1      -6.819   9.942  67.586  1.00  0.00    -0.084 C  
HETATM    2  C   UNL     1      -6.613  10.036  68.973  1.00  0.00    -0.052 C  
HETATM    3  C   UNL     1      -7.713   9.090  68.581  1.00  0.00    -0.096 C  
HETATM    4  C   UNL     1      -7.854   8.577  66.574  1.00  0.00    -0.096 C  
HETATM    5  C   UNL     1      -7.893   8.302  70.075  1.00  0.00    -0.104 C  
HETATM    6  O   UNL     1      -6.787   8.996  65.650  1.00  0.00    -0.074 OA 
HETATM    7  C   UNL     1     -10.452  14.413  68.655  1.00  0.00    -0.247 C  
HETATM    8  C   UNL     1      -7.352   8.057  67.719  1.00  0.00    -0.093 C  
HETATM    9  C   UNL     1     -11.395  14.870  67.571  1.00  0.00    -0.342 C  
HETATM   10  C   UNL     1      -9.813  13.342  68.146  1.00  0.00    -0.234 C  
HETATM   11  C   UNL     1      -6.191   7.070  67.900  1.00  0.00    -0.038 C  
HETATM   12  H   UNL     1      -6.852   8.762  64.732  1.00  0.00     0.000 HD 
HETATM   13  C   UNL     1      -9.275   7.831  67.842  1.00  0.00    -0.141 C  
HETATM   14  C   UNL     1     -10.173   9.319  67.422  1.00  0.00    -0.243 C  
HETATM   15  C   UNL     1      -8.665  13.574  67.182  1.00  0.00    -0.222 C  
HETATM   16  C   UNL     1      -9.581  10.884  67.807  1.00  0.00    -0.164 C  
HETATM   17  C   UNL     1     -11.541  11.707  69.146  1.00  0.00    -0.378 C  
HETATM   18  O   UNL     1     -10.435   9.209  66.005  1.00  0.00    -0.203 OA 
HETATM   19  F   UNL     1      -9.279  10.967  69.194  1.00  0.00    -0.182 F  
HETATM   20  C   UNL     1      -8.107  11.103  67.112  1.00  0.00    -0.138 C  
HETATM   21  C   UNL     1     -10.644  12.060  67.882  1.00  0.00    -0.227 C  
HETATM   22  C   UNL     1     -11.669  12.481  66.836  1.00  0.00    -0.447 C  
HETATM   23  H   UNL     1     -10.911  10.000  65.782  1.00  0.00     0.000 HD 
HETATM   24  O   UNL     1     -11.637  16.056  67.402  1.00  0.00     0.008 OA 
HETATM   25  C   UNL     1      -7.583  12.526  67.382  1.00  0.00    -0.156 C  
HETATM   26  C   UNL     1     -12.044  13.783  66.741  1.00  0.00    -0.460 C  
ENDROOT
BRANCH   4  27
HETATM   27  C   UNL     1      -7.955   7.058  65.749  1.00  0.00    -0.116 C  
HETATM   28  O   UNL     1      -7.250   6.712  64.786  1.00  0.00    -0.064 OA 
BRANCH  27  29
HETATM   29  C   UNL     1      -8.945   5.983  66.270  1.00  0.00    -0.149 C  
BRANCH  29  30
HETATM   30  O   UNL     1      -8.289   4.741  66.623  1.00  0.00    -0.107 OA 
BRANCH  30  31
HETATM   31  C   UNL     1      -9.017   3.914  67.417  1.00  0.00    -0.134 C  
HETATM   32  O   UNL     1      -9.679   2.972  67.024  1.00  0.00    -0.045 OA 
BRANCH  31  33
HETATM   33  C   UNL     1      -8.955   4.305  68.860  1.00  0.00    -0.156 A  
HETATM   34  C   UNL     1      -8.982   5.061  71.576  1.00  0.00    -0.157 A  
HETATM   35  O   UNL     1      -6.142   6.108  72.401  1.00  0.00    -0.037 OA 
HETATM   36  C   UNL     1     -10.170   5.031  70.856  1.00  0.00    -0.287 A  
HETATM   37  C   UNL     1     -10.159   4.653  69.506  1.00  0.00    -0.212 A  
HETATM   38  O   UNL     1      -6.599   3.779  73.141  1.00  0.00    -0.030 OA 
HETATM   39  O   UNL     1      -5.267   4.102  71.136  1.00  0.00     0.000 OA 
HETATM   40  C   UNL     1      -7.755   4.331  69.589  1.00  0.00    -0.053 A  
HETATM   41  S   UNL     1      -6.295   4.759  71.899  1.00  0.00    -0.027 S  
HETATM   42  C   UNL     1      -7.796   4.720  70.943  1.00  0.00    -0.081 A  
ENDBRANCH  31  33
ENDBRANCH  30  31
ENDBRANCH  29  30
ENDBRANCH  27  29
ENDBRANCH   4  27
TORSDOF 5
ENDMDL
MODEL      150
REMARK 921   NORMALIZED FREE ENERGY PREDICTED BY IDOCK:   -4.38 KCAL/MOL
REMARK 922        TOTAL FREE ENERGY PREDICTED BY IDOCK:   -6.37 KCAL/MOL
REMARK 923 INTER-LIGAND FREE ENERGY PREDICTED BY IDOCK:   -7.25 KCAL/MOL
REMARK 924 INTRA-LIGAND FREE ENERGY PREDICTED BY IDOCK:    0.89 KCAL/MOL
REMARK 927      BINDING AFFINITY PREDICTED BY RF-SCORE:    0.00 PKD
ROOT
HETATM    1  C   UNL     1      -6.907   8.598  68.556  1.00  0.00    -0.064 C  
HETATM    2  C   UNL     1      -5.599   8.892  68.133  1.00  0.00    -0.038 C  
HETATM    3  C   UNL     1      -6.672   9.445  67.236  1.00  0.00    -0.075 C  
HETATM    4  C   UNL     1      -8.620   9.410  67.952  1.00  0.00    -0.120 C  
HETATM    5  C   UNL     1      -5.703  10.510  66.336  1.00  0.00    -0.075 C  
HETATM    6  O   UNL     1      -8.862   9.029  69.354  1.00  0.00    -0.137 OA 
HETATM    7  C   UNL     1      -6.016   3.825  65.276  1.00  0.00    -0.023 C  
HETATM    8  C   UNL     1      -7.598  10.291  67.841  1.00  0.00    -0.089 C  
HETATM    9  C   UNL     1      -7.180   2.920  64.962  1.00  0.00    -0.066 C  
HETATM   10  C   UNL     1      -6.539   4.855  65.968  1.00  0.00    -0.045 C  
HETATM   11  C   UNL     1      -7.292  11.526  68.699  1.00  0.00    -0.106 C  
HETATM   12  H   UNL     1      -9.753   9.013  69.682  1.00  0.00     0.000 HD 
HETATM   13  C   UNL     1      -8.325  10.105  66.051  1.00  0.00    -0.130 C  
HETATM   14  C   UNL     1      -8.574   8.398  65.582  1.00  0.00    -0.174 C  
HETATM   15  C   UNL     1      -6.842   4.659  67.442  1.00  0.00    -0.059 C  
HETATM   16  C   UNL     1      -7.513   7.146  66.089  1.00  0.00    -0.080 C  
HETATM   17  C   UNL     1      -6.876   6.256  63.828  1.00  0.00    -0.041 C  
HETATM   18  O   UNL     1      -9.934   8.100  65.968  1.00  0.00    -0.459 OA 
HETATM   19  F   UNL     1      -6.172   7.471  65.750  1.00  0.00    -0.036 F  
HETATM   20  C   UNL     1      -7.461   7.100  67.731  1.00  0.00    -0.098 C  
HETATM   21  C   UNL     1      -7.500   5.817  65.222  1.00  0.00    -0.078 C  
HETATM   22  C   UNL     1      -8.675   4.937  64.815  1.00  0.00    -0.154 C  
HETATM   23  H   UNL     1     -10.066   7.193  65.719  1.00  0.00     0.000 HD 
HETATM   24  O   UNL     1      -7.048   1.706  64.936  1.00  0.00    -0.045 OA 
HETATM   25  C   UNL     1      -6.572   5.939  68.216  1.00  0.00    -0.052 C  
HETATM   26  C   UNL     1      -8.495   3.601  64.649  1.00  0.00    -0.096 C  
ENDROOT
BRANCH   4  27
HETATM   27  C   UNL     1      -9.850  10.622  68.082  1.00  0.00    -0.155 C  
HETATM   28  O   UNL     1     -10.275  11.108  69.145  1.00  0.00    -0.208 OA 
BRANCH  27  29
HETATM   29  C   UNL     1     -10.446  11.232  66.787  1.00  0.00    -0.248 C  
BRANCH  29  30
HETATM   30  O   UNL     1     -10.229  12.660  66.688  1.00  0.00    -0.231 OA 
BRANCH  30  31
HETATM   31  C   UNL     1     -11.344  13.421  66.834  1.00  0.00    -0.323 C  
HETATM   32  O   UNL     1     -12.436  13.158  66.365  1.00  0.00    -0.367 OA 
BRANCH  31  33
HETATM   33  C   UNL     1     -11.088  14.671  67.616  1.00  0.00    -0.311 A  
HETATM   34  C   UNL     1     -10.626  16.950  69.209  1.00  0.00    -0.325 A  
HETATM   35  O   UNL     1     -11.139  19.538  67.512  1.00  0.00    -0.398 OA 
HETATM   36  C   UNL     1     -10.940  15.738  69.812  1.00  0.00    -0.316 A  
HETATM   37  C   UNL     1     -11.167  14.603  69.022  1.00  0.00    -0.287 A  
HETATM   38  O   UNL     1      -8.731  18.980  67.776  1.00  0.00    -0.288 OA 
HETATM   39  O   UNL     1      -9.829  18.356  65.701  1.00  0.00    -0.440 OA 
HETATM   40  C   UNL     1     -10.766  15.895  67.007  1.00  0.00    -0.292 A  
HETATM   41  S   UNL     1     -10.133  18.586  67.089  1.00  0.00    -0.374 S  
HETATM   42  C   UNL     1     -10.548  17.020  67.826  1.00  0.00    -0.350 A  
ENDBRANCH  31  33
ENDBRANCH  30  31
ENDBRANCH  29  30
ENDBRANCH  27  29
ENDBRANCH   4  27
TORSDOF 5
ENDMDL
MODEL      151
REMARK 921   NORMALIZED FREE ENERGY PREDICTED BY IDOCK:   -4.36 KCAL/MOL
REMARK 922        TOTAL FREE ENERGY PREDICTED BY IDOCK:   -6.35 KCAL/MOL
REMARK 923 INTER-LIGAND FREE ENERGY PREDICTED BY IDOCK:   -6.59 KCAL/MOL
REMARK 924 INTRA-LIGAND FREE ENERGY PREDICTED BY IDOCK:    0.24 KCAL/MOL
REMARK 927      BINDING AFFINITY PREDICTED BY RF-SCORE:    0.00 PKD
ROOT
HETATM    1  C   UNL     1      -8.597  12.445  67.828  1.00  0.00    -0.172 C  
HETATM    2  C   UNL     1      -8.656  13.580  67.002  1.00  0.00    -0.169 C  
HETATM    3  C   UNL     1      -9.898  12.733  66.967  1.00  0.00    -0.231 C  
HETATM    4  C   UNL     1     -10.083  11.260  68.417  1.00  0.00    -0.195 C  
HETATM    5  C   UNL     1     -10.922  13.846  66.195  1.00  0.00    -0.293 C  
HETATM    6  O   UNL     1      -9.109  11.213  69.521  1.00  0.00    -0.363 OA 
HETATM    7  C   UNL     1      -6.306  10.058  62.992  1.00  0.00    -0.130 C  
HETATM    8  C   UNL     1     -10.526  12.519  68.191  1.00  0.00    -0.238 C  
HETATM    9  C   UNL     1      -6.115   8.564  62.929  1.00  0.00    -0.086 C  
HETATM   10  C   UNL     1      -6.910  10.292  64.173  1.00  0.00    -0.055 C  
HETATM   11  C   UNL     1     -10.950  13.588  69.207  1.00  0.00    -0.169 C  
HETATM   12  H   UNL     1      -9.194  10.539  70.184  1.00  0.00     0.000 HD 
HETATM   13  C   UNL     1     -11.554  11.382  67.002  1.00  0.00    -0.135 C  
HETATM   14  C   UNL     1     -10.533  10.225  66.100  1.00  0.00    -0.130 C  
HETATM   15  C   UNL     1      -6.063  10.302  65.431  1.00  0.00    -0.120 C  
HETATM   16  C   UNL     1      -8.951  10.625  65.564  1.00  0.00    -0.191 C  
HETATM   17  C   UNL     1      -9.259  10.172  63.113  1.00  0.00    -0.316 C  
HETATM   18  O   UNL     1     -10.507   9.034  66.918  1.00  0.00    -0.260 OA 
HETATM   19  F   UNL     1      -8.980  11.825  64.803  1.00  0.00    -0.005 F  
HETATM   20  C   UNL     1      -8.023  11.048  66.854  1.00  0.00    -0.143 C  
HETATM   21  C   UNL     1      -8.360   9.775  64.361  1.00  0.00    -0.169 C  
HETATM   22  C   UNL     1      -8.241   8.261  64.237  1.00  0.00    -0.116 C  
HETATM   23  H   UNL     1      -9.965   8.420  66.438  1.00  0.00     0.000 HD 
HETATM   24  O   UNL     1      -5.130   8.075  62.396  1.00  0.00    -0.056 OA 
HETATM   25  C   UNL     1      -6.578  11.343  66.411  1.00  0.00    -0.020 C  
HETATM   26  C   UNL     1      -7.220   7.718  63.524  1.00  0.00    -0.087 C  
ENDROOT
BRANCH   4  27
HETATM   27  C   UNL     1     -11.345  10.854  69.531  1.00  0.00    -0.283 C  
HETATM   28  O   UNL     1     -12.347  11.549  69.771  1.00  0.00    -0.240 OA 
BRANCH  27  29
HETATM   29  C   UNL     1     -11.296   9.484  70.257  1.00  0.00    -0.236 C  
BRANCH  29  30
HETATM   30  O   UNL     1     -10.560   9.536  71.503  1.00  0.00    -0.323 OA 
BRANCH  30  31
HETATM   31  C   UNL     1      -9.380   8.862  71.500  1.00  0.00    -0.265 C  
HETATM   32  O   UNL     1      -8.282   9.376  71.615  1.00  0.00    -0.242 OA 
BRANCH  31  33
HETATM   33  C   UNL     1      -9.560   7.391  71.299  1.00  0.00    -0.166 A  
HETATM   34  C   UNL     1      -9.851   4.634  70.786  1.00  0.00    -0.284 A  
HETATM   35  O   UNL     1     -11.960   3.416  72.763  1.00  0.00     0.669 OA 
HETATM   36  C   UNL     1      -9.378   5.476  69.788  1.00  0.00    -0.181 A  
HETATM   37  C   UNL     1      -9.230   6.847  70.041  1.00  0.00    -0.155 A  
HETATM   38  O   UNL     1      -9.605   2.953  73.409  1.00  0.00    -0.091 OA 
HETATM   39  O   UNL     1     -10.765   4.765  74.536  1.00  0.00    -0.355 OA 
HETATM   40  C   UNL     1     -10.035   6.539  72.310  1.00  0.00    -0.176 A  
HETATM   41  S   UNL     1     -10.771   4.057  73.284  1.00  0.00    -0.208 S  
HETATM   42  C   UNL     1     -10.178   5.167  72.024  1.00  0.00    -0.202 A  
ENDBRANCH  31  33
ENDBRANCH  30  31
ENDBRANCH  29  30
ENDBRANCH  27  29
ENDBRANCH   4  27
TORSDOF 5
ENDMDL
MODEL      152
REMARK 921   NORMALIZED FREE ENERGY PREDICTED BY IDOCK:   -4.35 KCAL/MOL
REMARK 922        TOTAL FREE ENERGY PREDICTED BY IDOCK:   -6.33 KCAL/MOL
REMARK 923 INTER-LIGAND FREE ENERGY PREDICTED BY IDOCK:   -7.22 KCAL/MOL
REMARK 924 INTRA-LIGAND FREE ENERGY PREDICTED BY IDOCK:    0.89 KCAL/MOL
REMARK 927      BINDING AFFINITY PREDICTED BY RF-SCORE:    0.00 PKD
ROOT
HETATM    1  C   UNL     1      -6.831   9.369  67.962  1.00  0.00    -0.074 C  
HETATM    2  C   UNL     1      -5.639   9.366  67.218  1.00  0.00    -0.041 C  
HETATM    3  C   UNL     1      -6.845   9.816  66.440  1.00  0.00    -0.088 C  
HETATM    4  C   UNL     1      -8.569  10.229  67.518  1.00  0.00    -0.118 C  
HETATM    5  C   UNL     1      -6.031  10.479  65.105  1.00  0.00    -0.113 C  
HETATM    6  O   UNL     1      -8.509  10.249  68.989  1.00  0.00    -0.130 OA 
HETATM    7  C   UNL     1      -7.098   3.849  66.012  1.00  0.00    -0.067 C  
HETATM    8  C   UNL     1      -7.536  10.906  66.963  1.00  0.00    -0.122 C  
HETATM    9  C   UNL     1      -8.369   3.063  66.202  1.00  0.00    -0.098 C  
HETATM   10  C   UNL     1      -7.365   5.082  66.485  1.00  0.00    -0.086 C  
HETATM   11  C   UNL     1      -6.946  12.263  67.368  1.00  0.00    -0.151 C  
HETATM   12  H   UNL     1      -9.298  10.438  69.482  1.00  0.00     0.000 HD 
HETATM   13  C   UNL     1      -8.671  10.378  65.480  1.00  0.00    -0.190 C  
HETATM   14  C   UNL     1      -9.153   8.658  65.560  1.00  0.00    -0.131 C  
HETATM   15  C   UNL     1      -7.332   5.306  67.985  1.00  0.00    -0.072 C  
HETATM   16  C   UNL     1      -8.104   7.441  66.166  1.00  0.00    -0.117 C  
HETATM   17  C   UNL     1      -8.079   5.933  64.157  1.00  0.00    -0.110 C  
HETATM   18  O   UNL     1     -10.406   8.655  66.280  1.00  0.00    -0.385 OA 
HETATM   19  F   UNL     1      -6.857   7.484  65.486  1.00  0.00    -0.049 F  
HETATM   20  C   UNL     1      -7.676   7.802  67.711  1.00  0.00    -0.122 C  
HETATM   21  C   UNL     1      -8.395   5.947  65.714  1.00  0.00    -0.140 C  
HETATM   22  C   UNL     1      -9.697   5.162  65.812  1.00  0.00    -0.124 C  
HETATM   23  H   UNL     1     -10.661   7.741  66.323  1.00  0.00     0.000 HD 
HETATM   24  O   UNL     1      -8.341   1.874  66.485  1.00  0.00    -0.081 OA 
HETATM   25  C   UNL     1      -6.791   6.689  68.305  1.00  0.00    -0.074 C  
HETATM   26  C   UNL     1      -9.665   3.816  65.987  1.00  0.00    -0.136 C  
ENDROOT
BRANCH   4  27
HETATM   27  C   UNL     1      -9.638  11.591  67.556  1.00  0.00    -0.172 C  
HETATM   28  O   UNL     1      -9.815  12.343  68.531  1.00  0.00    -0.212 OA 
BRANCH  27  29
HETATM   29  C   UNL     1     -10.404  11.984  66.266  1.00  0.00    -0.221 C  
BRANCH  29  30
HETATM   30  O   UNL     1      -9.933  13.228  65.692  1.00  0.00    -0.280 OA 
BRANCH  30  31
HETATM   31  C   UNL     1     -10.621  14.334  66.077  1.00  0.00    -0.300 C  
HETATM   32  O   UNL     1     -11.831  14.457  66.026  1.00  0.00    -0.373 OA 
BRANCH  31  33
HETATM   33  C   UNL     1      -9.722  15.433  66.549  1.00  0.00    -0.292 A  
HETATM   34  C   UNL     1      -7.917  17.416  67.417  1.00  0.00    -0.212 A  
HETATM   35  O   UNL     1      -9.424  19.484  69.233  1.00  0.00    -0.328 OA 
HETATM   36  C   UNL     1      -7.440  16.170  67.031  1.00  0.00    -0.264 A  
HETATM   37  C   UNL     1      -8.335  15.183  66.596  1.00  0.00    -0.162 A  
HETATM   38  O   UNL     1      -9.044  20.287  66.911  1.00  0.00    -0.342 OA 
HETATM   39  O   UNL     1     -11.233  19.395  67.469  1.00  0.00    -0.325 OA 
HETATM   40  C   UNL     1     -10.204  16.694  66.936  1.00  0.00    -0.291 A  
HETATM   41  S   UNL     1      -9.855  19.275  67.866  1.00  0.00    -0.375 S  
HETATM   42  C   UNL     1      -9.280  17.664  67.374  1.00  0.00    -0.247 A  
ENDBRANCH  31  33
ENDBRANCH  30  31
ENDBRANCH  29  30
ENDBRANCH  27  29
ENDBRANCH   4  27
TORSDOF 5
ENDMDL
MODEL      153
REMARK 921   NORMALIZED FREE ENERGY PREDICTED BY IDOCK:   -4.34 KCAL/MOL
REMARK 922        TOTAL FREE ENERGY PREDICTED BY IDOCK:   -6.32 KCAL/MOL
REMARK 923 INTER-LIGAND FREE ENERGY PREDICTED BY IDOCK:   -7.28 KCAL/MOL
REMARK 924 INTRA-LIGAND FREE ENERGY PREDICTED BY IDOCK:    0.95 KCAL/MOL
REMARK 927      BINDING AFFINITY PREDICTED BY RF-SCORE:    0.00 PKD
ROOT
HETATM    1  C   UNL     1      -7.651   8.192  63.570  1.00  0.00    -0.136 C  
HETATM    2  C   UNL     1      -6.500   8.979  63.399  1.00  0.00    -0.090 C  
HETATM    3  C   UNL     1      -6.716   8.509  64.811  1.00  0.00    -0.068 C  
HETATM    4  C   UNL     1      -8.150   7.039  65.113  1.00  0.00    -0.124 C  
HETATM    5  C   UNL     1      -5.175   8.879  65.422  1.00  0.00    -0.037 C  
HETATM    6  O   UNL     1      -8.764   6.384  63.945  1.00  0.00    -0.301 OA 
HETATM    7  C   UNL     1     -10.100  13.437  64.482  1.00  0.00    -0.220 C  
HETATM    8  C   UNL     1      -6.805   7.130  64.988  1.00  0.00    -0.047 C  
HETATM    9  C   UNL     1     -11.506  13.509  65.021  1.00  0.00    -0.318 C  
HETATM   10  C   UNL     1      -9.794  12.125  64.453  1.00  0.00    -0.154 C  
HETATM   11  C   UNL     1      -5.809   6.072  64.494  1.00  0.00    -0.025 C  
HETATM   12  H   UNL     1      -9.420   5.712  64.083  1.00  0.00     0.000 HD 
HETATM   13  C   UNL     1      -7.211   7.796  66.764  1.00  0.00    -0.088 C  
HETATM   14  C   UNL     1      -8.559   8.971  66.769  1.00  0.00    -0.123 C  
HETATM   15  C   UNL     1     -10.324  11.283  63.308  1.00  0.00    -0.406 C  
HETATM   16  C   UNL     1      -8.809  10.080  65.482  1.00  0.00    -0.165 C  
HETATM   17  C   UNL     1      -8.742  12.213  66.807  1.00  0.00    -0.183 C  
HETATM   18  O   UNL     1      -9.744   8.177  66.995  1.00  0.00    -0.176 OA 
HETATM   19  F   UNL     1      -7.622  10.821  65.234  1.00  0.00    -0.136 F  
HETATM   20  C   UNL     1      -9.010   9.255  64.075  1.00  0.00    -0.107 C  
HETATM   21  C   UNL     1      -9.656  11.383  65.807  1.00  0.00    -0.260 C  
HETATM   22  C   UNL     1     -11.041  11.483  66.436  1.00  0.00    -0.328 C  
HETATM   23  H   UNL     1     -10.460   8.801  66.997  1.00  0.00     0.000 HD 
HETATM   24  O   UNL     1     -12.293  14.354  64.623  1.00  0.00    -0.487 OA 
HETATM   25  C   UNL     1      -9.309  10.223  62.914  1.00  0.00    -0.336 C  
HETATM   26  C   UNL     1     -11.866  12.507  66.097  1.00  0.00    -0.459 C  
ENDROOT
BRANCH   4  27
HETATM   27  C   UNL     1      -8.122   5.516  65.935  1.00  0.00    -0.110 C  
HETATM   28  O   UNL     1      -7.602   4.472  65.504  1.00  0.00    -0.080 OA 
BRANCH  27  29
HETATM   29  C   UNL     1      -8.721   5.420  67.363  1.00  0.00    -0.107 C  
BRANCH  29  30
HETATM   30  O   UNL     1      -8.581   4.100  67.943  1.00  0.00    -0.094 OA 
BRANCH  30  31
HETATM   31  C   UNL     1      -8.005   4.072  69.172  1.00  0.00    -0.056 C  
HETATM   32  O   UNL     1      -7.387   3.130  69.633  1.00  0.00    -0.044 OA 
BRANCH  31  33
HETATM   33  C   UNL     1      -8.241   5.331  69.945  1.00  0.00    -0.094 A  
HETATM   34  C   UNL     1      -8.546   7.730  71.393  1.00  0.00    -0.131 A  
HETATM   35  O   UNL     1     -11.172   7.596  73.105  1.00  0.00    -0.391 OA 
HETATM   36  C   UNL     1      -7.285   7.340  70.962  1.00  0.00    -0.073 A  
HETATM   37  C   UNL     1      -7.131   6.149  70.239  1.00  0.00    -0.074 A  
HETATM   38  O   UNL     1     -11.408   8.932  71.022  1.00  0.00    -0.264 OA 
HETATM   39  O   UNL     1     -12.235   6.648  71.016  1.00  0.00    -0.367 OA 
HETATM   40  C   UNL     1      -9.518   5.728  70.378  1.00  0.00    -0.201 A  
HETATM   41  S   UNL     1     -11.243   7.464  71.665  1.00  0.00    -0.253 S  
HETATM   42  C   UNL     1      -9.641   6.928  71.106  1.00  0.00    -0.166 A  
ENDBRANCH  31  33
ENDBRANCH  30  31
ENDBRANCH  29  30
ENDBRANCH  27  29
ENDBRANCH   4  27
TORSDOF 5
ENDMDL
MODEL      154
REMARK 921   NORMALIZED FREE ENERGY PREDICTED BY IDOCK:   -4.26 KCAL/MOL
REMARK 922        TOTAL FREE ENERGY PREDICTED BY IDOCK:   -6.22 KCAL/MOL
REMARK 923 INTER-LIGAND FREE ENERGY PREDICTED BY IDOCK:   -7.74 KCAL/MOL
REMARK 924 INTRA-LIGAND FREE ENERGY PREDICTED BY IDOCK:    1.52 KCAL/MOL
REMARK 927      BINDING AFFINITY PREDICTED BY RF-SCORE:    0.00 PKD
ROOT
HETATM    1  C   UNL     1      -7.444   4.884  67.353  1.00  0.00    -0.082 C  
HETATM    2  C   UNL     1      -8.293   3.790  67.112  1.00  0.00    -0.099 C  
HETATM    3  C   UNL     1      -8.835   5.105  66.624  1.00  0.00    -0.112 C  
HETATM    4  C   UNL     1      -7.524   6.713  66.573  1.00  0.00    -0.078 C  
HETATM    5  C   UNL     1     -10.087   4.498  65.650  1.00  0.00    -0.261 C  
HETATM    6  O   UNL     1      -6.093   6.480  66.832  1.00  0.00    -0.027 OA 
HETATM    7  C   UNL     1     -10.424   5.034  72.396  1.00  0.00    -0.275 C  
HETATM    8  C   UNL     1      -8.035   5.797  65.718  1.00  0.00    -0.110 C  
HETATM    9  C   UNL     1     -10.265   6.223  73.309  1.00  0.00    -0.209 C  
HETATM   10  C   UNL     1      -9.688   5.320  71.305  1.00  0.00    -0.222 C  
HETATM   11  C   UNL     1      -7.429   5.248  64.419  1.00  0.00    -0.066 C  
HETATM   12  H   UNL     1      -5.493   7.216  66.809  1.00  0.00     0.000 HD 
HETATM   13  C   UNL     1      -9.468   7.063  66.045  1.00  0.00     0.031 C  
HETATM   14  C   UNL     1      -9.686   7.424  67.782  1.00  0.00    -0.143 C  
HETATM   15  C   UNL     1      -8.185   5.124  71.372  1.00  0.00    -0.115 C  
HETATM   16  C   UNL     1      -9.449   6.237  69.000  1.00  0.00    -0.128 C  
HETATM   17  C   UNL     1     -11.712   6.356  70.085  1.00  0.00    -0.372 C  
HETATM   18  O   UNL     1      -8.855   8.580  68.029  1.00  0.00    -0.140 OA 
HETATM   19  F   UNL     1     -10.232   5.085  68.721  1.00  0.00    -0.237 F  
HETATM   20  C   UNL     1      -7.915   5.653  68.908  1.00  0.00    -0.097 C  
HETATM   21  C   UNL     1     -10.158   6.486  70.398  1.00  0.00    -0.213 C  
HETATM   22  C   UNL     1     -10.086   7.716  71.294  1.00  0.00    -0.203 C  
HETATM   23  H   UNL     1      -8.971   8.772  68.952  1.00  0.00     0.000 HD 
HETATM   24  O   UNL     1     -10.231   6.087  74.523  1.00  0.00    -0.295 OA 
HETATM   25  C   UNL     1      -7.651   4.636  70.036  1.00  0.00    -0.054 C  
HETATM   26  C   UNL     1     -10.189   7.579  72.642  1.00  0.00    -0.297 C  
ENDROOT
BRANCH   4  27
HETATM   27  C   UNL     1      -7.102   7.852  65.339  1.00  0.00    -0.060 C  
HETATM   28  O   UNL     1      -6.054   8.521  65.302  1.00  0.00    -0.048 OA 
BRANCH  27  29
HETATM   29  C   UNL     1      -8.050   8.031  64.125  1.00  0.00    -0.102 C  
BRANCH  29  30
HETATM   30  O   UNL     1      -9.123   8.968  64.385  1.00  0.00    -0.087 OA 
BRANCH  30  31
HETATM   31  C   UNL     1      -8.968  10.191  63.814  1.00  0.00    -0.246 C  
HETATM   32  O   UNL     1      -8.147  10.463  62.958  1.00  0.00    -0.151 OA 
BRANCH  31  33
HETATM   33  C   UNL     1      -9.904  11.211  64.380  1.00  0.00    -0.334 A  
HETATM   34  C   UNL     1     -11.736  13.137  65.321  1.00  0.00    -0.375 A  
HETATM   35  O   UNL     1     -10.481  14.679  67.749  1.00  0.00    -0.243 OA 
HETATM   36  C   UNL     1     -11.827  12.678  64.014  1.00  0.00    -0.507 A  
HETATM   37  C   UNL     1     -10.920  11.719  63.544  1.00  0.00    -0.499 A  
HETATM   38  O   UNL     1     -12.119  12.931  68.417  1.00  0.00    -0.291 OA 
HETATM   39  O   UNL     1      -9.754  12.395  68.552  1.00  0.00    -0.206 OA 
HETATM   40  C   UNL     1      -9.814  11.672  65.704  1.00  0.00    -0.270 A  
HETATM   41  S   UNL     1     -10.656  13.243  67.819  1.00  0.00    -0.245 S  
HETATM   42  C   UNL     1     -10.737  12.641  66.146  1.00  0.00    -0.267 A  
ENDBRANCH  31  33
ENDBRANCH  30  31
ENDBRANCH  29  30
ENDBRANCH  27  29
ENDBRANCH   4  27
TORSDOF 5
ENDMDL
MODEL      155
REMARK 921   NORMALIZED FREE ENERGY PREDICTED BY IDOCK:   -4.18 KCAL/MOL
REMARK 922        TOTAL FREE ENERGY PREDICTED BY IDOCK:   -6.11 KCAL/MOL
REMARK 923 INTER-LIGAND FREE ENERGY PREDICTED BY IDOCK:   -7.14 KCAL/MOL
REMARK 924 INTRA-LIGAND FREE ENERGY PREDICTED BY IDOCK:    1.02 KCAL/MOL
REMARK 927      BINDING AFFINITY PREDICTED BY RF-SCORE:    0.00 PKD
ROOT
HETATM    1  C   UNL     1      -5.991  11.484  69.198  1.00  0.00    -0.056 C  
HETATM    2  C   UNL     1      -5.361  10.695  68.220  1.00  0.00    -0.033 C  
HETATM    3  C   UNL     1      -6.504  11.521  67.698  1.00  0.00    -0.067 C  
HETATM    4  C   UNL     1      -7.255  12.999  68.946  1.00  0.00    -0.047 C  
HETATM    5  C   UNL     1      -6.184  11.347  66.039  1.00  0.00     0.165 C  
HETATM    6  O   UNL     1      -6.544  13.311  70.198  1.00  0.00    -0.368 OA 
HETATM    7  C   UNL     1      -9.220   6.637  69.848  1.00  0.00    -0.146 C  
HETATM    8  C   UNL     1      -6.405  12.896  67.898  1.00  0.00    -0.125 C  
HETATM    9  C   UNL     1     -10.467   6.693  70.692  1.00  0.00    -0.217 C  
HETATM   10  C   UNL     1      -8.745   7.898  69.827  1.00  0.00    -0.137 C  
HETATM   11  C   UNL     1      -5.221  13.797  67.526  1.00  0.00     0.165 C  
HETATM   12  H   UNL     1      -6.889  13.987  70.769  1.00  0.00     0.000 HD 
HETATM   13  C   UNL     1      -8.185  12.720  67.146  1.00  0.00    -0.146 C  
HETATM   14  C   UNL     1      -9.208  11.571  68.057  1.00  0.00    -0.175 C  
HETATM   15  C   UNL     1      -7.965   8.399  71.028  1.00  0.00    -0.116 C  
HETATM   16  C   UNL     1      -8.566  10.157  68.788  1.00  0.00    -0.133 C  
HETATM   17  C   UNL     1     -10.026   8.453  67.657  1.00  0.00    -0.246 C  
HETATM   18  O   UNL     1      -9.900  12.381  69.033  1.00  0.00    -0.415 OA 
HETATM   19  F   UNL     1      -7.846   9.392  67.831  1.00  0.00    -0.090 F  
HETATM   20  C   UNL     1      -7.393  10.575  69.861  1.00  0.00    -0.116 C  
HETATM   21  C   UNL     1      -9.583   8.976  69.091  1.00  0.00    -0.161 C  
HETATM   22  C   UNL     1     -10.896   9.028  69.863  1.00  0.00    -0.228 C  
HETATM   23  H   UNL     1     -10.443  11.770  69.517  1.00  0.00     0.000 HD 
HETATM   24  O   UNL     1     -10.781   5.761  71.418  1.00  0.00    -0.243 OA 
HETATM   25  C   UNL     1      -6.848   9.329  70.586  1.00  0.00    -0.094 C  
HETATM   26  C   UNL     1     -11.315   7.940  70.559  1.00  0.00    -0.242 C  
ENDROOT
BRANCH   4  27
HETATM   27  C   UNL     1      -7.570  14.686  68.720  1.00  0.00    -0.138 C  
HETATM   28  O   UNL     1      -6.796  15.612  69.019  1.00  0.00    -0.122 OA 
BRANCH  27  29
HETATM   29  C   UNL     1      -8.887  15.119  68.022  1.00  0.00    -0.170 C  
BRANCH  29  30
HETATM   30  O   UNL     1      -9.576  16.177  68.732  1.00  0.00    -0.215 OA 
BRANCH  30  31
HETATM   31  C   UNL     1     -10.729  16.600  68.153  1.00  0.00    -0.349 C  
HETATM   32  O   UNL     1     -11.507  17.396  68.646  1.00  0.00     0.306 OA 
BRANCH  31  33
HETATM   33  C   UNL     1     -10.979  15.947  66.831  1.00  0.00    -0.172 A  
HETATM   34  C   UNL     1     -11.415  14.840  64.275  1.00  0.00    -0.159 A  
HETATM   35  O   UNL     1     -13.378  12.405  64.507  1.00  0.00    -0.800 OA 
HETATM   36  C   UNL     1     -11.005  16.162  64.394  1.00  0.00     0.038 A  
HETATM   37  C   UNL     1     -10.785  16.714  65.663  1.00  0.00    -0.222 A  
HETATM   38  O   UNL     1     -10.992  11.743  64.285  1.00  0.00    -0.317 OA 
HETATM   39  O   UNL     1     -11.979  11.737  66.504  1.00  0.00    -0.545 OA 
HETATM   40  C   UNL     1     -11.391  14.609  66.710  1.00  0.00    -0.360 A  
HETATM   41  S   UNL     1     -12.124  12.391  65.231  1.00  0.00    -0.314 S  
HETATM   42  C   UNL     1     -11.609  14.084  65.421  1.00  0.00    -0.328 A  
ENDBRANCH  31  33
ENDBRANCH  30  31
ENDBRANCH  29  30
ENDBRANCH  27  29
ENDBRANCH   4  27
TORSDOF 5
ENDMDL
MODEL      156
REMARK 921   NORMALIZED FREE ENERGY PREDICTED BY IDOCK:   -4.18 KCAL/MOL
REMARK 922        TOTAL FREE ENERGY PREDICTED BY IDOCK:   -6.11 KCAL/MOL
REMARK 923 INTER-LIGAND FREE ENERGY PREDICTED BY IDOCK:   -7.05 KCAL/MOL
REMARK 924 INTRA-LIGAND FREE ENERGY PREDICTED BY IDOCK:    0.94 KCAL/MOL
REMARK 927      BINDING AFFINITY PREDICTED BY RF-SCORE:    0.00 PKD
ROOT
HETATM    1  C   UNL     1      -6.966  12.147  67.891  1.00  0.00    -0.099 C  
HETATM    2  C   UNL     1      -7.439  11.929  69.197  1.00  0.00     0.066 C  
HETATM    3  C   UNL     1      -8.300  11.321  68.125  1.00  0.00    -0.143 C  
HETATM    4  C   UNL     1      -7.514  11.243  66.206  1.00  0.00    -0.010 C  
HETATM    5  C   UNL     1      -9.242  10.316  69.119  1.00  0.00    -0.203 C  
HETATM    6  O   UNL     1      -6.102  11.603  65.993  1.00  0.00    -0.473 OA 
HETATM    7  C   UNL     1     -10.244  16.978  68.396  1.00  0.00    -0.331 C  
HETATM    8  C   UNL     1      -7.668  10.422  67.270  1.00  0.00    -0.099 C  
HETATM    9  C   UNL     1     -10.509  17.818  67.172  1.00  0.00    -0.335 C  
HETATM   10  C   UNL     1      -9.540  15.917  67.956  1.00  0.00    -0.211 C  
HETATM   11  C   UNL     1      -6.830   9.202  67.675  1.00  0.00    -0.077 C  
HETATM   12  H   UNL     1      -5.743  11.568  65.115  1.00  0.00     0.000 HD 
HETATM   13  C   UNL     1      -9.429  10.575  66.470  1.00  0.00    -0.200 C  
HETATM   14  C   UNL     1      -9.877  12.268  66.109  1.00  0.00    -0.243 C  
HETATM   15  C   UNL     1      -8.056  16.089  67.696  1.00  0.00    -0.164 C  
HETATM   16  C   UNL     1      -9.400  13.575  67.116  1.00  0.00    -0.240 C  
HETATM   17  C   UNL     1     -11.677  14.510  67.621  1.00  0.00    -0.410 C  
HETATM   18  O   UNL     1      -9.441  12.487  64.749  1.00  0.00    -0.454 OA 
HETATM   19  F   UNL     1      -9.789  13.327  68.460  1.00  0.00    -0.223 F  
HETATM   20  C   UNL     1      -7.761  13.616  67.226  1.00  0.00    -0.091 C  
HETATM   21  C   UNL     1     -10.258  14.907  67.024  1.00  0.00    -0.256 C  
HETATM   22  C   UNL     1     -10.617  15.722  65.787  1.00  0.00    -0.369 C  
HETATM   23  H   UNL     1      -9.679  13.387  64.558  1.00  0.00     0.000 HD 
HETATM   24  O   UNL     1     -10.532  19.038  67.236  1.00  0.00    -0.397 OA 
HETATM   25  C   UNL     1      -7.301  14.823  68.066  1.00  0.00    -0.140 C  
HETATM   26  C   UNL     1     -10.780  17.067  65.887  1.00  0.00    -0.140 C  
ENDROOT
BRANCH   4  27
HETATM   27  C   UNL     1      -7.348   9.964  65.051  1.00  0.00    -0.135 C  
HETATM   28  O   UNL     1      -6.456   9.881  64.189  1.00  0.00    -0.114 OA 
BRANCH  27  29
HETATM   29  C   UNL     1      -8.332   8.766  65.108  1.00  0.00    -0.167 C  
BRANCH  29  30
HETATM   30  O   UNL     1      -8.295   7.952  63.910  1.00  0.00    -0.064 OA 
BRANCH  30  31
HETATM   31  C   UNL     1      -7.904   6.666  64.102  1.00  0.00    -0.108 C  
HETATM   32  O   UNL     1      -7.658   5.870  63.214  1.00  0.00    -0.073 OA 
BRANCH  31  33
HETATM   33  C   UNL     1      -7.840   6.296  65.550  1.00  0.00    -0.101 A  
HETATM   34  C   UNL     1      -7.578   5.588  68.266  1.00  0.00    -0.081 A  
HETATM   35  O   UNL     1     -10.299   4.431  69.316  1.00  0.00     0.050 OA 
HETATM   36  C   UNL     1      -6.450   5.657  67.459  1.00  0.00    -0.047 A  
HETATM   37  C   UNL     1      -6.577   6.012  66.109  1.00  0.00    -0.048 A  
HETATM   38  O   UNL     1      -9.893   6.789  69.989  1.00  0.00    -0.169 OA 
HETATM   39  O   UNL     1     -11.355   6.375  68.094  1.00  0.00    -0.266 OA 
HETATM   40  C   UNL     1      -8.981   6.230  66.368  1.00  0.00    -0.159 A  
HETATM   41  S   UNL     1     -10.245   5.777  68.786  1.00  0.00    -0.216 S  
HETATM   42  C   UNL     1      -8.822   5.865  67.720  1.00  0.00    -0.109 A  
ENDBRANCH  31  33
ENDBRANCH  30  31
ENDBRANCH  29  30
ENDBRANCH  27  29
ENDBRANCH   4  27
TORSDOF 5
ENDMDL
MODEL      157
REMARK 921   NORMALIZED FREE ENERGY PREDICTED BY IDOCK:   -4.14 KCAL/MOL
REMARK 922        TOTAL FREE ENERGY PREDICTED BY IDOCK:   -6.06 KCAL/MOL
REMARK 923 INTER-LIGAND FREE ENERGY PREDICTED BY IDOCK:   -7.05 KCAL/MOL
REMARK 924 INTRA-LIGAND FREE ENERGY PREDICTED BY IDOCK:    0.99 KCAL/MOL
REMARK 927      BINDING AFFINITY PREDICTED BY RF-SCORE:    0.00 PKD
ROOT
HETATM    1  C   UNL     1     -10.942  14.857  68.028  1.00  0.00    -0.282 C  
HETATM    2  C   UNL     1     -11.184  15.288  66.712  1.00  0.00    -0.241 C  
HETATM    3  C   UNL     1     -10.129  14.222  66.822  1.00  0.00    -0.264 C  
HETATM    4  C   UNL     1      -9.958  13.241  68.643  1.00  0.00    -0.122 C  
HETATM    5  C   UNL     1     -10.041  13.805  65.178  1.00  0.00    -0.314 C  
HETATM    6  O   UNL     1     -10.971  13.480  69.685  1.00  0.00    -0.455 OA 
HETATM    7  C   UNL     1      -7.086  19.267  67.887  1.00  0.00    -0.273 C  
HETATM    8  C   UNL     1     -10.524  13.033  67.431  1.00  0.00    -0.235 C  
HETATM    9  C   UNL     1      -6.086  19.406  69.006  1.00  0.00    -0.246 C  
HETATM   10  C   UNL     1      -7.772  18.139  68.157  1.00  0.00    -0.280 C  
HETATM   11  C   UNL     1     -11.746  12.177  67.073  1.00  0.00    -0.373 C  
HETATM   12  H   UNL     1     -10.892  13.031  70.519  1.00  0.00     0.000 HD 
HETATM   13  C   UNL     1      -8.622  12.747  67.175  1.00  0.00    -0.197 C  
HETATM   14  C   UNL     1      -7.627  14.046  67.895  1.00  0.00    -0.155 C  
HETATM   15  C   UNL     1      -8.875  18.192  69.196  1.00  0.00     0.107 C  
HETATM   16  C   UNL     1      -8.138  15.685  67.915  1.00  0.00    -0.141 C  
HETATM   17  C   UNL     1      -6.174  16.705  66.725  1.00  0.00    -0.134 C  
HETATM   18  O   UNL     1      -7.329  13.589  69.233  1.00  0.00    -0.300 OA 
HETATM   19  F   UNL     1      -8.476  16.111  66.602  1.00  0.00    -0.204 F  
HETATM   20  C   UNL     1      -9.574  15.806  68.706  1.00  0.00    -0.216 C  
HETATM   21  C   UNL     1      -7.010  16.791  68.074  1.00  0.00    -0.156 C  
HETATM   22  C   UNL     1      -5.931  16.900  69.145  1.00  0.00    -0.175 C  
HETATM   23  H   UNL     1      -6.800  14.280  69.615  1.00  0.00     0.000 HD 
HETATM   24  O   UNL     1      -5.770  20.504  69.440  1.00  0.00    -0.305 OA 
HETATM   25  C   UNL     1     -10.022  17.276  68.802  1.00  0.00    -0.325 C  
HETATM   26  C   UNL     1      -5.478  18.122  69.528  1.00  0.00    -0.210 C  
ENDROOT
BRANCH   4  27
HETATM   27  C   UNL     1      -9.921  11.566  69.081  1.00  0.00     0.074 C  
HETATM   28  O   UNL     1     -10.854  10.938  69.613  1.00  0.00    -0.245 OA 
BRANCH  27  29
HETATM   29  C   UNL     1      -8.666  10.724  68.734  1.00  0.00    -0.163 C  
BRANCH  29  30
HETATM   30  O   UNL     1      -8.988   9.359  68.373  1.00  0.00    -0.128 OA 
BRANCH  30  31
HETATM   31  C   UNL     1      -7.949   8.488  68.438  1.00  0.00    -0.118 C  
HETATM   32  O   UNL     1      -6.888   8.621  67.855  1.00  0.00    -0.065 OA 
BRANCH  31  33
HETATM   33  C   UNL     1      -8.252   7.294  69.287  1.00  0.00    -0.131 A  
HETATM   34  C   UNL     1      -8.963   5.079  70.878  1.00  0.00    -0.165 A  
HETATM   35  O   UNL     1      -6.507   4.212  72.628  1.00  0.00    -0.023 OA 
HETATM   36  C   UNL     1      -9.951   5.932  70.402  1.00  0.00    -0.247 A  
HETATM   37  C   UNL     1      -9.600   7.032  69.608  1.00  0.00    -0.150 A  
HETATM   38  O   UNL     1      -6.865   2.775  70.631  1.00  0.00    -0.032 OA 
HETATM   39  O   UNL     1      -5.162   4.503  70.507  1.00  0.00     0.000 OA 
HETATM   40  C   UNL     1      -7.254   6.429  69.766  1.00  0.00    -0.074 A  
HETATM   41  S   UNL     1      -6.399   4.214  71.184  1.00  0.00    -0.015 S  
HETATM   42  C   UNL     1      -7.636   5.334  70.566  1.00  0.00    -0.072 A  
ENDBRANCH  31  33
ENDBRANCH  30  31
ENDBRANCH  29  30
ENDBRANCH  27  29
ENDBRANCH   4  27
TORSDOF 5
ENDMDL
MODEL      158
REMARK 921   NORMALIZED FREE ENERGY PREDICTED BY IDOCK:   -4.08 KCAL/MOL
REMARK 922        TOTAL FREE ENERGY PREDICTED BY IDOCK:   -5.98 KCAL/MOL
REMARK 923 INTER-LIGAND FREE ENERGY PREDICTED BY IDOCK:   -5.77 KCAL/MOL
REMARK 924 INTRA-LIGAND FREE ENERGY PREDICTED BY IDOCK:   -0.21 KCAL/MOL
REMARK 927      BINDING AFFINITY PREDICTED BY RF-SCORE:    0.00 PKD
ROOT
HETATM    1  C   UNL     1      -8.074   9.265  68.960  1.00  0.00    -0.106 C  
HETATM    2  C   UNL     1      -7.971   9.807  70.252  1.00  0.00    -0.185 C  
HETATM    3  C   UNL     1      -9.366   9.397  69.871  1.00  0.00    -0.234 C  
HETATM    4  C   UNL     1      -9.581   8.242  68.160  1.00  0.00    -0.150 C  
HETATM    5  C   UNL     1     -10.062   9.458  71.418  1.00  0.00    -0.263 C  
HETATM    6  O   UNL     1      -8.379   7.716  67.493  1.00  0.00    -0.119 OA 
HETATM    7  C   UNL     1      -8.879  14.896  67.554  1.00  0.00    -0.195 C  
HETATM    8  C   UNL     1      -9.531   8.065  69.501  1.00  0.00    -0.160 C  
HETATM    9  C   UNL     1      -9.341  15.248  66.163  1.00  0.00    -0.325 C  
HETATM   10  C   UNL     1      -8.860  13.550  67.595  1.00  0.00    -0.202 C  
HETATM   11  C   UNL     1      -9.086   6.828  70.292  1.00  0.00    -0.153 C  
HETATM   12  H   UNL     1      -8.477   7.188  66.710  1.00  0.00     0.000 HD 
HETATM   13  C   UNL     1     -11.286   8.808  69.139  1.00  0.00     0.263 C  
HETATM   14  C   UNL     1     -11.223  10.227  68.052  1.00  0.00    -0.235 C  
HETATM   15  C   UNL     1      -7.684  12.823  66.971  1.00  0.00     0.003 C  
HETATM   16  C   UNL     1      -9.931  11.356  68.097  1.00  0.00    -0.189 C  
HETATM   17  C   UNL     1     -11.269  13.441  68.513  1.00  0.00    -0.316 C  
HETATM   18  O   UNL     1     -11.380   9.684  66.722  1.00  0.00     0.153 OA 
HETATM   19  F   UNL     1      -9.752  11.846  69.419  1.00  0.00     0.102 F  
HETATM   20  C   UNL     1      -8.510  10.580  67.813  1.00  0.00    -0.114 C  
HETATM   21  C   UNL     1     -10.216  12.802  67.508  1.00  0.00    -0.216 C  
HETATM   22  C   UNL     1     -10.769  13.179  66.140  1.00  0.00    -0.289 C  
HETATM   23  H   UNL     1     -11.346  10.438  66.145  1.00  0.00     0.000 HD 
HETATM   24  O   UNL     1      -8.906  16.231  65.581  1.00  0.00    -0.374 OA 
HETATM   25  C   UNL     1      -7.340  11.581  67.776  1.00  0.00    -0.096 C  
HETATM   26  C   UNL     1     -10.391  14.344  65.553  1.00  0.00    -0.382 C  
ENDROOT
BRANCH   4  27
HETATM   27  C   UNL     1     -10.397   6.748  67.840  1.00  0.00    -0.194 C  
HETATM   28  O   UNL     1     -11.117   6.133  68.645  1.00  0.00    -0.339 OA 
BRANCH  27  29
HETATM   29  C   UNL     1     -10.305   6.129  66.421  1.00  0.00    -0.037 C  
BRANCH  29  30
HETATM   30  O   UNL     1     -10.656   4.724  66.399  1.00  0.00    -0.284 OA 
BRANCH  30  31
HETATM   31  C   UNL     1      -9.646   3.886  66.047  1.00  0.00    -0.182 C  
HETATM   32  O   UNL     1      -9.570   3.291  64.987  1.00  0.00    -0.160 OA 
BRANCH  31  33
HETATM   33  C   UNL     1      -8.626   3.730  67.130  1.00  0.00    -0.112 A  
HETATM   34  C   UNL     1      -6.604   3.477  69.077  1.00  0.00    -0.037 A  
HETATM   35  O   UNL     1      -7.549   1.497  71.320  1.00  0.00    -0.032 OA 
HETATM   36  C   UNL     1      -6.275   3.880  67.789  1.00  0.00    -0.036 A  
HETATM   37  C   UNL     1      -7.280   4.009  66.820  1.00  0.00    -0.071 A  
HETATM   38  O   UNL     1      -7.737   3.891  71.960  1.00  0.00    -0.063 OA 
HETATM   39  O   UNL     1      -9.743   2.748  71.206  1.00  0.00    -0.154 OA 
HETATM   40  C   UNL     1      -8.959   3.326  68.433  1.00  0.00    -0.184 A  
HETATM   41  S   UNL     1      -8.314   2.696  71.048  1.00  0.00    -0.058 S  
HETATM   42  C   UNL     1      -7.928   3.200  69.385  1.00  0.00    -0.048 A  
ENDBRANCH  31  33
ENDBRANCH  30  31
ENDBRANCH  29  30
ENDBRANCH  27  29
ENDBRANCH   4  27
TORSDOF 5
ENDMDL
MODEL      159
REMARK 921   NORMALIZED FREE ENERGY PREDICTED BY IDOCK:   -4.06 KCAL/MOL
REMARK 922        TOTAL FREE ENERGY PREDICTED BY IDOCK:   -5.95 KCAL/MOL
REMARK 923 INTER-LIGAND FREE ENERGY PREDICTED BY IDOCK:   -5.96 KCAL/MOL
REMARK 924 INTRA-LIGAND FREE ENERGY PREDICTED BY IDOCK:    0.01 KCAL/MOL
REMARK 927      BINDING AFFINITY PREDICTED BY RF-SCORE:    0.00 PKD
ROOT
HETATM    1  C   UNL     1      -9.740   6.664  70.423  1.00  0.00    -0.186 C  
HETATM    2  C   UNL     1      -9.816   5.398  71.029  1.00  0.00    -0.246 C  
HETATM    3  C   UNL     1      -8.412   5.895  70.821  1.00  0.00    -0.129 C  
HETATM    4  C   UNL     1      -8.177   7.889  70.297  1.00  0.00    -0.124 C  
HETATM    5  C   UNL     1      -7.614   4.775  71.819  1.00  0.00    -0.095 C  
HETATM    6  O   UNL     1      -9.349   8.781  70.327  1.00  0.00    -0.159 OA 
HETATM    7  C   UNL     1      -9.781   3.419  65.544  1.00  0.00    -0.034 C  
HETATM    8  C   UNL     1      -8.104   7.119  71.408  1.00  0.00    -0.106 C  
HETATM    9  C   UNL     1      -9.475   4.076  64.222  1.00  0.00    -0.162 C  
HETATM   10  C   UNL     1      -9.622   4.386  66.469  1.00  0.00    -0.209 C  
HETATM   11  C   UNL     1      -8.323   7.519  72.873  1.00  0.00    -0.154 C  
HETATM   12  H   UNL     1      -9.241   9.694  70.087  1.00  0.00     0.000 HD 
HETATM   13  C   UNL     1      -6.492   6.735  70.398  1.00  0.00    -0.043 C  
HETATM   14  C   UNL     1      -6.820   6.422  68.669  1.00  0.00    -0.074 C  
HETATM   15  C   UNL     1     -10.738   5.396  66.660  1.00  0.00    -0.309 C  
HETATM   16  C   UNL     1      -8.241   5.618  68.138  1.00  0.00    -0.096 C  
HETATM   17  C   UNL     1      -7.157   3.738  66.872  1.00  0.00    -0.063 C  
HETATM   18  O   UNL     1      -6.695   7.711  68.027  1.00  0.00    -0.059 OA 
HETATM   19  F   UNL     1      -8.382   4.375  68.811  1.00  0.00    -0.081 F  
HETATM   20  C   UNL     1      -9.566   6.447  68.647  1.00  0.00    -0.121 C  
HETATM   21  C   UNL     1      -8.191   4.934  66.707  1.00  0.00    -0.107 C  
HETATM   22  C   UNL     1      -7.796   5.553  65.371  1.00  0.00    -0.100 C  
HETATM   23  H   UNL     1      -6.869   7.545  67.109  1.00  0.00     0.000 HD 
HETATM   24  O   UNL     1     -10.077   3.762  63.206  1.00  0.00    -0.157 OA 
HETATM   25  C   UNL     1     -10.856   5.786  68.124  1.00  0.00    -0.249 C  
HETATM   26  C   UNL     1      -8.366   5.106  64.222  1.00  0.00    -0.137 C  
ENDROOT
BRANCH   4  27
HETATM   27  C   UNL     1      -7.202   9.169  70.935  1.00  0.00    -0.111 C  
HETATM   28  O   UNL     1      -6.646   9.168  72.047  1.00  0.00    -0.267 OA 
BRANCH  27  29
HETATM   29  C   UNL     1      -6.912  10.409  70.048  1.00  0.00    -0.157 C  
BRANCH  29  30
HETATM   30  O   UNL     1      -7.684  10.413  68.823  1.00  0.00    -0.090 OA 
BRANCH  30  31
HETATM   31  C   UNL     1      -8.131  11.634  68.431  1.00  0.00    -0.153 C  
HETATM   32  O   UNL     1      -7.430  12.527  67.991  1.00  0.00    -0.095 OA 
BRANCH  31  33
HETATM   33  C   UNL     1      -9.604  11.798  68.634  1.00  0.00    -0.122 A  
HETATM   34  C   UNL     1     -12.383  12.191  68.900  1.00  0.00     0.199 A  
HETATM   35  O   UNL     1     -13.238  11.652  71.870  1.00  0.00    -0.485 OA 
HETATM   36  C   UNL     1     -11.694  12.811  67.865  1.00  0.00    -0.408 A  
HETATM   37  C   UNL     1     -10.313  12.615  67.729  1.00  0.00    -0.221 A  
HETATM   38  O   UNL     1     -13.747   9.769  70.329  1.00  0.00     0.251 OA 
HETATM   39  O   UNL     1     -11.752   9.613  71.706  1.00  0.00    -0.388 OA 
HETATM   40  C   UNL     1     -10.301  11.168  69.678  1.00  0.00     0.084 A  
HETATM   41  S   UNL     1     -12.604  10.601  71.101  1.00  0.00    -0.451 S  
HETATM   42  C   UNL     1     -11.688  11.388  69.793  1.00  0.00    -0.344 A  
ENDBRANCH  31  33
ENDBRANCH  30  31
ENDBRANCH  29  30
ENDBRANCH  27  29
ENDBRANCH   4  27
TORSDOF 5
ENDMDL
MODEL      160
REMARK 921   NORMALIZED FREE ENERGY PREDICTED BY IDOCK:   -3.97 KCAL/MOL
REMARK 922        TOTAL FREE ENERGY PREDICTED BY IDOCK:   -5.84 KCAL/MOL
REMARK 923 INTER-LIGAND FREE ENERGY PREDICTED BY IDOCK:   -6.91 KCAL/MOL
REMARK 924 INTRA-LIGAND FREE ENERGY PREDICTED BY IDOCK:    1.07 KCAL/MOL
REMARK 927      BINDING AFFINITY PREDICTED BY RF-SCORE:    0.00 PKD
ROOT
HETATM    1  C   UNL     1     -10.887  12.564  64.103  1.00  0.00    -0.420 C  
HETATM    2  C   UNL     1     -12.199  12.078  63.975  1.00  0.00    -0.505 C  
HETATM    3  C   UNL     1     -11.987  12.959  65.175  1.00  0.00    -0.452 C  
HETATM    4  C   UNL     1     -10.215  14.036  65.260  1.00  0.00    -0.360 C  
HETATM    5  C   UNL     1     -13.618  13.226  65.565  1.00  0.00     1.653 C  
HETATM    6  O   UNL     1      -9.327  14.051  64.086  1.00  0.00     0.700 OA 
HETATM    7  C   UNL     1     -10.210   7.575  67.101  1.00  0.00    -0.350 C  
HETATM    8  C   UNL     1     -11.508  14.240  64.915  1.00  0.00    -0.378 C  
HETATM    9  C   UNL     1      -8.947   7.359  67.894  1.00  0.00    -0.131 C  
HETATM   10  C   UNL     1     -10.107   8.819  66.595  1.00  0.00    -0.358 C  
HETATM   11  C   UNL     1     -12.092  15.258  63.926  1.00  0.00     0.135 C  
HETATM   12  H   UNL     1      -8.516  14.544  64.125  1.00  0.00     0.000 HD 
HETATM   13  C   UNL     1     -11.488  14.184  66.855  1.00  0.00    -0.373 C  
HETATM   14  C   UNL     1     -10.558  12.797  67.494  1.00  0.00    -0.229 C  
HETATM   15  C   UNL     1      -9.245   9.032  65.365  1.00  0.00    -0.241 C  
HETATM   16  C   UNL     1     -10.530  11.273  66.705  1.00  0.00    -0.247 C  
HETATM   17  C   UNL     1     -11.354   9.850  68.604  1.00  0.00    -0.048 C  
HETATM   18  O   UNL     1      -9.217  13.301  67.678  1.00  0.00    -0.192 OA 
HETATM   19  F   UNL     1     -11.855  10.809  66.484  1.00  0.00     0.239 F  
HETATM   20  C   UNL     1      -9.960  11.456  65.173  1.00  0.00    -0.310 C  
HETATM   21  C   UNL     1     -10.144  10.010  67.586  1.00  0.00    -0.232 C  
HETATM   22  C   UNL     1      -8.918   9.807  68.468  1.00  0.00    -0.124 C  
HETATM   23  H   UNL     1      -8.723  12.564  68.017  1.00  0.00     0.000 HD 
HETATM   24  O   UNL     1      -8.414   6.260  67.947  1.00  0.00    -0.117 OA 
HETATM   25  C   UNL     1      -9.856  10.092  64.464  1.00  0.00    -0.334 C  
HETATM   26  C   UNL     1      -8.408   8.560  68.641  1.00  0.00    -0.123 C  
ENDROOT
BRANCH   4  27
HETATM   27  C   UNL     1      -9.865  15.710  65.530  1.00  0.00    -0.291 C  
HETATM   28  O   UNL     1      -8.742  16.237  65.438  1.00  0.00     0.011 OA 
BRANCH  27  29
HETATM   29  C   UNL     1     -11.032  16.682  65.845  1.00  0.00     0.060 C  
BRANCH  29  30
HETATM   30  O   UNL     1     -10.590  18.049  66.027  1.00  0.00    -0.377 OA 
BRANCH  30  31
HETATM   31  C   UNL     1     -10.658  18.509  67.304  1.00  0.00    -0.413 C  
HETATM   32  O   UNL     1     -10.900  19.659  67.620  1.00  0.00    -0.429 OA 
BRANCH  31  33
HETATM   33  C   UNL     1     -10.361  17.445  68.313  1.00  0.00    -0.374 A  
HETATM   34  C   UNL     1      -9.662  15.456  70.184  1.00  0.00     0.091 A  
HETATM   35  O   UNL     1     -12.118  13.566  70.673  1.00  0.00    -0.344 OA 
HETATM   36  C   UNL     1      -8.669  16.091  69.449  1.00  0.00    -0.153 A  
HETATM   37  C   UNL     1      -9.014  17.082  68.520  1.00  0.00    -0.263 A  
HETATM   38  O   UNL     1     -11.781  15.247  72.473  1.00  0.00    -0.426 OA 
HETATM   39  O   UNL     1     -13.469  15.700  70.786  1.00  0.00    -0.536 OA 
HETATM   40  C   UNL     1     -11.364  16.805  69.059  1.00  0.00     0.031 A  
HETATM   41  S   UNL     1     -12.233  14.983  70.949  1.00  0.00    -0.364 S  
HETATM   42  C   UNL     1     -10.988  15.809  69.982  1.00  0.00    -0.338 A  
ENDBRANCH  31  33
ENDBRANCH  30  31
ENDBRANCH  29  30
ENDBRANCH  27  29
ENDBRANCH   4  27
TORSDOF 5
ENDMDL
MODEL      161
REMARK 921   NORMALIZED FREE ENERGY PREDICTED BY IDOCK:   -3.97 KCAL/MOL
REMARK 922        TOTAL FREE ENERGY PREDICTED BY IDOCK:   -5.84 KCAL/MOL
REMARK 923 INTER-LIGAND FREE ENERGY PREDICTED BY IDOCK:   -7.27 KCAL/MOL
REMARK 924 INTRA-LIGAND FREE ENERGY PREDICTED BY IDOCK:    1.42 KCAL/MOL
REMARK 927      BINDING AFFINITY PREDICTED BY RF-SCORE:    0.00 PKD
ROOT
HETATM    1  C   UNL     1      -7.224  12.064  67.753  1.00  0.00    -0.108 C  
HETATM    2  C   UNL     1      -7.706  12.039  69.073  1.00  0.00     0.096 C  
HETATM    3  C   UNL     1      -8.602  11.351  68.080  1.00  0.00    -0.153 C  
HETATM    4  C   UNL     1      -7.823  10.988  66.191  1.00  0.00    -0.117 C  
HETATM    5  C   UNL     1      -9.597  10.533  69.187  1.00  0.00    -0.214 C  
HETATM    6  O   UNL     1      -6.393  11.239  65.944  1.00  0.00    -0.362 OA 
HETATM    7  C   UNL     1     -10.223  17.097  67.627  1.00  0.00    -0.329 C  
HETATM    8  C   UNL     1      -8.022  10.317  67.349  1.00  0.00    -0.107 C  
HETATM    9  C   UNL     1     -10.443  17.789  66.307  1.00  0.00    -0.307 C  
HETATM   10  C   UNL     1      -9.581  15.951  67.329  1.00  0.00    -0.220 C  
HETATM   11  C   UNL     1      -7.254   9.112  67.909  1.00  0.00    -0.080 C  
HETATM   12  H   UNL     1      -6.037  11.073  65.079  1.00  0.00     0.000 HD 
HETATM   13  C   UNL     1      -9.773  10.467  66.525  1.00  0.00    -0.241 C  
HETATM   14  C   UNL     1     -10.125  12.123  65.953  1.00  0.00    -0.245 C  
HETATM   15  C   UNL     1      -8.090  16.005  67.058  1.00  0.00    -0.257 C  
HETATM   16  C   UNL     1      -9.574  13.517  66.790  1.00  0.00    -0.267 C  
HETATM   17  C   UNL     1     -11.794  14.635  67.160  1.00  0.00    -0.367 C  
HETATM   18  O   UNL     1      -9.679  12.145  64.579  1.00  0.00    -0.445 OA 
HETATM   19  F   UNL     1      -9.975  13.462  68.152  1.00  0.00    -0.209 F  
HETATM   20  C   UNL     1      -7.935  13.480  66.903  1.00  0.00     0.171 C  
HETATM   21  C   UNL     1     -10.356  14.873  66.526  1.00  0.00    -0.295 C  
HETATM   22  C   UNL     1     -10.670  15.545  65.195  1.00  0.00    -0.460 C  
HETATM   23  H   UNL     1      -9.866  13.025  64.275  1.00  0.00     0.000 HD 
HETATM   24  O   UNL     1     -10.396  19.007  66.216  1.00  0.00    -0.405 OA 
HETATM   25  C   UNL     1      -7.407  14.755  67.588  1.00  0.00    -0.206 C  
HETATM   26  C   UNL     1     -10.757  16.899  65.124  1.00  0.00    -0.118 C  
ENDROOT
BRANCH   4  27
HETATM   27  C   UNL     1      -7.731   9.566  65.207  1.00  0.00    -0.111 C  
HETATM   28  O   UNL     1      -6.724   9.183  64.586  1.00  0.00    -0.080 OA 
BRANCH  27  29
HETATM   29  C   UNL     1      -8.963   8.627  65.123  1.00  0.00    -0.058 C  
BRANCH  29  30
HETATM   30  O   UNL     1      -8.779   7.395  65.861  1.00  0.00    -0.154 OA 
BRANCH  30  31
HETATM   31  C   UNL     1      -9.733   7.137  66.793  1.00  0.00    -0.192 C  
HETATM   32  O   UNL     1     -10.774   7.756  66.917  1.00  0.00    -0.345 OA 
BRANCH  31  33
HETATM   33  C   UNL     1      -9.356   6.011  67.703  1.00  0.00    -0.112 A  
HETATM   34  C   UNL     1      -8.763   3.919  69.496  1.00  0.00    -0.127 A  
HETATM   35  O   UNL     1      -5.692   3.285  69.391  1.00  0.00    -0.020 OA 
HETATM   36  C   UNL     1      -9.898   4.695  69.693  1.00  0.00    -0.293 A  
HETATM   37  C   UNL     1     -10.196   5.734  68.801  1.00  0.00    -0.255 A  
HETATM   38  O   UNL     1      -7.087   1.671  68.114  1.00  0.00    -0.038 OA 
HETATM   39  O   UNL     1      -5.962   3.436  66.882  1.00  0.00    -0.023 OA 
HETATM   40  C   UNL     1      -8.210   5.223  67.502  1.00  0.00    -0.100 A  
HETATM   41  S   UNL     1      -6.494   3.167  68.191  1.00  0.00    -0.037 S  
HETATM   42  C   UNL     1      -7.934   4.189  68.418  1.00  0.00    -0.073 A  
ENDBRANCH  31  33
ENDBRANCH  30  31
ENDBRANCH  29  30
ENDBRANCH  27  29
ENDBRANCH   4  27
TORSDOF 5
ENDMDL
MODEL      162
REMARK 921   NORMALIZED FREE ENERGY PREDICTED BY IDOCK:   -3.90 KCAL/MOL
REMARK 922        TOTAL FREE ENERGY PREDICTED BY IDOCK:   -5.75 KCAL/MOL
REMARK 923 INTER-LIGAND FREE ENERGY PREDICTED BY IDOCK:   -6.29 KCAL/MOL
REMARK 924 INTRA-LIGAND FREE ENERGY PREDICTED BY IDOCK:    0.54 KCAL/MOL
REMARK 927      BINDING AFFINITY PREDICTED BY RF-SCORE:    0.00 PKD
ROOT
HETATM    1  C   UNL     1     -10.867  11.149  68.991  1.00  0.00    -0.276 C  
HETATM    2  C   UNL     1     -11.858  11.049  67.999  1.00  0.00    -0.152 C  
HETATM    3  C   UNL     1     -10.457  10.855  67.488  1.00  0.00    -0.252 C  
HETATM    4  C   UNL     1      -8.958  10.597  68.899  1.00  0.00    -0.168 C  
HETATM    5  C   UNL     1     -10.848  10.212  65.965  1.00  0.00     0.150 C  
HETATM    6  O   UNL     1      -9.327  10.428  70.315  1.00  0.00    -0.286 OA 
HETATM    7  C   UNL     1     -11.096  16.809  67.491  1.00  0.00    -0.035 C  
HETATM    8  C   UNL     1      -9.725   9.833  68.086  1.00  0.00    -0.163 C  
HETATM    9  C   UNL     1     -10.039  17.750  68.010  1.00  0.00    -0.355 C  
HETATM   10  C   UNL     1     -10.738  15.589  67.936  1.00  0.00    -0.294 C  
HETATM   11  C   UNL     1     -10.159   8.372  68.264  1.00  0.00    -0.232 C  
HETATM   12  H   UNL     1      -8.641  10.310  70.961  1.00  0.00     0.000 HD 
HETATM   13  C   UNL     1      -8.402  10.660  66.932  1.00  0.00    -0.125 C  
HETATM   14  C   UNL     1      -8.235  12.416  67.223  1.00  0.00    -0.184 C  
HETATM   15  C   UNL     1     -11.053  15.221  69.373  1.00  0.00    -0.283 C  
HETATM   16  C   UNL     1      -9.573  13.404  67.649  1.00  0.00    -0.219 C  
HETATM   17  C   UNL     1      -9.414  15.077  65.781  1.00  0.00    -0.260 C  
HETATM   18  O   UNL     1      -7.182  12.533  68.206  1.00  0.00    -0.093 OA 
HETATM   19  F   UNL     1     -10.622  13.245  66.704  1.00  0.00    -0.271 F  
HETATM   20  C   UNL     1     -10.256  12.839  69.033  1.00  0.00     0.104 C  
HETATM   21  C   UNL     1      -9.440  14.960  67.366  1.00  0.00    -0.206 C  
HETATM   22  C   UNL     1      -8.334  15.914  67.803  1.00  0.00    -0.159 C  
HETATM   23  H   UNL     1      -7.094  13.465  68.360  1.00  0.00     0.000 HD 
HETATM   24  O   UNL     1     -10.321  18.890  68.351  1.00  0.00    -0.365 OA 
HETATM   25  C   UNL     1     -11.417  13.749  69.479  1.00  0.00    -0.327 C  
HETATM   26  C   UNL     1      -8.623  17.218  68.047  1.00  0.00    -0.234 C  
ENDROOT
BRANCH   4  27
HETATM   27  C   UNL     1      -7.715   9.408  69.095  1.00  0.00    -0.079 C  
HETATM   28  O   UNL     1      -7.443   8.815  70.154  1.00  0.00    -0.050 OA 
BRANCH  27  29
HETATM   29  C   UNL     1      -6.896   8.964  67.855  1.00  0.00    -0.070 C  
BRANCH  29  30
HETATM   30  O   UNL     1      -6.953   7.534  67.627  1.00  0.00    -0.075 OA 
BRANCH  30  31
HETATM   31  C   UNL     1      -6.953   7.161  66.322  1.00  0.00    -0.065 C  
HETATM   32  O   UNL     1      -6.461   7.803  65.411  1.00  0.00    -0.041 OA 
BRANCH  31  33
HETATM   33  C   UNL     1      -7.668   5.867  66.095  1.00  0.00    -0.102 A  
HETATM   34  C   UNL     1      -8.991   3.395  65.805  1.00  0.00    -0.143 A  
HETATM   35  O   UNL     1      -8.994   2.555  62.782  1.00  0.00    -0.087 OA 
HETATM   36  C   UNL     1      -8.437   3.741  67.031  1.00  0.00    -0.104 A  
HETATM   37  C   UNL     1      -7.781   4.971  67.178  1.00  0.00    -0.092 A  
HETATM   38  O   UNL     1     -11.154   3.514  63.552  1.00  0.00    -0.237 OA 
HETATM   39  O   UNL     1      -9.630   4.960  62.332  1.00  0.00    -0.053 OA 
HETATM   40  C   UNL     1      -8.232   5.518  64.857  1.00  0.00    -0.136 A  
HETATM   41  S   UNL     1      -9.612   3.801  63.185  1.00  0.00    -0.137 S  
HETATM   42  C   UNL     1      -8.881   4.273  64.737  1.00  0.00    -0.140 A  
ENDBRANCH  31  33
ENDBRANCH  30  31
ENDBRANCH  29  30
ENDBRANCH  27  29
ENDBRANCH   4  27
TORSDOF 5
ENDMDL
MODEL      163
REMARK 921   NORMALIZED FREE ENERGY PREDICTED BY IDOCK:   -3.89 KCAL/MOL
REMARK 922        TOTAL FREE ENERGY PREDICTED BY IDOCK:   -5.74 KCAL/MOL
REMARK 923 INTER-LIGAND FREE ENERGY PREDICTED BY IDOCK:   -5.79 KCAL/MOL
REMARK 924 INTRA-LIGAND FREE ENERGY PREDICTED BY IDOCK:    0.05 KCAL/MOL
REMARK 927      BINDING AFFINITY PREDICTED BY RF-SCORE:    0.00 PKD
ROOT
HETATM    1  C   UNL     1      -7.154  12.181  67.936  1.00  0.00    -0.101 C  
HETATM    2  C   UNL     1      -7.837  12.308  69.158  1.00  0.00     0.318 C  
HETATM    3  C   UNL     1      -8.124  11.026  68.428  1.00  0.00    -0.134 C  
HETATM    4  C   UNL     1      -6.898  10.553  66.822  1.00  0.00    -0.103 C  
HETATM    5  C   UNL     1      -8.872  10.189  69.703  1.00  0.00    -0.184 C  
HETATM    6  O   UNL     1      -5.699  11.370  66.568  1.00  0.00    -0.132 OA 
HETATM    7  C   UNL     1     -11.936  14.906  65.925  1.00  0.00    -0.054 C  
HETATM    8  C   UNL     1      -7.019  10.232  68.131  1.00  0.00    -0.074 C  
HETATM    9  C   UNL     1     -12.158  14.999  64.437  1.00  0.00    -0.359 C  
HETATM   10  C   UNL     1     -10.816  14.172  66.074  1.00  0.00    -0.297 C  
HETATM   11  C   UNL     1      -5.938   9.755  69.110  1.00  0.00    -0.034 C  
HETATM   12  H   UNL     1      -5.138  11.154  65.833  1.00  0.00     0.000 HD 
HETATM   13  C   UNL     1      -8.454   9.289  67.226  1.00  0.00    -0.125 C  
HETATM   14  C   UNL     1      -9.361  10.335  66.096  1.00  0.00    -0.170 C  
HETATM   15  C   UNL     1      -9.474  14.849  65.871  1.00  0.00    -0.290 C  
HETATM   16  C   UNL     1      -9.650  11.996  66.419  1.00  0.00    -0.228 C  
HETATM   17  C   UNL     1     -12.158  11.977  66.273  1.00  0.00     0.103 C  
HETATM   18  O   UNL     1      -8.698  10.172  64.823  1.00  0.00    -0.161 OA 
HETATM   19  F   UNL     1     -10.257  12.150  67.695  1.00  0.00    -0.190 F  
HETATM   20  C   UNL     1      -8.217  12.777  66.614  1.00  0.00     0.166 C  
HETATM   21  C   UNL     1     -10.868  12.678  65.663  1.00  0.00    -0.305 C  
HETATM   22  C   UNL     1     -11.162  12.706  64.168  1.00  0.00    -0.437 C  
HETATM   23  H   UNL     1      -9.180  10.728  64.223  1.00  0.00     0.000 HD 
HETATM   24  O   UNL     1     -12.624  16.009  63.929  1.00  0.00    -0.706 OA 
HETATM   25  C   UNL     1      -8.443  14.285  66.835  1.00  0.00    -0.133 C  
HETATM   26  C   UNL     1     -11.808  13.770  63.625  1.00  0.00    -0.215 C  
ENDROOT
BRANCH   4  27
HETATM   27  C   UNL     1      -6.002   9.132  66.400  1.00  0.00    -0.059 C  
HETATM   28  O   UNL     1      -5.398   8.396  67.200  1.00  0.00    -0.035 OA 
BRANCH  27  29
HETATM   29  C   UNL     1      -5.985   8.663  64.922  1.00  0.00    -0.059 C  
BRANCH  29  30
HETATM   30  O   UNL     1      -6.348   7.269  64.772  1.00  0.00    -0.037 OA 
BRANCH  30  31
HETATM   31  C   UNL     1      -7.622   7.049  64.356  1.00  0.00    -0.108 C  
HETATM   32  O   UNL     1      -8.157   7.609  63.417  1.00  0.00    -0.125 OA 
BRANCH  31  33
HETATM   33  C   UNL     1      -8.339   6.052  65.210  1.00  0.00    -0.148 A  
HETATM   34  C   UNL     1      -9.713   4.094  66.701  1.00  0.00    -0.233 A  
HETATM   35  O   UNL     1     -10.833   5.377  69.336  1.00  0.00    -0.252 OA 
HETATM   36  C   UNL     1      -9.554   3.932  65.331  1.00  0.00    -0.185 A  
HETATM   37  C   UNL     1      -8.868   4.903  64.588  1.00  0.00    -0.139 A  
HETATM   38  O   UNL     1      -8.760   4.048  69.677  1.00  0.00    -0.073 OA 
HETATM   39  O   UNL     1      -8.558   6.464  69.524  1.00  0.00    -0.131 OA 
HETATM   40  C   UNL     1      -8.497   6.214  66.596  1.00  0.00    -0.116 A  
HETATM   41  S   UNL     1      -9.409   5.394  69.075  1.00  0.00    -0.134 S  
HETATM   42  C   UNL     1      -9.195   5.224  67.316  1.00  0.00    -0.113 A  
ENDBRANCH  31  33
ENDBRANCH  30  31
ENDBRANCH  29  30
ENDBRANCH  27  29
ENDBRANCH   4  27
TORSDOF 5
ENDMDL
MODEL      164
REMARK 921   NORMALIZED FREE ENERGY PREDICTED BY IDOCK:   -3.86 KCAL/MOL
REMARK 922        TOTAL FREE ENERGY PREDICTED BY IDOCK:   -5.70 KCAL/MOL
REMARK 923 INTER-LIGAND FREE ENERGY PREDICTED BY IDOCK:   -5.33 KCAL/MOL
REMARK 924 INTRA-LIGAND FREE ENERGY PREDICTED BY IDOCK:   -0.37 KCAL/MOL
REMARK 927      BINDING AFFINITY PREDICTED BY RF-SCORE:    0.00 PKD
ROOT
HETATM    1  C   UNL     1     -10.802   8.590  68.773  1.00  0.00     0.004 C  
HETATM    2  C   UNL     1     -10.687   8.135  67.448  1.00  0.00    -0.247 C  
HETATM    3  C   UNL     1      -9.439   7.953  68.267  1.00  0.00    -0.149 C  
HETATM    4  C   UNL     1      -9.603   8.226  70.318  1.00  0.00    -0.168 C  
HETATM    5  C   UNL     1      -8.619   6.897  67.221  1.00  0.00    -0.120 C  
HETATM    6  O   UNL     1     -10.938   8.399  70.915  1.00  0.00    -0.232 OA 
HETATM    7  C   UNL     1      -8.995  13.604  66.338  1.00  0.00     0.009 C  
HETATM    8  C   UNL     1      -9.578   7.203  69.432  1.00  0.00    -0.153 C  
HETATM    9  C   UNL     1      -8.588  14.750  67.230  1.00  0.00    -0.212 C  
HETATM   10  C   UNL     1      -9.282  12.586  67.172  1.00  0.00    -0.205 C  
HETATM   11  C   UNL     1     -10.197   5.804  69.558  1.00  0.00    -0.306 C  
HETATM   12  H   UNL     1     -11.013   8.524  71.853  1.00  0.00     0.000 HD 
HETATM   13  C   UNL     1      -7.745   7.825  69.564  1.00  0.00    -0.105 C  
HETATM   14  C   UNL     1      -7.609   9.603  69.440  1.00  0.00    -0.097 C  
HETATM   15  C   UNL     1     -10.628  12.580  67.871  1.00  0.00    -0.233 C  
HETATM   16  C   UNL     1      -8.639  10.530  68.426  1.00  0.00    -0.132 C  
HETATM   17  C   UNL     1      -6.878  11.660  67.036  1.00  0.00    -0.144 C  
HETATM   18  O   UNL     1      -7.675  10.078  70.803  1.00  0.00    -0.402 OA 
HETATM   19  F   UNL     1      -8.606  10.024  67.098  1.00  0.00    -0.125 F  
HETATM   20  C   UNL     1     -10.206  10.284  68.858  1.00  0.00    -0.220 C  
HETATM   21  C   UNL     1      -8.117  11.963  67.984  1.00  0.00    -0.151 C  
HETATM   22  C   UNL     1      -7.614  13.102  68.861  1.00  0.00     0.040 C  
HETATM   23  H   UNL     1      -7.604  11.023  70.737  1.00  0.00     0.000 HD 
HETATM   24  O   UNL     1      -8.863  15.905  66.940  1.00  0.00    -0.201 OA 
HETATM   25  C   UNL     1     -11.149  11.159  68.010  1.00  0.00    -0.334 C  
HETATM   26  C   UNL     1      -7.796  14.390  68.469  1.00  0.00    -0.138 C  
ENDROOT
BRANCH   4  27
HETATM   27  C   UNL     1      -9.136   7.260  71.677  1.00  0.00    -0.135 C  
HETATM   28  O   UNL     1      -9.907   6.590  72.386  1.00  0.00    -0.160 OA 
BRANCH  27  29
HETATM   29  C   UNL     1      -7.630   7.135  72.030  1.00  0.00    -0.090 C  
BRANCH  29  30
HETATM   30  O   UNL     1      -7.258   5.795  72.435  1.00  0.00    -0.086 OA 
BRANCH  30  31
HETATM   31  C   UNL     1      -6.464   5.130  71.556  1.00  0.00    -0.032 C  
HETATM   32  O   UNL     1      -5.265   5.302  71.431  1.00  0.00    -0.004 OA 
BRANCH  31  33
HETATM   33  C   UNL     1      -7.229   4.167  70.706  1.00  0.00    -0.037 A  
HETATM   34  C   UNL     1      -8.745   2.312  69.220  1.00  0.00    -0.130 A  
HETATM   35  O   UNL     1      -7.171   1.508  66.628  1.00  0.00    -0.048 OA 
HETATM   36  C   UNL     1      -8.968   2.450  70.584  1.00  0.00    -0.160 A  
HETATM   37  C   UNL     1      -8.218   3.374  71.324  1.00  0.00    -0.074 A  
HETATM   38  O   UNL     1      -8.977   3.167  66.223  1.00  0.00    -0.136 OA 
HETATM   39  O   UNL     1      -6.695   3.980  66.404  1.00  0.00    -0.050 OA 
HETATM   40  C   UNL     1      -7.007   4.030  69.326  1.00  0.00    -0.046 A  
HETATM   41  S   UNL     1      -7.522   2.894  66.857  1.00  0.00    -0.071 S  
HETATM   42  C   UNL     1      -7.773   3.089  68.609  1.00  0.00    -0.051 A  
ENDBRANCH  31  33
ENDBRANCH  30  31
ENDBRANCH  29  30
ENDBRANCH  27  29
ENDBRANCH   4  27
TORSDOF 5
ENDMDL
MODEL      165
REMARK 921   NORMALIZED FREE ENERGY PREDICTED BY IDOCK:   -3.81 KCAL/MOL
REMARK 922        TOTAL FREE ENERGY PREDICTED BY IDOCK:   -5.63 KCAL/MOL
REMARK 923 INTER-LIGAND FREE ENERGY PREDICTED BY IDOCK:   -5.95 KCAL/MOL
REMARK 924 INTRA-LIGAND FREE ENERGY PREDICTED BY IDOCK:    0.32 KCAL/MOL
REMARK 927      BINDING AFFINITY PREDICTED BY RF-SCORE:    0.00 PKD
ROOT
HETATM    1  C   UNL     1     -10.356   7.686  68.874  1.00  0.00    -0.222 C  
HETATM    2  C   UNL     1     -10.922   6.846  69.849  1.00  0.00    -0.318 C  
HETATM    3  C   UNL     1      -9.492   7.221  70.120  1.00  0.00    -0.165 C  
HETATM    4  C   UNL     1      -8.677   8.747  68.974  1.00  0.00    -0.133 C  
HETATM    5  C   UNL     1      -9.417   6.714  71.739  1.00  0.00    -0.151 C  
HETATM    6  O   UNL     1      -9.555   9.523  68.083  1.00  0.00    -0.137 OA 
HETATM    7  C   UNL     1      -8.998   2.543  66.416  1.00  0.00    -0.127 C  
HETATM    8  C   UNL     1      -9.223   8.585  70.202  1.00  0.00    -0.159 C  
HETATM    9  C   UNL     1      -8.049   2.515  65.245  1.00  0.00    -0.083 C  
HETATM   10  C   UNL     1      -9.053   3.832  66.802  1.00  0.00    -0.171 C  
HETATM   11  C   UNL     1      -9.949   9.616  71.077  1.00  0.00    -0.151 C  
HETATM   12  H   UNL     1      -9.182  10.221  67.558  1.00  0.00     0.000 HD 
HETATM   13  C   UNL     1      -7.447   7.812  70.314  1.00  0.00    -0.079 C  
HETATM   14  C   UNL     1      -7.080   6.723  68.944  1.00  0.00    -0.089 C  
HETATM   15  C   UNL     1      -9.926   4.789  66.013  1.00  0.00    -0.255 C  
HETATM   16  C   UNL     1      -8.279   5.732  68.219  1.00  0.00    -0.108 C  
HETATM   17  C   UNL     1      -7.157   3.504  68.521  1.00  0.00    -0.050 C  
HETATM   18  O   UNL     1      -6.451   7.568  67.955  1.00  0.00    -0.046 OA 
HETATM   19  F   UNL     1      -8.927   4.941  69.206  1.00  0.00    -0.095 F  
HETATM   20  C   UNL     1      -9.506   6.671  67.658  1.00  0.00    -0.129 C  
HETATM   21  C   UNL     1      -7.773   4.461  67.412  1.00  0.00    -0.085 C  
HETATM   22  C   UNL     1      -6.747   4.397  66.288  1.00  0.00    -0.046 C  
HETATM   23  H   UNL     1      -6.257   6.989  67.228  1.00  0.00     0.000 HD 
HETATM   24  O   UNL     1      -8.222   1.751  64.308  1.00  0.00    -0.072 OA 
HETATM   25  C   UNL     1     -10.564   5.813  66.937  1.00  0.00    -0.377 C  
HETATM   26  C   UNL     1      -6.862   3.453  65.319  1.00  0.00    -0.052 C  
ENDROOT
BRANCH   4  27
HETATM   27  C   UNL     1      -7.825  10.200  69.378  1.00  0.00    -0.150 C  
HETATM   28  O   UNL     1      -7.007  10.322  70.307  1.00  0.00    -0.149 OA 
BRANCH  27  29
HETATM   29  C   UNL     1      -8.015  11.456  68.488  1.00  0.00    -0.143 C  
BRANCH  29  30
HETATM   30  O   UNL     1      -7.909  12.693  69.235  1.00  0.00     0.280 OA 
BRANCH  30  31
HETATM   31  C   UNL     1      -6.817  13.445  68.946  1.00  0.00    -0.111 C  
HETATM   32  O   UNL     1      -5.693  13.235  69.364  1.00  0.00    -0.079 OA 
BRANCH  31  33
HETATM   33  C   UNL     1      -7.141  14.614  68.070  1.00  0.00    -0.146 A  
HETATM   34  C   UNL     1      -7.612  16.848  66.417  1.00  0.00    -0.339 A  
HETATM   35  O   UNL     1     -10.593  17.775  66.730  1.00  0.00    -0.318 OA 
HETATM   36  C   UNL     1      -6.319  16.556  66.830  1.00  0.00    -0.091 A  
HETATM   37  C   UNL     1      -6.082  15.444  67.649  1.00  0.00    -0.151 A  
HETATM   38  O   UNL     1     -10.172  16.454  64.667  1.00  0.00    -0.175 OA 
HETATM   39  O   UNL     1     -11.154  15.314  66.574  1.00  0.00    -0.325 OA 
HETATM   40  C   UNL     1      -8.449  14.907  67.649  1.00  0.00    -0.176 A  
HETATM   41  S   UNL     1     -10.300  16.433  66.272  1.00  0.00    -0.319 S  
HETATM   42  C   UNL     1      -8.657  16.035  66.829  1.00  0.00    -0.257 A  
ENDBRANCH  31  33
ENDBRANCH  30  31
ENDBRANCH  29  30
ENDBRANCH  27  29
ENDBRANCH   4  27
TORSDOF 5
ENDMDL
MODEL      166
REMARK 921   NORMALIZED FREE ENERGY PREDICTED BY IDOCK:   -3.80 KCAL/MOL
REMARK 922        TOTAL FREE ENERGY PREDICTED BY IDOCK:   -5.62 KCAL/MOL
REMARK 923 INTER-LIGAND FREE ENERGY PREDICTED BY IDOCK:   -6.32 KCAL/MOL
REMARK 924 INTRA-LIGAND FREE ENERGY PREDICTED BY IDOCK:    0.70 KCAL/MOL
REMARK 927      BINDING AFFINITY PREDICTED BY RF-SCORE:    0.00 PKD
ROOT
HETATM    1  C   UNL     1     -10.639   8.546  67.245  1.00  0.00    -0.315 C  
HETATM    2  C   UNL     1     -11.078   8.314  68.561  1.00  0.00     0.328 C  
HETATM    3  C   UNL     1      -9.854   9.183  68.467  1.00  0.00    -0.178 C  
HETATM    4  C   UNL     1      -9.344   9.907  66.590  1.00  0.00    -0.157 C  
HETATM    5  C   UNL     1      -9.858   9.770  70.061  1.00  0.00    -0.295 C  
HETATM    6  O   UNL     1     -10.276   9.708  65.467  1.00  0.00    -0.291 OA 
HETATM    7  C   UNL     1      -7.608   3.637  68.266  1.00  0.00    -0.061 C  
HETATM    8  C   UNL     1      -9.983  10.340  67.702  1.00  0.00    -0.212 C  
HETATM    9  C   UNL     1      -6.541   3.215  67.288  1.00  0.00    -0.037 C  
HETATM   10  C   UNL     1      -8.065   4.819  67.809  1.00  0.00    -0.093 C  
HETATM   11  C   UNL     1     -11.074  11.411  67.831  1.00  0.00    -0.320 C  
HETATM   12  H   UNL     1     -10.042  10.039  64.608  1.00  0.00     0.000 HD 
HETATM   13  C   UNL     1      -8.094  10.354  68.146  1.00  0.00    -0.111 C  
HETATM   14  C   UNL     1      -7.265   8.841  67.678  1.00  0.00    -0.080 C  
HETATM   15  C   UNL     1      -9.055   4.817  66.659  1.00  0.00    -0.117 C  
HETATM   16  C   UNL     1      -8.038   7.310  67.762  1.00  0.00    -0.115 C  
HETATM   17  C   UNL     1      -6.398   6.143  69.265  1.00  0.00    -0.041 C  
HETATM   18  O   UNL     1      -6.766   9.087  66.344  1.00  0.00    -0.072 OA 
HETATM   19  F   UNL     1      -8.569   7.099  69.063  1.00  0.00    -0.126 F  
HETATM   20  C   UNL     1      -9.390   7.324  66.827  1.00  0.00    -0.203 C  
HETATM   21  C   UNL     1      -7.100   6.032  67.844  1.00  0.00    -0.074 C  
HETATM   22  C   UNL     1      -5.956   5.633  66.921  1.00  0.00    -0.018 C  
HETATM   23  H   UNL     1      -6.325   8.283  66.096  1.00  0.00     0.000 HD 
HETATM   24  O   UNL     1      -6.372   2.038  67.005  1.00  0.00    -0.026 OA 
HETATM   25  C   UNL     1     -10.066   5.939  66.826  1.00  0.00    -0.235 C  
HETATM   26  C   UNL     1      -5.678   4.319  66.716  1.00  0.00    -0.022 C  
ENDROOT
BRANCH   4  27
HETATM   27  C   UNL     1      -8.986  11.493  65.995  1.00  0.00    -0.176 C  
HETATM   28  O   UNL     1      -9.294  11.929  64.872  1.00  0.00    -0.055 OA 
BRANCH  27  29
HETATM   29  C   UNL     1      -8.287  12.510  66.936  1.00  0.00    -0.096 C  
BRANCH  29  30
HETATM   30  O   UNL     1      -8.538  13.886  66.559  1.00  0.00    -0.024 OA 
BRANCH  30  31
HETATM   31  C   UNL     1      -7.933  14.814  67.344  1.00  0.00    -0.197 C  
HETATM   32  O   UNL     1      -6.729  14.960  67.453  1.00  0.00    -0.236 OA 
BRANCH  31  33
HETATM   33  C   UNL     1      -8.914  15.641  68.114  1.00  0.00    -0.179 A  
HETATM   34  C   UNL     1     -10.716  17.314  69.491  1.00  0.00     0.095 A  
HETATM   35  O   UNL     1     -11.493  15.992  72.228  1.00  0.00    -0.380 OA 
HETATM   36  C   UNL     1      -9.869  17.854  68.531  1.00  0.00    -0.367 A  
HETATM   37  C   UNL     1      -8.974  17.024  67.843  1.00  0.00    -0.228 A  
HETATM   38  O   UNL     1     -13.227  15.729  70.467  1.00  0.00    -0.449 OA 
HETATM   39  O   UNL     1     -11.733  13.860  70.889  1.00  0.00    -0.211 OA 
HETATM   40  C   UNL     1      -9.773  15.095  69.081  1.00  0.00    -0.232 A  
HETATM   41  S   UNL     1     -11.766  15.296  70.988  1.00  0.00    -0.387 S  
HETATM   42  C   UNL     1     -10.659  15.955  69.760  1.00  0.00    -0.322 A  
ENDBRANCH  31  33
ENDBRANCH  30  31
ENDBRANCH  29  30
ENDBRANCH  27  29
ENDBRANCH   4  27
TORSDOF 5
ENDMDL
MODEL      167
REMARK 921   NORMALIZED FREE ENERGY PREDICTED BY IDOCK:   -3.79 KCAL/MOL
REMARK 922        TOTAL FREE ENERGY PREDICTED BY IDOCK:   -5.61 KCAL/MOL
REMARK 923 INTER-LIGAND FREE ENERGY PREDICTED BY IDOCK:   -6.05 KCAL/MOL
REMARK 924 INTRA-LIGAND FREE ENERGY PREDICTED BY IDOCK:    0.45 KCAL/MOL
REMARK 927      BINDING AFFINITY PREDICTED BY RF-SCORE:    0.00 PKD
ROOT
HETATM    1  C   UNL     1     -11.320  13.054  68.217  1.00  0.00    -0.323 C  
HETATM    2  C   UNL     1     -12.475  13.370  67.482  1.00  0.00     0.164 C  
HETATM    3  C   UNL     1     -11.245  13.178  66.638  1.00  0.00    -0.335 C  
HETATM    4  C   UNL     1      -9.584  12.339  67.557  1.00  0.00    -0.184 C  
HETATM    5  C   UNL     1     -12.011  13.067  65.126  1.00  0.00    -0.440 C  
HETATM    6  O   UNL     1      -9.715  11.799  68.921  1.00  0.00    -0.387 OA 
HETATM    7  C   UNL     1     -10.825  18.891  68.380  1.00  0.00     0.222 C  
HETATM    8  C   UNL     1     -10.606  11.947  66.761  1.00  0.00    -0.264 C  
HETATM    9  C   UNL     1      -9.544  19.506  68.884  1.00  0.00    -0.395 C  
HETATM   10  C   UNL     1     -10.611  17.561  68.390  1.00  0.00    -0.339 C  
HETATM   11  C   UNL     1     -11.249  10.559  66.633  1.00  0.00     0.135 C  
HETATM   12  H   UNL     1      -8.955  11.416  69.342  1.00  0.00     0.000 HD 
HETATM   13  C   UNL     1      -9.390  12.922  65.606  1.00  0.00     0.174 C  
HETATM   14  C   UNL     1      -8.870  14.480  66.312  1.00  0.00     0.081 C  
HETATM   15  C   UNL     1     -10.720  16.820  69.709  1.00  0.00    -0.187 C  
HETATM   16  C   UNL     1      -9.916  15.443  67.275  1.00  0.00    -0.226 C  
HETATM   17  C   UNL     1      -9.808  17.567  65.938  1.00  0.00    -0.113 C  
HETATM   18  O   UNL     1      -7.653  14.176  67.030  1.00  0.00    -0.344 OA 
HETATM   19  F   UNL     1     -11.130  15.694  66.581  1.00  0.00    -0.320 F  
HETATM   20  C   UNL     1     -10.426  14.573  68.574  1.00  0.00    -0.250 C  
HETATM   21  C   UNL     1      -9.567  16.986  67.398  1.00  0.00    -0.246 C  
HETATM   22  C   UNL     1      -8.251  17.632  67.816  1.00  0.00    -0.225 C  
HETATM   23  H   UNL     1      -7.377  15.004  67.405  1.00  0.00     0.000 HD 
HETATM   24  O   UNL     1      -9.556  20.516  69.572  1.00  0.00     0.536 OA 
HETATM   25  C   UNL     1     -11.310  15.436  69.494  1.00  0.00    -0.308 C  
HETATM   26  C   UNL     1      -8.259  18.828  68.460  1.00  0.00    -0.379 C  
ENDROOT
BRANCH   4  27
HETATM   27  C   UNL     1      -8.553  11.011  67.144  1.00  0.00    -0.136 C  
HETATM   28  O   UNL     1      -7.534  11.082  66.435  1.00  0.00    -0.143 OA 
BRANCH  27  29
HETATM   29  C   UNL     1      -8.848   9.613  67.748  1.00  0.00    -0.125 C  
BRANCH  29  30
HETATM   30  O   UNL     1      -7.652   8.937  68.207  1.00  0.00    -0.090 OA 
BRANCH  30  31
HETATM   31  C   UNL     1      -7.822   8.153  69.303  1.00  0.00    -0.110 C  
HETATM   32  O   UNL     1      -7.486   8.451  70.435  1.00  0.00    -0.062 OA 
BRANCH  31  33
HETATM   33  C   UNL     1      -8.445   6.834  68.973  1.00  0.00    -0.128 A  
HETATM   34  C   UNL     1      -9.698   4.359  68.471  1.00  0.00    -0.181 A  
HETATM   35  O   UNL     1      -7.877   2.623  66.597  1.00  0.00    -0.074 OA 
HETATM   36  C   UNL     1     -10.032   5.083  69.608  1.00  0.00    -0.311 A  
HETATM   37  C   UNL     1      -9.413   6.315  69.858  1.00  0.00    -0.162 A  
HETATM   38  O   UNL     1      -9.770   3.716  65.413  1.00  0.00    -0.172 OA 
HETATM   39  O   UNL     1      -7.578   4.752  65.266  1.00  0.00    -0.079 OA 
HETATM   40  C   UNL     1      -8.110   6.103  67.821  1.00  0.00    -0.113 A  
HETATM   41  S   UNL     1      -8.350   3.915  66.146  1.00  0.00    -0.109 S  
HETATM   42  C   UNL     1      -8.746   4.865  67.599  1.00  0.00    -0.103 A  
ENDBRANCH  31  33
ENDBRANCH  30  31
ENDBRANCH  29  30
ENDBRANCH  27  29
ENDBRANCH   4  27
TORSDOF 5
ENDMDL
MODEL      168
REMARK 921   NORMALIZED FREE ENERGY PREDICTED BY IDOCK:   -3.77 KCAL/MOL
REMARK 922        TOTAL FREE ENERGY PREDICTED BY IDOCK:   -5.58 KCAL/MOL
REMARK 923 INTER-LIGAND FREE ENERGY PREDICTED BY IDOCK:   -6.59 KCAL/MOL
REMARK 924 INTRA-LIGAND FREE ENERGY PREDICTED BY IDOCK:    1.01 KCAL/MOL
REMARK 927      BINDING AFFINITY PREDICTED BY RF-SCORE:    0.00 PKD
ROOT
HETATM    1  C   UNL     1     -11.823  14.230  67.166  1.00  0.00    -0.454 C  
HETATM    2  C   UNL     1     -12.063  14.833  65.919  1.00  0.00    -0.106 C  
HETATM    3  C   UNL     1     -10.926  13.849  65.915  1.00  0.00    -0.284 C  
HETATM    4  C   UNL     1     -10.725  12.623  67.577  1.00  0.00    -0.225 C  
HETATM    5  C   UNL     1     -10.755  13.691  64.233  1.00  0.00    -0.280 C  
HETATM    6  O   UNL     1     -11.784  12.622  68.601  1.00  0.00    -0.289 OA 
HETATM    7  C   UNL     1      -8.352  18.903  67.834  1.00  0.00    -0.310 C  
HETATM    8  C   UNL     1     -11.236  12.555  66.326  1.00  0.00    -0.359 C  
HETATM    9  C   UNL     1      -7.400  18.951  69.002  1.00  0.00    -0.283 C  
HETATM   10  C   UNL     1      -8.946  17.696  67.906  1.00  0.00    -0.250 C  
HETATM   11  C   UNL     1     -12.370  11.668  65.795  1.00  0.00     1.295 C  
HETATM   12  H   UNL     1     -11.692  12.061  69.362  1.00  0.00     0.000 HD 
HETATM   13  C   UNL     1      -9.310  12.462  66.109  1.00  0.00    -0.155 C  
HETATM   14  C   UNL     1      -8.449  13.714  67.053  1.00  0.00    -0.125 C  
HETATM   15  C   UNL     1     -10.080  17.505  68.896  1.00  0.00    -0.346 C  
HETATM   16  C   UNL     1      -9.097  15.285  67.292  1.00  0.00    -0.198 C  
HETATM   17  C   UNL     1      -7.193  16.624  66.347  1.00  0.00    -0.168 C  
HETATM   18  O   UNL     1      -8.153  13.086  68.320  1.00  0.00    -0.143 OA 
HETATM   19  F   UNL     1      -9.432  15.874  66.043  1.00  0.00    -0.283 F  
HETATM   20  C   UNL     1     -10.561  15.172  68.032  1.00  0.00    -0.258 C  
HETATM   21  C   UNL     1      -8.072  16.440  67.658  1.00  0.00    -0.170 C  
HETATM   22  C   UNL     1      -7.037  16.473  68.777  1.00  0.00    -0.189 C  
HETATM   23  H   UNL     1      -7.696  13.751  68.821  1.00  0.00     0.000 HD 
HETATM   24  O   UNL     1      -7.190  19.993  69.604  1.00  0.00    -0.201 OA 
HETATM   25  C   UNL     1     -11.134  16.572  68.325  1.00  0.00    -0.321 C  
HETATM   26  C   UNL     1      -6.700  17.655  69.353  1.00  0.00    -0.176 C  
ENDROOT
BRANCH   4  27
HETATM   27  C   UNL     1     -10.560  10.909  67.766  1.00  0.00    -0.217 C  
HETATM   28  O   UNL     1     -11.408  10.154  68.272  1.00  0.00    -0.232 OA 
BRANCH  27  29
HETATM   29  C   UNL     1      -9.294  10.209  67.205  1.00  0.00    -0.152 C  
BRANCH  29  30
HETATM   30  O   UNL     1      -9.354   8.767  67.323  1.00  0.00    -0.142 OA 
BRANCH  30  31
HETATM   31  C   UNL     1      -8.555   8.087  66.460  1.00  0.00    -0.140 C  
HETATM   32  O   UNL     1      -7.705   8.593  65.750  1.00  0.00    -0.087 OA 
BRANCH  31  33
HETATM   33  C   UNL     1      -8.853   6.622  66.435  1.00  0.00    -0.151 A  
HETATM   34  C   UNL     1      -9.449   3.868  66.526  1.00  0.00    -0.211 A  
HETATM   35  O   UNL     1      -7.947   2.392  64.201  1.00  0.00    -0.075 OA 
HETATM   36  C   UNL     1      -9.575   4.640  67.674  1.00  0.00    -0.200 A  
HETATM   37  C   UNL     1      -9.282   6.010  67.631  1.00  0.00    -0.107 A  
HETATM   38  O   UNL     1     -10.353   2.802  63.731  1.00  0.00    -0.171 OA 
HETATM   39  O   UNL     1      -8.723   4.319  62.760  1.00  0.00    -0.096 OA 
HETATM   40  C   UNL     1      -8.730   5.842  65.273  1.00  0.00    -0.100 A  
HETATM   41  S   UNL     1      -8.887   3.449  63.894  1.00  0.00    -0.094 S  
HETATM   42  C   UNL     1      -9.027   4.466  65.348  1.00  0.00    -0.137 A  
ENDBRANCH  31  33
ENDBRANCH  30  31
ENDBRANCH  29  30
ENDBRANCH  27  29
ENDBRANCH   4  27
TORSDOF 5
ENDMDL
MODEL      169
REMARK 921   NORMALIZED FREE ENERGY PREDICTED BY IDOCK:   -3.59 KCAL/MOL
REMARK 922        TOTAL FREE ENERGY PREDICTED BY IDOCK:   -5.35 KCAL/MOL
REMARK 923 INTER-LIGAND FREE ENERGY PREDICTED BY IDOCK:   -6.37 KCAL/MOL
REMARK 924 INTRA-LIGAND FREE ENERGY PREDICTED BY IDOCK:    1.03 KCAL/MOL
REMARK 927      BINDING AFFINITY PREDICTED BY RF-SCORE:    0.00 PKD
ROOT
HETATM    1  C   UNL     1     -10.815  14.818  68.132  1.00  0.00    -0.256 C  
HETATM    2  C   UNL     1     -11.062  15.260  66.821  1.00  0.00    -0.278 C  
HETATM    3  C   UNL     1     -10.009  14.191  66.919  1.00  0.00    -0.261 C  
HETATM    4  C   UNL     1      -9.831  13.196  68.731  1.00  0.00     0.015 C  
HETATM    5  C   UNL     1      -9.929  13.787  65.271  1.00  0.00    -0.245 C  
HETATM    6  O   UNL     1     -10.839  13.428  69.780  1.00  0.00    -0.439 OA 
HETATM    7  C   UNL     1      -6.954  19.224  68.010  1.00  0.00    -0.282 C  
HETATM    8  C   UNL     1     -10.403  12.999  67.520  1.00  0.00    -0.224 C  
HETATM    9  C   UNL     1      -5.949  19.352  69.126  1.00  0.00    -0.253 C  
HETATM   10  C   UNL     1      -7.639  18.094  68.273  1.00  0.00    -0.280 C  
HETATM   11  C   UNL     1     -11.628  12.147  67.160  1.00  0.00    -0.405 C  
HETATM   12  H   UNL     1     -10.758  12.973  70.609  1.00  0.00     0.000 HD 
HETATM   13  C   UNL     1      -8.503  12.712  67.253  1.00  0.00    -0.193 C  
HETATM   14  C   UNL     1      -7.502  14.004  67.979  1.00  0.00    -0.141 C  
HETATM   15  C   UNL     1      -8.738  18.141  69.318  1.00  0.00     0.279 C  
HETATM   16  C   UNL     1      -8.010  15.643  68.014  1.00  0.00    -0.132 C  
HETATM   17  C   UNL     1      -6.050  16.669  66.824  1.00  0.00    -0.106 C  
HETATM   18  O   UNL     1      -7.199  13.536  69.312  1.00  0.00    -0.281 OA 
HETATM   19  F   UNL     1      -8.354  16.079  66.706  1.00  0.00    -0.201 F  
HETATM   20  C   UNL     1      -9.443  15.760  68.812  1.00  0.00    -0.219 C  
HETATM   21  C   UNL     1      -6.880  16.746  68.177  1.00  0.00    -0.153 C  
HETATM   22  C   UNL     1      -5.796  16.845  69.244  1.00  0.00    -0.171 C  
HETATM   23  H   UNL     1      -6.668  14.222  69.698  1.00  0.00     0.000 HD 
HETATM   24  O   UNL     1      -5.629  20.446  69.566  1.00  0.00    -0.271 OA 
HETATM   25  C   UNL     1      -9.888  17.230  68.922  1.00  0.00    -0.286 C  
HETATM   26  C   UNL     1      -5.340  18.063  69.634  1.00  0.00    -0.202 C  
ENDROOT
BRANCH   4  27
HETATM   27  C   UNL     1      -9.796  11.517  69.156  1.00  0.00     0.109 C  
HETATM   28  O   UNL     1     -10.743  10.876  69.641  1.00  0.00    -0.238 OA 
BRANCH  27  29
HETATM   29  C   UNL     1      -8.517  10.692  68.856  1.00  0.00    -0.154 C  
BRANCH  29  30
HETATM   30  O   UNL     1      -8.806   9.316  68.511  1.00  0.00    -0.128 OA 
BRANCH  30  31
HETATM   31  C   UNL     1      -7.741   8.475  68.561  1.00  0.00    -0.103 C  
HETATM   32  O   UNL     1      -6.792   8.594  69.316  1.00  0.00    -0.049 OA 
BRANCH  31  33
HETATM   33  C   UNL     1      -7.825   7.380  67.546  1.00  0.00    -0.112 A  
HETATM   34  C   UNL     1      -7.945   5.410  65.534  1.00  0.00    -0.109 A  
HETATM   35  O   UNL     1      -9.855   3.094  66.446  1.00  0.00     0.070 OA 
HETATM   36  C   UNL     1      -7.587   6.711  65.206  1.00  0.00    -0.088 A  
HETATM   37  C   UNL     1      -7.524   7.691  66.205  1.00  0.00    -0.083 A  
HETATM   38  O   UNL     1      -7.442   2.554  66.700  1.00  0.00    -0.068 OA 
HETATM   39  O   UNL     1      -8.668   3.274  68.670  1.00  0.00    -0.086 OA 
HETATM   40  C   UNL     1      -8.184   6.063  67.879  1.00  0.00    -0.112 A  
HETATM   41  S   UNL     1      -8.689   3.420  67.239  1.00  0.00    -0.129 S  
HETATM   42  C   UNL     1      -8.244   5.100  66.852  1.00  0.00    -0.108 A  
ENDBRANCH  31  33
ENDBRANCH  30  31
ENDBRANCH  29  30
ENDBRANCH  27  29
ENDBRANCH   4  27
TORSDOF 5
ENDMDL
MODEL      170
REMARK 921   NORMALIZED FREE ENERGY PREDICTED BY IDOCK:   -3.49 KCAL/MOL
REMARK 922        TOTAL FREE ENERGY PREDICTED BY IDOCK:   -5.22 KCAL/MOL
REMARK 923 INTER-LIGAND FREE ENERGY PREDICTED BY IDOCK:   -6.31 KCAL/MOL
REMARK 924 INTRA-LIGAND FREE ENERGY PREDICTED BY IDOCK:    1.09 KCAL/MOL
REMARK 927      BINDING AFFINITY PREDICTED BY RF-SCORE:    0.00 PKD
ROOT
HETATM    1  C   UNL     1      -9.742   8.528  71.854  1.00  0.00    -0.358 C  
HETATM    2  C   UNL     1     -11.117   8.819  71.840  1.00  0.00    -0.434 C  
HETATM    3  C   UNL     1     -10.797   7.365  71.628  1.00  0.00    -0.246 C  
HETATM    4  C   UNL     1      -8.850   6.757  72.008  1.00  0.00    -0.134 C  
HETATM    5  C   UNL     1     -12.358   6.741  71.870  1.00  0.00    -0.369 C  
HETATM    6  O   UNL     1      -7.912   7.703  72.637  1.00  0.00    -0.094 OA 
HETATM    7  C   UNL     1     -10.277   9.691  66.135  1.00  0.00    -0.276 C  
HETATM    8  C   UNL     1     -10.051   6.752  72.632  1.00  0.00    -0.193 C  
HETATM    9  C   UNL     1      -9.132   9.369  65.209  1.00  0.00    -0.232 C  
HETATM   10  C   UNL     1      -9.892   9.248  67.348  1.00  0.00    -0.229 C  
HETATM   11  C   UNL     1     -10.356   6.752  74.136  1.00  0.00    -0.322 C  
HETATM   12  H   UNL     1      -7.021   7.425  72.810  1.00  0.00     0.000 HD 
HETATM   13  C   UNL     1     -10.154   5.355  71.289  1.00  0.00    -0.270 C  
HETATM   14  C   UNL     1      -9.567   5.893  69.688  1.00  0.00    -0.148 C  
HETATM   15  C   UNL     1      -8.936  10.101  68.161  1.00  0.00    -0.122 C  
HETATM   16  C   UNL     1      -9.807   7.494  69.117  1.00  0.00    -0.170 C  
HETATM   17  C   UNL     1     -11.013   6.953  66.980  1.00  0.00    -0.404 C  
HETATM   18  O   UNL     1      -8.163   5.552  69.672  1.00  0.00    -0.098 OA 
HETATM   19  F   UNL     1     -11.184   7.838  69.184  1.00  0.00    -0.096 F  
HETATM   20  C   UNL     1      -9.126   8.562  70.165  1.00  0.00    -0.154 C  
HETATM   21  C   UNL     1      -9.739   7.718  67.547  1.00  0.00    -0.201 C  
HETATM   22  C   UNL     1      -8.634   7.318  66.577  1.00  0.00    -0.134 C  
HETATM   23  H   UNL     1      -7.851   5.838  68.822  1.00  0.00     0.000 HD 
HETATM   24  O   UNL     1      -8.840  10.111  64.283  1.00  0.00    -0.185 OA 
HETATM   25  C   UNL     1      -9.264  10.004  69.641  1.00  0.00    -0.236 C  
HETATM   26  C   UNL     1      -8.401   8.069  65.470  1.00  0.00    -0.153 C  
ENDROOT
BRANCH   4  27
HETATM   27  C   UNL     1      -8.179   5.478  72.964  1.00  0.00    -0.119 C  
HETATM   28  O   UNL     1      -7.128   5.546  73.625  1.00  0.00    -0.083 OA 
BRANCH  27  29
HETATM   29  C   UNL     1      -8.959   4.143  73.089  1.00  0.00    -0.107 C  
BRANCH  29  30
HETATM   30  O   UNL     1      -8.765   3.271  71.949  1.00  0.00    -0.079 OA 
BRANCH  30  31
HETATM   31  C   UNL     1      -7.592   2.587  71.944  1.00  0.00    -0.044 C  
HETATM   32  O   UNL     1      -6.993   2.220  72.938  1.00  0.00    -0.025 OA 
BRANCH  31  33
HETATM   33  C   UNL     1      -7.072   2.351  70.561  1.00  0.00    -0.033 A  
HETATM   34  C   UNL     1      -5.974   1.847  68.014  1.00  0.00    -0.024 A  
HETATM   35  O   UNL     1      -7.229   3.820  65.923  1.00  0.00    -0.068 OA 
HETATM   36  C   UNL     1      -5.272   1.476  69.154  1.00  0.00    -0.012 A  
HETATM   37  C   UNL     1      -5.817   1.723  70.422  1.00  0.00    -0.018 A  
HETATM   38  O   UNL     1      -8.207   1.536  65.850  1.00  0.00    -0.077 OA 
HETATM   39  O   UNL     1      -9.430   3.268  67.036  1.00  0.00    -0.193 OA 
HETATM   40  C   UNL     1      -7.783   2.723  69.409  1.00  0.00    -0.045 A  
HETATM   41  S   UNL     1      -8.084   2.919  66.666  1.00  0.00    -0.083 S  
HETATM   42  C   UNL     1      -7.208   2.467  68.148  1.00  0.00    -0.048 A  
ENDBRANCH  31  33
ENDBRANCH  30  31
ENDBRANCH  29  30
ENDBRANCH  27  29
ENDBRANCH   4  27
TORSDOF 5
ENDMDL
MODEL      171
REMARK 921   NORMALIZED FREE ENERGY PREDICTED BY IDOCK:   -3.46 KCAL/MOL
REMARK 922        TOTAL FREE ENERGY PREDICTED BY IDOCK:   -5.18 KCAL/MOL
REMARK 923 INTER-LIGAND FREE ENERGY PREDICTED BY IDOCK:   -6.68 KCAL/MOL
REMARK 924 INTRA-LIGAND FREE ENERGY PREDICTED BY IDOCK:    1.50 KCAL/MOL
REMARK 927      BINDING AFFINITY PREDICTED BY RF-SCORE:    0.00 PKD
ROOT
HETATM    1  C   UNL     1     -10.918  13.590  68.786  1.00  0.00    -0.291 C  
HETATM    2  C   UNL     1     -12.269  13.701  68.412  1.00  0.00    -0.168 C  
HETATM    3  C   UNL     1     -11.348  13.335  67.280  1.00  0.00    -0.347 C  
HETATM    4  C   UNL     1      -9.413  12.771  67.775  1.00  0.00    -0.205 C  
HETATM    5  C   UNL     1     -12.530  12.854  66.160  1.00  0.00    -0.089 C  
HETATM    6  O   UNL     1      -9.064  12.569  69.192  1.00  0.00    -0.201 OA 
HETATM    7  C   UNL     1     -10.947  19.306  67.493  1.00  0.00    -0.426 C  
HETATM    8  C   UNL     1     -10.590  12.181  67.458  1.00  0.00    -0.240 C  
HETATM    9  C   UNL     1      -9.637  20.047  67.409  1.00  0.00    -0.394 C  
HETATM   10  C   UNL     1     -10.617  18.021  67.726  1.00  0.00    -0.409 C  
HETATM   11  C   UNL     1     -11.108  10.791  67.853  1.00  0.00    -0.369 C  
HETATM   12  H   UNL     1      -8.179  12.311  69.418  1.00  0.00     0.000 HD 
HETATM   13  C   UNL     1      -9.888  12.876  65.788  1.00  0.00    -0.216 C  
HETATM   14  C   UNL     1      -9.323  14.566  65.928  1.00  0.00    -0.095 C  
HETATM   15  C   UNL     1     -10.243  17.613  69.138  1.00  0.00    -0.238 C  
HETATM   16  C   UNL     1     -10.105  15.711  66.941  1.00  0.00    -0.263 C  
HETATM   17  C   UNL     1     -10.616  17.457  65.208  1.00  0.00     0.061 C  
HETATM   18  O   UNL     1      -7.921  14.464  66.263  1.00  0.00     0.200 OA 
HETATM   19  F   UNL     1     -11.492  15.768  66.638  1.00  0.00    -0.177 F  
HETATM   20  C   UNL     1     -10.105  15.166  68.492  1.00  0.00    -0.228 C  
HETATM   21  C   UNL     1      -9.882  17.246  66.602  1.00  0.00    -0.299 C  
HETATM   22  C   UNL     1      -8.568  17.997  66.420  1.00  0.00    -0.253 C  
HETATM   23  H   UNL     1      -7.621  15.362  66.337  1.00  0.00     0.000 HD 
HETATM   24  O   UNL     1      -9.530  21.191  67.824  1.00  0.00    -0.116 OA 
HETATM   25  C   UNL     1     -10.737  16.207  69.435  1.00  0.00    -0.307 C  
HETATM   26  C   UNL     1      -8.489  19.311  66.753  1.00  0.00    -0.321 C  
ENDROOT
BRANCH   4  27
HETATM   27  C   UNL     1      -8.440  11.402  67.354  1.00  0.00    -0.143 C  
HETATM   28  O   UNL     1      -7.201  11.402  67.249  1.00  0.00    -0.103 OA 
BRANCH  27  29
HETATM   29  C   UNL     1      -9.125  10.025  67.152  1.00  0.00    -0.138 C  
BRANCH  29  30
HETATM   30  O   UNL     1      -8.236   8.912  67.417  1.00  0.00    -0.108 OA 
BRANCH  30  31
HETATM   31  C   UNL     1      -8.814   7.853  68.041  1.00  0.00    -0.124 C  
HETATM   32  O   UNL     1     -10.013   7.666  68.135  1.00  0.00    -0.163 OA 
BRANCH  31  33
HETATM   33  C   UNL     1      -7.808   6.931  68.655  1.00  0.00    -0.118 A  
HETATM   34  C   UNL     1      -5.818   5.302  69.809  1.00  0.00    -0.017 A  
HETATM   35  O   UNL     1      -6.488   2.285  69.267  1.00  0.00    -0.028 OA 
HETATM   36  C   UNL     1      -5.528   6.621  69.485  1.00  0.00    -0.014 A  
HETATM   37  C   UNL     1      -6.516   7.434  68.914  1.00  0.00    -0.040 A  
HETATM   38  O   UNL     1      -7.072   3.038  71.563  1.00  0.00    -0.031 OA 
HETATM   39  O   UNL     1      -8.850   2.912  69.913  1.00  0.00    -0.070 OA 
HETATM   40  C   UNL     1      -8.103   5.599  68.987  1.00  0.00    -0.097 A  
HETATM   41  S   UNL     1      -7.428   3.112  69.994  1.00  0.00    -0.044 S  
HETATM   42  C   UNL     1      -7.088   4.804  69.555  1.00  0.00    -0.054 A  
ENDBRANCH  31  33
ENDBRANCH  30  31
ENDBRANCH  29  30
ENDBRANCH  27  29
ENDBRANCH   4  27
TORSDOF 5
ENDMDL
MODEL      172
REMARK 921   NORMALIZED FREE ENERGY PREDICTED BY IDOCK:   -3.36 KCAL/MOL
REMARK 922        TOTAL FREE ENERGY PREDICTED BY IDOCK:   -5.05 KCAL/MOL
REMARK 923 INTER-LIGAND FREE ENERGY PREDICTED BY IDOCK:   -6.85 KCAL/MOL
REMARK 924 INTRA-LIGAND FREE ENERGY PREDICTED BY IDOCK:    1.80 KCAL/MOL
REMARK 927      BINDING AFFINITY PREDICTED BY RF-SCORE:    0.00 PKD
ROOT
HETATM    1  C   UNL     1     -10.806  13.493  68.815  1.00  0.00    -0.279 C  
HETATM    2  C   UNL     1     -12.154  13.537  68.421  1.00  0.00    -0.293 C  
HETATM    3  C   UNL     1     -11.203  13.185  67.311  1.00  0.00    -0.319 C  
HETATM    4  C   UNL     1      -9.254  12.715  67.844  1.00  0.00    -0.201 C  
HETATM    5  C   UNL     1     -12.348  12.627  66.186  1.00  0.00    -0.101 C  
HETATM    6  O   UNL     1      -8.916  12.561  69.269  1.00  0.00    -0.009 OA 
HETATM    7  C   UNL     1     -11.058  19.170  67.384  1.00  0.00    -0.249 C  
HETATM    8  C   UNL     1     -10.400  12.068  67.526  1.00  0.00    -0.217 C  
HETATM    9  C   UNL     1      -9.779  19.964  67.299  1.00  0.00    -0.387 C  
HETATM   10  C   UNL     1     -10.677  17.906  67.652  1.00  0.00    -0.343 C  
HETATM   11  C   UNL     1     -10.864  10.667  67.947  1.00  0.00    -0.328 C  
HETATM   12  H   UNL     1      -8.024  12.346  69.513  1.00  0.00     0.000 HD 
HETATM   13  C   UNL     1      -9.705  12.753  65.849  1.00  0.00    -0.203 C  
HETATM   14  C   UNL     1      -9.214  14.468  65.955  1.00  0.00    -0.063 C  
HETATM   15  C   UNL     1     -10.306  17.548  69.079  1.00  0.00    -0.303 C  
HETATM   16  C   UNL     1     -10.057  15.602  66.930  1.00  0.00    -0.263 C  
HETATM   17  C   UNL     1     -10.617  17.284  65.149  1.00  0.00     0.114 C  
HETATM   18  O   UNL     1      -7.813  14.434  66.310  1.00  0.00     0.286 OA 
HETATM   19  F   UNL     1     -11.441  15.593  66.608  1.00  0.00    -0.220 F  
HETATM   20  C   UNL     1     -10.056  15.095  68.493  1.00  0.00    -0.228 C  
HETATM   21  C   UNL     1      -9.894  17.137  66.557  1.00  0.00    -0.305 C  
HETATM   22  C   UNL     1      -8.611  17.939  66.374  1.00  0.00    -0.254 C  
HETATM   23  H   UNL     1      -7.553  15.346  66.367  1.00  0.00     0.000 HD 
HETATM   24  O   UNL     1      -9.727  21.122  67.688  1.00  0.00    -0.274 OA 
HETATM   25  C   UNL     1     -10.745  16.130  69.403  1.00  0.00    -0.307 C  
HETATM   26  C   UNL     1      -8.592  19.263  66.676  1.00  0.00    -0.339 C  
ENDROOT
BRANCH   4  27
HETATM   27  C   UNL     1      -8.218  11.379  67.468  1.00  0.00    -0.130 C  
HETATM   28  O   UNL     1      -7.067  11.213  67.907  1.00  0.00    -0.078 OA 
BRANCH  27  29
HETATM   29  C   UNL     1      -8.760  10.235  66.570  1.00  0.00    -0.131 C  
BRANCH  29  30
HETATM   30  O   UNL     1      -7.907   9.966  65.431  1.00  0.00    -0.120 OA 
BRANCH  30  31
HETATM   31  C   UNL     1      -6.963   9.011  65.634  1.00  0.00    -0.080 C  
HETATM   32  O   UNL     1      -5.901   8.941  65.042  1.00  0.00    -0.057 OA 
BRANCH  31  33
HETATM   33  C   UNL     1      -7.380   8.001  66.656  1.00  0.00    -0.088 A  
HETATM   34  C   UNL     1      -8.044   6.127  68.654  1.00  0.00    -0.108 A  
HETATM   35  O   UNL     1     -10.048   4.014  67.486  1.00  0.00    -0.040 OA 
HETATM   36  C   UNL     1      -6.857   6.842  68.746  1.00  0.00    -0.066 A  
HETATM   37  C   UNL     1      -6.526   7.777  67.755  1.00  0.00    -0.052 A  
HETATM   38  O   UNL     1     -11.139   5.755  68.887  1.00  0.00    -0.265 OA 
HETATM   39  O   UNL     1     -11.229   6.007  66.472  1.00  0.00    -0.144 OA 
HETATM   40  C   UNL     1      -8.582   7.281  66.565  1.00  0.00    -0.134 A  
HETATM   41  S   UNL     1     -10.404   5.418  67.493  1.00  0.00    -0.165 S  
HETATM   42  C   UNL     1      -8.886   6.344  67.573  1.00  0.00    -0.111 A  
ENDBRANCH  31  33
ENDBRANCH  30  31
ENDBRANCH  29  30
ENDBRANCH  27  29
ENDBRANCH   4  27
TORSDOF 5
ENDMDL
MODEL      173
REMARK 921   NORMALIZED FREE ENERGY PREDICTED BY IDOCK:   -3.26 KCAL/MOL
REMARK 922        TOTAL FREE ENERGY PREDICTED BY IDOCK:   -4.92 KCAL/MOL
REMARK 923 INTER-LIGAND FREE ENERGY PREDICTED BY IDOCK:   -5.13 KCAL/MOL
REMARK 924 INTRA-LIGAND FREE ENERGY PREDICTED BY IDOCK:    0.22 KCAL/MOL
REMARK 927      BINDING AFFINITY PREDICTED BY RF-SCORE:    0.00 PKD
ROOT
HETATM    1  C   UNL     1      -8.426   6.498  70.515  1.00  0.00    -0.138 C  
HETATM    2  C   UNL     1      -8.064   5.444  71.371  1.00  0.00    -0.116 C  
HETATM    3  C   UNL     1      -6.898   6.115  70.698  1.00  0.00    -0.062 C  
HETATM    4  C   UNL     1      -7.269   7.909  69.723  1.00  0.00    -0.066 C  
HETATM    5  C   UNL     1      -5.661   5.461  71.660  1.00  0.00    -0.016 C  
HETATM    6  O   UNL     1      -8.586   8.550  69.875  1.00  0.00    -0.126 OA 
HETATM    7  C   UNL     1      -8.726   2.133  66.617  1.00  0.00    -0.127 C  
HETATM    8  C   UNL     1      -6.776   7.485  70.911  1.00  0.00    -0.043 C  
HETATM    9  C   UNL     1      -8.876   2.462  65.154  1.00  0.00    -0.120 C  
HETATM   10  C   UNL     1      -8.611   3.321  67.242  1.00  0.00    -0.121 C  
HETATM   11  C   UNL     1      -6.768   8.210  72.264  1.00  0.00    -0.081 C  
HETATM   12  H   UNL     1      -8.755   9.371  69.429  1.00  0.00     0.000 HD 
HETATM   13  C   UNL     1      -5.373   7.148  69.614  1.00  0.00    -0.015 C  
HETATM   14  C   UNL     1      -5.978   6.338  68.139  1.00  0.00    -0.016 C  
HETATM   15  C   UNL     1      -9.869   4.125  67.506  1.00  0.00    -0.139 C  
HETATM   16  C   UNL     1      -7.243   5.178  68.187  1.00  0.00    -0.067 C  
HETATM   17  C   UNL     1      -6.035   3.261  67.102  1.00  0.00    -0.024 C  
HETATM   18  O   UNL     1      -6.307   7.413  67.231  1.00  0.00    -0.051 OA 
HETATM   19  F   UNL     1      -6.933   4.151  69.119  1.00  0.00    -0.043 F  
HETATM   20  C   UNL     1      -8.589   5.856  68.843  1.00  0.00    -0.110 C  
HETATM   21  C   UNL     1      -7.337   4.163  66.970  1.00  0.00    -0.073 C  
HETATM   22  C   UNL     1      -7.397   4.470  65.479  1.00  0.00    -0.080 C  
HETATM   23  H   UNL     1      -6.628   6.982  66.448  1.00  0.00     0.000 HD 
HETATM   24  O   UNL     1      -9.588   1.788  64.424  1.00  0.00    -0.135 OA 
HETATM   25  C   UNL     1      -9.763   4.859  68.833  1.00  0.00    -0.242 C  
HETATM   26  C   UNL     1      -8.074   3.640  64.643  1.00  0.00    -0.090 C  
ENDROOT
BRANCH   4  27
HETATM   27  C   UNL     1      -6.517   9.467  69.796  1.00  0.00    -0.046 C  
HETATM   28  O   UNL     1      -5.297   9.675  69.919  1.00  0.00    -0.032 OA 
BRANCH  27  29
HETATM   29  C   UNL     1      -7.394  10.735  69.623  1.00  0.00    -0.103 C  
BRANCH  29  30
HETATM   30  O   UNL     1      -6.618  11.914  69.298  1.00  0.00    -0.096 OA 
BRANCH  30  31
HETATM   31  C   UNL     1      -6.650  12.279  67.990  1.00  0.00    -0.076 C  
HETATM   32  O   UNL     1      -5.870  11.894  67.138  1.00  0.00    -0.117 OA 
BRANCH  31  33
HETATM   33  C   UNL     1      -7.743  13.257  67.694  1.00  0.00    -0.171 A  
HETATM   34  C   UNL     1      -9.720  15.202  67.195  1.00  0.00    -0.230 A  
HETATM   35  O   UNL     1     -12.517  13.807  66.916  1.00  0.00    -0.338 OA 
HETATM   36  C   UNL     1      -8.536  15.567  67.822  1.00  0.00    -0.159 A  
HETATM   37  C   UNL     1      -7.550  14.602  68.068  1.00  0.00    -0.132 A  
HETATM   38  O   UNL     1     -11.490  14.427  64.738  1.00  0.00    -0.368 OA 
HETATM   39  O   UNL     1     -11.297  12.122  65.479  1.00  0.00    -0.328 OA 
HETATM   40  C   UNL     1      -8.939  12.888  67.057  1.00  0.00    -0.225 A  
HETATM   41  S   UNL     1     -11.440  13.449  66.017  1.00  0.00    -0.339 S  
HETATM   42  C   UNL     1      -9.914  13.879  66.827  1.00  0.00    -0.269 A  
ENDBRANCH  31  33
ENDBRANCH  30  31
ENDBRANCH  29  30
ENDBRANCH  27  29
ENDBRANCH   4  27
TORSDOF 5
ENDMDL
MODEL      174
REMARK 921   NORMALIZED FREE ENERGY PREDICTED BY IDOCK:   -3.19 KCAL/MOL
REMARK 922        TOTAL FREE ENERGY PREDICTED BY IDOCK:   -4.83 KCAL/MOL
REMARK 923 INTER-LIGAND FREE ENERGY PREDICTED BY IDOCK:   -5.41 KCAL/MOL
REMARK 924 INTRA-LIGAND FREE ENERGY PREDICTED BY IDOCK:    0.58 KCAL/MOL
REMARK 927      BINDING AFFINITY PREDICTED BY RF-SCORE:    0.00 PKD
ROOT
HETATM    1  C   UNL     1      -6.241   7.781  68.113  1.00  0.00    -0.045 C  
HETATM    2  C   UNL     1      -5.328   8.430  67.263  1.00  0.00    -0.037 C  
HETATM    3  C   UNL     1      -6.752   8.885  67.095  1.00  0.00    -0.066 C  
HETATM    4  C   UNL     1      -8.116   8.290  68.541  1.00  0.00    -0.123 C  
HETATM    5  C   UNL     1      -6.447  10.285  66.183  1.00  0.00    -0.103 C  
HETATM    6  O   UNL     1      -7.626   7.615  69.755  1.00  0.00    -0.088 OA 
HETATM    7  C   UNL     1      -6.462   4.006  63.637  1.00  0.00    -0.034 C  
HETATM    8  C   UNL     1      -7.373   9.380  68.239  1.00  0.00    -0.078 C  
HETATM    9  C   UNL     1      -7.526   2.939  63.627  1.00  0.00    -0.062 C  
HETATM   10  C   UNL     1      -6.711   4.750  64.732  1.00  0.00    -0.044 C  
HETATM   11  C   UNL     1      -6.842  10.474  69.175  1.00  0.00    -0.074 C  
HETATM   12  H   UNL     1      -8.250   7.342  70.417  1.00  0.00     0.000 HD 
HETATM   13  C   UNL     1      -8.830   9.368  66.957  1.00  0.00    -0.139 C  
HETATM   14  C   UNL     1      -9.075   7.763  66.208  1.00  0.00    -0.178 C  
HETATM   15  C   UNL     1      -6.262   4.226  66.082  1.00  0.00    -0.032 C  
HETATM   16  C   UNL     1      -7.767   6.707  65.859  1.00  0.00    -0.091 C  
HETATM   17  C   UNL     1      -8.171   6.408  63.398  1.00  0.00     0.042 C  
HETATM   18  O   UNL     1     -10.051   7.106  67.046  1.00  0.00    -0.194 OA 
HETATM   19  F   UNL     1      -6.789   7.378  65.076  1.00  0.00    -0.047 F  
HETATM   20  C   UNL     1      -6.943   6.374  67.243  1.00  0.00    -0.072 C  
HETATM   21  C   UNL     1      -8.012   5.594  64.754  1.00  0.00    -0.119 C  
HETATM   22  C   UNL     1      -9.133   4.565  64.674  1.00  0.00    -0.151 C  
HETATM   23  H   UNL     1     -10.181   6.253  66.648  1.00  0.00     0.000 HD 
HETATM   24  O   UNL     1      -7.285   1.809  63.227  1.00  0.00    -0.037 OA 
HETATM   25  C   UNL     1      -5.806   5.371  66.972  1.00  0.00    -0.018 C  
HETATM   26  C   UNL     1      -8.902   3.356  64.101  1.00  0.00    -0.097 C  
ENDROOT
BRANCH   4  27
HETATM   27  C   UNL     1      -9.268   9.154  69.502  1.00  0.00    -0.159 C  
HETATM   28  O   UNL     1      -9.184   9.351  70.727  1.00  0.00    -0.247 OA 
BRANCH  27  29
HETATM   29  C   UNL     1     -10.486   9.814  68.804  1.00  0.00    -0.218 C  
BRANCH  29  30
HETATM   30  O   UNL     1     -10.560  11.242  69.038  1.00  0.00    -0.209 OA 
BRANCH  30  31
HETATM   31  C   UNL     1     -11.109  11.961  68.026  1.00  0.00    -0.240 C  
HETATM   32  O   UNL     1     -11.862  11.514  67.179  1.00  0.00    -0.595 OA 
BRANCH  31  33
HETATM   33  C   UNL     1     -10.659  13.388  68.026  1.00  0.00    -0.252 A  
HETATM   34  C   UNL     1      -9.946  16.115  68.001  1.00  0.00    -0.238 A  
HETATM   35  O   UNL     1      -6.895  16.395  67.330  1.00  0.00    -0.150 OA 
HETATM   36  C   UNL     1     -11.268  15.745  67.791  1.00  0.00    -0.286 A  
HETATM   37  C   UNL     1     -11.626  14.390  67.805  1.00  0.00    -0.384 A  
HETATM   38  O   UNL     1      -7.410  16.648  69.748  1.00  0.00     0.059 OA 
HETATM   39  O   UNL     1      -6.574  14.502  68.974  1.00  0.00    -0.090 OA 
HETATM   40  C   UNL     1      -9.322  13.762  68.243  1.00  0.00    -0.209 A  
HETATM   41  S   UNL     1      -7.310  15.642  68.494  1.00  0.00    -0.128 S  
HETATM   42  C   UNL     1      -8.992  15.132  68.217  1.00  0.00    -0.175 A  
ENDBRANCH  31  33
ENDBRANCH  30  31
ENDBRANCH  29  30
ENDBRANCH  27  29
ENDBRANCH   4  27
TORSDOF 5
ENDMDL
MODEL      175
REMARK 921   NORMALIZED FREE ENERGY PREDICTED BY IDOCK:   -3.11 KCAL/MOL
REMARK 922        TOTAL FREE ENERGY PREDICTED BY IDOCK:   -4.73 KCAL/MOL
REMARK 923 INTER-LIGAND FREE ENERGY PREDICTED BY IDOCK:   -4.79 KCAL/MOL
REMARK 924 INTRA-LIGAND FREE ENERGY PREDICTED BY IDOCK:    0.06 KCAL/MOL
REMARK 927      BINDING AFFINITY PREDICTED BY RF-SCORE:    0.00 PKD
ROOT
HETATM    1  C   UNL     1      -6.958   4.048  67.122  1.00  0.00    -0.062 C  
HETATM    2  C   UNL     1      -7.183   2.877  67.865  1.00  0.00    -0.050 C  
HETATM    3  C   UNL     1      -8.367   3.324  67.053  1.00  0.00    -0.097 C  
HETATM    4  C   UNL     1      -8.041   4.801  65.633  1.00  0.00    -0.111 C  
HETATM    5  C   UNL     1      -9.286   1.900  67.170  1.00  0.00    -0.082 C  
HETATM    6  O   UNL     1      -6.661   5.223  65.340  1.00  0.00    -0.039 OA 
HETATM    7  C   UNL     1      -8.847   6.565  72.065  1.00  0.00    -0.133 C  
HETATM    8  C   UNL     1      -8.154   3.453  65.683  1.00  0.00    -0.093 C  
HETATM    9  C   UNL     1      -9.162   8.039  72.066  1.00  0.00    -0.171 C  
HETATM   10  C   UNL     1      -8.517   6.270  70.793  1.00  0.00    -0.135 C  
HETATM   11  C   UNL     1      -7.555   2.400  64.741  1.00  0.00    -0.072 C  
HETATM   12  H   UNL     1      -6.511   5.899  64.690  1.00  0.00     0.000 HD 
HETATM   13  C   UNL     1      -9.959   4.137  65.881  1.00  0.00    -0.198 C  
HETATM   14  C   UNL     1     -10.069   5.457  67.082  1.00  0.00    -0.198 C  
HETATM   15  C   UNL     1      -7.122   6.614  70.308  1.00  0.00    -0.072 C  
HETATM   16  C   UNL     1      -9.102   5.485  68.501  1.00  0.00    -0.114 C  
HETATM   17  C   UNL     1     -10.943   5.615  70.206  1.00  0.00    -0.287 C  
HETATM   18  O   UNL     1      -9.889   6.671  66.319  1.00  0.00    -0.371 OA 
HETATM   19  F   UNL     1      -9.248   4.267  69.218  1.00  0.00    -0.140 F  
HETATM   20  C   UNL     1      -7.512   5.462  68.085  1.00  0.00    -0.076 C  
HETATM   21  C   UNL     1      -9.628   6.362  69.715  1.00  0.00    -0.163 C  
HETATM   22  C   UNL     1     -10.040   7.829  69.719  1.00  0.00    -0.194 C  
HETATM   23  H   UNL     1      -9.947   7.372  66.958  1.00  0.00     0.000 HD 
HETATM   24  O   UNL     1      -8.888   8.744  73.026  1.00  0.00    -0.340 OA 
HETATM   25  C   UNL     1      -6.620   5.559  69.337  1.00  0.00    -0.050 C  
HETATM   26  C   UNL     1      -9.863   8.579  70.838  1.00  0.00    -0.234 C  
ENDROOT
BRANCH   4  27
HETATM   27  C   UNL     1      -8.421   4.921  63.947  1.00  0.00    -0.133 C  
HETATM   28  O   UNL     1      -8.426   3.977  63.140  1.00  0.00    -0.089 OA 
BRANCH  27  29
HETATM   29  C   UNL     1      -8.869   6.291  63.373  1.00  0.00     0.678 C  
BRANCH  29  30
HETATM   30  O   UNL     1      -7.909   6.850  62.443  1.00  0.00    -0.105 OA 
BRANCH  30  31
HETATM   31  C   UNL     1      -6.981   7.669  63.001  1.00  0.00    -0.072 C  
HETATM   32  O   UNL     1      -5.794   7.670  62.728  1.00  0.00    -0.053 OA 
BRANCH  31  33
HETATM   33  C   UNL     1      -7.564   8.571  64.042  1.00  0.00    -0.124 A  
HETATM   34  C   UNL     1      -8.575  10.212  66.100  1.00  0.00    -0.147 A  
HETATM   35  O   UNL     1     -11.454  11.199  65.335  1.00  0.00     0.074 OA 
HETATM   36  C   UNL     1      -7.579   9.286  66.382  1.00  0.00    -0.093 A  
HETATM   37  C   UNL     1      -7.073   8.471  65.360  1.00  0.00    -0.082 A  
HETATM   38  O   UNL     1      -9.685  12.907  64.970  1.00  0.00    -0.090 OA 
HETATM   39  O   UNL     1     -10.467  11.641  63.050  1.00  0.00    -0.311 OA 
HETATM   40  C   UNL     1      -8.569   9.510  63.756  1.00  0.00    -0.222 A  
HETATM   41  S   UNL     1     -10.332  11.516  64.477  1.00  0.00    -0.325 S  
HETATM   42  C   UNL     1      -9.062  10.312  64.805  1.00  0.00    -0.219 A  
ENDBRANCH  31  33
ENDBRANCH  30  31
ENDBRANCH  29  30
ENDBRANCH  27  29
ENDBRANCH   4  27
TORSDOF 5
ENDMDL
MODEL      176
REMARK 921   NORMALIZED FREE ENERGY PREDICTED BY IDOCK:   -3.10 KCAL/MOL
REMARK 922        TOTAL FREE ENERGY PREDICTED BY IDOCK:   -4.72 KCAL/MOL
REMARK 923 INTER-LIGAND FREE ENERGY PREDICTED BY IDOCK:   -4.34 KCAL/MOL
REMARK 924 INTRA-LIGAND FREE ENERGY PREDICTED BY IDOCK:   -0.38 KCAL/MOL
REMARK 927      BINDING AFFINITY PREDICTED BY RF-SCORE:    0.00 PKD
ROOT
HETATM    1  C   UNL     1      -8.806   9.553  65.833  1.00  0.00    -0.193 C  
HETATM    2  C   UNL     1      -7.747   9.920  64.985  1.00  0.00    -0.133 C  
HETATM    3  C   UNL     1      -7.361   9.812  66.434  1.00  0.00    -0.095 C  
HETATM    4  C   UNL     1      -8.723   8.914  67.715  1.00  0.00    -0.125 C  
HETATM    5  C   UNL     1      -5.675   9.825  66.231  1.00  0.00    -0.053 C  
HETATM    6  O   UNL     1      -9.915   8.257  67.151  1.00  0.00    -0.191 OA 
HETATM    7  C   UNL     1      -9.580  15.358  66.022  1.00  0.00    -0.382 C  
HETATM    8  C   UNL     1      -7.599   8.581  67.039  1.00  0.00    -0.092 C  
HETATM    9  C   UNL     1     -10.536  15.940  67.032  1.00  0.00    -0.306 C  
HETATM   10  C   UNL     1      -9.559  14.034  66.270  1.00  0.00    -0.284 C  
HETATM   11  C   UNL     1      -7.152   7.204  66.531  1.00  0.00    -0.078 C  
HETATM   12  H   UNL     1     -10.538   7.846  67.738  1.00  0.00     0.000 HD 
HETATM   13  C   UNL     1      -7.007   9.664  68.537  1.00  0.00    -0.065 C  
HETATM   14  C   UNL     1      -7.966  11.160  68.728  1.00  0.00    -0.144 C  
HETATM   15  C   UNL     1     -10.700  13.182  65.749  1.00  0.00    -0.292 C  
HETATM   16  C   UNL     1      -8.587  12.026  67.382  1.00  0.00    -0.171 C  
HETATM   17  C   UNL     1      -7.536  14.259  67.855  1.00  0.00    -0.157 C  
HETATM   18  O   UNL     1      -9.030  10.807  69.640  1.00  0.00    -0.398 OA 
HETATM   19  F   UNL     1      -7.542  12.326  66.466  1.00  0.00    -0.031 F  
HETATM   20  C   UNL     1      -9.562  11.044  66.495  1.00  0.00    -0.223 C  
HETATM   21  C   UNL     1      -8.941  13.557  67.610  1.00  0.00    -0.200 C  
HETATM   22  C   UNL     1      -9.830  14.177  68.680  1.00  0.00    -0.206 C  
HETATM   23  H   UNL     1      -9.539  11.602  69.741  1.00  0.00     0.000 HD 
HETATM   24  O   UNL     1     -11.255  16.887  66.749  1.00  0.00     0.173 OA 
HETATM   25  C   UNL     1     -10.190  11.816  65.320  1.00  0.00    -0.307 C  
HETATM   26  C   UNL     1     -10.524  15.313  68.409  1.00  0.00    -0.236 C  
ENDROOT
BRANCH   4  27
HETATM   27  C   UNL     1      -8.585   7.635  68.876  1.00  0.00    -0.129 C  
HETATM   28  O   UNL     1      -7.575   7.384  69.556  1.00  0.00    -0.094 OA 
BRANCH  27  29
HETATM   29  C   UNL     1      -9.824   6.751  69.173  1.00  0.00    -0.157 C  
BRANCH  29  30
HETATM   30  O   UNL     1      -9.557   5.338  69.008  1.00  0.00    -0.126 OA 
BRANCH  30  31
HETATM   31  C   UNL     1     -10.049   4.790  67.867  1.00  0.00    -0.056 C  
HETATM   32  O   UNL     1     -11.226   4.762  67.556  1.00  0.00     1.201 OA 
BRANCH  31  33
HETATM   33  C   UNL     1      -8.981   4.173  67.020  1.00  0.00    -0.137 A  
HETATM   34  C   UNL     1      -6.910   2.958  65.544  1.00  0.00    -0.048 A  
HETATM   35  O   UNL     1      -6.594   4.417  62.784  1.00  0.00    -0.025 OA 
HETATM   36  C   UNL     1      -6.932   2.841  66.928  1.00  0.00    -0.049 A  
HETATM   37  C   UNL     1      -7.962   3.441  67.664  1.00  0.00    -0.080 A  
HETATM   38  O   UNL     1      -7.832   2.266  62.639  1.00  0.00    -0.056 OA 
HETATM   39  O   UNL     1      -9.119   4.326  62.686  1.00  0.00    -0.111 OA 
HETATM   40  C   UNL     1      -8.961   4.289  65.620  1.00  0.00    -0.130 A  
HETATM   41  S   UNL     1      -7.856   3.799  63.132  1.00  0.00    -0.071 S  
HETATM   42  C   UNL     1      -7.910   3.678  64.908  1.00  0.00    -0.085 A  
ENDBRANCH  31  33
ENDBRANCH  30  31
ENDBRANCH  29  30
ENDBRANCH  27  29
ENDBRANCH   4  27
TORSDOF 5
ENDMDL
MODEL      177
REMARK 921   NORMALIZED FREE ENERGY PREDICTED BY IDOCK:   -3.01 KCAL/MOL
REMARK 922        TOTAL FREE ENERGY PREDICTED BY IDOCK:   -4.59 KCAL/MOL
REMARK 923 INTER-LIGAND FREE ENERGY PREDICTED BY IDOCK:   -5.16 KCAL/MOL
REMARK 924 INTRA-LIGAND FREE ENERGY PREDICTED BY IDOCK:    0.56 KCAL/MOL
REMARK 927      BINDING AFFINITY PREDICTED BY RF-SCORE:    0.00 PKD
ROOT
HETATM    1  C   UNL     1      -9.373  10.057  69.953  1.00  0.00    -0.207 C  
HETATM    2  C   UNL     1     -10.706   9.636  69.808  1.00  0.00    -0.269 C  
HETATM    3  C   UNL     1      -9.704   8.514  69.791  1.00  0.00    -0.179 C  
HETATM    4  C   UNL     1      -7.764   8.965  70.375  1.00  0.00    -0.098 C  
HETATM    5  C   UNL     1     -10.790   7.224  69.993  1.00  0.00    -0.271 C  
HETATM    6  O   UNL     1      -7.478  10.289  70.953  1.00  0.00    -0.338 OA 
HETATM    7  C   UNL     1      -9.720  10.418  64.114  1.00  0.00    -0.387 C  
HETATM    8  C   UNL     1      -8.880   8.414  70.909  1.00  0.00    -0.185 C  
HETATM    9  C   UNL     1      -8.461  10.636  63.315  1.00  0.00    -0.119 C  
HETATM   10  C   UNL     1      -9.316  10.304  65.394  1.00  0.00    -0.258 C  
HETATM   11  C   UNL     1      -9.322   8.366  72.378  1.00  0.00    -0.356 C  
HETATM   12  H   UNL     1      -6.590  10.495  71.220  1.00  0.00     0.000 HD 
HETATM   13  C   UNL     1      -8.139   7.059  69.735  1.00  0.00    -0.126 C  
HETATM   14  C   UNL     1      -7.698   7.705  68.127  1.00  0.00    -0.119 C  
HETATM   15  C   UNL     1      -8.990  11.568  66.167  1.00  0.00    -0.201 C  
HETATM   16  C   UNL     1      -8.609   8.941  67.358  1.00  0.00    -0.119 C  
HETATM   17  C   UNL     1      -9.144   7.736  65.219  1.00  0.00     0.277 C  
HETATM   18  O   UNL     1      -6.312   8.095  68.250  1.00  0.00    -0.048 OA 
HETATM   19  F   UNL     1      -9.979   8.570  67.287  1.00  0.00    -0.204 F  
HETATM   20  C   UNL     1      -8.653  10.273  68.319  1.00  0.00    -0.122 C  
HETATM   21  C   UNL     1      -8.472   9.062  65.781  1.00  0.00    -0.153 C  
HETATM   22  C   UNL     1      -7.205   9.190  64.944  1.00  0.00    -0.097 C  
HETATM   23  H   UNL     1      -6.079   8.439  67.396  1.00  0.00     0.000 HD 
HETATM   24  O   UNL     1      -8.454  11.362  62.331  1.00  0.00    -0.269 OA 
HETATM   25  C   UNL     1      -9.404  11.424  67.622  1.00  0.00    -0.159 C  
HETATM   26  C   UNL     1      -7.232   9.882  63.776  1.00  0.00    -0.125 C  
ENDROOT
BRANCH   4  27
HETATM   27  C   UNL     1      -6.680   8.246  71.518  1.00  0.00    -0.063 C  
HETATM   28  O   UNL     1      -6.292   8.773  72.575  1.00  0.00    -0.131 OA 
BRANCH  27  29
HETATM   29  C   UNL     1      -6.185   6.796  71.276  1.00  0.00    -0.041 C  
BRANCH  29  30
HETATM   30  O   UNL     1      -6.011   6.051  72.506  1.00  0.00    -0.036 OA 
BRANCH  30  31
HETATM   31  C   UNL     1      -7.123   5.413  72.953  1.00  0.00    -0.089 C  
HETATM   32  O   UNL     1      -7.859   5.823  73.831  1.00  0.00    -0.100 OA 
BRANCH  31  33
HETATM   33  C   UNL     1      -7.345   4.101  72.269  1.00  0.00    -0.062 A  
HETATM   34  C   UNL     1      -7.721   1.563  71.101  1.00  0.00    -0.032 A  
HETATM   35  O   UNL     1      -7.587   1.815  67.977  1.00  0.00    -0.053 OA 
HETATM   36  C   UNL     1      -7.261   1.660  72.408  1.00  0.00    -0.030 A  
HETATM   37  C   UNL     1      -7.076   2.920  72.992  1.00  0.00    -0.040 A  
HETATM   38  O   UNL     1      -9.903   1.647  68.865  1.00  0.00    -0.051 OA 
HETATM   39  O   UNL     1      -9.056   3.849  68.289  1.00  0.00    -0.116 OA 
HETATM   40  C   UNL     1      -7.814   4.002  70.949  1.00  0.00    -0.055 A  
HETATM   41  S   UNL     1      -8.584   2.559  68.718  1.00  0.00    -0.084 S  
HETATM   42  C   UNL     1      -7.986   2.721  70.387  1.00  0.00    -0.042 A  
ENDBRANCH  31  33
ENDBRANCH  30  31
ENDBRANCH  29  30
ENDBRANCH  27  29
ENDBRANCH   4  27
TORSDOF 5
ENDMDL
MODEL      178
REMARK 921   NORMALIZED FREE ENERGY PREDICTED BY IDOCK:   -2.87 KCAL/MOL
REMARK 922        TOTAL FREE ENERGY PREDICTED BY IDOCK:   -4.42 KCAL/MOL
REMARK 923 INTER-LIGAND FREE ENERGY PREDICTED BY IDOCK:   -5.04 KCAL/MOL
REMARK 924 INTRA-LIGAND FREE ENERGY PREDICTED BY IDOCK:    0.62 KCAL/MOL
REMARK 927      BINDING AFFINITY PREDICTED BY RF-SCORE:    0.00 PKD
ROOT
HETATM    1  C   UNL     1      -8.631   8.422  68.861  1.00  0.00    -0.135 C  
HETATM    2  C   UNL     1      -8.060   7.765  69.964  1.00  0.00    -0.118 C  
HETATM    3  C   UNL     1      -7.054   8.324  68.996  1.00  0.00    -0.065 C  
HETATM    4  C   UNL     1      -7.757   9.634  67.549  1.00  0.00    -0.095 C  
HETATM    5  C   UNL     1      -5.677   8.189  69.981  1.00  0.00    -0.022 C  
HETATM    6  O   UNL     1      -9.148  10.112  67.627  1.00  0.00    -0.137 OA 
HETATM    7  C   UNL     1      -8.460   3.021  66.595  1.00  0.00    -0.103 C  
HETATM    8  C   UNL     1      -7.138   9.692  68.751  1.00  0.00    -0.067 C  
HETATM    9  C   UNL     1      -8.742   2.830  65.127  1.00  0.00    -0.115 C  
HETATM   10  C   UNL     1      -8.498   4.353  66.797  1.00  0.00    -0.105 C  
HETATM   11  C   UNL     1      -7.167  10.814  69.797  1.00  0.00    -0.106 C  
HETATM   12  H   UNL     1      -9.469  10.712  66.964  1.00  0.00     0.000 HD 
HETATM   13  C   UNL     1      -5.774   9.134  67.488  1.00  0.00    -0.042 C  
HETATM   14  C   UNL     1      -6.326   7.814  66.416  1.00  0.00    -0.046 C  
HETATM   15  C   UNL     1      -9.850   5.028  66.924  1.00  0.00    -0.209 C  
HETATM   16  C   UNL     1      -7.388   6.579  66.959  1.00  0.00    -0.079 C  
HETATM   17  C   UNL     1      -5.957   4.587  66.416  1.00  0.00    -0.027 C  
HETATM   18  O   UNL     1      -6.871   8.479  65.255  1.00  0.00    -0.066 OA 
HETATM   19  F   UNL     1      -6.869   5.964  68.130  1.00  0.00    -0.057 F  
HETATM   20  C   UNL     1      -8.785   7.253  67.505  1.00  0.00    -0.121 C  
HETATM   21  C   UNL     1      -7.390   5.218  66.142  1.00  0.00    -0.081 C  
HETATM   22  C   UNL     1      -7.581   5.008  64.645  1.00  0.00    -0.078 C  
HETATM   23  H   UNL     1      -7.164   7.777  64.686  1.00  0.00     0.000 HD 
HETATM   24  O   UNL     1      -9.379   1.868  64.726  1.00  0.00    -0.132 OA 
HETATM   25  C   UNL     1      -9.786   6.163  67.932  1.00  0.00    -0.130 C  
HETATM   26  C   UNL     1      -8.165   3.870  64.190  1.00  0.00    -0.091 C  
ENDROOT
BRANCH   4  27
HETATM   27  C   UNL     1      -7.257  11.214  67.046  1.00  0.00    -0.128 C  
HETATM   28  O   UNL     1      -6.230  11.473  66.394  1.00  0.00    -0.118 OA 
BRANCH  27  29
HETATM   29  C   UNL     1      -8.174  12.427  67.352  1.00  0.00    -0.180 C  
BRANCH  29  30
HETATM   30  O   UNL     1      -8.681  13.063  66.154  1.00  0.00     0.179 OA 
BRANCH  30  31
HETATM   31  C   UNL     1     -10.030  13.011  66.005  1.00  0.00    -0.276 C  
HETATM   32  O   UNL     1     -10.611  12.872  64.944  1.00  0.00    -0.297 OA 
BRANCH  31  33
HETATM   33  C   UNL     1     -10.758  13.185  67.300  1.00  0.00    -0.262 A  
HETATM   34  C   UNL     1     -12.152  13.372  69.743  1.00  0.00    -0.374 A  
HETATM   35  O   UNL     1     -13.219  16.299  70.120  1.00  0.00     0.572 OA 
HETATM   36  C   UNL     1     -12.011  12.138  69.122  1.00  0.00    -0.311 A  
HETATM   37  C   UNL     1     -11.315  12.042  67.909  1.00  0.00    -0.369 A  
HETATM   38  O   UNL     1     -11.168  15.808  71.436  1.00  0.00    -0.366 OA 
HETATM   39  O   UNL     1     -10.922  17.011  69.341  1.00  0.00    -0.197 OA 
HETATM   40  C   UNL     1     -10.897  14.433  67.931  1.00  0.00    -0.256 A  
HETATM   41  S   UNL     1     -11.797  16.063  69.976  1.00  0.00    -0.137 S  
HETATM   42  C   UNL     1     -11.606  14.499  69.147  1.00  0.00    -0.298 A  
ENDBRANCH  31  33
ENDBRANCH  30  31
ENDBRANCH  29  30
ENDBRANCH  27  29
ENDBRANCH   4  27
TORSDOF 5
ENDMDL
MODEL      179
REMARK 921   NORMALIZED FREE ENERGY PREDICTED BY IDOCK:   -2.68 KCAL/MOL
REMARK 922        TOTAL FREE ENERGY PREDICTED BY IDOCK:   -4.17 KCAL/MOL
REMARK 923 INTER-LIGAND FREE ENERGY PREDICTED BY IDOCK:   -4.06 KCAL/MOL
REMARK 924 INTRA-LIGAND FREE ENERGY PREDICTED BY IDOCK:   -0.11 KCAL/MOL
REMARK 927      BINDING AFFINITY PREDICTED BY RF-SCORE:    0.00 PKD
ROOT
HETATM    1  C   UNL     1      -8.426   6.499  70.514  1.00  0.00    -0.138 C  
HETATM    2  C   UNL     1      -8.065   5.439  71.364  1.00  0.00    -0.116 C  
HETATM    3  C   UNL     1      -6.898   6.112  70.697  1.00  0.00    -0.062 C  
HETATM    4  C   UNL     1      -7.265   7.914  69.734  1.00  0.00    -0.066 C  
HETATM    5  C   UNL     1      -5.663   5.450  71.656  1.00  0.00    -0.020 C  
HETATM    6  O   UNL     1      -8.581   8.555  69.889  1.00  0.00    -0.126 OA 
HETATM    7  C   UNL     1      -8.727   2.162  66.586  1.00  0.00    -0.127 C  
HETATM    8  C   UNL     1      -6.774   7.481  70.919  1.00  0.00    -0.043 C  
HETATM    9  C   UNL     1      -8.875   2.502  65.125  1.00  0.00    -0.120 C  
HETATM   10  C   UNL     1      -8.611   3.345  67.219  1.00  0.00    -0.118 C  
HETATM   11  C   UNL     1      -6.766   8.196  72.277  1.00  0.00    -0.081 C  
HETATM   12  H   UNL     1      -8.749   9.380  69.448  1.00  0.00     0.000 HD 
HETATM   13  C   UNL     1      -5.371   7.151  69.621  1.00  0.00    -0.015 C  
HETATM   14  C   UNL     1      -5.975   6.352  68.140  1.00  0.00    -0.016 C  
HETATM   15  C   UNL     1      -9.868   4.150  67.487  1.00  0.00    -0.139 C  
HETATM   16  C   UNL     1      -7.242   5.194  68.178  1.00  0.00    -0.067 C  
HETATM   17  C   UNL     1      -6.035   3.282  67.082  1.00  0.00    -0.024 C  
HETATM   18  O   UNL     1      -6.301   7.434  67.240  1.00  0.00    -0.051 OA 
HETATM   19  F   UNL     1      -6.935   4.160  69.104  1.00  0.00    -0.043 F  
HETATM   20  C   UNL     1      -8.587   5.869  68.838  1.00  0.00    -0.110 C  
HETATM   21  C   UNL     1      -7.336   4.187  66.954  1.00  0.00    -0.073 C  
HETATM   22  C   UNL     1      -7.394   4.505  65.465  1.00  0.00    -0.080 C  
HETATM   23  H   UNL     1      -6.622   7.009  66.453  1.00  0.00     0.000 HD 
HETATM   24  O   UNL     1      -9.587   1.834  64.389  1.00  0.00    -0.135 OA 
HETATM   25  C   UNL     1      -9.762   4.874  68.819  1.00  0.00    -0.232 C  
HETATM   26  C   UNL     1      -8.071   3.682  64.623  1.00  0.00    -0.090 C  
ENDROOT
BRANCH   4  27
HETATM   27  C   UNL     1      -6.511   9.470  69.818  1.00  0.00    -0.046 C  
HETATM   28  O   UNL     1      -5.292   9.676  69.947  1.00  0.00    -0.032 OA 
BRANCH  27  29
HETATM   29  C   UNL     1      -7.386  10.741  69.650  1.00  0.00    -0.103 C  
BRANCH  29  30
HETATM   30  O   UNL     1      -6.606  11.921  69.339  1.00  0.00    -0.108 OA 
BRANCH  30  31
HETATM   31  C   UNL     1      -6.628  12.295  68.033  1.00  0.00    -0.076 C  
HETATM   32  O   UNL     1      -5.888  13.120  67.530  1.00  0.00    -0.240 OA 
BRANCH  31  33
HETATM   33  C   UNL     1      -7.705  11.605  67.257  1.00  0.00    -0.154 A  
HETATM   34  C   UNL     1      -9.829  10.395  65.854  1.00  0.00    -0.294 A  
HETATM   35  O   UNL     1      -9.021   7.474  65.044  1.00  0.00     0.200 OA 
HETATM   36  C   UNL     1     -10.086  11.453  66.716  1.00  0.00    -0.250 A  
HETATM   37  C   UNL     1      -9.031  12.058  67.413  1.00  0.00    -0.176 A  
HETATM   38  O   UNL     1      -8.845   9.109  63.180  1.00  0.00    -0.196 OA 
HETATM   39  O   UNL     1      -6.813   8.499  64.362  1.00  0.00    -0.069 OA 
HETATM   40  C   UNL     1      -7.445  10.538  66.382  1.00  0.00    -0.133 A  
HETATM   41  S   UNL     1      -8.232   8.595  64.578  1.00  0.00    -0.149 S  
HETATM   42  C   UNL     1      -8.526   9.946  65.699  1.00  0.00    -0.144 A  
ENDBRANCH  31  33
ENDBRANCH  30  31
ENDBRANCH  29  30
ENDBRANCH  27  29
ENDBRANCH   4  27
TORSDOF 5
ENDMDL
MODEL      180
REMARK 921   NORMALIZED FREE ENERGY PREDICTED BY IDOCK:   -2.50 KCAL/MOL
REMARK 922        TOTAL FREE ENERGY PREDICTED BY IDOCK:   -3.94 KCAL/MOL
REMARK 923 INTER-LIGAND FREE ENERGY PREDICTED BY IDOCK:   -5.51 KCAL/MOL
REMARK 924 INTRA-LIGAND FREE ENERGY PREDICTED BY IDOCK:    1.58 KCAL/MOL
REMARK 927      BINDING AFFINITY PREDICTED BY RF-SCORE:    0.00 PKD
ROOT
HETATM    1  C   UNL     1     -10.928   9.408  71.492  1.00  0.00    -0.429 C  
HETATM    2  C   UNL     1     -12.271   9.133  71.180  1.00  0.00    -0.350 C  
HETATM    3  C   UNL     1     -11.293   8.152  70.595  1.00  0.00    -0.256 C  
HETATM    4  C   UNL     1      -9.340   8.226  71.295  1.00  0.00    -0.173 C  
HETATM    5  C   UNL     1     -12.403   6.947  70.151  1.00  0.00     0.132 C  
HETATM    6  O   UNL     1      -9.023   9.087  72.447  1.00  0.00    -0.326 OA 
HETATM    7  C   UNL     1     -11.304  12.613  66.601  1.00  0.00    -0.379 C  
HETATM    8  C   UNL     1     -10.464   7.500  71.505  1.00  0.00    -0.226 C  
HETATM    9  C   UNL     1     -10.046  13.178  65.994  1.00  0.00    -0.286 C  
HETATM   10  C   UNL     1     -10.895  11.875  67.651  1.00  0.00    -0.271 C  
HETATM   11  C   UNL     1     -10.898   6.740  72.765  1.00  0.00    -0.294 C  
HETATM   12  H   UNL     1      -8.129   9.121  72.767  1.00  0.00     0.000 HD 
HETATM   13  C   UNL     1      -9.759   6.891  69.803  1.00  0.00    -0.166 C  
HETATM   14  C   UNL     1      -9.315   8.241  68.718  1.00  0.00    -0.143 C  
HETATM   15  C   UNL     1     -10.538  12.587  68.942  1.00  0.00    -0.152 C  
HETATM   16  C   UNL     1     -10.204   9.709  68.673  1.00  0.00    -0.189 C  
HETATM   17  C   UNL     1     -10.778   9.726  66.227  1.00  0.00     0.044 C  
HETATM   18  O   UNL     1      -7.920   8.499  68.995  1.00  0.00    -0.108 OA 
HETATM   19  F   UNL     1     -11.582   9.443  68.450  1.00  0.00     0.069 F  
HETATM   20  C   UNL     1     -10.215  10.393  70.168  1.00  0.00    -0.050 C  
HETATM   21  C   UNL     1     -10.074  10.592  67.360  1.00  0.00    -0.236 C  
HETATM   22  C   UNL     1      -8.810  11.097  66.676  1.00  0.00    -0.168 C  
HETATM   23  H   UNL     1      -7.685   9.216  68.419  1.00  0.00     0.000 HD 
HETATM   24  O   UNL     1     -10.030  14.295  65.497  1.00  0.00    -0.334 OA 
HETATM   25  C   UNL     1     -10.945  11.749  70.142  1.00  0.00     0.513 C  
HETATM   26  C   UNL     1      -8.830  12.277  66.003  1.00  0.00     0.146 C  
ENDROOT
BRANCH   4  27
HETATM   27  C   UNL     1      -8.264   7.020  71.916  1.00  0.00    -0.102 C  
HETATM   28  O   UNL     1      -7.636   7.096  72.986  1.00  0.00    -0.079 OA 
BRANCH  27  29
HETATM   29  C   UNL     1      -8.097   5.688  71.139  1.00  0.00    -0.116 C  
BRANCH  29  30
HETATM   30  O   UNL     1      -8.598   4.544  71.873  1.00  0.00    -0.110 OA 
BRANCH  30  31
HETATM   31  C   UNL     1      -9.498   3.781  71.202  1.00  0.00    -0.166 C  
HETATM   32  O   UNL     1     -10.441   3.202  71.710  1.00  0.00     0.081 OA 
BRANCH  31  33
HETATM   33  C   UNL     1      -9.193   3.686  69.740  1.00  0.00    -0.217 A  
HETATM   34  C   UNL     1      -8.523   3.403  67.017  1.00  0.00    -0.109 A  
HETATM   35  O   UNL     1      -9.214   6.053  65.486  1.00  0.00    -0.043 OA 
HETATM   36  C   UNL     1      -7.898   2.607  67.968  1.00  0.00    -0.059 A  
HETATM   37  C   UNL     1      -8.231   2.744  69.322  1.00  0.00    -0.074 A  
HETATM   38  O   UNL     1     -10.894   4.249  65.164  1.00  0.00    -0.242 OA 
HETATM   39  O   UNL     1     -11.381   5.991  66.786  1.00  0.00    -0.134 OA 
HETATM   40  C   UNL     1      -9.828   4.488  68.778  1.00  0.00    -0.180 A  
HETATM   41  S   UNL     1     -10.259   5.327  66.178  1.00  0.00    -0.155 S  
HETATM   42  C   UNL     1      -9.469   4.332  67.425  1.00  0.00    -0.180 A  
ENDBRANCH  31  33
ENDBRANCH  30  31
ENDBRANCH  29  30
ENDBRANCH  27  29
ENDBRANCH   4  27
TORSDOF 5
ENDMDL
MODEL      181
REMARK 921   NORMALIZED FREE ENERGY PREDICTED BY IDOCK:   -2.43 KCAL/MOL
REMARK 922        TOTAL FREE ENERGY PREDICTED BY IDOCK:   -3.85 KCAL/MOL
REMARK 923 INTER-LIGAND FREE ENERGY PREDICTED BY IDOCK:   -4.93 KCAL/MOL
REMARK 924 INTRA-LIGAND FREE ENERGY PREDICTED BY IDOCK:    1.08 KCAL/MOL
REMARK 927      BINDING AFFINITY PREDICTED BY RF-SCORE:    0.00 PKD
ROOT
HETATM    1  C   UNL     1      -7.790   4.225  66.969  1.00  0.00    -0.097 C  
HETATM    2  C   UNL     1      -8.809   3.273  66.792  1.00  0.00    -0.150 C  
HETATM    3  C   UNL     1      -9.187   4.663  66.359  1.00  0.00    -0.133 C  
HETATM    4  C   UNL     1      -7.659   6.060  66.210  1.00  0.00    -0.090 C  
HETATM    5  C   UNL     1     -10.590   4.266  65.488  1.00  0.00    -0.126 C  
HETATM    6  O   UNL     1      -6.263   5.613  66.348  1.00  0.00    -0.032 OA 
HETATM    7  C   UNL     1     -10.297   4.719  72.242  1.00  0.00    -0.264 C  
HETATM    8  C   UNL     1      -8.369   5.245  65.394  1.00  0.00    -0.136 C  
HETATM    9  C   UNL     1      -9.890   5.854  73.147  1.00  0.00    -0.168 C  
HETATM   10  C   UNL     1      -9.617   4.913  71.095  1.00  0.00    -0.232 C  
HETATM   11  C   UNL     1      -7.958   4.638  64.046  1.00  0.00    -0.095 C  
HETATM   12  H   UNL     1      -5.564   6.252  66.281  1.00  0.00     0.000 HD 
HETATM   13  C   UNL     1      -9.566   6.703  65.847  1.00  0.00     0.181 C  
HETATM   14  C   UNL     1      -9.587   7.060  67.598  1.00  0.00    -0.131 C  
HETATM   15  C   UNL     1      -8.160   4.497  71.037  1.00  0.00    -0.081 C  
HETATM   16  C   UNL     1      -9.431   5.829  68.785  1.00  0.00    -0.124 C  
HETATM   17  C   UNL     1     -11.556   6.260  70.054  1.00  0.00    -0.378 C  
HETATM   18  O   UNL     1      -8.576   8.076  67.784  1.00  0.00    -0.127 OA 
HETATM   19  F   UNL     1     -10.397   4.810  68.564  1.00  0.00    -0.202 F  
HETATM   20  C   UNL     1      -8.015   5.025  68.563  1.00  0.00    -0.086 C  
HETATM   21  C   UNL     1      -9.981   6.153  70.238  1.00  0.00    -0.226 C  
HETATM   22  C   UNL     1      -9.654   7.342  71.133  1.00  0.00    -0.162 C  
HETATM   23  H   UNL     1      -8.587   8.265  68.714  1.00  0.00     0.000 HD 
HETATM   24  O   UNL     1      -9.778   5.693  74.353  1.00  0.00    -0.161 OA 
HETATM   25  C   UNL     1      -7.815   3.960  69.658  1.00  0.00    -0.052 C  
HETATM   26  C   UNL     1      -9.667   7.197  72.484  1.00  0.00    -0.180 C  
ENDROOT
BRANCH   4  27
HETATM   27  C   UNL     1      -7.174   7.147  64.953  1.00  0.00    -0.071 C  
HETATM   28  O   UNL     1      -6.014   7.289  64.530  1.00  0.00    -0.036 OA 
BRANCH  27  29
HETATM   29  C   UNL     1      -8.257   7.980  64.219  1.00  0.00    -0.067 C  
BRANCH  29  30
HETATM   30  O   UNL     1      -8.784   9.056  65.033  1.00  0.00    -0.180 OA 
BRANCH  30  31
HETATM   31  C   UNL     1      -8.029  10.185  65.050  1.00  0.00    -0.146 C  
HETATM   32  O   UNL     1      -7.199  10.483  64.210  1.00  0.00    -0.036 OA 
BRANCH  31  33
HETATM   33  C   UNL     1      -8.294  11.035  66.252  1.00  0.00    -0.166 A  
HETATM   34  C   UNL     1      -8.925  12.581  68.523  1.00  0.00    -0.052 A  
HETATM   35  O   UNL     1      -7.034  15.081  68.649  1.00  0.00    -0.103 OA 
HETATM   36  C   UNL     1      -9.880  11.732  67.979  1.00  0.00    -0.184 A  
HETATM   37  C   UNL     1      -9.568  10.960  66.851  1.00  0.00    -0.203 A  
HETATM   38  O   UNL     1      -6.370  13.251  70.195  1.00  0.00    -0.090 OA 
HETATM   39  O   UNL     1      -5.188  13.450  68.082  1.00  0.00    -0.089 OA 
HETATM   40  C   UNL     1      -7.327  11.891  66.805  1.00  0.00    -0.011 A  
HETATM   41  S   UNL     1      -6.469  13.748  68.666  1.00  0.00    -0.103 S  
HETATM   42  C   UNL     1      -7.671  12.658  67.935  1.00  0.00    -0.141 A  
ENDBRANCH  31  33
ENDBRANCH  30  31
ENDBRANCH  29  30
ENDBRANCH  27  29
ENDBRANCH   4  27
TORSDOF 5
ENDMDL
MODEL      182
REMARK 921   NORMALIZED FREE ENERGY PREDICTED BY IDOCK:   -2.31 KCAL/MOL
REMARK 922        TOTAL FREE ENERGY PREDICTED BY IDOCK:   -3.69 KCAL/MOL
REMARK 923 INTER-LIGAND FREE ENERGY PREDICTED BY IDOCK:   -5.19 KCAL/MOL
REMARK 924 INTRA-LIGAND FREE ENERGY PREDICTED BY IDOCK:    1.50 KCAL/MOL
REMARK 927      BINDING AFFINITY PREDICTED BY RF-SCORE:    0.00 PKD
ROOT
HETATM    1  C   UNL     1     -10.062  12.344  63.839  1.00  0.00    -0.349 C  
HETATM    2  C   UNL     1     -10.927  11.602  63.017  1.00  0.00    -0.086 C  
HETATM    3  C   UNL     1     -11.495  11.924  64.371  1.00  0.00    -0.393 C  
HETATM    4  C   UNL     1     -10.482  13.325  65.518  1.00  0.00    -0.288 C  
HETATM    5  C   UNL     1     -13.115  11.525  64.049  1.00  0.00     0.581 C  
HETATM    6  O   UNL     1      -9.373  14.082  64.912  1.00  0.00    -0.033 OA 
HETATM    7  C   UNL     1      -8.265   6.985  65.382  1.00  0.00    -0.133 C  
HETATM    8  C   UNL     1     -11.560  13.275  64.701  1.00  0.00    -0.385 C  
HETATM    9  C   UNL     1      -7.345   6.830  66.566  1.00  0.00    -0.074 C  
HETATM   10  C   UNL     1      -8.557   8.299  65.325  1.00  0.00    -0.159 C  
HETATM   11  C   UNL     1     -12.189  14.398  63.865  1.00  0.00    -0.178 C  
HETATM   12  H   UNL     1      -8.909  14.723  65.437  1.00  0.00     0.000 HD 
HETATM   13  C   UNL     1     -12.117  12.425  66.354  1.00  0.00    -0.215 C  
HETATM   14  C   UNL     1     -10.928  11.228  66.948  1.00  0.00    -0.290 C  
HETATM   15  C   UNL     1      -7.539   9.241  64.713  1.00  0.00    -0.109 C  
HETATM   16  C   UNL     1     -10.005  10.250  65.881  1.00  0.00    -0.256 C  
HETATM   17  C   UNL     1     -10.678   7.995  66.763  1.00  0.00    -0.077 C  
HETATM   18  O   UNL     1     -10.063  11.971  67.835  1.00  0.00    -0.186 OA 
HETATM   19  F   UNL     1     -10.862   9.562  64.980  1.00  0.00     0.635 F  
HETATM   20  C   UNL     1      -9.129  11.208  64.873  1.00  0.00    -0.111 C  
HETATM   21  C   UNL     1      -9.406   8.904  66.473  1.00  0.00    -0.252 C  
HETATM   22  C   UNL     1      -8.551   8.712  67.719  1.00  0.00    -0.136 C  
HETATM   23  H   UNL     1      -9.432  11.335  68.150  1.00  0.00     0.000 HD 
HETATM   24  O   UNL     1      -6.437   6.013  66.558  1.00  0.00    -0.043 OA 
HETATM   25  C   UNL     1      -8.235  10.356  63.952  1.00  0.00    -0.115 C  
HETATM   26  C   UNL     1      -7.634   7.710  67.763  1.00  0.00    -0.117 C  
ENDROOT
BRANCH   4  27
HETATM   27  C   UNL     1     -10.988  14.758  66.348  1.00  0.00    -0.331 C  
HETATM   28  O   UNL     1     -10.920  15.915  65.898  1.00  0.00    -0.264 OA 
BRANCH  27  29
HETATM   29  C   UNL     1     -11.654  14.625  67.743  1.00  0.00    -0.359 C  
BRANCH  29  30
HETATM   30  O   UNL     1     -11.565  15.841  68.525  1.00  0.00    -0.368 OA 
BRANCH  30  31
HETATM   31  C   UNL     1     -10.542  15.875  69.417  1.00  0.00    -0.263 C  
HETATM   32  O   UNL     1     -10.622  16.300  70.556  1.00  0.00    -0.111 OA 
BRANCH  31  33
HETATM   33  C   UNL     1      -9.261  15.361  68.841  1.00  0.00    -0.216 A  
HETATM   34  C   UNL     1      -6.827  14.520  67.695  1.00  0.00    -0.203 A  
HETATM   35  O   UNL     1      -6.797  11.391  67.474  1.00  0.00    -0.075 OA 
HETATM   36  C   UNL     1      -7.290  15.809  67.464  1.00  0.00    -0.205 A  
HETATM   37  C   UNL     1      -8.498  16.231  68.035  1.00  0.00    -0.174 A  
HETATM   38  O   UNL     1      -5.482  12.267  69.393  1.00  0.00    -0.068 OA 
HETATM   39  O   UNL     1      -7.719  11.426  69.827  1.00  0.00     0.277 OA 
HETATM   40  C   UNL     1      -8.791  14.058  69.078  1.00  0.00     0.172 A  
HETATM   41  S   UNL     1      -6.947  12.021  68.769  1.00  0.00    -0.104 S  
HETATM   42  C   UNL     1      -7.575  13.662  68.486  1.00  0.00    -0.130 A  
ENDBRANCH  31  33
ENDBRANCH  30  31
ENDBRANCH  29  30
ENDBRANCH  27  29
ENDBRANCH   4  27
TORSDOF 5
ENDMDL
MODEL      183
REMARK 921   NORMALIZED FREE ENERGY PREDICTED BY IDOCK:   -2.13 KCAL/MOL
REMARK 922        TOTAL FREE ENERGY PREDICTED BY IDOCK:   -3.46 KCAL/MOL
REMARK 923 INTER-LIGAND FREE ENERGY PREDICTED BY IDOCK:   -4.91 KCAL/MOL
REMARK 924 INTRA-LIGAND FREE ENERGY PREDICTED BY IDOCK:    1.45 KCAL/MOL
REMARK 927      BINDING AFFINITY PREDICTED BY RF-SCORE:    0.00 PKD
ROOT
HETATM    1  C   UNL     1      -6.613   8.725  67.921  1.00  0.00    -0.061 C  
HETATM    2  C   UNL     1      -5.535   9.168  67.135  1.00  0.00    -0.041 C  
HETATM    3  C   UNL     1      -6.882   9.612  66.635  1.00  0.00    -0.084 C  
HETATM    4  C   UNL     1      -8.501   9.351  67.906  1.00  0.00    -0.116 C  
HETATM    5  C   UNL     1      -6.349  10.792  65.535  1.00  0.00    -0.026 C  
HETATM    6  O   UNL     1      -8.261   8.924  69.295  1.00  0.00    -0.110 OA 
HETATM    7  C   UNL     1      -6.297   4.131  64.298  1.00  0.00    -0.030 C  
HETATM    8  C   UNL     1      -7.657  10.342  67.533  1.00  0.00    -0.094 C  
HETATM    9  C   UNL     1      -7.404   3.108  64.309  1.00  0.00    -0.063 C  
HETATM   10  C   UNL     1      -6.683   5.086  65.165  1.00  0.00    -0.048 C  
HETATM   11  C   UNL     1      -7.229  11.589  68.316  1.00  0.00    -0.084 C  
HETATM   12  H   UNL     1      -9.002   8.805  69.877  1.00  0.00     0.000 HD 
HETATM   13  C   UNL     1      -8.876  10.104  66.042  1.00  0.00    -0.160 C  
HETATM   14  C   UNL     1      -9.084   8.387  65.588  1.00  0.00    -0.097 C  
HETATM   15  C   UNL     1      -6.497   4.835  66.650  1.00  0.00    -0.041 C  
HETATM   16  C   UNL     1      -7.799   7.253  65.688  1.00  0.00    -0.112 C  
HETATM   17  C   UNL     1      -7.801   6.474  63.299  1.00  0.00    -0.104 C  
HETATM   18  O   UNL     1     -10.223   7.935  66.354  1.00  0.00    -0.470 OA 
HETATM   19  F   UNL     1      -6.667   7.730  64.973  1.00  0.00    -0.048 F  
HETATM   20  C   UNL     1      -7.239   7.187  67.232  1.00  0.00    -0.086 C  
HETATM   21  C   UNL     1      -7.919   5.947  64.794  1.00  0.00    -0.126 C  
HETATM   22  C   UNL     1      -9.067   4.948  64.721  1.00  0.00    -0.098 C  
HETATM   23  H   UNL     1     -10.333   7.022  66.113  1.00  0.00     0.000 HD 
HETATM   24  O   UNL     1      -7.164   1.916  64.185  1.00  0.00    -0.052 OA 
HETATM   25  C   UNL     1      -6.132   6.125  67.366  1.00  0.00    -0.018 C  
HETATM   26  C   UNL     1      -8.813   3.643  64.443  1.00  0.00    -0.117 C  
ENDROOT
BRANCH   4  27
HETATM   27  C   UNL     1      -9.747  10.417  68.463  1.00  0.00    -0.168 C  
HETATM   28  O   UNL     1      -9.590  11.611  68.773  1.00  0.00    -0.167 OA 
BRANCH  27  29
HETATM   29  C   UNL     1     -11.208   9.900  68.527  1.00  0.00    -0.072 C  
BRANCH  29  30
HETATM   30  O   UNL     1     -11.996  10.569  69.541  1.00  0.00    -0.259 OA 
BRANCH  30  31
HETATM   31  C   UNL     1     -11.775  10.144  70.812  1.00  0.00    -0.357 C  
HETATM   32  O   UNL     1     -11.909  10.828  71.810  1.00  0.00     0.130 OA 
BRANCH  31  33
HETATM   33  C   UNL     1     -11.301   8.726  70.868  1.00  0.00    -0.322 A  
HETATM   34  C   UNL     1     -10.499   6.024  70.868  1.00  0.00    -0.293 A  
HETATM   35  O   UNL     1      -9.293   5.288  73.669  1.00  0.00    -0.133 OA 
HETATM   36  C   UNL     1     -11.468   6.456  69.972  1.00  0.00    -0.496 A  
HETATM   37  C   UNL     1     -11.866   7.800  69.968  1.00  0.00     0.330 A  
HETATM   38  O   UNL     1      -7.574   5.702  71.922  1.00  0.00    -0.092 OA 
HETATM   39  O   UNL     1      -8.069   7.492  73.487  1.00  0.00    -0.113 OA 
HETATM   40  C   UNL     1     -10.318   8.290  71.772  1.00  0.00    -0.321 A  
HETATM   41  S   UNL     1      -8.695   6.346  72.883  1.00  0.00    -0.123 S  
HETATM   42  C   UNL     1      -9.942   6.932  71.756  1.00  0.00    -0.173 A  
ENDBRANCH  31  33
ENDBRANCH  30  31
ENDBRANCH  29  30
ENDBRANCH  27  29
ENDBRANCH   4  27
TORSDOF 5
ENDMDL
MODEL      184
REMARK 921   NORMALIZED FREE ENERGY PREDICTED BY IDOCK:   -2.02 KCAL/MOL
REMARK 922        TOTAL FREE ENERGY PREDICTED BY IDOCK:   -3.32 KCAL/MOL
REMARK 923 INTER-LIGAND FREE ENERGY PREDICTED BY IDOCK:   -3.53 KCAL/MOL
REMARK 924 INTRA-LIGAND FREE ENERGY PREDICTED BY IDOCK:    0.21 KCAL/MOL
REMARK 927      BINDING AFFINITY PREDICTED BY RF-SCORE:    0.00 PKD
ROOT
HETATM    1  C   UNL     1     -10.227   9.798  71.024  1.00  0.00    -0.113 C  
HETATM    2  C   UNL     1     -11.216  10.547  70.364  1.00  0.00    -0.378 C  
HETATM    3  C   UNL     1     -11.513   9.075  70.443  1.00  0.00    -0.202 C  
HETATM    4  C   UNL     1     -10.333   7.935  71.714  1.00  0.00    -0.209 C  
HETATM    5  C   UNL     1     -13.152   9.140  70.001  1.00  0.00     1.573 C  
HETATM    6  O   UNL     1      -9.389   8.614  72.618  1.00  0.00    -0.264 OA 
HETATM    7  C   UNL     1      -8.004   9.503  65.610  1.00  0.00    -0.108 C  
HETATM    8  C   UNL     1     -11.550   8.527  71.723  1.00  0.00    -0.380 C  
HETATM    9  C   UNL     1      -6.863   8.558  65.334  1.00  0.00    -0.070 C  
HETATM   10  C   UNL     1      -8.340   9.293  66.898  1.00  0.00    -0.123 C  
HETATM   11  C   UNL     1     -12.365   9.037  72.919  1.00  0.00     0.343 C  
HETATM   12  H   UNL     1      -8.849   8.092  73.199  1.00  0.00     0.000 HD 
HETATM   13  C   UNL     1     -11.742   6.955  70.601  1.00  0.00    -0.417 C  
HETATM   14  C   UNL     1     -10.425   6.799  69.402  1.00  0.00    -0.217 C  
HETATM   15  C   UNL     1      -7.491   9.930  67.981  1.00  0.00    -0.085 C  
HETATM   16  C   UNL     1      -9.704   8.165  68.652  1.00  0.00    -0.153 C  
HETATM   17  C   UNL     1     -10.123   7.542  66.255  1.00  0.00     0.066 C  
HETATM   18  O   UNL     1      -9.423   5.987  70.053  1.00  0.00    -0.153 OA 
HETATM   19  F   UNL     1     -10.703   8.984  68.058  1.00  0.00    -0.269 F  
HETATM   20  C   UNL     1      -9.074   9.157  69.802  1.00  0.00    -0.173 C  
HETATM   21  C   UNL     1      -8.961   7.922  67.271  1.00  0.00    -0.137 C  
HETATM   22  C   UNL     1      -7.870   6.910  66.945  1.00  0.00    -0.107 C  
HETATM   23  H   UNL     1      -8.723   5.905  69.416  1.00  0.00     0.000 HD 
HETATM   24  O   UNL     1      -5.951   8.870  64.583  1.00  0.00    -0.063 OA 
HETATM   25  C   UNL     1      -8.357  10.356  69.154  1.00  0.00    -0.160 C  
HETATM   26  C   UNL     1      -6.934   7.203  66.005  1.00  0.00    -0.065 C  
ENDROOT
BRANCH   4  27
HETATM   27  C   UNL     1     -10.706   6.806  72.972  1.00  0.00    -0.285 C  
HETATM   28  O   UNL     1     -10.298   6.871  74.145  1.00  0.00    -0.373 OA 
BRANCH  27  29
HETATM   29  C   UNL     1     -11.684   5.640  72.672  1.00  0.00    -0.197 C  
BRANCH  29  30
HETATM   30  O   UNL     1     -11.004   4.435  72.243  1.00  0.00    -0.006 OA 
BRANCH  30  31
HETATM   31  C   UNL     1     -10.393   3.737  73.234  1.00  0.00    -0.167 C  
HETATM   32  O   UNL     1     -10.877   3.506  74.328  1.00  0.00    -0.190 OA 
BRANCH  31  33
HETATM   33  C   UNL     1      -9.013   3.297  72.860  1.00  0.00    -0.102 A  
HETATM   34  C   UNL     1      -6.399   2.414  72.285  1.00  0.00    -0.014 A  
HETATM   35  O   UNL     1      -5.207   4.119  69.937  1.00  0.00    -0.003 OA 
HETATM   36  C   UNL     1      -6.946   2.180  73.541  1.00  0.00    -0.024 A  
HETATM   37  C   UNL     1      -8.246   2.616  73.828  1.00  0.00    -0.067 A  
HETATM   38  O   UNL     1      -6.020   1.879  69.229  1.00  0.00    -0.022 OA 
HETATM   39  O   UNL     1      -7.461   3.795  68.838  1.00  0.00    -0.053 OA 
HETATM   40  C   UNL     1      -8.461   3.530  71.589  1.00  0.00    -0.095 A  
HETATM   41  S   UNL     1      -6.420   3.357  69.730  1.00  0.00    -0.033 S  
HETATM   42  C   UNL     1      -7.149   3.085  71.331  1.00  0.00    -0.032 A  
ENDBRANCH  31  33
ENDBRANCH  30  31
ENDBRANCH  29  30
ENDBRANCH  27  29
ENDBRANCH   4  27
TORSDOF 5
ENDMDL
MODEL      185
REMARK 921   NORMALIZED FREE ENERGY PREDICTED BY IDOCK:   -1.98 KCAL/MOL
REMARK 922        TOTAL FREE ENERGY PREDICTED BY IDOCK:   -3.27 KCAL/MOL
REMARK 923 INTER-LIGAND FREE ENERGY PREDICTED BY IDOCK:   -3.71 KCAL/MOL
REMARK 924 INTRA-LIGAND FREE ENERGY PREDICTED BY IDOCK:    0.44 KCAL/MOL
REMARK 927      BINDING AFFINITY PREDICTED BY RF-SCORE:    0.00 PKD
ROOT
HETATM    1  C   UNL     1      -9.684   5.223  69.967  1.00  0.00    -0.263 C  
HETATM    2  C   UNL     1      -9.823   4.048  70.726  1.00  0.00    -0.233 C  
HETATM    3  C   UNL     1      -8.621   4.874  71.091  1.00  0.00    -0.131 C  
HETATM    4  C   UNL     1      -8.521   6.798  70.320  1.00  0.00    -0.135 C  
HETATM    5  C   UNL     1      -8.245   4.108  72.560  1.00  0.00    -0.099 C  
HETATM    6  O   UNL     1      -9.688   7.349  69.611  1.00  0.00    -0.163 OA 
HETATM    7  C   UNL     1      -6.681   1.621  66.454  1.00  0.00    -0.027 C  
HETATM    8  C   UNL     1      -8.877   6.188  71.475  1.00  0.00    -0.135 C  
HETATM    9  C   UNL     1      -5.877   2.202  65.319  1.00  0.00    -0.017 C  
HETATM   10  C   UNL     1      -7.186   2.681  67.114  1.00  0.00    -0.057 C  
HETATM   11  C   UNL     1      -9.871   6.658  72.546  1.00  0.00    -0.176 C  
HETATM   12  H   UNL     1      -9.642   8.229  69.258  1.00  0.00     0.000 HD 
HETATM   13  C   UNL     1      -6.937   6.145  71.438  1.00  0.00    -0.076 C  
HETATM   14  C   UNL     1      -6.290   5.590  69.867  1.00  0.00    -0.033 C  
HETATM   15  C   UNL     1      -8.409   3.375  66.544  1.00  0.00    -0.102 C  
HETATM   16  C   UNL     1      -7.079   4.391  68.925  1.00  0.00    -0.052 C  
HETATM   17  C   UNL     1      -5.187   2.749  68.744  1.00  0.00    -0.012 C  
HETATM   18  O   UNL     1      -6.095   6.796  69.096  1.00  0.00    -0.024 OA 
HETATM   19  F   UNL     1      -7.311   3.227  69.705  1.00  0.00    -0.043 F  
HETATM   20  C   UNL     1      -8.606   4.887  68.569  1.00  0.00    -0.099 C  
HETATM   21  C   UNL     1      -6.195   3.608  67.865  1.00  0.00    -0.033 C  
HETATM   22  C   UNL     1      -5.302   4.175  66.768  1.00  0.00    -0.013 C  
HETATM   23  H   UNL     1      -5.752   6.501  68.262  1.00  0.00     0.000 HD 
HETATM   24  O   UNL     1      -5.819   1.643  64.234  1.00  0.00    -0.011 OA 
HETATM   25  C   UNL     1      -9.314   3.862  67.663  1.00  0.00    -0.232 C  
HETATM   26  C   UNL     1      -5.126   3.483  65.612  1.00  0.00    -0.009 C  
ENDROOT
BRANCH   4  27
HETATM   27  C   UNL     1      -8.248   8.347  71.046  1.00  0.00    -0.128 C  
HETATM   28  O   UNL     1      -9.128   9.087  71.519  1.00  0.00    -0.257 OA 
BRANCH  27  29
HETATM   29  C   UNL     1      -6.792   8.858  71.204  1.00  0.00    -0.085 C  
BRANCH  29  30
HETATM   30  O   UNL     1      -6.207   9.280  69.948  1.00  0.00    -0.037 OA 
BRANCH  30  31
HETATM   31  C   UNL     1      -6.907  10.233  69.280  1.00  0.00    -0.068 C  
HETATM   32  O   UNL     1      -7.645  11.050  69.800  1.00  0.00    -0.014 OA 
BRANCH  31  33
HETATM   33  C   UNL     1      -6.710  10.157  67.799  1.00  0.00    -0.071 A  
HETATM   34  C   UNL     1      -6.243  10.120  65.020  1.00  0.00    -0.123 A  
HETATM   35  O   UNL     1      -8.731   8.894  63.554  1.00  0.00    -0.146 OA 
HETATM   36  C   UNL     1      -5.553  11.018  65.824  1.00  0.00    -0.105 A  
HETATM   37  C   UNL     1      -5.781  11.037  67.206  1.00  0.00    -0.052 A  
HETATM   38  O   UNL     1      -6.835   7.304  63.800  1.00  0.00    -0.050 OA 
HETATM   39  O   UNL     1      -8.676   7.142  65.376  1.00  0.00    -0.087 OA 
HETATM   40  C   UNL     1      -7.406   9.247  66.987  1.00  0.00    -0.091 A  
HETATM   41  S   UNL     1      -8.017   8.110  64.540  1.00  0.00    -0.135 S  
HETATM   42  C   UNL     1      -7.159   9.255  65.599  1.00  0.00    -0.082 A  
ENDBRANCH  31  33
ENDBRANCH  30  31
ENDBRANCH  29  30
ENDBRANCH  27  29
ENDBRANCH   4  27
TORSDOF 5
ENDMDL
MODEL      186
REMARK 921   NORMALIZED FREE ENERGY PREDICTED BY IDOCK:   -1.85 KCAL/MOL
REMARK 922        TOTAL FREE ENERGY PREDICTED BY IDOCK:   -3.10 KCAL/MOL
REMARK 923 INTER-LIGAND FREE ENERGY PREDICTED BY IDOCK:   -3.00 KCAL/MOL
REMARK 924 INTRA-LIGAND FREE ENERGY PREDICTED BY IDOCK:   -0.10 KCAL/MOL
REMARK 927      BINDING AFFINITY PREDICTED BY RF-SCORE:    0.00 PKD
ROOT
HETATM    1  C   UNL     1     -11.590  10.794  68.408  1.00  0.00    -0.311 C  
HETATM    2  C   UNL     1     -11.721  11.776  69.405  1.00  0.00    -0.405 C  
HETATM    3  C   UNL     1     -10.326  11.638  68.862  1.00  0.00    -0.175 C  
HETATM    4  C   UNL     1     -10.085  10.509  67.138  1.00  0.00    -0.209 C  
HETATM    5  C   UNL     1      -9.679  13.071  69.504  1.00  0.00     1.242 C  
HETATM    6  O   UNL     1     -11.279  10.046  66.411  1.00  0.00     0.279 OA 
HETATM    7  C   UNL     1     -10.585   7.374  73.059  1.00  0.00    -0.392 C  
HETATM    8  C   UNL     1     -10.185  11.813  67.488  1.00  0.00    -0.214 C  
HETATM    9  C   UNL     1     -10.068   5.975  72.844  1.00  0.00    -0.182 C  
HETATM   10  C   UNL     1     -10.642   7.927  71.831  1.00  0.00    -0.285 C  
HETATM   11  C   UNL     1     -10.690  12.998  66.655  1.00  0.00    -0.285 C  
HETATM   12  H   UNL     1     -11.169   9.529  65.622  1.00  0.00     0.000 HD 
HETATM   13  C   UNL     1      -8.399  11.266  68.013  1.00  0.00    -0.136 C  
HETATM   14  C   UNL     1      -8.387   9.718  68.908  1.00  0.00    -0.120 C  
HETATM   15  C   UNL     1     -11.817   7.582  70.936  1.00  0.00    -0.293 C  
HETATM   16  C   UNL     1      -9.649   9.274  69.984  1.00  0.00    -0.209 C  
HETATM   17  C   UNL     1      -8.269   8.915  72.052  1.00  0.00     0.049 C  
HETATM   18  O   UNL     1      -8.201   8.704  67.895  1.00  0.00    -0.113 OA 
HETATM   19  F   UNL     1      -9.858  10.299  70.946  1.00  0.00     0.020 F  
HETATM   20  C   UNL     1     -11.080   9.251  69.176  1.00  0.00    -0.002 C  
HETATM   21  C   UNL     1      -9.305   8.189  71.091  1.00  0.00    -0.187 C  
HETATM   22  C   UNL     1      -8.697   6.804  70.906  1.00  0.00    -0.142 C  
HETATM   23  H   UNL     1      -8.195   7.882  68.370  1.00  0.00     0.000 HD 
HETATM   24  O   UNL     1     -10.457   5.044  73.535  1.00  0.00    -0.188 OA 
HETATM   25  C   UNL     1     -12.221   8.786  70.101  1.00  0.00     0.602 C  
HETATM   26  C   UNL     1      -9.024   5.801  71.762  1.00  0.00    -0.143 C  
ENDROOT
BRANCH   4  27
HETATM   27  C   UNL     1      -9.301  10.819  65.625  1.00  0.00    -0.207 C  
HETATM   28  O   UNL     1      -8.647  11.839  65.347  1.00  0.00     0.212 OA 
BRANCH  27  29
HETATM   29  C   UNL     1      -9.333   9.728  64.523  1.00  0.00    -0.235 C  
BRANCH  29  30
HETATM   30  O   UNL     1      -8.720   8.486  64.946  1.00  0.00    -0.153 OA 
BRANCH  30  31
HETATM   31  C   UNL     1      -7.638   8.105  64.219  1.00  0.00    -0.116 C  
HETATM   32  O   UNL     1      -6.776   8.857  63.801  1.00  0.00    -0.088 OA 
BRANCH  31  33
HETATM   33  C   UNL     1      -7.624   6.635  63.940  1.00  0.00    -0.108 A  
HETATM   34  C   UNL     1      -7.474   3.884  63.343  1.00  0.00    -0.051 A  
HETATM   35  O   UNL     1     -10.341   2.620  63.499  1.00  0.00    -0.160 OA 
HETATM   36  C   UNL     1      -6.485   4.745  62.885  1.00  0.00    -0.026 A  
HETATM   37  C   UNL     1      -6.555   6.112  63.183  1.00  0.00    -0.039 A  
HETATM   38  O   UNL     1      -8.941   2.165  65.502  1.00  0.00    -0.125 OA 
HETATM   39  O   UNL     1     -10.582   3.951  65.635  1.00  0.00     0.078 OA 
HETATM   40  C   UNL     1      -8.623   5.764  64.406  1.00  0.00     0.051 A  
HETATM   41  S   UNL     1      -9.772   3.262  64.665  1.00  0.00    -0.121 S  
HETATM   42  C   UNL     1      -8.528   4.395  64.086  1.00  0.00    -0.116 A  
ENDBRANCH  31  33
ENDBRANCH  30  31
ENDBRANCH  29  30
ENDBRANCH  27  29
ENDBRANCH   4  27
TORSDOF 5
ENDMDL
MODEL      187
REMARK 921   NORMALIZED FREE ENERGY PREDICTED BY IDOCK:   -1.56 KCAL/MOL
REMARK 922        TOTAL FREE ENERGY PREDICTED BY IDOCK:   -2.73 KCAL/MOL
REMARK 923 INTER-LIGAND FREE ENERGY PREDICTED BY IDOCK:   -4.30 KCAL/MOL
REMARK 924 INTRA-LIGAND FREE ENERGY PREDICTED BY IDOCK:    1.57 KCAL/MOL
REMARK 927      BINDING AFFINITY PREDICTED BY RF-SCORE:    0.00 PKD
ROOT
HETATM    1  C   UNL     1      -7.694  11.810  66.936  1.00  0.00    -0.129 C  
HETATM    2  C   UNL     1      -7.348  11.079  65.786  1.00  0.00     0.084 C  
HETATM    3  C   UNL     1      -8.779  10.905  66.215  1.00  0.00    -0.175 C  
HETATM    4  C   UNL     1      -9.506  12.216  67.651  1.00  0.00    -0.187 C  
HETATM    5  C   UNL     1      -9.363  10.173  64.799  1.00  0.00    -0.324 C  
HETATM    6  O   UNL     1      -8.679  13.364  68.059  1.00  0.00    -0.162 OA 
HETATM    7  C   UNL     1      -5.848   6.927  69.597  1.00  0.00    -0.019 C  
HETATM    8  C   UNL     1      -9.535  12.071  66.305  1.00  0.00    -0.237 C  
HETATM    9  C   UNL     1      -6.106   6.751  71.072  1.00  0.00    -0.036 C  
HETATM   10  C   UNL     1      -6.445   8.088  69.265  1.00  0.00    -0.036 C  
HETATM   11  C   UNL     1      -9.700  13.147  65.224  1.00  0.00     0.009 C  
HETATM   12  H   UNL     1      -9.011  13.964  68.716  1.00  0.00     0.000 HD 
HETATM   13  C   UNL     1     -10.760  10.736  67.001  1.00  0.00    -0.320 C  
HETATM   14  C   UNL     1     -10.062   9.799  68.354  1.00  0.00    -0.166 C  
HETATM   15  C   UNL     1      -5.733   9.387  69.590  1.00  0.00    -0.033 C  
HETATM   16  C   UNL     1      -8.396   9.387  68.418  1.00  0.00    -0.119 C  
HETATM   17  C   UNL     1      -8.634   6.893  68.603  1.00  0.00    -0.123 C  
HETATM   18  O   UNL     1     -10.455  10.516  69.545  1.00  0.00    -0.227 OA 
HETATM   19  F   UNL     1      -8.007   8.727  67.221  1.00  0.00    -0.094 F  
HETATM   20  C   UNL     1      -7.488  10.756  68.377  1.00  0.00    -0.095 C  
HETATM   21  C   UNL     1      -7.993   8.153  69.331  1.00  0.00    -0.114 C  
HETATM   22  C   UNL     1      -8.321   7.909  70.799  1.00  0.00    -0.115 C  
HETATM   23  H   UNL     1     -10.084  10.018  70.264  1.00  0.00     0.000 HD 
HETATM   24  O   UNL     1      -5.272   6.235  71.802  1.00  0.00    -0.021 OA 
HETATM   25  C   UNL     1      -5.990  10.420  68.506  1.00  0.00    -0.043 C  
HETATM   26  C   UNL     1      -7.455   7.212  71.579  1.00  0.00    -0.086 C  
ENDROOT
BRANCH   4  27
HETATM   27  C   UNL     1     -10.914  13.221  67.725  1.00  0.00    -0.258 C  
HETATM   28  O   UNL     1     -11.553  13.642  66.745  1.00  0.00    -0.330 OA 
BRANCH  27  29
HETATM   29  C   UNL     1     -11.503  13.590  69.112  1.00  0.00    -0.295 C  
BRANCH  29  30
HETATM   30  O   UNL     1     -11.157  14.933  69.528  1.00  0.00    -0.260 OA 
BRANCH  30  31
HETATM   31  C   UNL     1     -11.634  15.922  68.728  1.00  0.00    -0.386 C  
HETATM   32  O   UNL     1     -12.731  16.440  68.836  1.00  0.00     0.731 OA 
BRANCH  31  33
HETATM   33  C   UNL     1     -10.672  16.299  67.647  1.00  0.00    -0.311 A  
HETATM   34  C   UNL     1      -8.963  16.990  65.515  1.00  0.00     0.706 A  
HETATM   35  O   UNL     1      -5.977  16.574  66.386  1.00  0.00    -0.237 OA 
HETATM   36  C   UNL     1     -10.277  16.623  65.255  1.00  0.00    -0.016 A  
HETATM   37  C   UNL     1     -11.129  16.282  66.314  1.00  0.00     0.137 A  
HETATM   38  O   UNL     1      -6.711  18.949  66.443  1.00  0.00    -0.192 OA 
HETATM   39  O   UNL     1      -6.667  17.714  68.535  1.00  0.00    -0.192 OA 
HETATM   40  C   UNL     1      -9.344  16.674  67.910  1.00  0.00    -0.221 A  
HETATM   41  S   UNL     1      -6.822  17.492  67.122  1.00  0.00    -0.179 S  
HETATM   42  C   UNL     1      -8.509  17.007  66.825  1.00  0.00    -0.234 A  
ENDBRANCH  31  33
ENDBRANCH  30  31
ENDBRANCH  29  30
ENDBRANCH  27  29
ENDBRANCH   4  27
TORSDOF 5
ENDMDL
MODEL      188
REMARK 921   NORMALIZED FREE ENERGY PREDICTED BY IDOCK:   -1.28 KCAL/MOL
REMARK 922        TOTAL FREE ENERGY PREDICTED BY IDOCK:   -2.37 KCAL/MOL
REMARK 923 INTER-LIGAND FREE ENERGY PREDICTED BY IDOCK:   -3.27 KCAL/MOL
REMARK 924 INTRA-LIGAND FREE ENERGY PREDICTED BY IDOCK:    0.90 KCAL/MOL
REMARK 927      BINDING AFFINITY PREDICTED BY RF-SCORE:    0.00 PKD
ROOT
HETATM    1  C   UNL     1     -10.309  13.277  66.718  1.00  0.00    -0.257 C  
HETATM    2  C   UNL     1      -9.705  13.369  65.452  1.00  0.00    -0.032 C  
HETATM    3  C   UNL     1      -9.175  12.249  66.303  1.00  0.00    -0.171 C  
HETATM    4  C   UNL     1     -10.240  11.775  68.020  1.00  0.00    -0.193 C  
HETATM    5  C   UNL     1      -8.344  11.401  65.089  1.00  0.00     0.434 C  
HETATM    6  O   UNL     1     -11.550  12.407  68.249  1.00  0.00    -0.289 OA 
HETATM    7  C   UNL     1      -5.991  16.978  68.132  1.00  0.00    -0.124 C  
HETATM    8  C   UNL     1     -10.115  11.324  66.750  1.00  0.00    -0.254 C  
HETATM    9  C   UNL     1      -5.732  17.285  69.585  1.00  0.00    -0.225 C  
HETATM   10  C   UNL     1      -6.974  16.057  68.130  1.00  0.00    -0.129 C  
HETATM   11  C   UNL     1     -11.135  10.561  65.894  1.00  0.00     0.290 C  
HETATM   12  H   UNL     1     -12.038  12.191  69.035  1.00  0.00     0.000 HD 
HETATM   13  C   UNL     1      -8.507  10.747  67.670  1.00  0.00    -0.119 C  
HETATM   14  C   UNL     1      -7.750  12.057  68.622  1.00  0.00    -0.099 C  
HETATM   15  C   UNL     1      -8.403  16.521  68.334  1.00  0.00    -0.200 C  
HETATM   16  C   UNL     1      -7.762  13.692  68.099  1.00  0.00    -0.138 C  
HETATM   17  C   UNL     1      -5.285  14.107  68.101  1.00  0.00    -0.118 C  
HETATM   18  O   UNL     1      -8.326  11.940  69.942  1.00  0.00     0.884 OA 
HETATM   19  F   UNL     1      -7.240  13.791  66.781  1.00  0.00     0.120 F  
HETATM   20  C   UNL     1      -9.315  14.196  67.901  1.00  0.00    -0.204 C  
HETATM   21  C   UNL     1      -6.651  14.652  68.702  1.00  0.00    -0.085 C  
HETATM   22  C   UNL     1      -6.310  14.908  70.165  1.00  0.00    -0.162 C  
HETATM   23  H   UNL     1      -7.924  12.637  70.447  1.00  0.00     0.000 HD 
HETATM   24  O   UNL     1      -5.427  18.411  69.949  1.00  0.00    -0.207 OA 
HETATM   25  C   UNL     1      -9.359  15.683  67.501  1.00  0.00    -0.206 C  
HETATM   26  C   UNL     1      -5.835  16.122  70.548  1.00  0.00     0.014 C  
ENDROOT
BRANCH   4  27
HETATM   27  C   UNL     1     -10.863  10.287  68.649  1.00  0.00    -0.234 C  
HETATM   28  O   UNL     1     -11.885   9.705  68.247  1.00  0.00     0.471 OA 
BRANCH  27  29
HETATM   29  C   UNL     1     -10.069   9.547  69.758  1.00  0.00    -0.216 C  
BRANCH  29  30
HETATM   30  O   UNL     1     -10.740   8.352  70.226  1.00  0.00    -0.227 OA 
BRANCH  30  31
HETATM   31  C   UNL     1      -9.943   7.462  70.870  1.00  0.00    -0.184 C  
HETATM   32  O   UNL     1      -9.799   7.398  72.078  1.00  0.00    -0.161 OA 
BRANCH  31  33
HETATM   33  C   UNL     1      -9.207   6.564  69.927  1.00  0.00    -0.149 A  
HETATM   34  C   UNL     1      -7.719   4.854  68.251  1.00  0.00    -0.082 A  
HETATM   35  O   UNL     1      -8.456   5.421  65.255  1.00  0.00    -0.139 OA 
HETATM   36  C   UNL     1      -7.252   5.148  69.526  1.00  0.00    -0.057 A  
HETATM   37  C   UNL     1      -7.992   5.995  70.362  1.00  0.00    -0.107 A  
HETATM   38  O   UNL     1      -9.557   3.396  66.186  1.00  0.00    -0.147 OA 
HETATM   39  O   UNL     1     -10.849   5.450  66.069  1.00  0.00    -0.154 OA 
HETATM   40  C   UNL     1      -9.680   6.263  68.639  1.00  0.00    -0.137 A  
HETATM   41  S   UNL     1      -9.486   5.005  66.184  1.00  0.00    -0.169 S  
HETATM   42  C   UNL     1      -8.913   5.412  67.819  1.00  0.00    -0.108 A  
ENDBRANCH  31  33
ENDBRANCH  30  31
ENDBRANCH  29  30
ENDBRANCH  27  29
ENDBRANCH   4  27
TORSDOF 5
ENDMDL
MODEL      189
REMARK 921   NORMALIZED FREE ENERGY PREDICTED BY IDOCK:   -1.28 KCAL/MOL
REMARK 922        TOTAL FREE ENERGY PREDICTED BY IDOCK:   -2.36 KCAL/MOL
REMARK 923 INTER-LIGAND FREE ENERGY PREDICTED BY IDOCK:   -3.48 KCAL/MOL
REMARK 924 INTRA-LIGAND FREE ENERGY PREDICTED BY IDOCK:    1.12 KCAL/MOL
REMARK 927      BINDING AFFINITY PREDICTED BY RF-SCORE:    0.00 PKD
ROOT
HETATM    1  C   UNL     1      -6.428  10.945  66.891  1.00  0.00    -0.097 C  
HETATM    2  C   UNL     1      -5.192  10.603  67.466  1.00  0.00    -0.036 C  
HETATM    3  C   UNL     1      -6.373  10.372  68.368  1.00  0.00    -0.051 C  
HETATM    4  C   UNL     1      -8.259  10.471  67.508  1.00  0.00    -0.114 C  
HETATM    5  C   UNL     1      -5.594   9.417  69.537  1.00  0.00    -0.034 C  
HETATM    6  O   UNL     1      -8.375  10.576  66.044  1.00  0.00    -0.146 OA 
HETATM    7  C   UNL     1      -5.129  16.169  69.207  1.00  0.00    -0.110 C  
HETATM    8  C   UNL     1      -7.362   9.526  67.874  1.00  0.00    -0.083 C  
HETATM    9  C   UNL     1      -6.187  17.242  69.240  1.00  0.00    -0.237 C  
HETATM   10  C   UNL     1      -5.739  15.081  68.696  1.00  0.00    -0.091 C  
HETATM   11  C   UNL     1      -7.167   8.113  67.308  1.00  0.00    -0.084 C  
HETATM   12  H   UNL     1      -9.238  10.622  65.650  1.00  0.00     0.000 HD 
HETATM   13  C   UNL     1      -8.157  10.160  69.527  1.00  0.00    -0.176 C  
HETATM   14  C   UNL     1      -8.216  11.944  69.623  1.00  0.00     1.298 C  
HETATM   15  C   UNL     1      -5.934  14.998  67.194  1.00  0.00     0.592 C  
HETATM   16  C   UNL     1      -6.983  12.937  68.961  1.00  0.00    -0.058 C  
HETATM   17  C   UNL     1      -6.363  14.203  71.040  1.00  0.00     0.093 C  
HETATM   18  O   UNL     1      -9.506  12.304  69.079  1.00  0.00    -0.393 OA 
HETATM   19  F   UNL     1      -5.713  12.544  69.463  1.00  0.00    -0.073 F  
HETATM   20  C   UNL     1      -6.835  12.634  67.352  1.00  0.00    -0.141 C  
HETATM   21  C   UNL     1      -6.851  14.409  69.542  1.00  0.00    -0.133 C  
HETATM   22  C   UNL     1      -7.928  15.479  69.670  1.00  0.00    -0.123 C  
HETATM   23  H   UNL     1      -9.537  13.251  69.130  1.00  0.00     0.000 HD 
HETATM   24  O   UNL     1      -5.907  18.413  69.032  1.00  0.00    -0.203 OA 
HETATM   25  C   UNL     1      -5.783  13.563  66.716  1.00  0.00     1.836 C  
HETATM   26  C   UNL     1      -7.592  16.792  69.579  1.00  0.00     0.178 C  
ENDROOT
BRANCH   4  27
HETATM   27  C   UNL     1      -9.621   9.403  67.527  1.00  0.00    -0.141 C  
HETATM   28  O   UNL     1      -9.674   8.290  66.975  1.00  0.00    -0.175 OA 
BRANCH  27  29
HETATM   29  C   UNL     1     -10.876   9.797  68.350  1.00  0.00    -0.201 C  
BRANCH  29  30
HETATM   30  O   UNL     1     -11.805  10.614  67.598  1.00  0.00    -0.411 OA 
BRANCH  30  31
HETATM   31  C   UNL     1     -11.757  11.942  67.878  1.00  0.00    -0.298 C  
HETATM   32  O   UNL     1     -12.124  12.450  68.923  1.00  0.00    -0.265 OA 
BRANCH  31  33
HETATM   33  C   UNL     1     -11.232  12.751  66.735  1.00  0.00    -0.338 A  
HETATM   34  C   UNL     1     -10.234  14.155  64.503  1.00  0.00     0.002 A  
HETATM   35  O   UNL     1      -8.912  16.836  65.456  1.00  0.00    -0.383 OA 
HETATM   36  C   UNL     1     -10.416  12.780  64.429  1.00  0.00    -0.410 A  
HETATM   37  C   UNL     1     -10.915  12.080  65.536  1.00  0.00    -0.345 A  
HETATM   38  O   UNL     1     -11.190  17.131  64.506  1.00  0.00    -1.104 OA 
HETATM   39  O   UNL     1     -10.956  17.078  66.923  1.00  0.00    -0.081 OA 
HETATM   40  C   UNL     1     -11.052  14.142  66.809  1.00  0.00    -0.314 A  
HETATM   41  S   UNL     1     -10.309  16.582  65.738  1.00  0.00    -0.294 S  
HETATM   42  C   UNL     1     -10.544  14.818  65.682  1.00  0.00    -0.340 A  
ENDBRANCH  31  33
ENDBRANCH  30  31
ENDBRANCH  29  30
ENDBRANCH  27  29
ENDBRANCH   4  27
TORSDOF 5
ENDMDL
MODEL      190
REMARK 921   NORMALIZED FREE ENERGY PREDICTED BY IDOCK:   -1.13 KCAL/MOL
REMARK 922        TOTAL FREE ENERGY PREDICTED BY IDOCK:   -2.18 KCAL/MOL
REMARK 923 INTER-LIGAND FREE ENERGY PREDICTED BY IDOCK:   -2.54 KCAL/MOL
REMARK 924 INTRA-LIGAND FREE ENERGY PREDICTED BY IDOCK:    0.37 KCAL/MOL
REMARK 927      BINDING AFFINITY PREDICTED BY RF-SCORE:    0.00 PKD
ROOT
HETATM    1  C   UNL     1     -10.773   8.620  70.453  1.00  0.00    -0.248 C  
HETATM    2  C   UNL     1     -11.798   8.265  69.559  1.00  0.00     1.033 C  
HETATM    3  C   UNL     1     -10.499   8.621  68.891  1.00  0.00    -0.211 C  
HETATM    4  C   UNL     1      -8.822   8.785  70.102  1.00  0.00    -0.154 C  
HETATM    5  C   UNL     1     -10.855   8.017  67.344  1.00  0.00    -0.146 C  
HETATM    6  O   UNL     1      -8.913   8.375  71.513  1.00  0.00    -0.158 OA 
HETATM    7  C   UNL     1     -13.108  13.945  69.727  1.00  0.00     0.786 C  
HETATM    8  C   UNL     1      -9.389   7.875  69.276  1.00  0.00    -0.148 C  
HETATM    9  C   UNL     1     -12.372  15.149  70.257  1.00  0.00    -0.352 C  
HETATM   10  C   UNL     1     -12.301  12.895  69.973  1.00  0.00    -0.199 C  
HETATM   11  C   UNL     1      -9.274   6.345  69.306  1.00  0.00    -0.135 C  
HETATM   12  H   UNL     1      -8.146   8.450  72.068  1.00  0.00     0.000 HD 
HETATM   13  C   UNL     1      -8.596   9.211  68.114  1.00  0.00    -0.129 C  
HETATM   14  C   UNL     1      -8.995  10.881  68.612  1.00  0.00    -0.162 C  
HETATM   15  C   UNL     1     -12.272  12.317  71.375  1.00  0.00     0.160 C  
HETATM   16  C   UNL     1     -10.516  11.294  69.292  1.00  0.00    -0.111 C  
HETATM   17  C   UNL     1     -11.192  13.071  67.650  1.00  0.00    -0.315 C  
HETATM   18  O   UNL     1      -7.920  11.274  69.492  1.00  0.00    -0.369 OA 
HETATM   19  F   UNL     1     -11.569  10.859  68.443  1.00  0.00    -0.311 F  
HETATM   20  C   UNL     1     -10.771  10.407  70.652  1.00  0.00     0.020 C  
HETATM   21  C   UNL     1     -10.958  12.816  69.202  1.00  0.00    -0.185 C  
HETATM   22  C   UNL     1     -10.192  14.056  69.646  1.00  0.00     0.425 C  
HETATM   23  H   UNL     1      -8.132  12.162  69.757  1.00  0.00     0.000 HD 
HETATM   24  O   UNL     1     -12.973  16.083  70.769  1.00  0.00    -0.390 OA 
HETATM   25  C   UNL     1     -12.098  10.808  71.325  1.00  0.00    -0.365 C  
HETATM   26  C   UNL     1     -10.868  15.149  70.085  1.00  0.00    -0.265 C  
ENDROOT
BRANCH   4  27
HETATM   27  C   UNL     1      -7.235   8.097  70.018  1.00  0.00    -0.056 C  
HETATM   28  O   UNL     1      -6.385   8.347  69.145  1.00  0.00    -0.041 OA 
BRANCH  27  29
HETATM   29  C   UNL     1      -6.769   7.141  71.147  1.00  0.00    -0.051 C  
BRANCH  29  30
HETATM   30  O   UNL     1      -7.091   5.755  70.875  1.00  0.00    -0.066 OA 
BRANCH  30  31
HETATM   31  C   UNL     1      -6.022   4.958  70.619  1.00  0.00    -0.018 C  
HETATM   32  O   UNL     1      -5.143   4.688  71.417  1.00  0.00    -0.003 OA 
BRANCH  31  33
HETATM   33  C   UNL     1      -6.004   4.457  69.209  1.00  0.00    -0.022 A  
HETATM   34  C   UNL     1      -5.930   3.387  66.602  1.00  0.00    -0.024 A  
HETATM   35  O   UNL     1      -5.593   5.712  64.523  1.00  0.00    -0.016 OA 
HETATM   36  C   UNL     1      -5.590   2.588  67.686  1.00  0.00    -0.018 A  
HETATM   37  C   UNL     1      -5.629   3.117  68.983  1.00  0.00    -0.021 A  
HETATM   38  O   UNL     1      -7.924   4.867  64.703  1.00  0.00    -0.090 OA 
HETATM   39  O   UNL     1      -7.352   6.907  65.891  1.00  0.00    -0.075 OA 
HETATM   40  C   UNL     1      -6.352   5.264  68.113  1.00  0.00    -0.036 A  
HETATM   41  S   UNL     1      -6.738   5.698  65.409  1.00  0.00    -0.041 S  
HETATM   42  C   UNL     1      -6.298   4.706  66.820  1.00  0.00    -0.037 A  
ENDBRANCH  31  33
ENDBRANCH  30  31
ENDBRANCH  29  30
ENDBRANCH  27  29
ENDBRANCH   4  27
TORSDOF 5
ENDMDL
MODEL      191
REMARK 921   NORMALIZED FREE ENERGY PREDICTED BY IDOCK:   -0.88 KCAL/MOL
REMARK 922        TOTAL FREE ENERGY PREDICTED BY IDOCK:   -1.85 KCAL/MOL
REMARK 923 INTER-LIGAND FREE ENERGY PREDICTED BY IDOCK:   -2.75 KCAL/MOL
REMARK 924 INTRA-LIGAND FREE ENERGY PREDICTED BY IDOCK:    0.90 KCAL/MOL
REMARK 927      BINDING AFFINITY PREDICTED BY RF-SCORE:    0.00 PKD
ROOT
HETATM    1  C   UNL     1      -9.449  11.270  69.074  1.00  0.00    -0.030 C  
HETATM    2  C   UNL     1     -10.391  11.953  68.285  1.00  0.00    -0.211 C  
HETATM    3  C   UNL     1     -10.772  10.534  68.603  1.00  0.00    -0.247 C  
HETATM    4  C   UNL     1      -9.666   9.557  70.061  1.00  0.00    -0.236 C  
HETATM    5  C   UNL     1     -12.403  10.616  68.134  1.00  0.00     1.400 C  
HETATM    6  O   UNL     1      -8.688  10.322  70.853  1.00  0.00     0.033 OA 
HETATM    7  C   UNL     1      -7.224   9.954  63.815  1.00  0.00    -0.125 C  
HETATM    8  C   UNL     1     -10.847  10.210  69.955  1.00  0.00    -0.347 C  
HETATM    9  C   UNL     1      -6.138   8.914  63.715  1.00  0.00    -0.076 C  
HETATM   10  C   UNL     1      -7.577   9.981  65.115  1.00  0.00    -0.138 C  
HETATM   11  C   UNL     1     -11.635  10.956  71.039  1.00  0.00    -0.004 C  
HETATM   12  H   UNL     1      -8.181   9.875  71.520  1.00  0.00     0.000 HD 
HETATM   13  C   UNL     1     -11.124   8.486  69.107  1.00  0.00     0.174 C  
HETATM   14  C   UNL     1      -9.813   8.059  67.969  1.00  0.00    -0.167 C  
HETATM   15  C   UNL     1      -6.697  10.741  66.089  1.00  0.00    -0.126 C  
HETATM   16  C   UNL     1      -9.012   9.239  67.013  1.00  0.00    -0.126 C  
HETATM   17  C   UNL     1      -9.455   8.251  64.746  1.00  0.00     1.167 C  
HETATM   18  O   UNL     1      -8.862   7.312  68.759  1.00  0.00    -0.128 OA 
HETATM   19  F   UNL     1      -9.959  10.002  66.278  1.00  0.00    -0.244 F  
HETATM   20  C   UNL     1      -8.330  10.371  67.991  1.00  0.00    -0.118 C  
HETATM   21  C   UNL     1      -8.278   8.728  65.702  1.00  0.00    -0.121 C  
HETATM   22  C   UNL     1      -7.245   7.616  65.563  1.00  0.00    -0.068 C  
HETATM   23  H   UNL     1      -8.166   7.085  68.154  1.00  0.00     0.000 HD 
HETATM   24  O   UNL     1      -5.206   9.045  62.936  1.00  0.00    -0.068 OA 
HETATM   25  C   UNL     1      -7.542  11.404  67.164  1.00  0.00    -0.145 C  
HETATM   26  C   UNL     1      -6.290   7.695  64.601  1.00  0.00    -0.044 C  
ENDROOT
BRANCH   4  27
HETATM   27  C   UNL     1     -10.108   8.675  71.484  1.00  0.00    -0.274 C  
HETATM   28  O   UNL     1      -9.440   8.610  72.530  1.00  0.00    -0.276 OA 
BRANCH  27  29
HETATM   29  C   UNL     1     -11.479   7.950  71.525  1.00  0.00    -0.265 C  
BRANCH  29  30
HETATM   30  O   UNL     1     -11.389   6.558  71.138  1.00  0.00    -0.284 OA 
BRANCH  30  31
HETATM   31  C   UNL     1     -10.816   5.742  72.061  1.00  0.00    -0.251 C  
HETATM   32  O   UNL     1     -11.080   5.738  73.249  1.00  0.00    -0.263 OA 
BRANCH  31  33
HETATM   33  C   UNL     1      -9.772   4.850  71.468  1.00  0.00    -0.233 A  
HETATM   34  C   UNL     1      -7.769   3.128  70.484  1.00  0.00    -0.043 A  
HETATM   35  O   UNL     1      -6.877   4.079  67.631  1.00  0.00    -0.049 OA 
HETATM   36  C   UNL     1      -7.979   3.231  71.853  1.00  0.00    -0.058 A  
HETATM   37  C   UNL     1      -8.976   4.084  72.345  1.00  0.00    -0.133 A  
HETATM   38  O   UNL     1      -8.431   2.140  67.594  1.00  0.00    -0.069 OA 
HETATM   39  O   UNL     1      -9.349   4.350  67.179  1.00  0.00    -0.133 OA 
HETATM   40  C   UNL     1      -9.561   4.744  70.083  1.00  0.00    -0.265 A  
HETATM   41  S   UNL     1      -8.258   3.717  67.870  1.00  0.00    -0.089 S  
HETATM   42  C   UNL     1      -8.548   3.881  69.619  1.00  0.00    -0.069 A  
ENDBRANCH  31  33
ENDBRANCH  30  31
ENDBRANCH  29  30
ENDBRANCH  27  29
ENDBRANCH   4  27
TORSDOF 5
ENDMDL
MODEL      192
REMARK 921   NORMALIZED FREE ENERGY PREDICTED BY IDOCK:   -0.73 KCAL/MOL
REMARK 922        TOTAL FREE ENERGY PREDICTED BY IDOCK:   -1.65 KCAL/MOL
REMARK 923 INTER-LIGAND FREE ENERGY PREDICTED BY IDOCK:   -1.94 KCAL/MOL
REMARK 924 INTRA-LIGAND FREE ENERGY PREDICTED BY IDOCK:    0.28 KCAL/MOL
REMARK 927      BINDING AFFINITY PREDICTED BY RF-SCORE:    0.00 PKD
ROOT
HETATM    1  C   UNL     1      -7.669   3.708  68.587  1.00  0.00    -0.056 C  
HETATM    2  C   UNL     1      -7.878   2.570  69.384  1.00  0.00    -0.049 C  
HETATM    3  C   UNL     1      -9.101   3.426  69.206  1.00  0.00    -0.199 C  
HETATM    4  C   UNL     1      -9.021   4.906  67.754  1.00  0.00    -0.109 C  
HETATM    5  C   UNL     1     -10.252   2.317  69.781  1.00  0.00     1.151 C  
HETATM    6  O   UNL     1      -7.869   4.951  66.837  1.00  0.00    -0.097 OA 
HETATM    7  C   UNL     1      -6.245   6.060  73.762  1.00  0.00    -0.064 C  
HETATM    8  C   UNL     1      -9.504   3.649  67.892  1.00  0.00    -0.224 C  
HETATM    9  C   UNL     1      -6.059   7.552  73.865  1.00  0.00    -0.071 C  
HETATM   10  C   UNL     1      -6.634   5.834  72.492  1.00  0.00    -0.067 C  
HETATM   11  C   UNL     1      -9.750   2.587  66.812  1.00  0.00     0.421 C  
HETATM   12  H   UNL     1      -7.833   5.629  66.173  1.00  0.00     0.000 HD 
HETATM   13  C   UNL     1     -10.718   4.787  68.889  1.00  0.00     0.667 C  
HETATM   14  C   UNL     1      -9.864   5.934  69.962  1.00  0.00    -0.175 C  
HETATM   15  C   UNL     1      -5.580   5.824  71.402  1.00  0.00    -0.021 C  
HETATM   16  C   UNL     1      -8.403   5.521  70.763  1.00  0.00    -0.122 C  
HETATM   17  C   UNL     1      -9.132   5.966  73.126  1.00  0.00    -0.130 C  
HETATM   18  O   UNL     1      -9.689   7.128  69.167  1.00  0.00    -0.157 OA 
HETATM   19  F   UNL     1      -8.570   4.318  71.502  1.00  0.00    -0.100 F  
HETATM   20  C   UNL     1      -7.266   5.098  69.654  1.00  0.00    -0.056 C  
HETATM   21  C   UNL     1      -8.026   6.362  72.056  1.00  0.00    -0.108 C  
HETATM   22  C   UNL     1      -7.922   7.875  72.208  1.00  0.00    -0.151 C  
HETATM   23  H   UNL     1      -9.234   7.737  69.738  1.00  0.00     0.000 HD 
HETATM   24  O   UNL     1      -5.179   8.032  74.564  1.00  0.00    -0.064 OA 
HETATM   25  C   UNL     1      -5.921   4.791  70.341  1.00  0.00    -0.018 C  
HETATM   26  C   UNL     1      -7.038   8.408  73.091  1.00  0.00    -0.110 C  
ENDROOT
BRANCH   4  27
HETATM   27  C   UNL     1     -10.067   5.325  66.439  1.00  0.00    -0.226 C  
HETATM   28  O   UNL     1     -10.477   4.542  65.565  1.00  0.00    -0.272 OA 
BRANCH  27  29
HETATM   29  C   UNL     1     -10.619   6.772  66.348  1.00  0.00     0.203 C  
BRANCH  29  30
HETATM   30  O   UNL     1      -9.862   7.605  65.436  1.00  0.00     0.867 OA 
BRANCH  30  31
HETATM   31  C   UNL     1      -8.657   8.020  65.905  1.00  0.00    -0.152 C  
HETATM   32  O   UNL     1      -7.588   7.497  65.647  1.00  0.00    -0.083 OA 
BRANCH  31  33
HETATM   33  C   UNL     1      -8.774   9.194  66.825  1.00  0.00    -0.138 A  
HETATM   34  C   UNL     1      -8.870  11.365  68.621  1.00  0.00    -0.126 A  
HETATM   35  O   UNL     1     -11.837  12.333  68.937  1.00  0.00    -0.305 OA 
HETATM   36  C   UNL     1      -7.809  10.470  68.676  1.00  0.00    -0.116 A  
HETATM   37  C   UNL     1      -7.758   9.391  67.783  1.00  0.00    -0.088 A  
HETATM   38  O   UNL     1     -10.478  13.764  67.425  1.00  0.00    -0.253 OA 
HETATM   39  O   UNL     1     -11.954  12.118  66.420  1.00  0.00    -0.611 OA 
HETATM   40  C   UNL     1      -9.845  10.101  66.767  1.00  0.00    -0.247 A  
HETATM   41  S   UNL     1     -11.211  12.345  67.631  1.00  0.00    -0.309 S  
HETATM   42  C   UNL     1      -9.872  11.173  67.681  1.00  0.00    -0.174 A  
ENDBRANCH  31  33
ENDBRANCH  30  31
ENDBRANCH  29  30
ENDBRANCH  27  29
ENDBRANCH   4  27
TORSDOF 5
ENDMDL
MODEL      193
REMARK 921   NORMALIZED FREE ENERGY PREDICTED BY IDOCK:   -0.34 KCAL/MOL
REMARK 922        TOTAL FREE ENERGY PREDICTED BY IDOCK:   -1.14 KCAL/MOL
REMARK 923 INTER-LIGAND FREE ENERGY PREDICTED BY IDOCK:   -1.17 KCAL/MOL
REMARK 924 INTRA-LIGAND FREE ENERGY PREDICTED BY IDOCK:    0.03 KCAL/MOL
REMARK 927      BINDING AFFINITY PREDICTED BY RF-SCORE:    0.00 PKD
ROOT
HETATM    1  C   UNL     1     -10.533  13.009  67.736  1.00  0.00    -0.232 C  
HETATM    2  C   UNL     1     -11.327  13.723  66.823  1.00  0.00    -0.345 C  
HETATM    3  C   UNL     1     -10.049  14.421  67.200  1.00  0.00    -0.253 C  
HETATM    4  C   UNL     1      -8.629  13.310  68.227  1.00  0.00    -0.169 C  
HETATM    5  C   UNL     1     -10.052  15.598  65.976  1.00  0.00    -0.355 C  
HETATM    6  O   UNL     1      -8.830  11.860  68.387  1.00  0.00    -0.178 OA 
HETATM    7  C   UNL     1     -13.794  15.953  71.613  1.00  0.00     0.075 C  
HETATM    8  C   UNL     1      -8.874  13.714  66.959  1.00  0.00    -0.233 C  
HETATM    9  C   UNL     1     -13.405  15.931  73.069  1.00  0.00    -0.571 C  
HETATM   10  C   UNL     1     -12.830  15.263  70.974  1.00  0.00    -0.505 C  
HETATM   11  C   UNL     1      -8.450  13.056  65.639  1.00  0.00     1.727 C  
HETATM   12  H   UNL     1      -8.180  11.351  68.857  1.00  0.00     0.000 HD 
HETATM   13  C   UNL     1      -8.220  15.285  67.890  1.00  0.00    -0.151 C  
HETATM   14  C   UNL     1      -9.022  15.534  69.469  1.00  0.00    -0.244 C  
HETATM   15  C   UNL     1     -12.878  13.748  71.010  1.00  0.00    -0.376 C  
HETATM   16  C   UNL     1     -10.675  15.150  69.726  1.00  0.00    -0.274 C  
HETATM   17  C   UNL     1     -11.468  17.403  70.503  1.00  0.00     2.040 C  
HETATM   18  O   UNL     1      -8.185  14.845  70.424  1.00  0.00    -0.006 OA 
HETATM   19  F   UNL     1     -11.486  15.792  68.751  1.00  0.00    -0.299 F  
HETATM   20  C   UNL     1     -10.929  13.558  69.402  1.00  0.00    -0.101 C  
HETATM   21  C   UNL     1     -11.405  15.875  70.934  1.00  0.00    -0.428 C  
HETATM   22  C   UNL     1     -10.982  15.943  72.397  1.00  0.00     0.797 C  
HETATM   23  H   UNL     1      -8.611  14.976  71.263  1.00  0.00     0.000 HD 
HETATM   24  O   UNL     1     -14.251  15.873  73.949  1.00  0.00     0.839 OA 
HETATM   25  C   UNL     1     -12.390  13.168  69.693  1.00  0.00    -0.129 C  
HETATM   26  C   UNL     1     -11.925  16.021  73.372  1.00  0.00    -0.515 C  
ENDROOT
BRANCH   4  27
HETATM   27  C   UNL     1      -6.938  13.034  67.973  1.00  0.00    -0.112 C  
HETATM   28  O   UNL     1      -6.262  13.503  67.041  1.00  0.00    -0.099 OA 
BRANCH  27  29
HETATM   29  C   UNL     1      -6.148  12.197  69.013  1.00  0.00    -0.075 C  
BRANCH  29  30
HETATM   30  O   UNL     1      -5.631  10.961  68.460  1.00  0.00    -0.044 OA 
BRANCH  30  31
HETATM   31  C   UNL     1      -6.251   9.835  68.896  1.00  0.00    -0.041 C  
HETATM   32  O   UNL     1      -6.507   9.583  70.060  1.00  0.00    -0.050 OA 
BRANCH  31  33
HETATM   33  C   UNL     1      -6.566   8.886  67.783  1.00  0.00    -0.061 A  
HETATM   34  C   UNL     1      -7.186   6.998  65.783  1.00  0.00    -0.073 A  
HETATM   35  O   UNL     1      -5.829   7.845  63.084  1.00  0.00    -0.061 OA 
HETATM   36  C   UNL     1      -7.240   6.630  67.121  1.00  0.00    -0.081 A  
HETATM   37  C   UNL     1      -6.935   7.567  68.117  1.00  0.00    -0.072 A  
HETATM   38  O   UNL     1      -8.252   8.386  63.194  1.00  0.00    -0.167 OA 
HETATM   39  O   UNL     1      -6.661  10.167  63.638  1.00  0.00    -0.131 OA 
HETATM   40  C   UNL     1      -6.515   9.260  66.430  1.00  0.00    -0.066 A  
HETATM   41  S   UNL     1      -6.773   8.735  63.727  1.00  0.00    -0.088 S  
HETATM   42  C   UNL     1      -6.822   8.295  65.450  1.00  0.00    -0.062 A  
ENDBRANCH  31  33
ENDBRANCH  30  31
ENDBRANCH  29  30
ENDBRANCH  27  29
ENDBRANCH   4  27
TORSDOF 5
ENDMDL
MODEL      194
REMARK 921   NORMALIZED FREE ENERGY PREDICTED BY IDOCK:   -0.29 KCAL/MOL
REMARK 922        TOTAL FREE ENERGY PREDICTED BY IDOCK:   -1.09 KCAL/MOL
REMARK 923 INTER-LIGAND FREE ENERGY PREDICTED BY IDOCK:   -2.63 KCAL/MOL
REMARK 924 INTRA-LIGAND FREE ENERGY PREDICTED BY IDOCK:    1.54 KCAL/MOL
REMARK 927      BINDING AFFINITY PREDICTED BY RF-SCORE:    0.00 PKD
ROOT
HETATM    1  C   UNL     1     -10.216  12.946  69.031  1.00  0.00     0.100 C  
HETATM    2  C   UNL     1     -11.265  13.544  69.750  1.00  0.00    -0.067 C  
HETATM    3  C   UNL     1     -11.477  13.522  68.261  1.00  0.00    -0.345 C  
HETATM    4  C   UNL     1     -10.197  12.337  67.137  1.00  0.00    -0.211 C  
HETATM    5  C   UNL     1     -13.130  13.913  68.252  1.00  0.00     2.583 C  
HETATM    6  O   UNL     1      -9.265  11.431  67.828  1.00  0.00    -0.152 OA 
HETATM    7  C   UNL     1      -8.148  18.429  69.094  1.00  0.00     0.019 C  
HETATM    8  C   UNL     1     -11.445  12.267  67.658  1.00  0.00    -0.401 C  
HETATM    9  C   UNL     1      -6.965  18.779  68.228  1.00  0.00    -0.246 C  
HETATM   10  C   UNL     1      -8.432  17.143  68.810  1.00  0.00    -0.225 C  
HETATM   11  C   UNL     1     -12.249  11.027  68.070  1.00  0.00     0.557 C  
HETATM   12  H   UNL     1      -8.679  10.889  67.314  1.00  0.00     0.000 HD 
HETATM   13  C   UNL     1     -11.584  13.451  66.127  1.00  0.00    -0.378 C  
HETATM   14  C   UNL     1     -10.298  14.693  66.098  1.00  0.00    -0.300 C  
HETATM   15  C   UNL     1      -7.586  16.057  69.448  1.00  0.00    -0.191 C  
HETATM   16  C   UNL     1      -9.677  15.402  67.533  1.00  0.00    -0.208 C  
HETATM   17  C   UNL     1     -10.134  17.812  66.991  1.00  0.00    -0.337 C  
HETATM   18  O   UNL     1      -9.232  14.108  65.317  1.00  0.00    -0.181 OA 
HETATM   19  F   UNL     1     -10.737  15.930  68.318  1.00  0.00    -0.249 F  
HETATM   20  C   UNL     1      -9.068  14.227  68.508  1.00  0.00    -0.191 C  
HETATM   21  C   UNL     1      -8.965  16.813  67.392  1.00  0.00    -0.211 C  
HETATM   22  C   UNL     1      -7.829  17.215  66.458  1.00  0.00    -0.325 C  
HETATM   23  H   UNL     1      -8.550  14.768  65.301  1.00  0.00     0.000 HD 
HETATM   24  O   UNL     1      -6.096  19.541  68.623  1.00  0.00    -0.224 OA 
HETATM   25  C   UNL     1      -8.438  14.841  69.773  1.00  0.00     0.283 C  
HETATM   26  C   UNL     1      -6.941  18.167  66.843  1.00  0.00    -0.216 C  
ENDROOT
BRANCH   4  27
HETATM   27  C   UNL     1     -10.468  11.120  65.935  1.00  0.00    -0.253 C  
HETATM   28  O   UNL     1     -10.480  11.309  64.706  1.00  0.00    -0.292 OA 
BRANCH  27  29
HETATM   29  C   UNL     1     -10.643   9.645  66.383  1.00  0.00    -0.027 C  
BRANCH  29  30
HETATM   30  O   UNL     1      -9.915   9.338  67.597  1.00  0.00    -0.173 OA 
BRANCH  30  31
HETATM   31  C   UNL     1      -9.126   8.235  67.529  1.00  0.00    -0.137 C  
HETATM   32  O   UNL     1      -8.148   8.118  66.814  1.00  0.00    -0.101 OA 
BRANCH  31  33
HETATM   33  C   UNL     1      -9.608   7.129  68.415  1.00  0.00    -0.137 A  
HETATM   34  C   UNL     1     -10.606   5.141  70.145  1.00  0.00    -0.225 A  
HETATM   35  O   UNL     1      -8.508   2.822  70.398  1.00  0.00    -0.050 OA 
HETATM   36  C   UNL     1     -11.085   6.441  70.239  1.00  0.00    -0.416 A  
HETATM   37  C   UNL     1     -10.593   7.431  69.378  1.00  0.00    -0.231 A  
HETATM   38  O   UNL     1     -10.392   2.298  68.862  1.00  0.00     1.036 OA 
HETATM   39  O   UNL     1      -8.290   3.029  67.887  1.00  0.00    -0.077 OA 
HETATM   40  C   UNL     1      -9.127   5.814  68.317  1.00  0.00    -0.117 A  
HETATM   41  S   UNL     1      -9.053   3.162  69.100  1.00  0.00    -0.149 S  
HETATM   42  C   UNL     1      -9.636   4.841  69.200  1.00  0.00    -0.167 A  
ENDBRANCH  31  33
ENDBRANCH  30  31
ENDBRANCH  29  30
ENDBRANCH  27  29
ENDBRANCH   4  27
TORSDOF 5
ENDMDL
MODEL      195
REMARK 921   NORMALIZED FREE ENERGY PREDICTED BY IDOCK:   -0.10 KCAL/MOL
REMARK 922        TOTAL FREE ENERGY PREDICTED BY IDOCK:   -0.84 KCAL/MOL
REMARK 923 INTER-LIGAND FREE ENERGY PREDICTED BY IDOCK:   -3.88 KCAL/MOL
REMARK 924 INTRA-LIGAND FREE ENERGY PREDICTED BY IDOCK:    3.04 KCAL/MOL
REMARK 927      BINDING AFFINITY PREDICTED BY RF-SCORE:    0.00 PKD
ROOT
HETATM    1  C   UNL     1      -7.838   9.323  71.150  1.00  0.00    -0.046 C  
HETATM    2  C   UNL     1      -6.490   9.100  71.478  1.00  0.00    -0.045 C  
HETATM    3  C   UNL     1      -6.762   9.139  70.000  1.00  0.00    -0.047 C  
HETATM    4  C   UNL     1      -8.620   9.837  69.394  1.00  0.00    -0.165 C  
HETATM    5  C   UNL     1      -5.155   9.274  69.468  1.00  0.00    -0.035 C  
HETATM    6  O   UNL     1      -9.523  10.434  70.392  1.00  0.00    -0.231 OA 
HETATM    7  C   UNL     1      -8.030   3.476  71.472  1.00  0.00    -0.061 C  
HETATM    8  C   UNL     1      -7.355  10.304  69.519  1.00  0.00    -0.132 C  
HETATM    9  C   UNL     1      -9.258   2.752  70.981  1.00  0.00    -0.130 C  
HETATM   10  C   UNL     1      -8.249   4.777  71.201  1.00  0.00    -0.104 C  
HETATM   11  C   UNL     1      -6.877  11.743  69.750  1.00  0.00     0.086 C  
HETATM   12  H   UNL     1     -10.373  10.753  70.115  1.00  0.00     0.000 HD 
HETATM   13  C   UNL     1      -7.341   9.172  67.943  1.00  0.00    -0.084 C  
HETATM   14  C   UNL     1      -8.136   7.594  68.220  1.00  0.00    -0.124 C  
HETATM   15  C   UNL     1      -9.145   5.570  72.134  1.00  0.00    -0.152 C  
HETATM   16  C   UNL     1      -8.043   6.775  69.726  1.00  0.00    -0.126 C  
HETATM   17  C   UNL     1      -7.069   4.607  68.913  1.00  0.00    -0.052 C  
HETATM   18  O   UNL     1      -9.514   7.799  67.836  1.00  0.00    -0.142 OA 
HETATM   19  F   UNL     1      -6.685   6.623  70.119  1.00  0.00    -0.045 F  
HETATM   20  C   UNL     1      -8.648   7.736  70.914  1.00  0.00    -0.128 C  
HETATM   21  C   UNL     1      -8.303   5.210  69.713  1.00  0.00    -0.093 C  
HETATM   22  C   UNL     1      -9.493   4.449  69.140  1.00  0.00    -0.240 C  
HETATM   23  H   UNL     1      -9.936   6.961  67.984  1.00  0.00     0.000 HD 
HETATM   24  O   UNL     1      -9.692   1.772  71.568  1.00  0.00    -0.127 OA 
HETATM   25  C   UNL     1      -8.643   6.998  72.267  1.00  0.00    -0.129 C  
HETATM   26  C   UNL     1      -9.890   3.283  69.712  1.00  0.00     0.146 C  
ENDROOT
BRANCH   4  27
HETATM   27  C   UNL     1      -9.111  11.040  68.249  1.00  0.00    -0.158 C  
HETATM   28  O   UNL     1      -9.749  12.073  68.517  1.00  0.00    -0.207 OA 
BRANCH  27  29
HETATM   29  C   UNL     1      -8.678  10.891  66.767  1.00  0.00    -0.147 C  
BRANCH  29  30
HETATM   30  O   UNL     1      -9.691  10.258  65.948  1.00  0.00    -0.196 OA 
BRANCH  30  31
HETATM   31  C   UNL     1     -10.337  11.090  65.090  1.00  0.00    -0.283 C  
HETATM   32  O   UNL     1     -10.465  10.898  63.895  1.00  0.00    -0.363 OA 
BRANCH  31  33
HETATM   33  C   UNL     1     -10.857  12.319  65.766  1.00  0.00    -0.313 A  
HETATM   34  C   UNL     1     -11.905  14.551  67.133  1.00  0.00    -0.412 A  
HETATM   35  O   UNL     1     -11.989  17.020  65.200  1.00  0.00     1.127 OA 
HETATM   36  C   UNL     1     -12.203  13.268  67.575  1.00  0.00    -0.213 A  
HETATM   37  C   UNL     1     -11.681  12.157  66.898  1.00  0.00    -0.374 A  
HETATM   38  O   UNL     1     -10.077  17.062  66.788  1.00  0.00    -0.280 OA 
HETATM   39  O   UNL     1      -9.663  16.300  64.519  1.00  0.00     1.035 OA 
HETATM   40  C   UNL     1     -10.553  13.616  65.321  1.00  0.00    -0.354 A  
HETATM   41  S   UNL     1     -10.726  16.372  65.486  1.00  0.00    -0.209 S  
HETATM   42  C   UNL     1     -11.096  14.714  66.018  1.00  0.00    -0.332 A  
ENDBRANCH  31  33
ENDBRANCH  30  31
ENDBRANCH  29  30
ENDBRANCH  27  29
ENDBRANCH   4  27
TORSDOF 5
ENDMDL
MODEL      196
REMARK 921   NORMALIZED FREE ENERGY PREDICTED BY IDOCK:    0.02 KCAL/MOL
REMARK 922        TOTAL FREE ENERGY PREDICTED BY IDOCK:   -0.69 KCAL/MOL
REMARK 923 INTER-LIGAND FREE ENERGY PREDICTED BY IDOCK:   -2.59 KCAL/MOL
REMARK 924 INTRA-LIGAND FREE ENERGY PREDICTED BY IDOCK:    1.90 KCAL/MOL
REMARK 927      BINDING AFFINITY PREDICTED BY RF-SCORE:    0.00 PKD
ROOT
HETATM    1  C   UNL     1      -8.426   9.030  64.657  1.00  0.00    -0.194 C  
HETATM    2  C   UNL     1      -8.071  10.194  63.955  1.00  0.00    -0.157 C  
HETATM    3  C   UNL     1      -7.032   9.731  64.939  1.00  0.00    -0.124 C  
HETATM    4  C   UNL     1      -7.268   7.835  65.747  1.00  0.00    -0.068 C  
HETATM    5  C   UNL     1      -5.743  10.692  64.391  1.00  0.00    -0.041 C  
HETATM    6  O   UNL     1      -8.313   6.949  65.207  1.00  0.00    -0.148 OA 
HETATM    7  C   UNL     1     -10.780  12.951  68.321  1.00  0.00    -0.261 C  
HETATM    8  C   UNL     1      -6.558   8.434  64.762  1.00  0.00    -0.068 C  
HETATM    9  C   UNL     1     -11.270  12.494  69.671  1.00  0.00    -0.020 C  
HETATM   10  C   UNL     1     -10.234  11.860  67.750  1.00  0.00    -0.211 C  
HETATM   11  C   UNL     1      -6.003   7.825  63.468  1.00  0.00    -0.058 C  
HETATM   12  H   UNL     1      -8.420   6.081  65.577  1.00  0.00     0.000 HD 
HETATM   13  C   UNL     1      -5.698   8.960  66.420  1.00  0.00    -0.053 C  
HETATM   14  C   UNL     1      -6.863   9.521  67.654  1.00  0.00    -0.075 C  
HETATM   15  C   UNL     1     -11.156  10.834  67.119  1.00  0.00    -0.297 C  
HETATM   16  C   UNL     1      -8.282  10.396  67.241  1.00  0.00    -0.121 C  
HETATM   17  C   UNL     1      -7.886  12.439  68.648  1.00  0.00    -0.049 C  
HETATM   18  O   UNL     1      -7.197   8.340  68.416  1.00  0.00    -0.088 OA 
HETATM   19  F   UNL     1      -7.948  11.528  66.450  1.00  0.00    -0.163 F  
HETATM   20  C   UNL     1      -9.199   9.503  66.210  1.00  0.00    -0.219 C  
HETATM   21  C   UNL     1      -8.941  11.281  68.382  1.00  0.00    -0.167 C  
HETATM   22  C   UNL     1      -9.360  10.863  69.786  1.00  0.00     0.526 C  
HETATM   23  H   UNL     1      -7.816   8.638  69.071  1.00  0.00     0.000 HD 
HETATM   24  O   UNL     1     -12.291  12.954  70.162  1.00  0.00    -0.270 OA 
HETATM   25  C   UNL     1     -10.514  10.234  65.878  1.00  0.00    -0.167 C  
HETATM   26  C   UNL     1     -10.413  11.474  70.389  1.00  0.00     1.813 C  
ENDROOT
BRANCH   4  27
HETATM   27  C   UNL     1      -6.206   6.474  65.891  1.00  0.00    -0.038 C  
HETATM   28  O   UNL     1      -5.404   6.090  65.023  1.00  0.00    -0.016 OA 
BRANCH  27  29
HETATM   29  C   UNL     1      -6.171   5.684  67.226  1.00  0.00    -0.030 C  
BRANCH  29  30
HETATM   30  O   UNL     1      -6.853   6.373  68.302  1.00  0.00    -0.065 OA 
BRANCH  30  31
HETATM   31  C   UNL     1      -7.215   5.585  69.348  1.00  0.00    -0.065 C  
HETATM   32  O   UNL     1      -6.996   4.391  69.432  1.00  0.00    -0.048 OA 
BRANCH  31  33
HETATM   33  C   UNL     1      -7.964   6.339  70.401  1.00  0.00    -0.111 A  
HETATM   34  C   UNL     1      -9.249   7.796  72.444  1.00  0.00    -0.218 A  
HETATM   35  O   UNL     1     -12.179   6.734  72.804  1.00  0.00     0.126 OA 
HETATM   36  C   UNL     1      -7.863   7.723  72.415  1.00  0.00    -0.129 A  
HETATM   37  C   UNL     1      -7.221   7.002  71.399  1.00  0.00    -0.078 A  
HETATM   38  O   UNL     1     -12.039   8.852  71.510  1.00  0.00    -0.296 OA 
HETATM   39  O   UNL     1     -12.280   6.772  70.278  1.00  0.00    -0.281 OA 
HETATM   40  C   UNL     1      -9.366   6.415  70.427  1.00  0.00    -0.169 A  
HETATM   41  S   UNL     1     -11.758   7.266  71.525  1.00  0.00    -0.307 S  
HETATM   42  C   UNL     1      -9.983   7.143  71.464  1.00  0.00    -0.182 A  
ENDBRANCH  31  33
ENDBRANCH  30  31
ENDBRANCH  29  30
ENDBRANCH  27  29
ENDBRANCH   4  27
TORSDOF 5
ENDMDL
MODEL      197
REMARK 921   NORMALIZED FREE ENERGY PREDICTED BY IDOCK:    0.15 KCAL/MOL
REMARK 922        TOTAL FREE ENERGY PREDICTED BY IDOCK:   -0.52 KCAL/MOL
REMARK 923 INTER-LIGAND FREE ENERGY PREDICTED BY IDOCK:   -2.87 KCAL/MOL
REMARK 924 INTRA-LIGAND FREE ENERGY PREDICTED BY IDOCK:    2.35 KCAL/MOL
REMARK 927      BINDING AFFINITY PREDICTED BY RF-SCORE:    0.00 PKD
ROOT
HETATM    1  C   UNL     1      -6.912  14.020  68.731  1.00  0.00    -0.106 C  
HETATM    2  C   UNL     1      -7.273  14.397  70.037  1.00  0.00     0.183 C  
HETATM    3  C   UNL     1      -8.442  14.198  69.112  1.00  0.00     0.201 C  
HETATM    4  C   UNL     1      -8.065  13.278  67.290  1.00  0.00    -0.142 C  
HETATM    5  C   UNL     1      -9.669  14.164  70.285  1.00  0.00     1.859 C  
HETATM    6  O   UNL     1      -6.736  12.694  67.042  1.00  0.00    -0.347 OA 
HETATM    7  C   UNL     1      -6.753  19.830  67.983  1.00  0.00    -0.289 C  
HETATM    8  C   UNL     1      -8.540  12.944  68.513  1.00  0.00    -0.042 C  
HETATM    9  C   UNL     1      -6.626  20.389  66.589  1.00  0.00    -0.233 C  
HETATM   10  C   UNL     1      -6.838  18.495  67.827  1.00  0.00    -0.217 C  
HETATM   11  C   UNL     1      -8.511  11.582  69.219  1.00  0.00     0.359 C  
HETATM   12  H   UNL     1      -6.564  12.273  66.208  1.00  0.00     0.000 HD 
HETATM   13  C   UNL     1      -9.973  13.923  67.645  1.00  0.00    -0.237 C  
HETATM   14  C   UNL     1      -9.409  15.439  66.883  1.00  0.00    -0.236 C  
HETATM   15  C   UNL     1      -5.564  17.711  67.580  1.00  0.00    -0.146 C  
HETATM   16  C   UNL     1      -8.160  16.398  67.567  1.00  0.00    -0.148 C  
HETATM   17  C   UNL     1      -9.417  18.564  67.768  1.00  0.00    -0.308 C  
HETATM   18  O   UNL     1      -9.083  15.073  65.523  1.00  0.00    -0.337 OA 
HETATM   19  F   UNL     1      -8.466  16.710  68.920  1.00  0.00    -0.221 F  
HETATM   20  C   UNL     1      -6.792  15.498  67.714  1.00  0.00    -0.182 C  
HETATM   21  C   UNL     1      -8.105  17.925  67.138  1.00  0.00    -0.225 C  
HETATM   22  C   UNL     1      -8.070  18.516  65.734  1.00  0.00     0.189 C  
HETATM   23  H   UNL     1      -8.783  15.878  65.119  1.00  0.00     0.000 HD 
HETATM   24  O   UNL     1      -5.939  21.374  66.362  1.00  0.00    -0.281 OA 
HETATM   25  C   UNL     1      -5.633  16.354  68.260  1.00  0.00    -0.106 C  
HETATM   26  C   UNL     1      -7.422  19.688  65.508  1.00  0.00    -0.130 C  
ENDROOT
BRANCH   4  27
HETATM   27  C   UNL     1      -8.793  11.935  66.474  1.00  0.00    -0.178 C  
HETATM   28  O   UNL     1      -8.306  11.329  65.504  1.00  0.00    -0.028 OA 
BRANCH  27  29
HETATM   29  C   UNL     1     -10.130  11.362  67.013  1.00  0.00    -0.208 C  
BRANCH  29  30
HETATM   30  O   UNL     1      -9.940  10.227  67.892  1.00  0.00    -0.158 OA 
BRANCH  30  31
HETATM   31  C   UNL     1     -10.362   9.037  67.392  1.00  0.00    -0.268 C  
HETATM   32  O   UNL     1     -11.150   8.905  66.474  1.00  0.00     0.386 OA 
BRANCH  31  33
HETATM   33  C   UNL     1      -9.777   7.869  68.122  1.00  0.00    -0.177 A  
HETATM   34  C   UNL     1      -8.694   5.590  69.378  1.00  0.00    -0.107 A  
HETATM   35  O   UNL     1      -8.979   5.872  72.489  1.00  0.00    -0.133 OA 
HETATM   36  C   UNL     1      -9.127   5.511  68.060  1.00  0.00    -0.110 A  
HETATM   37  C   UNL     1      -9.664   6.644  67.433  1.00  0.00    -0.155 A  
HETATM   38  O   UNL     1      -6.696   6.379  71.648  1.00  0.00    -0.060 OA 
HETATM   39  O   UNL     1      -8.175   8.242  72.137  1.00  0.00    -0.132 OA 
HETATM   40  C   UNL     1      -9.335   7.949  69.453  1.00  0.00    -0.152 A  
HETATM   41  S   UNL     1      -8.230   6.860  71.742  1.00  0.00    -0.104 S  
HETATM   42  C   UNL     1      -8.805   6.793  70.059  1.00  0.00    -0.142 A  
ENDBRANCH  31  33
ENDBRANCH  30  31
ENDBRANCH  29  30
ENDBRANCH  27  29
ENDBRANCH   4  27
TORSDOF 5
ENDMDL
MODEL      198
REMARK 921   NORMALIZED FREE ENERGY PREDICTED BY IDOCK:    0.17 KCAL/MOL
REMARK 922        TOTAL FREE ENERGY PREDICTED BY IDOCK:   -0.48 KCAL/MOL
REMARK 923 INTER-LIGAND FREE ENERGY PREDICTED BY IDOCK:   -1.83 KCAL/MOL
REMARK 924 INTRA-LIGAND FREE ENERGY PREDICTED BY IDOCK:    1.34 KCAL/MOL
REMARK 927      BINDING AFFINITY PREDICTED BY RF-SCORE:    0.00 PKD
ROOT
HETATM    1  C   UNL     1      -9.777  13.016  66.625  1.00  0.00    -0.256 C  
HETATM    2  C   UNL     1      -8.878  13.138  65.552  1.00  0.00     1.184 C  
HETATM    3  C   UNL     1      -8.689  11.891  66.369  1.00  0.00    -0.118 C  
HETATM    4  C   UNL     1     -10.181  11.410  67.729  1.00  0.00    -0.181 C  
HETATM    5  C   UNL     1      -7.680  11.052  65.290  1.00  0.00     0.279 C  
HETATM    6  O   UNL     1     -11.436  12.181  67.720  1.00  0.00    -0.287 OA 
HETATM    7  C   UNL     1      -5.573  16.001  69.410  1.00  0.00    -0.121 C  
HETATM    8  C   UNL     1      -9.799  11.058  66.479  1.00  0.00    -0.241 C  
HETATM    9  C   UNL     1      -5.644  16.146  70.909  1.00  0.00     0.081 C  
HETATM   10  C   UNL     1      -6.615  15.215  69.077  1.00  0.00    -0.113 C  
HETATM   11  C   UNL     1     -10.654  10.508  65.329  1.00  0.00    -0.137 C  
HETATM   12  H   UNL     1     -12.118  11.962  68.342  1.00  0.00     0.000 HD 
HETATM   13  C   UNL     1      -8.530  10.204  67.672  1.00  0.00    -0.118 C  
HETATM   14  C   UNL     1      -7.895  11.320  68.916  1.00  0.00    -0.114 C  
HETATM   15  C   UNL     1      -7.996  15.839  68.997  1.00  0.00    -0.214 C  
HETATM   16  C   UNL     1      -7.612  12.982  68.595  1.00  0.00    -0.089 C  
HETATM   17  C   UNL     1      -5.180  13.076  69.216  1.00  0.00    -0.074 C  
HETATM   18  O   UNL     1      -8.783  11.164  70.045  1.00  0.00     0.363 OA 
HETATM   19  F   UNL     1      -6.779  13.127  67.453  1.00  0.00    -0.146 F  
HETATM   20  C   UNL     1      -9.010  13.695  68.103  1.00  0.00    -0.191 C  
HETATM   21  C   UNL     1      -6.588  13.737  69.544  1.00  0.00    -0.081 C  
HETATM   22  C   UNL     1      -6.586  13.820  71.065  1.00  0.00     0.781 C  
HETATM   23  H   UNL     1      -8.446  11.757  70.706  1.00  0.00     0.000 HD 
HETATM   24  O   UNL     1      -5.321  17.188  71.459  1.00  0.00    -0.174 OA 
HETATM   25  C   UNL     1      -8.802  15.204  67.876  1.00  0.00    -0.166 C  
HETATM   26  C   UNL     1      -6.096  14.926  71.682  1.00  0.00     0.460 C  
ENDROOT
BRANCH   4  27
HETATM   27  C   UNL     1     -11.087   9.964  68.023  1.00  0.00    -0.158 C  
HETATM   28  O   UNL     1     -12.103   9.881  68.735  1.00  0.00     0.343 OA 
BRANCH  27  29
HETATM   29  C   UNL     1     -10.674   8.656  67.298  1.00  0.00    -0.139 C  
BRANCH  29  30
HETATM   30  O   UNL     1     -10.763   7.490  68.152  1.00  0.00    -0.174 OA 
BRANCH  30  31
HETATM   31  C   UNL     1      -9.623   7.183  68.823  1.00  0.00    -0.144 C  
HETATM   32  O   UNL     1      -8.497   7.296  68.376  1.00  0.00    -0.124 OA 
BRANCH  31  33
HETATM   33  C   UNL     1      -9.892   6.639  70.191  1.00  0.00    -0.180 A  
HETATM   34  C   UNL     1     -10.440   5.745  72.808  1.00  0.00    -0.242 A  
HETATM   35  O   UNL     1      -8.772   3.156  73.403  1.00  0.00    -0.077 OA 
HETATM   36  C   UNL     1     -10.650   7.077  72.475  1.00  0.00    -0.255 A  
HETATM   37  C   UNL     1     -10.380   7.523  71.174  1.00  0.00    -0.208 A  
HETATM   38  O   UNL     1     -11.152   2.702  72.849  1.00  0.00    -0.062 OA 
HETATM   39  O   UNL     1      -9.495   2.414  71.097  1.00  0.00    -0.130 OA 
HETATM   40  C   UNL     1      -9.683   5.291  70.526  1.00  0.00    -0.254 A  
HETATM   41  S   UNL     1      -9.711   3.170  72.302  1.00  0.00    -0.163 S  
HETATM   42  C   UNL     1      -9.958   4.872  71.843  1.00  0.00    -0.190 A  
ENDBRANCH  31  33
ENDBRANCH  30  31
ENDBRANCH  29  30
ENDBRANCH  27  29
ENDBRANCH   4  27
TORSDOF 5
ENDMDL
MODEL      199
REMARK 921   NORMALIZED FREE ENERGY PREDICTED BY IDOCK:    0.20 KCAL/MOL
REMARK 922        TOTAL FREE ENERGY PREDICTED BY IDOCK:   -0.45 KCAL/MOL
REMARK 923 INTER-LIGAND FREE ENERGY PREDICTED BY IDOCK:   -3.70 KCAL/MOL
REMARK 924 INTRA-LIGAND FREE ENERGY PREDICTED BY IDOCK:    3.25 KCAL/MOL
REMARK 927      BINDING AFFINITY PREDICTED BY RF-SCORE:    0.00 PKD
ROOT
HETATM    1  C   UNL     1      -6.916  14.013  68.734  1.00  0.00    -0.106 C  
HETATM    2  C   UNL     1      -7.266  14.382  70.044  1.00  0.00     0.183 C  
HETATM    3  C   UNL     1      -8.441  14.200  69.125  1.00  0.00     0.201 C  
HETATM    4  C   UNL     1      -8.083  13.292  67.294  1.00  0.00    -0.142 C  
HETATM    5  C   UNL     1      -9.662  14.166  70.305  1.00  0.00     1.859 C  
HETATM    6  O   UNL     1      -6.760  12.699  67.033  1.00  0.00    -0.347 OA 
HETATM    7  C   UNL     1      -6.714  19.828  68.032  1.00  0.00    -0.289 C  
HETATM    8  C   UNL     1      -8.553  12.952  68.517  1.00  0.00    -0.042 C  
HETATM    9  C   UNL     1      -6.592  20.397  66.641  1.00  0.00    -0.233 C  
HETATM   10  C   UNL     1      -6.811  18.494  67.866  1.00  0.00    -0.224 C  
HETATM   11  C   UNL     1      -8.531  11.584  69.211  1.00  0.00     0.359 C  
HETATM   12  H   UNL     1      -6.596  12.284  66.195  1.00  0.00     0.000 HD 
HETATM   13  C   UNL     1      -9.983  13.950  67.665  1.00  0.00    -0.237 C  
HETATM   14  C   UNL     1      -9.412  15.467  66.912  1.00  0.00    -0.230 C  
HETATM   15  C   UNL     1      -5.544  17.702  67.605  1.00  0.00    -0.142 C  
HETATM   16  C   UNL     1      -8.151  16.410  67.597  1.00  0.00    -0.156 C  
HETATM   17  C   UNL     1      -9.389  18.584  67.822  1.00  0.00    -0.308 C  
HETATM   18  O   UNL     1      -9.097  15.110  65.548  1.00  0.00    -0.338 OA 
HETATM   19  F   UNL     1      -8.447  16.714  68.953  1.00  0.00    -0.221 F  
HETATM   20  C   UNL     1      -6.790  15.498  67.728  1.00  0.00    -0.182 C  
HETATM   21  C   UNL     1      -8.086  17.940  67.179  1.00  0.00    -0.225 C  
HETATM   22  C   UNL     1      -8.055  18.542  65.780  1.00  0.00     0.189 C  
HETATM   23  H   UNL     1      -8.793  15.916  65.148  1.00  0.00     0.000 HD 
HETATM   24  O   UNL     1      -5.898  21.378  66.419  1.00  0.00    -0.272 OA 
HETATM   25  C   UNL     1      -5.621  16.340  68.274  1.00  0.00    -0.108 C  
HETATM   26  C   UNL     1      -7.399  19.711  65.560  1.00  0.00    -0.191 C  
ENDROOT
BRANCH   4  27
HETATM   27  C   UNL     1      -8.826  11.961  66.471  1.00  0.00    -0.178 C  
HETATM   28  O   UNL     1      -8.404  11.430  65.429  1.00  0.00     0.091 OA 
BRANCH  27  29
HETATM   29  C   UNL     1     -10.085  11.301  67.092  1.00  0.00    -0.192 C  
BRANCH  29  30
HETATM   30  O   UNL     1      -9.771  10.126  67.879  1.00  0.00    -0.144 OA 
BRANCH  30  31
HETATM   31  C   UNL     1     -10.760   9.714  68.713  1.00  0.00    -0.206 C  
HETATM   32  O   UNL     1     -11.632  10.430  69.171  1.00  0.00    -0.232 OA 
BRANCH  31  33
HETATM   33  C   UNL     1     -10.652   8.262  69.058  1.00  0.00    -0.167 A  
HETATM   34  C   UNL     1     -10.529   5.552  69.824  1.00  0.00    -0.389 A  
HETATM   35  O   UNL     1      -7.987   4.219  68.557  1.00  0.00    -0.073 OA 
HETATM   36  C   UNL     1     -11.239   6.457  70.602  1.00  0.00    -0.400 A  
HETATM   37  C   UNL     1     -11.304   7.805  70.222  1.00  0.00    -0.174 A  
HETATM   38  O   UNL     1     -10.096   3.686  67.354  1.00  0.00     0.117 OA 
HETATM   39  O   UNL     1      -8.666   5.426  66.443  1.00  0.00    -0.117 OA 
HETATM   40  C   UNL     1      -9.937   7.346  68.269  1.00  0.00    -0.182 A  
HETATM   41  S   UNL     1      -8.994   4.809  67.700  1.00  0.00    -0.114 S  
HETATM   42  C   UNL     1      -9.885   5.999  68.679  1.00  0.00    -0.138 A  
ENDBRANCH  31  33
ENDBRANCH  30  31
ENDBRANCH  29  30
ENDBRANCH  27  29
ENDBRANCH   4  27
TORSDOF 5
ENDMDL
MODEL      200
REMARK 921   NORMALIZED FREE ENERGY PREDICTED BY IDOCK:    0.44 KCAL/MOL
REMARK 922        TOTAL FREE ENERGY PREDICTED BY IDOCK:   -0.14 KCAL/MOL
REMARK 923 INTER-LIGAND FREE ENERGY PREDICTED BY IDOCK:   -1.77 KCAL/MOL
REMARK 924 INTRA-LIGAND FREE ENERGY PREDICTED BY IDOCK:    1.63 KCAL/MOL
REMARK 927      BINDING AFFINITY PREDICTED BY RF-SCORE:    0.00 PKD
ROOT
HETATM    1  C   UNL     1      -7.332  11.021  66.441  1.00  0.00    -0.128 C  
HETATM    2  C   UNL     1      -6.048  11.580  66.564  1.00  0.00    -0.086 C  
HETATM    3  C   UNL     1      -6.596  11.016  67.846  1.00  0.00    -0.062 C  
HETATM    4  C   UNL     1      -8.296   9.833  67.712  1.00  0.00    -0.114 C  
HETATM    5  C   UNL     1      -5.152  11.010  68.739  1.00  0.00    -0.041 C  
HETATM    6  O   UNL     1      -8.793   9.438  66.384  1.00  0.00    -0.138 OA 
HETATM    7  C   UNL     1      -8.946  16.520  67.662  1.00  0.00    -0.198 C  
HETATM    8  C   UNL     1      -6.956   9.671  67.816  1.00  0.00    -0.079 C  
HETATM    9  C   UNL     1     -10.391  16.810  67.976  1.00  0.00    -0.317 C  
HETATM   10  C   UNL     1      -8.875  15.184  67.503  1.00  0.00    -0.190 C  
HETATM   11  C   UNL     1      -6.089   8.496  67.346  1.00  0.00    -0.052 C  
HETATM   12  H   UNL     1      -9.571   8.897  66.323  1.00  0.00     0.000 HD 
HETATM   13  C   UNL     1      -7.555  10.214  69.580  1.00  0.00    -0.158 C  
HETATM   14  C   UNL     1      -8.654  11.624  69.531  1.00  0.00     0.980 C  
HETATM   15  C   UNL     1      -9.327  14.586  66.184  1.00  0.00    -0.242 C  
HETATM   16  C   UNL     1      -8.468  12.889  68.385  1.00  0.00    -0.115 C  
HETATM   17  C   UNL     1      -8.269  14.817  69.984  1.00  0.00     0.531 C  
HETATM   18  O   UNL     1      -9.981  11.059  69.456  1.00  0.00    -0.430 OA 
HETATM   19  F   UNL     1      -7.144  13.404  68.433  1.00  0.00    -0.079 F  
HETATM   20  C   UNL     1      -8.552  12.272  66.864  1.00  0.00    -0.182 C  
HETATM   21  C   UNL     1      -9.118  14.291  68.747  1.00  0.00    -0.103 C  
HETATM   22  C   UNL     1     -10.554  14.595  69.156  1.00  0.00    -0.247 C  
HETATM   23  H   UNL     1     -10.565  11.808  69.429  1.00  0.00     0.000 HD 
HETATM   24  O   UNL     1     -10.933  17.830  67.577  1.00  0.00    -0.287 OA 
HETATM   25  C   UNL     1      -8.460  13.395  65.814  1.00  0.00     1.716 C  
HETATM   26  C   UNL     1     -11.111  15.791  68.834  1.00  0.00    -0.298 C  
ENDROOT
BRANCH   4  27
HETATM   27  C   UNL     1      -8.686   8.256  68.313  1.00  0.00    -0.136 C  
HETATM   28  O   UNL     1      -9.643   7.557  67.938  1.00  0.00    -0.140 OA 
BRANCH  27  29
HETATM   29  C   UNL     1      -7.747   7.594  69.355  1.00  0.00    -0.107 C  
BRANCH  29  30
HETATM   30  O   UNL     1      -6.988   6.490  68.804  1.00  0.00    -0.074 OA 
BRANCH  30  31
HETATM   31  C   UNL     1      -7.522   5.261  69.025  1.00  0.00    -0.070 C  
HETATM   32  O   UNL     1      -7.675   4.753  70.121  1.00  0.00    -0.057 OA 
BRANCH  31  33
HETATM   33  C   UNL     1      -7.879   4.554  67.756  1.00  0.00    -0.085 A  
HETATM   34  C   UNL     1      -8.635   3.134  65.442  1.00  0.00    -0.110 A  
HETATM   35  O   UNL     1      -6.479   3.556  63.202  1.00  0.00    -0.024 OA 
HETATM   36  C   UNL     1      -9.124   2.743  66.682  1.00  0.00    -0.153 A  
HETATM   37  C   UNL     1      -8.752   3.450  67.833  1.00  0.00    -0.133 A  
HETATM   38  O   UNL     1      -8.516   4.948  62.899  1.00  0.00    -0.108 OA 
HETATM   39  O   UNL     1      -6.554   5.989  63.881  1.00  0.00    -0.035 OA 
HETATM   40  C   UNL     1      -7.387   4.951  66.502  1.00  0.00    -0.082 A  
HETATM   41  S   UNL     1      -7.176   4.698  63.756  1.00  0.00    -0.050 S  
HETATM   42  C   UNL     1      -7.775   4.219  65.362  1.00  0.00    -0.086 A  
ENDBRANCH  31  33
ENDBRANCH  30  31
ENDBRANCH  29  30
ENDBRANCH  27  29
ENDBRANCH   4  27
TORSDOF 5
ENDMDL
MODEL      201
REMARK 921   NORMALIZED FREE ENERGY PREDICTED BY IDOCK:    0.88 KCAL/MOL
REMARK 922        TOTAL FREE ENERGY PREDICTED BY IDOCK:    0.42 KCAL/MOL
REMARK 923 INTER-LIGAND FREE ENERGY PREDICTED BY IDOCK:   -0.17 KCAL/MOL
REMARK 924 INTRA-LIGAND FREE ENERGY PREDICTED BY IDOCK:    0.59 KCAL/MOL
REMARK 927      BINDING AFFINITY PREDICTED BY RF-SCORE:    0.00 PKD
ROOT
HETATM    1  C   UNL     1      -7.469  10.561  66.706  1.00  0.00    -0.115 C  
HETATM    2  C   UNL     1      -6.096  10.750  66.940  1.00  0.00    -0.071 C  
HETATM    3  C   UNL     1      -6.873  10.338  68.159  1.00  0.00    -0.066 C  
HETATM    4  C   UNL     1      -8.813   9.661  67.865  1.00  0.00    -0.119 C  
HETATM    5  C   UNL     1      -5.557   9.930  69.152  1.00  0.00    -0.035 C  
HETATM    6  O   UNL     1      -9.293   9.432  66.491  1.00  0.00    -0.151 OA 
HETATM    7  C   UNL     1      -7.638  16.274  67.997  1.00  0.00    -0.143 C  
HETATM    8  C   UNL     1      -7.578   9.141  68.058  1.00  0.00    -0.085 C  
HETATM    9  C   UNL     1      -8.972  16.939  68.217  1.00  0.00    -0.235 C  
HETATM   10  C   UNL     1      -7.916  14.971  67.797  1.00  0.00    -0.155 C  
HETATM   11  C   UNL     1      -7.024   7.781  67.610  1.00  0.00    -0.081 C  
HETATM   12  H   UNL     1     -10.181   9.123  66.356  1.00  0.00     0.000 HD 
HETATM   13  C   UNL     1      -8.144   9.801  69.792  1.00  0.00    -0.174 C  
HETATM   14  C   UNL     1      -8.817  11.456  69.714  1.00  0.00     1.346 C  
HETATM   15  C   UNL     1      -8.408  14.536  66.430  1.00  0.00     0.446 C  
HETATM   16  C   UNL     1      -8.210  12.639  68.628  1.00  0.00     0.008 C  
HETATM   17  C   UNL     1      -7.626  14.420  70.301  1.00  0.00     0.797 C  
HETATM   18  O   UNL     1     -10.237  11.272  69.525  1.00  0.00    -0.437 OA 
HETATM   19  F   UNL     1      -6.804  12.777  68.787  1.00  0.00    -0.076 F  
HETATM   20  C   UNL     1      -8.338  12.089  67.084  1.00  0.00    -0.181 C  
HETATM   21  C   UNL     1      -8.486  14.160  68.990  1.00  0.00     0.093 C  
HETATM   22  C   UNL     1      -9.814  14.835  69.307  1.00  0.00    -0.123 C  
HETATM   23  H   UNL     1     -10.594  12.151  69.482  1.00  0.00     0.000 HD 
HETATM   24  O   UNL     1      -9.187  18.074  67.816  1.00  0.00    -0.257 OA 
HETATM   25  C   UNL     1      -7.866  13.160  66.082  1.00  0.00     1.803 C  
HETATM   26  C   UNL     1     -10.003  16.142  68.986  1.00  0.00    -0.242 C  
ENDROOT
BRANCH   4  27
HETATM   27  C   UNL     1      -9.657   8.240  68.381  1.00  0.00    -0.144 C  
HETATM   28  O   UNL     1      -9.271   7.070  68.215  1.00  0.00    -0.130 OA 
BRANCH  27  29
HETATM   29  C   UNL     1     -10.974   8.397  69.187  1.00  0.00     0.085 C  
BRANCH  29  30
HETATM   30  O   UNL     1     -10.846   7.959  70.561  1.00  0.00    -0.233 OA 
BRANCH  30  31
HETATM   31  C   UNL     1     -11.322   6.712  70.811  1.00  0.00    -0.336 C  
HETATM   32  O   UNL     1     -12.491   6.381  70.732  1.00  0.00    -0.100 OA 
BRANCH  31  33
HETATM   33  C   UNL     1     -10.249   5.764  71.244  1.00  0.00    -0.270 A  
HETATM   34  C   UNL     1      -8.300   3.872  72.000  1.00  0.00    -0.100 A  
HETATM   35  O   UNL     1      -6.661   4.972  74.439  1.00  0.00    -0.068 OA 
HETATM   36  C   UNL     1      -9.431   3.459  71.307  1.00  0.00    -0.224 A  
HETATM   37  C   UNL     1     -10.400   4.398  70.928  1.00  0.00     0.004 A  
HETATM   38  O   UNL     1      -5.476   5.185  72.264  1.00  0.00    -0.011 OA 
HETATM   39  O   UNL     1      -6.604   7.146  73.150  1.00  0.00    -0.064 OA 
HETATM   40  C   UNL     1      -9.103   6.182  71.942  1.00  0.00    -0.140 A  
HETATM   41  S   UNL     1      -6.683   5.710  73.194  1.00  0.00    -0.076 S  
HETATM   42  C   UNL     1      -8.149   5.215  72.314  1.00  0.00    -0.110 A  
ENDBRANCH  31  33
ENDBRANCH  30  31
ENDBRANCH  29  30
ENDBRANCH  27  29
ENDBRANCH   4  27
TORSDOF 5
ENDMDL
MODEL      202
REMARK 921   NORMALIZED FREE ENERGY PREDICTED BY IDOCK:    1.03 KCAL/MOL
REMARK 922        TOTAL FREE ENERGY PREDICTED BY IDOCK:    0.62 KCAL/MOL
REMARK 923 INTER-LIGAND FREE ENERGY PREDICTED BY IDOCK:   -3.51 KCAL/MOL
REMARK 924 INTRA-LIGAND FREE ENERGY PREDICTED BY IDOCK:    4.12 KCAL/MOL
REMARK 927      BINDING AFFINITY PREDICTED BY RF-SCORE:    0.00 PKD
ROOT
HETATM    1  C   UNL     1      -6.435  10.957  66.888  1.00  0.00    -0.097 C  
HETATM    2  C   UNL     1      -5.435  10.490  67.758  1.00  0.00    -0.043 C  
HETATM    3  C   UNL     1      -6.824  10.431  68.332  1.00  0.00    -0.064 C  
HETATM    4  C   UNL     1      -8.406  10.725  67.022  1.00  0.00    -0.129 C  
HETATM    5  C   UNL     1      -6.488   9.429  69.662  1.00  0.00    -0.040 C  
HETATM    6  O   UNL     1      -8.137  10.795  65.575  1.00  0.00    -0.231 OA 
HETATM    7  C   UNL     1      -5.126  16.063  69.449  1.00  0.00    -0.107 C  
HETATM    8  C   UNL     1      -7.754   9.692  67.605  1.00  0.00    -0.095 C  
HETATM    9  C   UNL     1      -6.017  17.255  69.211  1.00  0.00    -0.216 C  
HETATM   10  C   UNL     1      -5.716  15.039  68.802  1.00  0.00    -0.086 C  
HETATM   11  C   UNL     1      -7.598   8.248  67.109  1.00  0.00    -0.093 C  
HETATM   12  H   UNL     1      -8.861  10.930  64.976  1.00  0.00     0.000 HD 
HETATM   13  C   UNL     1      -8.854  10.470  69.001  1.00  0.00    -0.174 C  
HETATM   14  C   UNL     1      -8.715  12.251  69.076  1.00  0.00     0.437 C  
HETATM   15  C   UNL     1      -5.537  14.931  67.300  1.00  0.00     0.498 C  
HETATM   16  C   UNL     1      -7.242  13.068  68.746  1.00  0.00    -0.082 C  
HETATM   17  C   UNL     1      -7.014  14.319  70.913  1.00  0.00     0.924 C  
HETATM   18  O   UNL     1      -9.772  12.743  68.223  1.00  0.00    -0.218 OA 
HETATM   19  F   UNL     1      -6.197  12.543  69.555  1.00  0.00    -0.088 F  
HETATM   20  C   UNL     1      -6.733  12.697  67.228  1.00  0.00    -0.105 C  
HETATM   21  C   UNL     1      -7.080  14.532  69.339  1.00  0.00    -0.140 C  
HETATM   22  C   UNL     1      -8.014  15.726  69.189  1.00  0.00    -0.231 C  
HETATM   23  H   UNL     1      -9.698  13.689  68.262  1.00  0.00     0.000 HD 
HETATM   24  O   UNL     1      -5.551  18.377  69.079  1.00  0.00    -0.197 OA 
HETATM   25  C   UNL     1      -5.449  13.473  66.878  1.00  0.00     1.350 C  
HETATM   26  C   UNL     1      -7.507  16.986  69.183  1.00  0.00    -0.162 C  
ENDROOT
BRANCH   4  27
HETATM   27  C   UNL     1      -9.851   9.827  66.696  1.00  0.00    -0.215 C  
HETATM   28  O   UNL     1      -9.924   8.812  65.982  1.00  0.00    -0.256 OA 
BRANCH  27  29
HETATM   29  C   UNL     1     -11.172  10.249  67.391  1.00  0.00    -0.068 C  
BRANCH  29  30
HETATM   30  O   UNL     1     -11.936  11.201  66.612  1.00  0.00    -0.038 OA 
BRANCH  30  31
HETATM   31  C   UNL     1     -11.934  12.470  67.095  1.00  0.00    -0.215 C  
HETATM   32  O   UNL     1     -11.741  13.471  66.429  1.00  0.00    -0.335 OA 
BRANCH  31  33
HETATM   33  C   UNL     1     -12.159  12.522  68.573  1.00  0.00    -0.129 A  
HETATM   34  C   UNL     1     -12.588  12.476  71.359  1.00  0.00    -0.297 A  
HETATM   35  O   UNL     1     -13.832  15.207  72.274  1.00  0.00    -0.425 OA 
HETATM   36  C   UNL     1     -12.514  11.283  70.652  1.00  0.00    -0.439 A  
HETATM   37  C   UNL     1     -12.298  11.303  69.268  1.00  0.00    -0.172 A  
HETATM   38  O   UNL     1     -11.398  15.016  72.739  1.00  0.00    -0.273 OA 
HETATM   39  O   UNL     1     -12.092  16.262  70.773  1.00  0.00    -0.213 OA 
HETATM   40  C   UNL     1     -12.230  13.729  69.289  1.00  0.00    -0.307 A  
HETATM   41  S   UNL     1     -12.541  15.187  71.618  1.00  0.00    -0.388 S  
HETATM   42  C   UNL     1     -12.453  13.678  70.679  1.00  0.00    -0.347 A  
ENDBRANCH  31  33
ENDBRANCH  30  31
ENDBRANCH  29  30
ENDBRANCH  27  29
ENDBRANCH   4  27
TORSDOF 5
ENDMDL
MODEL      203
REMARK 921   NORMALIZED FREE ENERGY PREDICTED BY IDOCK:    1.08 KCAL/MOL
REMARK 922        TOTAL FREE ENERGY PREDICTED BY IDOCK:    0.69 KCAL/MOL
REMARK 923 INTER-LIGAND FREE ENERGY PREDICTED BY IDOCK:   -0.56 KCAL/MOL
REMARK 924 INTRA-LIGAND FREE ENERGY PREDICTED BY IDOCK:    1.25 KCAL/MOL
REMARK 927      BINDING AFFINITY PREDICTED BY RF-SCORE:    0.00 PKD
ROOT
HETATM    1  C   UNL     1      -7.397  10.582  66.762  1.00  0.00    -0.114 C  
HETATM    2  C   UNL     1      -6.080  10.140  66.973  1.00  0.00    -0.055 C  
HETATM    3  C   UNL     1      -6.987   9.951  68.158  1.00  0.00    -0.076 C  
HETATM    4  C   UNL     1      -9.023  10.205  67.845  1.00  0.00    -0.128 C  
HETATM    5  C   UNL     1      -5.993   8.905  69.053  1.00  0.00    -0.043 C  
HETATM    6  O   UNL     1      -9.522  10.372  66.470  1.00  0.00    -0.160 OA 
HETATM    7  C   UNL     1      -5.146  15.620  68.734  1.00  0.00    -0.100 C  
HETATM    8  C   UNL     1      -8.132   9.190  67.936  1.00  0.00    -0.105 C  
HETATM    9  C   UNL     1      -6.075  16.757  69.074  1.00  0.00    -0.169 C  
HETATM   10  C   UNL     1      -5.948  14.594  68.388  1.00  0.00    -0.103 C  
HETATM   11  C   UNL     1      -8.199   7.790  67.311  1.00  0.00    -0.119 C  
HETATM   12  H   UNL     1     -10.454  10.489  66.327  1.00  0.00     0.000 HD 
HETATM   13  C   UNL     1      -8.402   9.812  69.754  1.00  0.00    -0.189 C  
HETATM   14  C   UNL     1      -8.304  11.591  69.896  1.00  0.00     1.696 C  
HETATM   15  C   UNL     1      -6.547  14.580  66.995  1.00  0.00     0.846 C  
HETATM   16  C   UNL     1      -7.226  12.527  68.941  1.00  0.00    -0.050 C  
HETATM   17  C   UNL     1      -5.978  13.671  70.797  1.00  0.00    -0.130 C  
HETATM   18  O   UNL     1      -9.663  12.054  69.730  1.00  0.00     0.573 OA 
HETATM   19  F   UNL     1      -5.900  12.033  69.072  1.00  0.00    -0.056 F  
HETATM   20  C   UNL     1      -7.541  12.276  67.348  1.00  0.00    -0.159 C  
HETATM   21  C   UNL     1      -6.836  13.964  69.492  1.00  0.00    -0.024 C  
HETATM   22  C   UNL     1      -7.758  15.096  69.929  1.00  0.00     0.041 C  
HETATM   23  H   UNL     1      -9.610  12.999  69.806  1.00  0.00     0.000 HD 
HETATM   24  O   UNL     1      -5.777  17.915  68.819  1.00  0.00    -0.176 OA 
HETATM   25  C   UNL     1      -6.635  13.158  66.467  1.00  0.00     2.128 C  
HETATM   26  C   UNL     1      -7.365  16.387  69.774  1.00  0.00     0.286 C  
ENDROOT
BRANCH   4  27
HETATM   27  C   UNL     1     -10.403   9.227  68.214  1.00  0.00    -0.217 C  
HETATM   28  O   UNL     1     -10.675   8.134  67.687  1.00  0.00    -0.221 OA 
BRANCH  27  29
HETATM   29  C   UNL     1     -11.369   9.681  69.340  1.00  0.00     0.002 C  
BRANCH  29  30
HETATM   30  O   UNL     1     -12.436  10.531  68.854  1.00  0.00    -0.194 OA 
BRANCH  30  31
HETATM   31  C   UNL     1     -12.286  11.853  69.128  1.00  0.00     0.089 C  
HETATM   32  O   UNL     1     -12.607  12.391  70.172  1.00  0.00    -0.053 OA 
BRANCH  31  33
HETATM   33  C   UNL     1     -11.708  12.615  67.977  1.00  0.00    -0.402 A  
HETATM   34  C   UNL     1     -10.540  14.125  65.904  1.00  0.00    -0.301 A  
HETATM   35  O   UNL     1     -12.408  14.067  63.384  1.00  0.00    -0.748 OA 
HETATM   36  C   UNL     1     -10.189  14.378  67.224  1.00  0.00    -0.252 A  
HETATM   37  C   UNL     1     -10.766  13.626  68.256  1.00  0.00    -0.266 A  
HETATM   38  O   UNL     1     -10.469  12.520  63.223  1.00  0.00    -0.346 OA 
HETATM   39  O   UNL     1     -12.622  11.594  63.860  1.00  0.00    -0.283 OA 
HETATM   40  C   UNL     1     -12.060  12.357  66.642  1.00  0.00    -0.148 A  
HETATM   41  S   UNL     1     -11.886  12.829  63.923  1.00  0.00    -0.511 S  
HETATM   42  C   UNL     1     -11.468  13.132  65.626  1.00  0.00    -0.323 A  
ENDBRANCH  31  33
ENDBRANCH  30  31
ENDBRANCH  29  30
ENDBRANCH  27  29
ENDBRANCH   4  27
TORSDOF 5
ENDMDL
MODEL      204
REMARK 921   NORMALIZED FREE ENERGY PREDICTED BY IDOCK:    1.56 KCAL/MOL
REMARK 922        TOTAL FREE ENERGY PREDICTED BY IDOCK:    1.31 KCAL/MOL
REMARK 923 INTER-LIGAND FREE ENERGY PREDICTED BY IDOCK:    0.11 KCAL/MOL
REMARK 924 INTRA-LIGAND FREE ENERGY PREDICTED BY IDOCK:    1.20 KCAL/MOL
REMARK 927      BINDING AFFINITY PREDICTED BY RF-SCORE:    0.00 PKD
ROOT
HETATM    1  C   UNL     1      -9.755  10.710  69.954  1.00  0.00     0.240 C  
HETATM    2  C   UNL     1     -10.924  11.488  69.909  1.00  0.00     0.044 C  
HETATM    3  C   UNL     1     -11.151  10.026  69.642  1.00  0.00    -0.300 C  
HETATM    4  C   UNL     1      -9.584   8.730  70.057  1.00  0.00    -0.169 C  
HETATM    5  C   UNL     1     -12.842  10.015  69.803  1.00  0.00     0.601 C  
HETATM    6  O   UNL     1      -8.395   9.243  70.758  1.00  0.00    -0.188 OA 
HETATM    7  C   UNL     1      -9.554  12.162  64.281  1.00  0.00     0.037 C  
HETATM    8  C   UNL     1     -10.732   9.150  70.640  1.00  0.00    -0.313 C  
HETATM    9  C   UNL     1      -8.565  11.469  63.379  1.00  0.00     0.468 C  
HETATM   10  C   UNL     1      -9.417  11.572  65.484  1.00  0.00    -0.234 C  
HETATM   11  C   UNL     1     -11.086   9.216  72.131  1.00  0.00    -0.151 C  
HETATM   12  H   UNL     1      -7.678   8.650  70.948  1.00  0.00     0.000 HD 
HETATM   13  C   UNL     1     -11.277   7.932  69.232  1.00  0.00     0.242 C  
HETATM   14  C   UNL     1     -10.458   8.264  67.677  1.00  0.00    -0.235 C  
HETATM   15  C   UNL     1      -8.253  11.986  66.365  1.00  0.00     0.102 C  
HETATM   16  C   UNL     1     -10.066   9.857  67.172  1.00  0.00    -0.215 C  
HETATM   17  C   UNL     1     -11.283   9.865  64.975  1.00  0.00     2.929 C  
HETATM   18  O   UNL     1      -9.279   7.429  67.691  1.00  0.00    -0.128 OA 
HETATM   19  F   UNL     1     -11.222  10.683  67.210  1.00  0.00    -0.342 F  
HETATM   20  C   UNL     1      -9.090  10.565  68.290  1.00  0.00    -0.146 C  
HETATM   21  C   UNL     1      -9.847  10.088  65.617  1.00  0.00    -0.363 C  
HETATM   22  C   UNL     1      -8.921   9.338  64.667  1.00  0.00    -0.202 C  
HETATM   23  H   UNL     1      -8.844   7.606  66.866  1.00  0.00     0.000 HD 
HETATM   24  O   UNL     1      -7.977  12.078  62.498  1.00  0.00     0.525 OA 
HETATM   25  C   UNL     1      -8.663  11.971  67.829  1.00  0.00    -0.161 C  
HETATM   26  C   UNL     1      -8.376   9.984  63.603  1.00  0.00    -0.166 C  
ENDROOT
BRANCH   4  27
HETATM   27  C   UNL     1      -9.477   7.265  70.973  1.00  0.00    -0.158 C  
HETATM   28  O   UNL     1     -10.330   6.361  70.991  1.00  0.00    -0.199 OA 
BRANCH  27  29
HETATM   29  C   UNL     1      -8.193   6.986  71.799  1.00  0.00    -0.103 C  
BRANCH  29  30
HETATM   30  O   UNL     1      -8.404   7.121  73.226  1.00  0.00    -0.112 OA 
BRANCH  30  31
HETATM   31  C   UNL     1      -9.361   6.308  73.743  1.00  0.00    -0.135 C  
HETATM   32  O   UNL     1     -10.352   6.687  74.341  1.00  0.00    -0.357 OA 
BRANCH  31  33
HETATM   33  C   UNL     1      -9.054   4.858  73.538  1.00  0.00    -0.120 A  
HETATM   34  C   UNL     1      -8.594   2.095  73.224  1.00  0.00    -0.066 A  
HETATM   35  O   UNL     1      -5.546   1.594  72.674  1.00  0.00    -0.003 OA 
HETATM   36  C   UNL     1      -9.706   2.533  73.931  1.00  0.00    -0.129 A  
HETATM   37  C   UNL     1      -9.938   3.907  74.086  1.00  0.00    -0.181 A  
HETATM   38  O   UNL     1      -6.956   1.497  70.629  1.00  0.00    -0.031 OA 
HETATM   39  O   UNL     1      -5.729   3.546  71.077  1.00  0.00    -0.012 OA 
HETATM   40  C   UNL     1      -7.931   4.415  72.819  1.00  0.00    -0.091 A  
HETATM   41  S   UNL     1      -6.312   2.430  71.774  1.00  0.00    -0.015 S  
HETATM   42  C   UNL     1      -7.721   3.028  72.684  1.00  0.00    -0.058 A  
ENDBRANCH  31  33
ENDBRANCH  30  31
ENDBRANCH  29  30
ENDBRANCH  27  29
ENDBRANCH   4  27
TORSDOF 5
ENDMDL
MODEL      205
REMARK 921   NORMALIZED FREE ENERGY PREDICTED BY IDOCK:    1.88 KCAL/MOL
REMARK 922        TOTAL FREE ENERGY PREDICTED BY IDOCK:    1.71 KCAL/MOL
REMARK 923 INTER-LIGAND FREE ENERGY PREDICTED BY IDOCK:   -0.08 KCAL/MOL
REMARK 924 INTRA-LIGAND FREE ENERGY PREDICTED BY IDOCK:    1.79 KCAL/MOL
REMARK 927      BINDING AFFINITY PREDICTED BY RF-SCORE:    0.00 PKD
ROOT
HETATM    1  C   UNL     1      -8.352  12.295  66.613  1.00  0.00    -0.016 C  
HETATM    2  C   UNL     1      -7.083  12.354  66.011  1.00  0.00     1.993 C  
HETATM    3  C   UNL     1      -7.049  12.374  67.514  1.00  0.00    -0.145 C  
HETATM    4  C   UNL     1      -8.810  11.908  68.509  1.00  0.00    -0.108 C  
HETATM    5  C   UNL     1      -5.392  12.063  67.719  1.00  0.00    -0.069 C  
HETATM    6  O   UNL     1      -9.958  11.402  67.738  1.00  0.00    -0.173 OA 
HETATM    7  C   UNL     1      -7.960  18.119  66.094  1.00  0.00    -0.222 C  
HETATM    8  C   UNL     1      -7.656  11.295  68.153  1.00  0.00    -0.105 C  
HETATM    9  C   UNL     1      -8.974  18.989  66.791  1.00  0.00    -0.313 C  
HETATM   10  C   UNL     1      -8.261  16.857  66.457  1.00  0.00    -0.320 C  
HETATM   11  C   UNL     1      -7.397   9.806  67.890  1.00  0.00    -0.085 C  
HETATM   12  H   UNL     1     -10.764  11.189  68.193  1.00  0.00     0.000 HD 
HETATM   13  C   UNL     1      -7.197  12.446  69.646  1.00  0.00     0.481 C  
HETATM   14  C   UNL     1      -7.853  14.100  69.469  1.00  0.00     0.347 C  
HETATM   15  C   UNL     1      -9.410  16.157  65.757  1.00  0.00    -0.221 C  
HETATM   16  C   UNL     1      -7.979  14.875  67.942  1.00  0.00    -0.138 C  
HETATM   17  C   UNL     1      -6.627  16.931  68.452  1.00  0.00    -0.155 C  
HETATM   18  O   UNL     1      -9.138  14.064  70.129  1.00  0.00     1.006 OA 
HETATM   19  F   UNL     1      -6.722  14.862  67.279  1.00  0.00    -0.201 F  
HETATM   20  C   UNL     1      -8.916  13.971  66.940  1.00  0.00    -0.243 C  
HETATM   21  C   UNL     1      -8.057  16.461  67.942  1.00  0.00    -0.164 C  
HETATM   22  C   UNL     1      -9.014  17.364  68.710  1.00  0.00    -0.219 C  
HETATM   23  H   UNL     1      -9.486  14.942  70.035  1.00  0.00     0.000 HD 
HETATM   24  O   UNL     1      -9.409  20.002  66.263  1.00  0.00    -0.379 OA 
HETATM   25  C   UNL     1      -9.106  14.678  65.584  1.00  0.00     0.472 C  
HETATM   26  C   UNL     1      -9.388  18.559  68.182  1.00  0.00    -0.336 C  
ENDROOT
BRANCH   4  27
HETATM   27  C   UNL     1      -9.187  10.791  69.778  1.00  0.00     0.440 C  
HETATM   28  O   UNL     1     -10.312  10.623  70.281  1.00  0.00     0.001 OA 
BRANCH  27  29
HETATM   29  C   UNL     1      -8.073   9.852  70.310  1.00  0.00    -0.085 C  
BRANCH  29  30
HETATM   30  O   UNL     1      -8.346   9.359  71.645  1.00  0.00    -0.233 OA 
BRANCH  30  31
HETATM   31  C   UNL     1      -9.152   8.268  71.699  1.00  0.00    -0.185 C  
HETATM   32  O   UNL     1     -10.349   8.294  71.917  1.00  0.00    -0.214 OA 
BRANCH  31  33
HETATM   33  C   UNL     1      -8.401   6.990  71.499  1.00  0.00    -0.112 A  
HETATM   34  C   UNL     1      -6.882   4.633  71.207  1.00  0.00    -0.035 A  
HETATM   35  O   UNL     1      -7.725   3.163  68.566  1.00  0.00    -0.055 OA 
HETATM   36  C   UNL     1      -6.395   5.675  71.985  1.00  0.00    -0.044 A  
HETATM   37  C   UNL     1      -7.150   6.847  72.134  1.00  0.00    -0.074 A  
HETATM   38  O   UNL     1      -8.707   2.164  70.620  1.00  0.00    -0.051 OA 
HETATM   39  O   UNL     1     -10.095   3.656  69.298  1.00  0.00     0.186 OA 
HETATM   40  C   UNL     1      -8.895   5.934  70.716  1.00  0.00    -0.140 A  
HETATM   41  S   UNL     1      -8.710   3.410  69.599  1.00  0.00    -0.085 S  
HETATM   42  C   UNL     1      -8.112   4.770  70.580  1.00  0.00    -0.083 A  
ENDBRANCH  31  33
ENDBRANCH  30  31
ENDBRANCH  29  30
ENDBRANCH  27  29
ENDBRANCH   4  27
TORSDOF 5
ENDMDL
MODEL      206
REMARK 921   NORMALIZED FREE ENERGY PREDICTED BY IDOCK:    2.33 KCAL/MOL
REMARK 922        TOTAL FREE ENERGY PREDICTED BY IDOCK:    2.31 KCAL/MOL
REMARK 923 INTER-LIGAND FREE ENERGY PREDICTED BY IDOCK:    0.93 KCAL/MOL
REMARK 924 INTRA-LIGAND FREE ENERGY PREDICTED BY IDOCK:    1.37 KCAL/MOL
REMARK 927      BINDING AFFINITY PREDICTED BY RF-SCORE:    0.00 PKD
ROOT
HETATM    1  C   UNL     1      -8.641   3.126  66.214  1.00  0.00    -0.119 C  
HETATM    2  C   UNL     1      -9.892   2.495  66.105  1.00  0.00     0.648 C  
HETATM    3  C   UNL     1      -9.948   3.993  65.983  1.00  0.00    -0.138 C  
HETATM    4  C   UNL     1      -8.147   4.995  65.743  1.00  0.00    -0.113 C  
HETATM    5  C   UNL     1     -11.527   4.120  65.370  1.00  0.00     1.548 C  
HETATM    6  O   UNL     1      -6.917   4.217  65.517  1.00  0.00    -0.056 OA 
HETATM    7  C   UNL     1     -10.047   3.102  71.903  1.00  0.00    -0.152 C  
HETATM    8  C   UNL     1      -9.170   4.553  64.973  1.00  0.00    -0.157 C  
HETATM    9  C   UNL     1      -9.212   3.901  72.870  1.00  0.00    -0.107 C  
HETATM   10  C   UNL     1      -9.533   3.363  70.685  1.00  0.00    -0.243 C  
HETATM   11  C   UNL     1      -9.158   4.156  63.491  1.00  0.00    -0.132 C  
HETATM   12  H   UNL     1      -6.093   4.676  65.408  1.00  0.00     0.000 HD 
HETATM   13  C   UNL     1      -9.846   6.126  65.887  1.00  0.00     0.198 C  
HETATM   14  C   UNL     1      -9.489   6.112  67.639  1.00  0.00    -0.111 C  
HETATM   15  C   UNL     1      -8.269   2.638  70.262  1.00  0.00    -0.065 C  
HETATM   16  C   UNL     1      -9.481   4.662  68.559  1.00  0.00    -0.147 C  
HETATM   17  C   UNL     1     -11.181   5.308  70.292  1.00  0.00     0.617 C  
HETATM   18  O   UNL     1      -8.228   6.804  67.768  1.00  0.00    -0.118 OA 
HETATM   19  F   UNL     1     -10.706   3.963  68.386  1.00  0.00     0.655 F  
HETATM   20  C   UNL     1      -8.385   3.614  67.926  1.00  0.00    -0.101 C  
HETATM   21  C   UNL     1      -9.684   4.801  70.127  1.00  0.00    -0.288 C  
HETATM   22  C   UNL     1      -8.912   5.672  71.111  1.00  0.00    -0.148 C  
HETATM   23  H   UNL     1      -8.039   6.796  68.699  1.00  0.00     0.000 HD 
HETATM   24  O   UNL     1      -8.956   3.474  73.987  1.00  0.00    -0.087 OA 
HETATM   25  C   UNL     1      -8.305   2.330  68.775  1.00  0.00    -0.080 C  
HETATM   26  C   UNL     1      -8.748   5.261  72.395  1.00  0.00    -0.125 C  
ENDROOT
BRANCH   4  27
HETATM   27  C   UNL     1      -7.596   6.173  64.599  1.00  0.00    -0.093 C  
HETATM   28  O   UNL     1      -6.412   6.363  64.273  1.00  0.00    -0.032 OA 
BRANCH  27  29
HETATM   29  C   UNL     1      -8.642   7.035  63.843  1.00  0.00     0.505 C  
BRANCH  29  30
HETATM   30  O   UNL     1      -9.220   8.071  64.674  1.00  0.00     0.598 OA 
BRANCH  30  31
HETATM   31  C   UNL     1      -8.510   9.228  64.724  1.00  0.00    -0.175 C  
HETATM   32  O   UNL     1      -7.856   9.687  63.805  1.00  0.00    -0.125 OA 
BRANCH  31  33
HETATM   33  C   UNL     1      -8.579   9.885  66.066  1.00  0.00    -0.147 A  
HETATM   34  C   UNL     1      -8.580  11.183  68.568  1.00  0.00    -0.157 A  
HETATM   35  O   UNL     1     -10.494   9.664  70.536  1.00  0.00    -0.264 OA 
HETATM   36  C   UNL     1      -7.500  11.341  67.710  1.00  0.00    -0.095 A  
HETATM   37  C   UNL     1      -7.498  10.699  66.464  1.00  0.00    -0.134 A  
HETATM   38  O   UNL     1     -11.491  11.727  69.571  1.00  0.00    -0.273 OA 
HETATM   39  O   UNL     1     -12.100   9.592  68.585  1.00  0.00     0.767 OA 
HETATM   40  C   UNL     1      -9.673   9.729  66.933  1.00  0.00    -0.243 A  
HETATM   41  S   UNL     1     -11.017  10.211  69.302  1.00  0.00    -0.237 S  
HETATM   42  C   UNL     1      -9.644  10.382  68.181  1.00  0.00    -0.144 A  
ENDBRANCH  31  33
ENDBRANCH  30  31
ENDBRANCH  29  30
ENDBRANCH  27  29
ENDBRANCH   4  27
TORSDOF 5
ENDMDL
MODEL      207
REMARK 921   NORMALIZED FREE ENERGY PREDICTED BY IDOCK:    3.16 KCAL/MOL
REMARK 922        TOTAL FREE ENERGY PREDICTED BY IDOCK:    3.38 KCAL/MOL
REMARK 923 INTER-LIGAND FREE ENERGY PREDICTED BY IDOCK:    0.20 KCAL/MOL
REMARK 924 INTRA-LIGAND FREE ENERGY PREDICTED BY IDOCK:    3.17 KCAL/MOL
REMARK 927      BINDING AFFINITY PREDICTED BY RF-SCORE:    0.00 PKD
ROOT
HETATM    1  C   UNL     1      -6.583  11.002  67.240  1.00  0.00    -0.078 C  
HETATM    2  C   UNL     1      -6.157  10.757  68.556  1.00  0.00    -0.043 C  
HETATM    3  C   UNL     1      -7.312   9.900  68.117  1.00  0.00    -0.080 C  
HETATM    4  C   UNL     1      -7.774   9.895  66.094  1.00  0.00    -0.107 C  
HETATM    5  C   UNL     1      -7.255   8.762  69.376  1.00  0.00    -0.061 C  
HETATM    6  O   UNL     1      -6.866  10.566  65.148  1.00  0.00    -0.261 OA 
HETATM    7  C   UNL     1      -9.973  14.943  69.944  1.00  0.00     0.080 C  
HETATM    8  C   UNL     1      -7.099   9.126  66.979  1.00  0.00    -0.086 C  
HETATM    9  C   UNL     1     -11.074  15.621  69.170  1.00  0.00    -0.284 C  
HETATM   10  C   UNL     1      -9.430  14.053  69.091  1.00  0.00     0.223 C  
HETATM   11  C   UNL     1      -5.929   8.165  66.725  1.00  0.00    -0.052 C  
HETATM   12  H   UNL     1      -7.077  10.564  64.222  1.00  0.00     0.000 HD 
HETATM   13  C   UNL     1      -8.979   8.810  67.340  1.00  0.00    -0.143 C  
HETATM   14  C   UNL     1      -9.923  10.324  67.450  1.00  0.00    -0.189 C  
HETATM   15  C   UNL     1      -8.449  14.556  68.049  1.00  0.00    -0.161 C  
HETATM   16  C   UNL     1      -9.268  11.764  68.117  1.00  0.00    -0.186 C  
HETATM   17  C   UNL     1     -10.984  12.163  69.908  1.00  0.00     0.326 C  
HETATM   18  O   UNL     1     -10.409  10.559  66.110  1.00  0.00    -0.241 OA 
HETATM   19  F   UNL     1      -8.748  11.512  69.415  1.00  0.00     0.076 F  
HETATM   20  C   UNL     1      -7.924  12.199  67.277  1.00  0.00    -0.176 C  
HETATM   21  C   UNL     1     -10.299  12.848  68.648  1.00  0.00    -0.202 C  
HETATM   22  C   UNL     1     -11.476  13.480  67.913  1.00  0.00    -0.353 C  
HETATM   23  H   UNL     1     -10.910  11.363  66.168  1.00  0.00     0.000 HD 
HETATM   24  O   UNL     1     -11.333  16.802  69.342  1.00  0.00    -0.097 OA 
HETATM   25  C   UNL     1      -7.355  13.528  67.809  1.00  0.00    -0.166 C  
HETATM   26  C   UNL     1     -11.853  14.751  68.206  1.00  0.00    -0.316 C  
ENDROOT
BRANCH   4  27
HETATM   27  C   UNL     1      -8.014   8.625  64.942  1.00  0.00    -0.138 C  
HETATM   28  O   UNL     1      -7.665   8.657  63.749  1.00  0.00    -0.121 OA 
BRANCH  27  29
HETATM   29  C   UNL     1      -8.649   7.290  65.414  1.00  0.00    -0.031 C  
BRANCH  29  30
HETATM   30  O   UNL     1     -10.094   7.294  65.323  1.00  0.00     1.701 OA 
BRANCH  30  31
HETATM   31  C   UNL     1     -10.722   6.407  66.137  1.00  0.00     0.577 C  
HETATM   32  O   UNL     1     -11.918   6.180  66.133  1.00  0.00     1.670 OA 
BRANCH  31  33
HETATM   33  C   UNL     1      -9.783   5.743  67.094  1.00  0.00    -0.147 A  
HETATM   34  C   UNL     1      -8.125   4.476  68.989  1.00  0.00    -0.073 A  
HETATM   35  O   UNL     1      -5.138   5.292  68.479  1.00  0.00     0.000 OA 
HETATM   36  C   UNL     1      -9.469   4.676  69.273  1.00  0.00    -0.231 A  
HETATM   37  C   UNL     1     -10.297   5.303  68.332  1.00  0.00    -0.178 A  
HETATM   38  O   UNL     1      -5.716   3.034  67.614  1.00  0.00    -0.018 OA 
HETATM   39  O   UNL     1      -5.663   4.884  66.040  1.00  0.00    -0.017 OA 
HETATM   40  C   UNL     1      -8.424   5.537  66.805  1.00  0.00    -0.111 A  
HETATM   41  S   UNL     1      -5.891   4.625  67.437  1.00  0.00    -0.023 S  
HETATM   42  C   UNL     1      -7.616   4.908  67.773  1.00  0.00    -0.083 A  
ENDBRANCH  31  33
ENDBRANCH  30  31
ENDBRANCH  29  30
ENDBRANCH  27  29
ENDBRANCH   4  27
TORSDOF 5
ENDMDL
MODEL      208
REMARK 921   NORMALIZED FREE ENERGY PREDICTED BY IDOCK:    3.38 KCAL/MOL
REMARK 922        TOTAL FREE ENERGY PREDICTED BY IDOCK:    3.65 KCAL/MOL
REMARK 923 INTER-LIGAND FREE ENERGY PREDICTED BY IDOCK:   -0.80 KCAL/MOL
REMARK 924 INTRA-LIGAND FREE ENERGY PREDICTED BY IDOCK:    4.46 KCAL/MOL
REMARK 927      BINDING AFFINITY PREDICTED BY RF-SCORE:    0.00 PKD
ROOT
HETATM    1  C   UNL     1      -6.736  14.935  69.450  1.00  0.00    -0.153 C  
HETATM    2  C   UNL     1      -7.446  15.634  70.441  1.00  0.00     0.900 C  
HETATM    3  C   UNL     1      -8.311  15.082  69.342  1.00  0.00    -0.141 C  
HETATM    4  C   UNL     1      -7.440  13.718  68.043  1.00  0.00    -0.139 C  
HETATM    5  C   UNL     1      -9.816  15.278  70.104  1.00  0.00     0.030 C  
HETATM    6  O   UNL     1      -6.093  13.203  68.340  1.00  0.00    -0.071 OA 
HETATM    7  C   UNL     1      -6.393  20.285  67.084  1.00  0.00    -0.239 C  
HETATM    8  C   UNL     1      -8.236  13.706  69.138  1.00  0.00     0.376 C  
HETATM    9  C   UNL     1      -5.886  20.433  65.672  1.00  0.00    -0.194 C  
HETATM   10  C   UNL     1      -6.428  18.958  67.314  1.00  0.00    -0.189 C  
HETATM   11  C   UNL     1      -8.400  12.608  70.197  1.00  0.00     3.800 C  
HETATM   12  H   UNL     1      -5.694  12.579  67.745  1.00  0.00     0.000 HD 
HETATM   13  C   UNL     1      -9.374  14.273  67.673  1.00  0.00    -0.201 C  
HETATM   14  C   UNL     1      -8.625  15.552  66.673  1.00  0.00    -0.290 C  
HETATM   15  C   UNL     1      -5.132  18.248  67.657  1.00  0.00    -0.140 C  
HETATM   16  C   UNL     1      -7.619  16.768  67.347  1.00  0.00    -0.163 C  
HETATM   17  C   UNL     1      -8.888  18.787  66.557  1.00  0.00    -0.315 C  
HETATM   18  O   UNL     1      -7.933  14.845  65.620  1.00  0.00     1.598 OA 
HETATM   19  F   UNL     1      -8.289  17.425  68.415  1.00  0.00    -0.226 F  
HETATM   20  C   UNL     1      -6.343  16.068  68.111  1.00  0.00    -0.129 C  
HETATM   21  C   UNL     1      -7.451  18.110  66.515  1.00  0.00    -0.269 C  
HETATM   22  C   UNL     1      -7.029  18.279  65.061  1.00  0.00     0.828 C  
HETATM   23  H   UNL     1      -7.535  15.524  65.089  1.00  0.00     0.000 HD 
HETATM   24  O   UNL     1      -5.166  21.368  65.354  1.00  0.00    -0.177 OA 
HETATM   25  C   UNL     1      -5.384  17.139  68.665  1.00  0.00    -0.133 C  
HETATM   26  C   UNL     1      -6.348  19.389  64.678  1.00  0.00    -0.166 C  
ENDROOT
BRANCH   4  27
HETATM   27  C   UNL     1      -7.909  12.142  67.500  1.00  0.00    -0.162 C  
HETATM   28  O   UNL     1      -7.166  11.146  67.448  1.00  0.00    -0.096 OA 
BRANCH  27  29
HETATM   29  C   UNL     1      -9.387  11.890  67.104  1.00  0.00    -0.180 C  
BRANCH  29  30
HETATM   30  O   UNL     1     -10.320  12.657  67.904  1.00  0.00    -0.208 OA 
BRANCH  30  31
HETATM   31  C   UNL     1     -11.525  12.066  68.105  1.00  0.00    -0.322 C  
HETATM   32  O   UNL     1     -12.182  11.508  67.244  1.00  0.00    -0.335 OA 
BRANCH  31  33
HETATM   33  C   UNL     1     -12.003  12.201  69.516  1.00  0.00    -0.338 A  
HETATM   34  C   UNL     1     -12.905  12.312  72.184  1.00  0.00    -0.152 A  
HETATM   35  O   UNL     1     -14.325  15.062  72.697  1.00  0.00    -0.352 OA 
HETATM   36  C   UNL     1     -12.695  11.081  71.578  1.00  0.00    -0.521 A  
HETATM   37  C   UNL     1     -12.244  11.022  70.252  1.00  0.00    -0.447 A  
HETATM   38  O   UNL     1     -12.005  14.958  73.584  1.00  0.00    -0.358 OA 
HETATM   39  O   UNL     1     -12.367  16.066  71.453  1.00  0.00    -0.440 OA 
HETATM   40  C   UNL     1     -12.212  13.446  70.130  1.00  0.00    -0.385 A  
HETATM   41  S   UNL     1     -12.941  15.034  72.275  1.00  0.00    -0.383 S  
HETATM   42  C   UNL     1     -12.671  13.473  71.462  1.00  0.00    -0.322 A  
ENDBRANCH  31  33
ENDBRANCH  30  31
ENDBRANCH  29  30
ENDBRANCH  27  29
ENDBRANCH   4  27
TORSDOF 5
ENDMDL
MODEL      209
REMARK 921   NORMALIZED FREE ENERGY PREDICTED BY IDOCK:    3.41 KCAL/MOL
REMARK 922        TOTAL FREE ENERGY PREDICTED BY IDOCK:    3.70 KCAL/MOL
REMARK 923 INTER-LIGAND FREE ENERGY PREDICTED BY IDOCK:    3.64 KCAL/MOL
REMARK 924 INTRA-LIGAND FREE ENERGY PREDICTED BY IDOCK:    0.06 KCAL/MOL
REMARK 927      BINDING AFFINITY PREDICTED BY RF-SCORE:    0.00 PKD
ROOT
HETATM    1  C   UNL     1     -13.472  12.082  70.661  1.00  0.00     1.168 C  
HETATM    2  C   UNL     1     -13.318  12.326  72.037  1.00  0.00    -0.491 C  
HETATM    3  C   UNL     1     -12.163  12.800  71.198  1.00  0.00    -0.097 C  
HETATM    4  C   UNL     1     -12.440  12.846  69.142  1.00  0.00     0.340 C  
HETATM    5  C   UNL     1     -11.404  13.770  72.367  1.00  0.00     3.041 C  
HETATM    6  O   UNL     1     -13.784  12.599  68.592  1.00  0.00     4.359 OA 
HETATM    7  C   UNL     1     -10.905   7.018  72.110  1.00  0.00    -0.255 C  
HETATM    8  C   UNL     1     -12.474  13.705  70.187  1.00  0.00    -0.305 C  
HETATM    9  C   UNL     1     -10.428   6.096  71.017  1.00  0.00    -0.229 C  
HETATM   10  C   UNL     1     -11.371   8.112  71.478  1.00  0.00    -0.308 C  
HETATM   11  C   UNL     1     -13.264  15.013  70.333  1.00  0.00    -0.147 C  
HETATM   12  H   UNL     1     -13.910  12.620  67.652  1.00  0.00     0.000 HD 
HETATM   13  C   UNL     1     -10.594  13.358  69.858  1.00  0.00     0.815 C  
HETATM   14  C   UNL     1     -10.237  11.617  69.671  1.00  0.00     0.616 C  
HETATM   15  C   UNL     1     -12.755   8.056  70.859  1.00  0.00     0.064 C  
HETATM   16  C   UNL     1     -11.072  10.410  70.562  1.00  0.00    -0.265 C  
HETATM   17  C   UNL     1      -9.092   9.309  71.649  1.00  0.00     0.146 C  
HETATM   18  O   UNL     1     -10.343  11.365  68.252  1.00  0.00    -0.180 OA 
HETATM   19  F   UNL     1     -11.005  10.693  71.954  1.00  0.00     0.887 F  
HETATM   20  C   UNL     1     -12.684  10.517  70.259  1.00  0.00    -0.255 C  
HETATM   21  C   UNL     1     -10.351   9.006  70.727  1.00  0.00    -0.305 C  
HETATM   22  C   UNL     1      -9.779   8.100  69.644  1.00  0.00    -0.170 C  
HETATM   23  H   UNL     1     -10.153  10.440  68.152  1.00  0.00     0.000 HD 
HETATM   24  O   UNL     1     -10.540   4.883  71.119  1.00  0.00    -0.151 OA 
HETATM   25  C   UNL     1     -13.452   9.400  70.991  1.00  0.00    -0.159 C  
HETATM   26  C   UNL     1      -9.776   6.753  69.819  1.00  0.00    -0.162 C  
ENDROOT
BRANCH   4  27
HETATM   27  C   UNL     1     -12.191  14.073  67.946  1.00  0.00    -0.153 C  
HETATM   28  O   UNL     1     -11.981  15.276  68.179  1.00  0.00    -0.271 OA 
BRANCH  27  29
HETATM   29  C   UNL     1     -12.146  13.667  66.449  1.00  0.00    -0.433 C  
BRANCH  29  30
HETATM   30  O   UNL     1     -10.839  13.201  66.034  1.00  0.00    -0.271 OA 
BRANCH  30  31
HETATM   31  C   UNL     1     -10.111  14.097  65.319  1.00  0.00    -0.335 C  
HETATM   32  O   UNL     1      -9.873  14.014  64.128  1.00  0.00     0.336 OA 
BRANCH  31  33
HETATM   33  C   UNL     1      -9.581  15.211  66.166  1.00  0.00    -0.344 A  
HETATM   34  C   UNL     1      -8.505  17.212  67.834  1.00  0.00    -0.212 A  
HETATM   35  O   UNL     1     -10.418  19.698  67.858  1.00  0.00    -0.426 OA 
HETATM   36  C   UNL     1      -8.137  15.886  68.022  1.00  0.00    -0.144 A  
HETATM   37  C   UNL     1      -8.668  14.890  67.192  1.00  0.00    -0.240 A  
HETATM   38  O   UNL     1      -8.432  19.984  66.391  1.00  0.00    -0.324 OA 
HETATM   39  O   UNL     1     -10.540  19.364  65.355  1.00  0.00    -0.475 OA 
HETATM   40  C   UNL     1      -9.950  16.553  65.974  1.00  0.00    -0.359 A  
HETATM   41  S   UNL     1      -9.845  19.242  66.609  1.00  0.00    -0.398 S  
HETATM   42  C   UNL     1      -9.404  17.532  66.827  1.00  0.00    -0.265 A  
ENDBRANCH  31  33
ENDBRANCH  30  31
ENDBRANCH  29  30
ENDBRANCH  27  29
ENDBRANCH   4  27
TORSDOF 5
ENDMDL
MODEL      210
REMARK 921   NORMALIZED FREE ENERGY PREDICTED BY IDOCK:    3.81 KCAL/MOL
REMARK 922        TOTAL FREE ENERGY PREDICTED BY IDOCK:    4.22 KCAL/MOL
REMARK 923 INTER-LIGAND FREE ENERGY PREDICTED BY IDOCK:    2.99 KCAL/MOL
REMARK 924 INTRA-LIGAND FREE ENERGY PREDICTED BY IDOCK:    1.23 KCAL/MOL
REMARK 927      BINDING AFFINITY PREDICTED BY RF-SCORE:    0.00 PKD
ROOT
HETATM    1  C   UNL     1      -8.696  13.525  68.652  1.00  0.00    -0.001 C  
HETATM    2  C   UNL     1      -9.666  13.597  69.666  1.00  0.00     1.132 C  
HETATM    3  C   UNL     1     -10.073  12.753  68.490  1.00  0.00    -0.189 C  
HETATM    4  C   UNL     1      -8.595  12.259  67.120  1.00  0.00    -0.187 C  
HETATM    5  C   UNL     1     -11.408  11.983  69.202  1.00  0.00    -0.338 C  
HETATM    6  O   UNL     1      -7.192  12.582  67.430  1.00  0.00    -0.138 OA 
HETATM    7  C   UNL     1     -11.513  18.299  66.752  1.00  0.00     1.270 C  
HETATM    8  C   UNL     1      -9.225  11.694  68.177  1.00  0.00    -0.184 C  
HETATM    9  C   UNL     1     -11.202  18.839  65.380  1.00  0.00     1.025 C  
HETATM   10  C   UNL     1     -10.778  17.176  66.870  1.00  0.00    -0.121 C  
HETATM   11  C   UNL     1      -8.716  10.608  69.134  1.00  0.00    -0.135 C  
HETATM   12  H   UNL     1      -6.515  12.356  66.803  1.00  0.00     0.000 HD 
HETATM   13  C   UNL     1     -10.502  11.639  66.717  1.00  0.00    -0.265 C  
HETATM   14  C   UNL     1     -10.634  13.202  65.858  1.00  0.00    -0.280 C  
HETATM   15  C   UNL     1      -9.305  17.307  67.207  1.00  0.00    -0.237 C  
HETATM   16  C   UNL     1     -10.498  14.707  66.672  1.00  0.00    -0.278 C  
HETATM   17  C   UNL     1     -12.706  15.699  65.999  1.00  0.00     2.004 C  
HETATM   18  O   UNL     1      -9.676  13.118  64.780  1.00  0.00    -0.554 OA 
HETATM   19  F   UNL     1     -11.410  14.761  67.761  1.00  0.00    -0.278 F  
HETATM   20  C   UNL     1      -9.041  14.796  67.428  1.00  0.00    -0.202 C  
HETATM   21  C   UNL     1     -11.141  15.973  65.962  1.00  0.00     0.016 C  
HETATM   22  C   UNL     1     -10.911  16.485  64.545  1.00  0.00     0.060 C  
HETATM   23  H   UNL     1      -9.746  13.948  64.325  1.00  0.00     0.000 HD 
HETATM   24  O   UNL     1     -11.152  20.042  65.170  1.00  0.00    -0.289 OA 
HETATM   25  C   UNL     1      -8.862  16.166  68.108  1.00  0.00    -0.184 C  
HETATM   26  C   UNL     1     -10.994  17.816  64.284  1.00  0.00     3.423 C  
ENDROOT
BRANCH   4  27
HETATM   27  C   UNL     1      -8.082  10.756  66.430  1.00  0.00    -0.153 C  
HETATM   28  O   UNL     1      -6.925  10.488  66.062  1.00  0.00    -0.122 OA 
BRANCH  27  29
HETATM   29  C   UNL     1      -9.104   9.595  66.309  1.00  0.00    -0.160 C  
BRANCH  29  30
HETATM   30  O   UNL     1      -8.717   8.608  65.322  1.00  0.00    -0.183 OA 
BRANCH  30  31
HETATM   31  C   UNL     1      -7.901   7.626  65.783  1.00  0.00    -0.106 C  
HETATM   32  O   UNL     1      -7.139   6.971  65.096  1.00  0.00    -0.057 OA 
BRANCH  31  33
HETATM   33  C   UNL     1      -8.058   7.391  67.252  1.00  0.00    -0.112 A  
HETATM   34  C   UNL     1      -8.221   6.997  70.038  1.00  0.00    -0.133 A  
HETATM   35  O   UNL     1     -10.446   4.876  70.669  1.00  0.00    -0.202 OA 
HETATM   36  C   UNL     1      -7.047   7.483  69.478  1.00  0.00    -0.069 A  
HETATM   37  C   UNL     1      -6.965   7.683  68.093  1.00  0.00    -0.075 A  
HETATM   38  O   UNL     1     -11.169   7.224  71.053  1.00  0.00    -0.253 OA 
HETATM   39  O   UNL     1     -11.837   6.145  68.982  1.00  0.00     0.178 OA 
HETATM   40  C   UNL     1      -9.247   6.903  67.819  1.00  0.00    -0.119 A  
HETATM   41  S   UNL     1     -10.790   6.095  69.968  1.00  0.00    -0.373 S  
HETATM   42  C   UNL     1      -9.298   6.707  69.214  1.00  0.00    -0.142 A  
ENDBRANCH  31  33
ENDBRANCH  30  31
ENDBRANCH  29  30
ENDBRANCH  27  29
ENDBRANCH   4  27
TORSDOF 5
ENDMDL
MODEL      211
REMARK 921   NORMALIZED FREE ENERGY PREDICTED BY IDOCK:    4.27 KCAL/MOL
REMARK 922        TOTAL FREE ENERGY PREDICTED BY IDOCK:    4.80 KCAL/MOL
REMARK 923 INTER-LIGAND FREE ENERGY PREDICTED BY IDOCK:    2.51 KCAL/MOL
REMARK 924 INTRA-LIGAND FREE ENERGY PREDICTED BY IDOCK:    2.29 KCAL/MOL
REMARK 927      BINDING AFFINITY PREDICTED BY RF-SCORE:    0.00 PKD
ROOT
HETATM    1  C   UNL     1      -8.543  12.962  68.309  1.00  0.00    -0.170 C  
HETATM    2  C   UNL     1      -9.526  13.006  69.312  1.00  0.00     0.823 C  
HETATM    3  C   UNL     1      -9.486  11.710  68.550  1.00  0.00    -0.175 C  
HETATM    4  C   UNL     1      -7.847  11.382  67.321  1.00  0.00    -0.149 C  
HETATM    5  C   UNL     1     -10.449  10.787  69.602  1.00  0.00    -0.183 C  
HETATM    6  O   UNL     1      -6.711  12.318  67.373  1.00  0.00    -0.124 OA 
HETATM    7  C   UNL     1     -12.893  15.218  65.096  1.00  0.00     0.743 C  
HETATM    8  C   UNL     1      -8.269  11.034  68.559  1.00  0.00    -0.146 C  
HETATM    9  C   UNL     1     -12.733  15.307  63.600  1.00  0.00     1.161 C  
HETATM   10  C   UNL     1     -11.782  14.598  65.539  1.00  0.00    -0.316 C  
HETATM   11  C   UNL     1      -7.434  10.657  69.791  1.00  0.00    -0.088 C  
HETATM   12  H   UNL     1      -5.961  12.168  66.811  1.00  0.00     0.000 HD 
HETATM   13  C   UNL     1      -9.320   9.963  67.330  1.00  0.00    -0.167 C  
HETATM   14  C   UNL     1     -10.006  10.927  65.989  1.00  0.00    -0.240 C  
HETATM   15  C   UNL     1     -10.507  15.409  65.679  1.00  0.00    -0.391 C  
HETATM   16  C   UNL     1     -10.532  12.547  66.203  1.00  0.00    -0.249 C  
HETATM   17  C   UNL     1     -12.903  12.278  65.417  1.00  0.00     0.744 C  
HETATM   18  O   UNL     1      -9.024  10.846  64.932  1.00  0.00    -0.204 OA 
HETATM   19  F   UNL     1     -11.460  12.624  67.278  1.00  0.00    -0.298 F  
HETATM   20  C   UNL     1      -9.283  13.465  66.750  1.00  0.00    -0.242 C  
HETATM   21  C   UNL     1     -11.577  13.112  65.150  1.00  0.00    -0.347 C  
HETATM   22  C   UNL     1     -11.477  13.128  63.629  1.00  0.00    -0.376 C  
HETATM   23  H   UNL     1      -9.389  11.358  64.220  1.00  0.00     0.000 HD 
HETATM   24  O   UNL     1     -13.151  16.270  62.975  1.00  0.00     2.807 OA 
HETATM   25  C   UNL     1      -9.708  14.940  66.883  1.00  0.00    -0.248 C  
HETATM   26  C   UNL     1     -12.065  14.129  62.923  1.00  0.00     1.450 C  
ENDROOT
BRANCH   4  27
HETATM   27  C   UNL     1      -6.735  10.063  67.165  1.00  0.00    -0.074 C  
HETATM   28  O   UNL     1      -6.291   9.378  68.103  1.00  0.00    -0.053 OA 
BRANCH  27  29
HETATM   29  C   UNL     1      -6.286   9.621  65.747  1.00  0.00    -0.066 C  
BRANCH  29  30
HETATM   30  O   UNL     1      -5.804   8.256  65.712  1.00  0.00    -0.040 OA 
BRANCH  30  31
HETATM   31  C   UNL     1      -6.728   7.331  65.342  1.00  0.00    -0.048 C  
HETATM   32  O   UNL     1      -7.121   7.153  64.204  1.00  0.00    -0.056 OA 
BRANCH  31  33
HETATM   33  C   UNL     1      -7.260   6.556  66.505  1.00  0.00    -0.073 A  
HETATM   34  C   UNL     1      -8.266   5.216  68.773  1.00  0.00    -0.085 A  
HETATM   35  O   UNL     1      -7.560   2.165  68.587  1.00  0.00    -0.046 OA 
HETATM   36  C   UNL     1      -8.014   6.581  68.833  1.00  0.00    -0.111 A  
HETATM   37  C   UNL     1      -7.517   7.250  67.706  1.00  0.00    -0.102 A  
HETATM   38  O   UNL     1      -9.911   2.683  67.966  1.00  0.00     0.010 OA 
HETATM   39  O   UNL     1      -8.301   2.356  66.177  1.00  0.00    -0.086 OA 
HETATM   40  C   UNL     1      -7.519   5.176  66.444  1.00  0.00    -0.087 A  
HETATM   41  S   UNL     1      -8.358   2.784  67.550  1.00  0.00    -0.089 S  
HETATM   42  C   UNL     1      -8.014   4.530  67.594  1.00  0.00    -0.096 A  
ENDBRANCH  31  33
ENDBRANCH  30  31
ENDBRANCH  29  30
ENDBRANCH  27  29
ENDBRANCH   4  27
TORSDOF 5
ENDMDL
MODEL      212
REMARK 921   NORMALIZED FREE ENERGY PREDICTED BY IDOCK:    4.68 KCAL/MOL
REMARK 922        TOTAL FREE ENERGY PREDICTED BY IDOCK:    5.34 KCAL/MOL
REMARK 923 INTER-LIGAND FREE ENERGY PREDICTED BY IDOCK:    6.02 KCAL/MOL
REMARK 924 INTRA-LIGAND FREE ENERGY PREDICTED BY IDOCK:   -0.68 KCAL/MOL
REMARK 927      BINDING AFFINITY PREDICTED BY RF-SCORE:    0.00 PKD
ROOT
HETATM    1  C   UNL     1     -12.862  12.258  70.230  1.00  0.00     0.265 C  
HETATM    2  C   UNL     1     -12.666  12.928  71.450  1.00  0.00    -0.366 C  
HETATM    3  C   UNL     1     -11.428  12.823  70.603  1.00  0.00     0.718 C  
HETATM    4  C   UNL     1     -11.672  12.206  68.636  1.00  0.00    -0.330 C  
HETATM    5  C   UNL     1     -10.474  13.955  71.435  1.00  0.00     4.141 C  
HETATM    6  O   UNL     1     -13.033  12.074  68.089  1.00  0.00     1.566 OA 
HETATM    7  C   UNL     1     -11.535   7.596  73.522  1.00  0.00     0.720 C  
HETATM    8  C   UNL     1     -11.516  13.362  69.322  1.00  0.00    -0.345 C  
HETATM    9  C   UNL     1     -11.274   6.272  72.851  1.00  0.00    -0.200 C  
HETATM   10  C   UNL     1     -11.734   8.473  72.519  1.00  0.00    -0.390 C  
HETATM   11  C   UNL     1     -11.986  14.775  68.949  1.00  0.00    -0.298 C  
HETATM   12  H   UNL     1     -13.145  11.792  67.190  1.00  0.00     0.000 HD 
HETATM   13  C   UNL     1      -9.763  12.531  69.294  1.00  0.00     0.697 C  
HETATM   14  C   UNL     1      -9.814  10.800  69.738  1.00  0.00     0.219 C  
HETATM   15  C   UNL     1     -13.089   8.500  71.839  1.00  0.00    -0.391 C  
HETATM   16  C   UNL     1     -10.909  10.188  70.909  1.00  0.00    -0.084 C  
HETATM   17  C   UNL     1      -9.242   9.141  72.470  1.00  0.00     0.875 C  
HETATM   18  O   UNL     1      -9.964  10.098  68.484  1.00  0.00    -0.154 OA 
HETATM   19  F   UNL     1     -10.788  10.918  72.123  1.00  0.00     2.559 F  
HETATM   20  C   UNL     1     -12.451  10.522  70.450  1.00  0.00    -0.392 C  
HETATM   21  C   UNL     1     -10.531   8.810  71.601  1.00  0.00    -0.387 C  
HETATM   22  C   UNL     1     -10.174   7.483  70.942  1.00  0.00    -0.193 C  
HETATM   23  H   UNL     1      -9.992   9.179  68.720  1.00  0.00     0.000 HD 
HETATM   24  O   UNL     1     -11.662   5.224  73.346  1.00  0.00    -0.128 OA 
HETATM   25  C   UNL     1     -13.460   9.921  71.447  1.00  0.00    -0.379 C  
HETATM   26  C   UNL     1     -10.481   6.315  71.562  1.00  0.00    -0.266 C  
ENDROOT
BRANCH   4  27
HETATM   27  C   UNL     1     -11.140  12.855  67.122  1.00  0.00    -0.275 C  
HETATM   28  O   UNL     1     -10.081  13.480  66.936  1.00  0.00    -0.247 OA 
BRANCH  27  29
HETATM   29  C   UNL     1     -11.992  12.597  65.851  1.00  0.00    -0.438 C  
BRANCH  29  30
HETATM   30  O   UNL     1     -11.795  11.270  65.305  1.00  0.00     0.112 OA 
BRANCH  30  31
HETATM   31  C   UNL     1     -10.778  11.163  64.411  1.00  0.00    -0.318 C  
HETATM   32  O   UNL     1     -10.593  11.913  63.469  1.00  0.00    -0.385 OA 
BRANCH  31  33
HETATM   33  C   UNL     1      -9.901   9.981  64.678  1.00  0.00    -0.288 A  
HETATM   34  C   UNL     1      -8.148   7.814  65.101  1.00  0.00    -0.137 A  
HETATM   35  O   UNL     1      -9.804   5.255  65.843  1.00  0.00    -0.152 OA 
HETATM   36  C   UNL     1      -7.744   8.886  64.316  1.00  0.00    -0.122 A  
HETATM   37  C   UNL     1      -8.612   9.966  64.107  1.00  0.00    -0.201 A  
HETATM   38  O   UNL     1      -8.754   6.366  67.803  1.00  0.00    -0.116 OA 
HETATM   39  O   UNL     1     -11.105   6.796  67.368  1.00  0.00    -0.328 OA 
HETATM   40  C   UNL     1     -10.309   8.898  65.474  1.00  0.00     1.220 A  
HETATM   41  S   UNL     1      -9.898   6.439  66.671  1.00  0.00    -0.125 S  
HETATM   42  C   UNL     1      -9.416   7.824  65.663  1.00  0.00     0.364 A  
ENDBRANCH  31  33
ENDBRANCH  30  31
ENDBRANCH  29  30
ENDBRANCH  27  29
ENDBRANCH   4  27
TORSDOF 5
ENDMDL
MODEL      213
REMARK 921   NORMALIZED FREE ENERGY PREDICTED BY IDOCK:    6.23 KCAL/MOL
REMARK 922        TOTAL FREE ENERGY PREDICTED BY IDOCK:    7.34 KCAL/MOL
REMARK 923 INTER-LIGAND FREE ENERGY PREDICTED BY IDOCK:    5.21 KCAL/MOL
REMARK 924 INTRA-LIGAND FREE ENERGY PREDICTED BY IDOCK:    2.13 KCAL/MOL
REMARK 927      BINDING AFFINITY PREDICTED BY RF-SCORE:    0.00 PKD
ROOT
HETATM    1  C   UNL     1      -8.209  12.503  67.196  1.00  0.00    -0.168 C  
HETATM    2  C   UNL     1      -7.013  12.320  66.481  1.00  0.00     0.567 C  
HETATM    3  C   UNL     1      -6.873  12.136  67.967  1.00  0.00    -0.081 C  
HETATM    4  C   UNL     1      -8.622  12.000  69.076  1.00  0.00     0.339 C  
HETATM    5  C   UNL     1      -5.344  11.396  67.972  1.00  0.00    -0.043 C  
HETATM    6  O   UNL     1      -9.912  11.902  68.372  1.00  0.00    -0.197 OA 
HETATM    7  C   UNL     1      -6.351  18.060  67.270  1.00  0.00    -0.181 C  
HETATM    8  C   UNL     1      -7.695  11.170  68.543  1.00  0.00    -0.129 C  
HETATM    9  C   UNL     1      -7.054  19.059  68.154  1.00  0.00    -0.247 C  
HETATM   10  C   UNL     1      -6.945  16.878  67.523  1.00  0.00    -0.165 C  
HETATM   11  C   UNL     1      -7.851   9.710  68.097  1.00  0.00    -0.086 C  
HETATM   12  H   UNL     1     -10.712  11.840  68.879  1.00  0.00     0.000 HD 
HETATM   13  C   UNL     1      -6.851  11.967  70.098  1.00  0.00     0.579 C  
HETATM   14  C   UNL     1      -7.064  13.741  70.166  1.00  0.00     0.595 C  
HETATM   15  C   UNL     1      -8.282  16.584  66.869  1.00  0.00    -0.250 C  
HETATM   16  C   UNL     1      -7.088  14.713  68.751  1.00  0.00    -0.113 C  
HETATM   17  C   UNL     1      -5.216  16.281  69.343  1.00  0.00    -0.117 C  
HETATM   18  O   UNL     1      -8.266  13.942  70.942  1.00  0.00     2.692 OA 
HETATM   19  F   UNL     1      -5.926  14.471  67.969  1.00  0.00    -0.106 F  
HETATM   20  C   UNL     1      -8.295  14.209  67.755  1.00  0.00    -0.175 C  
HETATM   21  C   UNL     1      -6.751  16.254  68.930  1.00  0.00    -0.156 C  
HETATM   22  C   UNL     1      -7.384  17.261  69.881  1.00  0.00     0.912 C  
HETATM   23  H   UNL     1      -8.379  14.884  70.978  1.00  0.00     0.000 HD 
HETATM   24  O   UNL     1      -7.244  20.207  67.782  1.00  0.00    -0.275 OA 
HETATM   25  C   UNL     1      -8.386  15.111  66.509  1.00  0.00    -0.060 C  
HETATM   26  C   UNL     1      -7.470  18.569  69.524  1.00  0.00     0.203 C  
ENDROOT
BRANCH   4  27
HETATM   27  C   UNL     1      -9.190  10.859  70.248  1.00  0.00     1.731 C  
HETATM   28  O   UNL     1     -10.122  11.050  71.048  1.00  0.00     2.329 OA 
BRANCH  27  29
HETATM   29  C   UNL     1      -8.557   9.443  70.289  1.00  0.00    -0.221 C  
BRANCH  29  30
HETATM   30  O   UNL     1      -8.651   8.825  71.595  1.00  0.00    -0.193 OA 
BRANCH  30  31
HETATM   31  C   UNL     1      -9.843   8.233  71.864  1.00  0.00    -0.232 C  
HETATM   32  O   UNL     1     -10.757   8.752  72.479  1.00  0.00    -0.250 OA 
BRANCH  31  33
HETATM   33  C   UNL     1      -9.916   6.829  71.354  1.00  0.00    -0.191 A  
HETATM   34  C   UNL     1     -10.129   4.231  70.281  1.00  0.00    -0.096 A  
HETATM   35  O   UNL     1      -9.721   2.117  72.563  1.00  0.00    -0.092 OA 
HETATM   36  C   UNL     1     -10.728   5.300  69.626  1.00  0.00    -0.155 A  
HETATM   37  C   UNL     1     -10.621   6.593  70.156  1.00  0.00    -0.264 A  
HETATM   38  O   UNL     1      -7.713   2.441  71.134  1.00  0.00    -0.039 OA 
HETATM   39  O   UNL     1      -7.786   3.577  73.281  1.00  0.00    -0.063 OA 
HETATM   40  C   UNL     1      -9.306   5.749  72.014  1.00  0.00    -0.163 A  
HETATM   41  S   UNL     1      -8.671   3.069  72.267  1.00  0.00    -0.075 S  
HETATM   42  C   UNL     1      -9.435   4.460  71.460  1.00  0.00    -0.152 A  
ENDBRANCH  31  33
ENDBRANCH  30  31
ENDBRANCH  29  30
ENDBRANCH  27  29
ENDBRANCH   4  27
TORSDOF 5
ENDMDL
MODEL      214
REMARK 921   NORMALIZED FREE ENERGY PREDICTED BY IDOCK:    6.30 KCAL/MOL
REMARK 922        TOTAL FREE ENERGY PREDICTED BY IDOCK:    7.43 KCAL/MOL
REMARK 923 INTER-LIGAND FREE ENERGY PREDICTED BY IDOCK:    7.54 KCAL/MOL
REMARK 924 INTRA-LIGAND FREE ENERGY PREDICTED BY IDOCK:   -0.11 KCAL/MOL
REMARK 927      BINDING AFFINITY PREDICTED BY RF-SCORE:    0.00 PKD
ROOT
HETATM    1  C   UNL     1     -12.917  12.329  70.222  1.00  0.00     0.461 C  
HETATM    2  C   UNL     1     -12.403  12.530  71.514  1.00  0.00     0.067 C  
HETATM    3  C   UNL     1     -11.627  13.227  70.432  1.00  0.00    -0.018 C  
HETATM    4  C   UNL     1     -12.498  13.325  68.551  1.00  0.00     0.387 C  
HETATM    5  C   UNL     1     -10.706  14.253  71.424  1.00  0.00     2.056 C  
HETATM    6  O   UNL     1     -13.894  12.886  68.383  1.00  0.00     5.222 OA 
HETATM    7  C   UNL     1      -9.333   7.697  70.406  1.00  0.00    -0.160 C  
HETATM    8  C   UNL     1     -12.348  14.116  69.639  1.00  0.00    -0.304 C  
HETATM    9  C   UNL     1      -9.070   6.920  69.141  1.00  0.00    -0.136 C  
HETATM   10  C   UNL     1     -10.118   8.727  70.036  1.00  0.00    -0.200 C  
HETATM   11  C   UNL     1     -13.241  15.266  70.124  1.00  0.00     0.078 C  
HETATM   12  H   UNL     1     -14.292  12.930  67.522  1.00  0.00     0.000 HD 
HETATM   13  C   UNL     1     -10.618  14.102  68.762  1.00  0.00    -0.258 C  
HETATM   14  C   UNL     1     -10.084  12.454  68.319  1.00  0.00    -0.227 C  
HETATM   15  C   UNL     1     -11.599   8.473  69.831  1.00  0.00     0.277 C  
HETATM   16  C   UNL     1     -10.436  11.085  69.293  1.00  0.00    -0.180 C  
HETATM   17  C   UNL     1      -8.088  10.276  69.668  1.00  0.00    -0.157 C  
HETATM   18  O   UNL     1     -10.564  12.257  66.970  1.00  0.00    -0.218 OA 
HETATM   19  F   UNL     1     -10.005  11.308  70.629  1.00  0.00     1.327 F  
HETATM   20  C   UNL     1     -12.064  10.937  69.468  1.00  0.00    -0.380 C  
HETATM   21  C   UNL     1      -9.504   9.813  69.115  1.00  0.00    -0.191 C  
HETATM   22  C   UNL     1      -9.150   9.067  67.834  1.00  0.00    -0.141 C  
HETATM   23  H   UNL     1     -10.280  11.381  66.735  1.00  0.00     0.000 HD 
HETATM   24  O   UNL     1      -8.971   5.702  69.156  1.00  0.00    -0.112 OA 
HETATM   25  C   UNL     1     -12.413   9.675  70.279  1.00  0.00     0.158 C  
HETATM   26  C   UNL     1      -8.901   7.732  67.875  1.00  0.00    -0.123 C  
ENDROOT
BRANCH   4  27
HETATM   27  C   UNL     1     -12.791  14.632  67.454  1.00  0.00     1.453 C  
HETATM   28  O   UNL     1     -13.078  15.797  67.779  1.00  0.00     2.471 OA 
BRANCH  27  29
HETATM   29  C   UNL     1     -12.622  14.389  65.931  1.00  0.00    -0.254 C  
BRANCH  29  30
HETATM   30  O   UNL     1     -11.250  14.537  65.489  1.00  0.00    -0.317 OA 
BRANCH  30  31
HETATM   31  C   UNL     1     -10.908  15.789  65.090  1.00  0.00    -0.428 C  
HETATM   32  O   UNL     1     -11.510  16.447  64.261  1.00  0.00    -0.876 OA 
BRANCH  31  33
HETATM   33  C   UNL     1      -9.664  16.284  65.757  1.00  0.00    -0.299 A  
HETATM   34  C   UNL     1      -7.357  17.350  66.977  1.00  0.00    -0.220 A  
HETATM   35  O   UNL     1      -5.159  15.121  67.191  1.00  0.00    -0.243 OA 
HETATM   36  C   UNL     1      -8.254  18.197  66.340  1.00  0.00    -0.282 A  
HETATM   37  C   UNL     1      -9.404  17.670  65.735  1.00  0.00     0.229 A  
HETATM   38  O   UNL     1      -6.366  15.539  69.324  1.00  0.00    -0.117 OA 
HETATM   39  O   UNL     1      -7.045  13.633  67.980  1.00  0.00    -0.099 OA 
HETATM   40  C   UNL     1      -8.758  15.428  66.405  1.00  0.00    -0.307 A  
HETATM   41  S   UNL     1      -6.443  14.931  67.834  1.00  0.00    -0.170 S  
HETATM   42  C   UNL     1      -7.609  15.986  66.999  1.00  0.00    -0.230 A  
ENDBRANCH  31  33
ENDBRANCH  30  31
ENDBRANCH  29  30
ENDBRANCH  27  29
ENDBRANCH   4  27
TORSDOF 5
ENDMDL
MODEL      215
REMARK 921   NORMALIZED FREE ENERGY PREDICTED BY IDOCK:    6.59 KCAL/MOL
REMARK 922        TOTAL FREE ENERGY PREDICTED BY IDOCK:    7.81 KCAL/MOL
REMARK 923 INTER-LIGAND FREE ENERGY PREDICTED BY IDOCK:    0.04 KCAL/MOL
REMARK 924 INTRA-LIGAND FREE ENERGY PREDICTED BY IDOCK:    7.77 KCAL/MOL
REMARK 927      BINDING AFFINITY PREDICTED BY RF-SCORE:    0.00 PKD
ROOT
HETATM    1  C   UNL     1      -8.866   4.180  67.288  1.00  0.00    -0.126 C  
HETATM    2  C   UNL     1     -10.181   3.721  67.095  1.00  0.00     0.633 C  
HETATM    3  C   UNL     1      -9.738   4.751  66.093  1.00  0.00    -0.205 C  
HETATM    4  C   UNL     1      -7.717   5.216  66.039  1.00  0.00    -0.091 C  
HETATM    5  C   UNL     1     -10.991   4.539  64.966  1.00  0.00    -0.007 C  
HETATM    6  O   UNL     1      -6.773   4.409  66.830  1.00  0.00    -0.049 OA 
HETATM    7  C   UNL     1     -11.605   8.058  70.723  1.00  0.00    -0.251 C  
HETATM    8  C   UNL     1      -8.596   4.441  65.361  1.00  0.00    -0.122 C  
HETATM    9  C   UNL     1     -10.837   9.243  71.252  1.00  0.00    -0.347 C  
HETATM   10  C   UNL     1     -10.744   7.404  69.920  1.00  0.00    -0.254 C  
HETATM   11  C   UNL     1      -8.332   3.154  64.568  1.00  0.00    -0.090 C  
HETATM   12  H   UNL     1      -5.848   4.622  66.805  1.00  0.00     0.000 HD 
HETATM   13  C   UNL     1      -8.960   6.260  64.795  1.00  0.00     0.441 C  
HETATM   14  C   UNL     1      -9.082   7.399  66.168  1.00  0.00    -0.126 C  
HETATM   15  C   UNL     1      -9.702   6.502  70.555  1.00  0.00    -0.186 C  
HETATM   16  C   UNL     1      -9.756   6.940  67.679  1.00  0.00    -0.127 C  
HETATM   17  C   UNL     1     -11.554   8.688  67.834  1.00  0.00     1.752 C  
HETATM   18  O   UNL     1      -7.744   7.916  66.343  1.00  0.00    -0.092 OA 
HETATM   19  F   UNL     1     -11.051   6.387  67.491  1.00  0.00    -0.332 F  
HETATM   20  C   UNL     1      -8.915   5.669  68.295  1.00  0.00    -0.114 C  
HETATM   21  C   UNL     1     -10.296   8.105  68.612  1.00  0.00    -0.224 C  
HETATM   22  C   UNL     1      -9.569   9.358  69.084  1.00  0.00    -0.163 C  
HETATM   23  H   UNL     1      -7.809   8.520  67.073  1.00  0.00     0.000 HD 
HETATM   24  O   UNL     1     -11.017   9.657  72.387  1.00  0.00     0.735 OA 
HETATM   25  C   UNL     1      -9.454   5.281  69.685  1.00  0.00    -0.196 C  
HETATM   26  C   UNL     1      -9.870   9.902  70.291  1.00  0.00    -0.236 C  
ENDROOT
BRANCH   4  27
HETATM   27  C   UNL     1      -6.558   5.288  64.754  1.00  0.00    -0.043 C  
HETATM   28  O   UNL     1      -6.400   4.423  63.875  1.00  0.00    -0.028 OA 
BRANCH  27  29
HETATM   29  C   UNL     1      -5.670   6.552  64.610  1.00  0.00    -0.030 C  
BRANCH  29  30
HETATM   30  O   UNL     1      -5.668   7.374  65.803  1.00  0.00    -0.035 OA 
BRANCH  30  31
HETATM   31  C   UNL     1      -5.609   6.686  66.973  1.00  0.00    -0.013 C  
HETATM   32  O   UNL     1      -5.378   5.495  67.072  1.00  0.00    -0.007 OA 
BRANCH  31  33
HETATM   33  C   UNL     1      -5.900   7.548  68.160  1.00  0.00    -0.031 A  
HETATM   34  C   UNL     1      -6.448   9.054  70.479  1.00  0.00    -0.051 A  
HETATM   35  O   UNL     1      -7.798  11.769  69.672  1.00  0.00     0.450 OA 
HETATM   36  C   UNL     1      -6.314   7.675  70.568  1.00  0.00    -0.038 A  
HETATM   37  C   UNL     1      -6.039   6.924  69.417  1.00  0.00    -0.033 A  
HETATM   38  O   UNL     1      -5.382  11.981  70.218  1.00  0.00    -0.088 OA 
HETATM   39  O   UNL     1      -6.021  11.876  67.877  1.00  0.00    -0.045 OA 
HETATM   40  C   UNL     1      -6.031   8.944  68.071  1.00  0.00    -0.046 A  
HETATM   41  S   UNL     1      -6.480  11.442  69.169  1.00  0.00    -0.095 S  
HETATM   42  C   UNL     1      -6.313   9.672  69.244  1.00  0.00    -0.044 A  
ENDBRANCH  31  33
ENDBRANCH  30  31
ENDBRANCH  29  30
ENDBRANCH  27  29
ENDBRANCH   4  27
TORSDOF 5
ENDMDL
MODEL      216
REMARK 921   NORMALIZED FREE ENERGY PREDICTED BY IDOCK:    6.65 KCAL/MOL
REMARK 922        TOTAL FREE ENERGY PREDICTED BY IDOCK:    7.88 KCAL/MOL
REMARK 923 INTER-LIGAND FREE ENERGY PREDICTED BY IDOCK:    7.25 KCAL/MOL
REMARK 924 INTRA-LIGAND FREE ENERGY PREDICTED BY IDOCK:    0.63 KCAL/MOL
REMARK 927      BINDING AFFINITY PREDICTED BY RF-SCORE:    0.00 PKD
ROOT
HETATM    1  C   UNL     1     -10.486  13.282  68.099  1.00  0.00    -0.251 C  
HETATM    2  C   UNL     1     -11.061  14.251  67.259  1.00  0.00    -0.315 C  
HETATM    3  C   UNL     1      -9.721  14.643  67.818  1.00  0.00    -0.215 C  
HETATM    4  C   UNL     1      -8.610  13.158  68.749  1.00  0.00     0.149 C  
HETATM    5  C   UNL     1      -9.412  15.961  66.793  1.00  0.00    -0.254 C  
HETATM    6  O   UNL     1      -9.070  11.761  68.671  1.00  0.00    -0.301 OA 
HETATM    7  C   UNL     1     -13.526  16.201  72.171  1.00  0.00     0.149 C  
HETATM    8  C   UNL     1      -8.668  13.774  67.545  1.00  0.00    -0.194 C  
HETATM    9  C   UNL     1     -13.278  15.903  73.628  1.00  0.00    -0.408 C  
HETATM   10  C   UNL     1     -12.641  15.443  71.495  1.00  0.00    -0.462 C  
HETATM   11  C   UNL     1      -8.247  13.241  66.169  1.00  0.00     1.253 C  
HETATM   12  H   UNL     1      -8.562  11.082  69.097  1.00  0.00     0.000 HD 
HETATM   13  C   UNL     1      -7.840  15.053  68.748  1.00  0.00    -0.151 C  
HETATM   14  C   UNL     1      -8.725  15.219  70.292  1.00  0.00     0.840 C  
HETATM   15  C   UNL     1     -12.952  13.972  71.294  1.00  0.00    -0.418 C  
HETATM   16  C   UNL     1     -10.436  15.112  70.382  1.00  0.00    -0.075 C  
HETATM   17  C   UNL     1     -10.895  17.341  71.446  1.00  0.00     1.746 C  
HETATM   18  O   UNL     1      -8.107  14.262  71.181  1.00  0.00     2.215 OA 
HETATM   19  F   UNL     1     -11.033  16.023  69.469  1.00  0.00    -0.238 F  
HETATM   20  C   UNL     1     -10.928  13.656  69.801  1.00  0.00     0.112 C  
HETATM   21  C   UNL     1     -11.135  15.782  71.640  1.00  0.00    -0.137 C  
HETATM   22  C   UNL     1     -10.839  15.566  73.119  1.00  0.00     1.802 C  
HETATM   23  H   UNL     1      -8.577  14.350  72.001  1.00  0.00     0.000 HD 
HETATM   24  O   UNL     1     -14.197  15.879  74.433  1.00  0.00     2.247 OA 
HETATM   25  C   UNL     1     -12.456  13.503  69.936  1.00  0.00    -0.194 C  
HETATM   26  C   UNL     1     -11.837  15.677  74.033  1.00  0.00    -0.243 C  
ENDROOT
BRANCH   4  27
HETATM   27  C   UNL     1      -6.976  12.616  68.563  1.00  0.00    -0.094 C  
HETATM   28  O   UNL     1      -6.542  11.944  67.611  1.00  0.00    -0.078 OA 
BRANCH  27  29
HETATM   29  C   UNL     1      -5.917  13.043  69.613  1.00  0.00    -0.118 C  
BRANCH  29  30
HETATM   30  O   UNL     1      -5.269  11.913  70.247  1.00  0.00    -0.079 OA 
BRANCH  30  31
HETATM   31  C   UNL     1      -5.593  11.725  71.552  1.00  0.00     0.340 C  
HETATM   32  O   UNL     1      -5.687  12.609  72.384  1.00  0.00     0.073 OA 
BRANCH  31  33
HETATM   33  C   UNL     1      -5.792  10.281  71.891  1.00  0.00     0.411 A  
HETATM   34  C   UNL     1      -6.162   7.597  72.668  1.00  0.00    -0.055 A  
HETATM   35  O   UNL     1      -5.280   5.698  70.332  1.00  0.00    -0.004 OA 
HETATM   36  C   UNL     1      -6.010   8.581  73.637  1.00  0.00    -0.122 A  
HETATM   37  C   UNL     1      -5.829   9.917  73.253  1.00  0.00     0.595 A  
HETATM   38  O   UNL     1      -7.743   5.989  70.504  1.00  0.00    -0.096 OA 
HETATM   39  O   UNL     1      -6.550   7.293  68.838  1.00  0.00    -0.044 OA 
HETATM   40  C   UNL     1      -5.950   9.286  70.912  1.00  0.00    -0.059 A  
HETATM   41  S   UNL     1      -6.334   6.666  70.115  1.00  0.00    -0.040 S  
HETATM   42  C   UNL     1      -6.125   7.952  71.328  1.00  0.00    -0.034 A  
ENDBRANCH  31  33
ENDBRANCH  30  31
ENDBRANCH  29  30
ENDBRANCH  27  29
ENDBRANCH   4  27
TORSDOF 5
ENDMDL
MODEL      217
REMARK 921   NORMALIZED FREE ENERGY PREDICTED BY IDOCK:    8.77 KCAL/MOL
REMARK 922        TOTAL FREE ENERGY PREDICTED BY IDOCK:   10.62 KCAL/MOL
REMARK 923 INTER-LIGAND FREE ENERGY PREDICTED BY IDOCK:    1.57 KCAL/MOL
REMARK 924 INTRA-LIGAND FREE ENERGY PREDICTED BY IDOCK:    9.05 KCAL/MOL
REMARK 927      BINDING AFFINITY PREDICTED BY RF-SCORE:    0.00 PKD
ROOT
HETATM    1  C   UNL     1     -10.604   7.600  67.876  1.00  0.00    -0.233 C  
HETATM    2  C   UNL     1      -9.823   6.542  68.372  1.00  0.00    -0.137 C  
HETATM    3  C   UNL     1      -9.691   7.820  69.153  1.00  0.00    -0.161 C  
HETATM    4  C   UNL     1     -11.069   9.321  68.758  1.00  0.00     0.096 C  
HETATM    5  C   UNL     1      -8.915   7.182  70.522  1.00  0.00    -0.155 C  
HETATM    6  O   UNL     1     -12.217   9.029  67.883  1.00  0.00     2.597 OA 
HETATM    7  C   UNL     1      -5.795   8.554  64.666  1.00  0.00    -0.063 C  
HETATM    8  C   UNL     1     -10.873   8.343  69.673  1.00  0.00    -0.153 C  
HETATM    9  C   UNL     1      -5.681   9.833  63.876  1.00  0.00    -0.105 C  
HETATM   10  C   UNL     1      -6.953   8.657  65.347  1.00  0.00    -0.075 C  
HETATM   11  C   UNL     1     -11.909   7.602  70.528  1.00  0.00    -0.102 C  
HETATM   12  H   UNL     1     -12.847   9.716  67.702  1.00  0.00     0.000 HD 
HETATM   13  C   UNL     1      -9.588   9.730  70.108  1.00  0.00    -0.287 C  
HETATM   14  C   UNL     1      -8.691  10.313  68.675  1.00  0.00    -0.133 C  
HETATM   15  C   UNL     1      -8.251   8.374  64.616  1.00  0.00    -0.157 C  
HETATM   16  C   UNL     1      -8.253   9.270  67.384  1.00  0.00    -0.117 C  
HETATM   17  C   UNL     1      -5.772   9.667  67.407  1.00  0.00    -0.040 C  
HETATM   18  O   UNL     1      -9.460  11.434  68.186  1.00  0.00    -0.168 OA 
HETATM   19  F   UNL     1      -7.541   8.145  67.881  1.00  0.00    -0.093 F  
HETATM   20  C   UNL     1      -9.603   8.580  66.749  1.00  0.00    -0.273 C  
HETATM   21  C   UNL     1      -7.047   9.732  66.460  1.00  0.00    -0.090 C  
HETATM   22  C   UNL     1      -6.867  11.055  65.726  1.00  0.00     0.093 C  
HETATM   23  H   UNL     1      -8.984  11.744  67.424  1.00  0.00     0.000 HD 
HETATM   24  O   UNL     1      -5.179   9.844  62.762  1.00  0.00    -0.084 OA 
HETATM   25  C   UNL     1      -9.246   7.694  65.541  1.00  0.00     0.221 C  
HETATM   26  C   UNL     1      -6.184  11.090  64.552  1.00  0.00     0.624 C  
ENDROOT
BRANCH   4  27
HETATM   27  C   UNL     1     -12.100  10.272  69.773  1.00  0.00    -0.056 C  
HETATM   28  O   UNL     1     -12.956  11.081  69.376  1.00  0.00    -0.065 OA 
BRANCH  27  29
HETATM   29  C   UNL     1     -12.032  10.076  71.310  1.00  0.00    -0.394 C  
BRANCH  29  30
HETATM   30  O   UNL     1     -11.978   8.681  71.695  1.00  0.00    -0.290 OA 
BRANCH  30  31
HETATM   31  C   UNL     1     -11.808   8.459  73.024  1.00  0.00     0.317 C  
HETATM   32  O   UNL     1     -12.539   8.881  73.902  1.00  0.00     2.596 OA 
BRANCH  31  33
HETATM   33  C   UNL     1     -10.581   7.656  73.319  1.00  0.00    -0.411 A  
HETATM   34  C   UNL     1      -8.353   6.042  73.933  1.00  0.00    -0.113 A  
HETATM   35  O   UNL     1      -5.779   7.828  74.102  1.00  0.00    -0.066 OA 
HETATM   36  C   UNL     1      -9.630   5.613  74.270  1.00  0.00    -0.162 A  
HETATM   37  C   UNL     1     -10.740   6.412  73.963  1.00  0.00    -0.061 A  
HETATM   38  O   UNL     1      -5.982   6.573  71.966  1.00  0.00    -0.037 OA 
HETATM   39  O   UNL     1      -6.646   8.910  71.988  1.00  0.00    -0.165 OA 
HETATM   40  C   UNL     1      -9.290   8.089  72.975  1.00  0.00    -0.344 A  
HETATM   41  S   UNL     1      -6.543   7.780  72.873  1.00  0.00    -0.074 S  
HETATM   42  C   UNL     1      -8.193   7.266  73.300  1.00  0.00    -0.111 A  
ENDBRANCH  31  33
ENDBRANCH  30  31
ENDBRANCH  29  30
ENDBRANCH  27  29
ENDBRANCH   4  27
TORSDOF 5
ENDMDL
MODEL      218
REMARK 921   NORMALIZED FREE ENERGY PREDICTED BY IDOCK:    9.47 KCAL/MOL
REMARK 922        TOTAL FREE ENERGY PREDICTED BY IDOCK:   11.53 KCAL/MOL
REMARK 923 INTER-LIGAND FREE ENERGY PREDICTED BY IDOCK:    4.59 KCAL/MOL
REMARK 924 INTRA-LIGAND FREE ENERGY PREDICTED BY IDOCK:    6.94 KCAL/MOL
REMARK 927      BINDING AFFINITY PREDICTED BY RF-SCORE:    0.00 PKD
ROOT
HETATM    1  C   UNL     1      -8.994   8.211  65.306  1.00  0.00     0.040 C  
HETATM    2  C   UNL     1      -8.389   9.310  64.672  1.00  0.00    -0.167 C  
HETATM    3  C   UNL     1      -7.487   8.583  65.631  1.00  0.00    -0.085 C  
HETATM    4  C   UNL     1      -8.131   6.738  66.328  1.00  0.00    -0.112 C  
HETATM    5  C   UNL     1      -6.015   9.277  65.143  1.00  0.00    -0.060 C  
HETATM    6  O   UNL     1      -9.332   6.126  65.735  1.00  0.00    -0.350 OA 
HETATM    7  C   UNL     1     -10.514  12.333  69.184  1.00  0.00     0.043 C  
HETATM    8  C   UNL     1      -7.297   7.227  65.381  1.00  0.00    -0.079 C  
HETATM    9  C   UNL     1     -11.110  11.916  70.505  1.00  0.00     1.236 C  
HETATM   10  C   UNL     1     -10.204  11.184  68.553  1.00  0.00    -0.209 C  
HETATM   11  C   UNL     1      -6.864   6.587  64.055  1.00  0.00    -0.045 C  
HETATM   12  H   UNL     1      -9.627   5.282  66.055  1.00  0.00     0.000 HD 
HETATM   13  C   UNL     1      -6.368   7.464  67.068  1.00  0.00    -0.052 C  
HETATM   14  C   UNL     1      -7.405   8.191  68.330  1.00  0.00    -0.095 C  
HETATM   15  C   UNL     1     -11.313  10.415  67.861  1.00  0.00    -0.248 C  
HETATM   16  C   UNL     1      -8.600   9.369  67.965  1.00  0.00    -0.120 C  
HETATM   17  C   UNL     1      -7.799  11.200  69.488  1.00  0.00     0.160 C  
HETATM   18  O   UNL     1      -7.993   7.067  69.022  1.00  0.00    -0.113 OA 
HETATM   19  F   UNL     1      -8.022  10.447  67.241  1.00  0.00    -0.107 F  
HETATM   20  C   UNL     1      -9.671   8.751  66.882  1.00  0.00    -0.273 C  
HETATM   21  C   UNL     1      -9.073  10.309  69.153  1.00  0.00    -0.199 C  
HETATM   22  C   UNL     1      -9.591   9.912  70.530  1.00  0.00    -0.035 C  
HETATM   23  H   UNL     1      -8.545   7.454  69.691  1.00  0.00     0.000 HD 
HETATM   24  O   UNL     1     -12.017  12.554  71.019  1.00  0.00    -0.084 OA 
HETATM   25  C   UNL     1     -10.796   9.762  66.590  1.00  0.00    -0.011 C  
HETATM   26  C   UNL     1     -10.499  10.699  71.164  1.00  0.00     1.873 C  
ENDROOT
BRANCH   4  27
HETATM   27  C   UNL     1      -7.385   5.177  66.396  1.00  0.00    -0.086 C  
HETATM   28  O   UNL     1      -6.640   4.695  65.525  1.00  0.00    -0.039 OA 
BRANCH  27  29
HETATM   29  C   UNL     1      -7.579   4.304  67.663  1.00  0.00    -0.073 C  
BRANCH  29  30
HETATM   30  O   UNL     1      -8.215   5.024  68.747  1.00  0.00    -0.084 OA 
BRANCH  30  31
HETATM   31  C   UNL     1      -8.948   4.255  69.594  1.00  0.00    -0.102 C  
HETATM   32  O   UNL     1      -8.916   3.039  69.638  1.00  0.00    -0.078 OA 
BRANCH  31  33
HETATM   33  C   UNL     1      -9.854   5.066  70.466  1.00  0.00    -0.290 A  
HETATM   34  C   UNL     1     -11.669   6.508  72.070  1.00  0.00    -0.367 A  
HETATM   35  O   UNL     1     -10.561   9.401  72.565  1.00  0.00     0.609 OA 
HETATM   36  C   UNL     1     -12.116   5.426  71.323  1.00  0.00     1.566 A  
HETATM   37  C   UNL     1     -11.216   4.706  70.527  1.00  0.00     2.056 A  
HETATM   38  O   UNL     1     -10.227   7.863  74.489  1.00  0.00     1.183 OA 
HETATM   39  O   UNL     1      -8.350   8.253  72.997  1.00  0.00    -0.187 OA 
HETATM   40  C   UNL     1      -9.400   6.158  71.224  1.00  0.00    -0.170 A  
HETATM   41  S   UNL     1      -9.789   8.252  72.989  1.00  0.00    -0.060 S  
HETATM   42  C   UNL     1     -10.330   6.867  72.011  1.00  0.00    -0.199 A  
ENDBRANCH  31  33
ENDBRANCH  30  31
ENDBRANCH  29  30
ENDBRANCH  27  29
ENDBRANCH   4  27
TORSDOF 5
ENDMDL
MODEL      219
REMARK 921   NORMALIZED FREE ENERGY PREDICTED BY IDOCK:    9.80 KCAL/MOL
REMARK 922        TOTAL FREE ENERGY PREDICTED BY IDOCK:   11.95 KCAL/MOL
REMARK 923 INTER-LIGAND FREE ENERGY PREDICTED BY IDOCK:    2.41 KCAL/MOL
REMARK 924 INTRA-LIGAND FREE ENERGY PREDICTED BY IDOCK:    9.54 KCAL/MOL
REMARK 927      BINDING AFFINITY PREDICTED BY RF-SCORE:    0.00 PKD
ROOT
HETATM    1  C   UNL     1      -7.263  11.294  68.087  1.00  0.00    -0.081 C  
HETATM    2  C   UNL     1      -6.590  11.360  69.319  1.00  0.00    -0.106 C  
HETATM    3  C   UNL     1      -7.255  10.038  69.055  1.00  0.00    -0.076 C  
HETATM    4  C   UNL     1      -7.944   9.689  67.129  1.00  0.00    -0.106 C  
HETATM    5  C   UNL     1      -6.492   9.141  70.278  1.00  0.00    -0.050 C  
HETATM    6  O   UNL     1      -7.602  10.644  66.061  1.00  0.00    -0.140 OA 
HETATM    7  C   UNL     1     -11.685  13.364  71.328  1.00  0.00     0.801 C  
HETATM    8  C   UNL     1      -6.868   9.381  67.890  1.00  0.00    -0.075 C  
HETATM    9  C   UNL     1     -13.073  13.400  70.741  1.00  0.00     0.036 C  
HETATM   10  C   UNL     1     -10.915  12.778  70.391  1.00  0.00     1.436 C  
HETATM   11  C   UNL     1      -5.434   9.062  67.447  1.00  0.00    -0.041 C  
HETATM   12  H   UNL     1      -7.917  10.484  65.179  1.00  0.00     0.000 HD 
HETATM   13  C   UNL     1      -8.305   8.250  68.536  1.00  0.00    -0.129 C  
HETATM   14  C   UNL     1      -9.824   9.153  68.807  1.00  0.00    -0.167 C  
HETATM   15  C   UNL     1     -10.445  13.612  69.214  1.00  0.00     0.072 C  
HETATM   16  C   UNL     1      -9.836  10.772  69.380  1.00  0.00    -0.085 C  
HETATM   17  C   UNL     1     -11.264  10.438  71.419  1.00  0.00     0.393 C  
HETATM   18  O   UNL     1     -10.548   9.048  67.561  1.00  0.00    -0.284 OA 
HETATM   19  F   UNL     1      -9.080  10.874  70.579  1.00  0.00     0.966 F  
HETATM   20  C   UNL     1      -8.989  11.728  68.346  1.00  0.00    -0.168 C  
HETATM   21  C   UNL     1     -11.169  11.281  70.075  1.00  0.00    -0.213 C  
HETATM   22  C   UNL     1     -12.595  11.243  69.540  1.00  0.00     0.027 C  
HETATM   23  H   UNL     1     -11.355   9.528  67.706  1.00  0.00     0.000 HD 
HETATM   24  O   UNL     1     -13.830  14.333  70.964  1.00  0.00    -0.239 OA 
HETATM   25  C   UNL     1      -9.043  13.200  68.796  1.00  0.00     0.153 C  
HETATM   26  C   UNL     1     -13.480  12.208  69.901  1.00  0.00     2.464 C  
ENDROOT
BRANCH   4  27
HETATM   27  C   UNL     1      -7.719   8.383  66.015  1.00  0.00    -0.090 C  
HETATM   28  O   UNL     1      -7.396   8.501  64.820  1.00  0.00    -0.086 OA 
BRANCH  27  29
HETATM   29  C   UNL     1      -7.852   6.925  66.528  1.00  0.00    -0.106 C  
BRANCH  29  30
HETATM   30  O   UNL     1      -8.999   6.237  65.971  1.00  0.00    -0.156 OA 
BRANCH  30  31
HETATM   31  C   UNL     1      -9.568   5.316  66.790  1.00  0.00    -0.148 C  
HETATM   32  O   UNL     1     -10.277   4.397  66.422  1.00  0.00    -0.240 OA 
BRANCH  31  33
HETATM   33  C   UNL     1      -9.264   5.565  68.233  1.00  0.00    -0.118 A  
HETATM   34  C   UNL     1      -8.827   6.006  70.983  1.00  0.00    -0.139 A  
HETATM   35  O   UNL     1      -6.315   7.846  71.364  1.00  0.00    -0.035 OA 
HETATM   36  C   UNL     1     -10.094   5.657  70.532  1.00  0.00    -0.280 A  
HETATM   37  C   UNL     1     -10.313   5.434  69.166  1.00  0.00    -0.300 A  
HETATM   38  O   UNL     1      -5.857   5.437  71.773  1.00  0.00    -0.019 OA 
HETATM   39  O   UNL     1      -5.232   6.371  69.620  1.00  0.00    -0.012 OA 
HETATM   40  C   UNL     1      -7.982   5.915  68.689  1.00  0.00    -0.103 A  
HETATM   41  S   UNL     1      -6.181   6.576  70.682  1.00  0.00    -0.040 S  
HETATM   42  C   UNL     1      -7.793   6.137  70.068  1.00  0.00    -0.106 A  
ENDBRANCH  31  33
ENDBRANCH  30  31
ENDBRANCH  29  30
ENDBRANCH  27  29
ENDBRANCH   4  27
TORSDOF 5
ENDMDL
MODEL      220
REMARK 921   NORMALIZED FREE ENERGY PREDICTED BY IDOCK:   10.18 KCAL/MOL
REMARK 922        TOTAL FREE ENERGY PREDICTED BY IDOCK:   12.45 KCAL/MOL
REMARK 923 INTER-LIGAND FREE ENERGY PREDICTED BY IDOCK:   11.60 KCAL/MOL
REMARK 924 INTRA-LIGAND FREE ENERGY PREDICTED BY IDOCK:    0.85 KCAL/MOL
REMARK 927      BINDING AFFINITY PREDICTED BY RF-SCORE:    0.00 PKD
ROOT
HETATM    1  C   UNL     1      -8.516   4.510  68.568  1.00  0.00    -0.096 C  
HETATM    2  C   UNL     1      -8.551   3.276  69.240  1.00  0.00    -0.110 C  
HETATM    3  C   UNL     1      -9.809   4.087  69.383  1.00  0.00    -0.115 C  
HETATM    4  C   UNL     1     -10.026   5.732  68.137  1.00  0.00    -0.148 C  
HETATM    5  C   UNL     1     -10.810   2.863  70.002  1.00  0.00     3.923 C  
HETATM    6  O   UNL     1      -9.055   5.942  67.050  1.00  0.00    -0.115 OA 
HETATM    7  C   UNL     1      -6.266   6.292  73.677  1.00  0.00    -0.064 C  
HETATM    8  C   UNL     1     -10.443   4.446  68.196  1.00  0.00     0.488 C  
HETATM    9  C   UNL     1      -6.105   7.769  73.934  1.00  0.00    -0.075 C  
HETATM   10  C   UNL     1      -6.867   6.202  72.474  1.00  0.00    -0.070 C  
HETATM   11  C   UNL     1     -10.847   3.510  67.049  1.00  0.00     3.401 C  
HETATM   12  H   UNL     1      -9.154   6.695  66.480  1.00  0.00     0.000 HD 
HETATM   13  C   UNL     1     -11.493   5.397  69.522  1.00  0.00     1.501 C  
HETATM   14  C   UNL     1     -10.493   6.447  70.569  1.00  0.00    -0.220 C  
HETATM   15  C   UNL     1      -6.021   6.373  71.227  1.00  0.00    -0.032 C  
HETATM   16  C   UNL     1      -8.903   6.013  71.049  1.00  0.00    -0.139 C  
HETATM   17  C   UNL     1      -9.217   6.136  73.539  1.00  0.00    -0.133 C  
HETATM   18  O   UNL     1     -10.492   7.735  69.913  1.00  0.00    -0.222 OA 
HETATM   19  F   UNL     1      -8.906   4.724  71.648  1.00  0.00    -0.119 F  
HETATM   20  C   UNL     1      -7.969   5.780  69.717  1.00  0.00    -0.100 C  
HETATM   21  C   UNL     1      -8.327   6.711  72.353  1.00  0.00    -0.106 C  
HETATM   22  C   UNL     1      -8.238   8.197  72.674  1.00  0.00    -0.227 C  
HETATM   23  H   UNL     1      -9.961   8.292  70.468  1.00  0.00     0.000 HD 
HETATM   24  O   UNL     1      -5.129   8.204  74.527  1.00  0.00    -0.067 OA 
HETATM   25  C   UNL     1      -6.517   5.458  70.119  1.00  0.00    -0.034 C  
HETATM   26  C   UNL     1      -7.227   8.663  73.453  1.00  0.00     0.040 C  
ENDROOT
BRANCH   4  27
HETATM   27  C   UNL     1     -11.297   6.255  67.084  1.00  0.00     0.033 C  
HETATM   28  O   UNL     1     -11.738   5.617  66.112  1.00  0.00     0.830 OA 
BRANCH  27  29
HETATM   29  C   UNL     1     -12.023   7.592  67.386  1.00  0.00     3.453 C  
BRANCH  29  30
HETATM   30  O   UNL     1     -11.620   8.662  66.497  1.00  0.00     2.241 OA 
BRANCH  30  31
HETATM   31  C   UNL     1     -10.389   9.180  66.745  1.00  0.00    -0.238 C  
HETATM   32  O   UNL     1      -9.346   8.555  66.698  1.00  0.00    -0.161 OA 
BRANCH  31  33
HETATM   33  C   UNL     1     -10.442  10.624  67.130  1.00  0.00    -0.295 A  
HETATM   34  C   UNL     1     -10.683  13.336  67.860  1.00  0.00    -0.252 A  
HETATM   35  O   UNL     1      -8.114  14.897  66.963  1.00  0.00    -0.205 OA 
HETATM   36  C   UNL     1     -11.824  12.561  67.699  1.00  0.00    -0.381 A  
HETATM   37  C   UNL     1     -11.707  11.212  67.339  1.00  0.00    -0.030 A  
HETATM   38  O   UNL     1      -8.146  14.339  69.386  1.00  0.00     0.076 OA 
HETATM   39  O   UNL     1      -6.843  12.923  67.902  1.00  0.00    -0.090 OA 
HETATM   40  C   UNL     1      -9.288  11.408  67.298  1.00  0.00    -0.173 A  
HETATM   41  S   UNL     1      -7.997  13.783  67.881  1.00  0.00    -0.175 S  
HETATM   42  C   UNL     1      -9.437  12.763  67.655  1.00  0.00    -0.190 A  
ENDBRANCH  31  33
ENDBRANCH  30  31
ENDBRANCH  29  30
ENDBRANCH  27  29
ENDBRANCH   4  27
TORSDOF 5
ENDMDL
MODEL      221
REMARK 921   NORMALIZED FREE ENERGY PREDICTED BY IDOCK:   10.29 KCAL/MOL
REMARK 922        TOTAL FREE ENERGY PREDICTED BY IDOCK:   12.59 KCAL/MOL
REMARK 923 INTER-LIGAND FREE ENERGY PREDICTED BY IDOCK:    1.91 KCAL/MOL
REMARK 924 INTRA-LIGAND FREE ENERGY PREDICTED BY IDOCK:   10.68 KCAL/MOL
REMARK 927      BINDING AFFINITY PREDICTED BY RF-SCORE:    0.00 PKD
ROOT
HETATM    1  C   UNL     1     -10.159  14.346  64.994  1.00  0.00    -0.322 C  
HETATM    2  C   UNL     1     -11.203  13.923  64.153  1.00  0.00    -0.179 C  
HETATM    3  C   UNL     1     -11.668  14.537  65.445  1.00  0.00    -0.354 C  
HETATM    4  C   UNL     1     -10.252  15.539  66.584  1.00  0.00    -0.276 C  
HETATM    5  C   UNL     1     -13.301  14.753  65.030  1.00  0.00     1.026 C  
HETATM    6  O   UNL     1      -8.912  15.774  66.019  1.00  0.00    -0.333 OA 
HETATM    7  C   UNL     1     -10.606   8.840  66.949  1.00  0.00    -0.263 C  
HETATM    8  C   UNL     1     -11.230  15.835  65.696  1.00  0.00    -0.055 C  
HETATM    9  C   UNL     1      -9.869   8.442  68.202  1.00  0.00    -0.169 C  
HETATM   10  C   UNL     1     -10.374  10.159  66.800  1.00  0.00    -0.285 C  
HETATM   11  C   UNL     1     -11.346  17.043  64.757  1.00  0.00     0.477 C  
HETATM   12  H   UNL     1      -8.264  16.232  66.540  1.00  0.00     0.000 HD 
HETATM   13  C   UNL     1     -12.143  15.386  67.348  1.00  0.00     0.441 C  
HETATM   14  C   UNL     1     -11.527  13.880  68.089  1.00  0.00    -0.312 C  
HETATM   15  C   UNL     1      -9.047  10.599  66.213  1.00  0.00    -0.186 C  
HETATM   16  C   UNL     1     -10.996  12.547  67.146  1.00  0.00    -0.263 C  
HETATM   17  C   UNL     1     -12.515  10.786  68.097  1.00  0.00     1.693 C  
HETATM   18  O   UNL     1     -10.486  14.309  68.995  1.00  0.00    -0.241 OA 
HETATM   19  F   UNL     1     -12.008  12.165  66.223  1.00  0.00    -0.433 F  
HETATM   20  C   UNL     1      -9.777  13.025  66.153  1.00  0.00    -0.255 C  
HETATM   21  C   UNL     1     -10.981  11.125  67.850  1.00  0.00    -0.307 C  
HETATM   22  C   UNL     1     -10.321  10.722  69.163  1.00  0.00    -0.238 C  
HETATM   23  H   UNL     1     -10.159  13.509  69.388  1.00  0.00     0.000 HD 
HETATM   24  O   UNL     1      -9.340   7.345  68.304  1.00  0.00    -0.140 OA 
HETATM   25  C   UNL     1      -9.232  11.832  65.345  1.00  0.00    -0.023 C  
HETATM   26  C   UNL     1      -9.856   9.456  69.326  1.00  0.00    -0.176 C  
ENDROOT
BRANCH   4  27
HETATM   27  C   UNL     1     -10.213  17.116  67.297  1.00  0.00    -0.316 C  
HETATM   28  O   UNL     1      -9.190  17.795  67.494  1.00  0.00    -0.242 OA 
BRANCH  27  29
HETATM   29  C   UNL     1     -11.552  17.807  67.669  1.00  0.00     1.146 C  
BRANCH  29  30
HETATM   30  O   UNL     1     -11.371  18.939  68.555  1.00  0.00     0.964 OA 
BRANCH  30  31
HETATM   31  C   UNL     1     -10.101  19.416  68.624  1.00  0.00    -0.428 C  
HETATM   32  O   UNL     1      -9.518  19.705  69.653  1.00  0.00    -0.078 OA 
BRANCH  31  33
HETATM   33  C   UNL     1      -9.481  19.594  67.274  1.00  0.00    -0.446 A  
HETATM   34  C   UNL     1      -8.443  19.963  64.679  1.00  0.00     2.747 A  
HETATM   35  O   UNL     1      -5.755  18.372  64.389  1.00  0.00    -0.110 OA 
HETATM   36  C   UNL     1      -9.802  20.138  64.910  1.00  0.00     1.566 A  
HETATM   37  C   UNL     1     -10.320  19.958  66.200  1.00  0.00    -0.604 A  
HETATM   38  O   UNL     1      -5.435  20.808  64.762  1.00  0.00    -0.190 OA 
HETATM   39  O   UNL     1      -5.194  19.318  66.665  1.00  0.00    -0.162 OA 
HETATM   40  C   UNL     1      -8.107  19.421  67.041  1.00  0.00    -0.290 A  
HETATM   41  S   UNL     1      -5.879  19.398  65.402  1.00  0.00    -0.207 S  
HETATM   42  C   UNL     1      -7.616  19.604  65.733  1.00  0.00    -0.262 A  
ENDBRANCH  31  33
ENDBRANCH  30  31
ENDBRANCH  29  30
ENDBRANCH  27  29
ENDBRANCH   4  27
TORSDOF 5
ENDMDL
MODEL      222
REMARK 921   NORMALIZED FREE ENERGY PREDICTED BY IDOCK:   11.56 KCAL/MOL
REMARK 922        TOTAL FREE ENERGY PREDICTED BY IDOCK:   14.23 KCAL/MOL
REMARK 923 INTER-LIGAND FREE ENERGY PREDICTED BY IDOCK:   11.80 KCAL/MOL
REMARK 924 INTRA-LIGAND FREE ENERGY PREDICTED BY IDOCK:    2.44 KCAL/MOL
REMARK 927      BINDING AFFINITY PREDICTED BY RF-SCORE:    0.00 PKD
ROOT
HETATM    1  C   UNL     1     -11.225  13.537  70.473  1.00  0.00     0.636 C  
HETATM    2  C   UNL     1     -12.586  13.780  70.725  1.00  0.00    -0.410 C  
HETATM    3  C   UNL     1     -12.336  12.748  69.661  1.00  0.00    -0.059 C  
HETATM    4  C   UNL     1     -10.398  12.030  69.472  1.00  0.00     0.524 C  
HETATM    5  C   UNL     1     -13.907  12.108  69.577  1.00  0.00     5.678 C  
HETATM    6  O   UNL     1      -9.393  12.403  70.481  1.00  0.00     4.189 OA 
HETATM    7  C   UNL     1     -11.998  17.917  66.657  1.00  0.00     3.318 C  
HETATM    8  C   UNL     1     -11.566  11.652  70.042  1.00  0.00    -0.338 C  
HETATM    9  C   UNL     1     -10.915  18.217  65.653  1.00  0.00     0.282 C  
HETATM   10  C   UNL     1     -11.571  16.832  67.331  1.00  0.00     0.664 C  
HETATM   11  C   UNL     1     -11.795  10.745  71.258  1.00  0.00    -0.177 C  
HETATM   12  H   UNL     1      -8.506  12.075  70.395  1.00  0.00     0.000 HD 
HETATM   13  C   UNL     1     -11.792  11.349  68.139  1.00  0.00    -0.288 C  
HETATM   14  C   UNL     1     -11.264  12.744  67.151  1.00  0.00    -0.292 C  
HETATM   15  C   UNL     1     -10.542  17.019  68.429  1.00  0.00    -0.375 C  
HETATM   16  C   UNL     1     -11.468  14.365  67.677  1.00  0.00    -0.346 C  
HETATM   17  C   UNL     1     -12.800  15.226  65.728  1.00  0.00     1.168 C  
HETATM   18  O   UNL     1      -9.878  12.478  66.843  1.00  0.00    -0.219 OA 
HETATM   19  F   UNL     1     -12.825  14.602  68.025  1.00  0.00     0.157 F  
HETATM   20  C   UNL     1     -10.693  14.582  69.110  1.00  0.00    -0.263 C  
HETATM   21  C   UNL     1     -11.470  15.491  66.558  1.00  0.00     0.080 C  
HETATM   22  C   UNL     1     -10.432  15.756  65.475  1.00  0.00    -0.425 C  
HETATM   23  H   UNL     1      -9.598  13.219  66.319  1.00  0.00     0.000 HD 
HETATM   24  O   UNL     1     -10.639  19.367  65.344  1.00  0.00    -0.475 OA 
HETATM   25  C   UNL     1     -10.799  16.049  69.570  1.00  0.00    -0.317 C  
HETATM   26  C   UNL     1     -10.224  17.023  65.030  1.00  0.00     0.620 C  
ENDROOT
BRANCH   4  27
HETATM   27  C   UNL     1      -9.732  10.433  69.418  1.00  0.00    -0.200 C  
HETATM   28  O   UNL     1      -9.367   9.770  70.405  1.00  0.00    -0.242 OA 
BRANCH  27  29
HETATM   29  C   UNL     1      -9.634   9.703  68.053  1.00  0.00    -0.143 C  
BRANCH  29  30
HETATM   30  O   UNL     1      -9.060  10.534  67.014  1.00  0.00    -0.143 OA 
BRANCH  30  31
HETATM   31  C   UNL     1      -7.708  10.467  66.908  1.00  0.00    -0.114 C  
HETATM   32  O   UNL     1      -6.952  11.418  66.995  1.00  0.00    -0.116 OA 
BRANCH  31  33
HETATM   33  C   UNL     1      -7.222   9.080  66.629  1.00  0.00    -0.085 A  
HETATM   34  C   UNL     1      -6.281   6.451  66.242  1.00  0.00    -0.037 A  
HETATM   35  O   UNL     1      -5.326   6.105  63.274  1.00  0.00    -0.017 OA 
HETATM   36  C   UNL     1      -6.299   6.997  67.519  1.00  0.00    -0.046 A  
HETATM   37  C   UNL     1      -6.769   8.303  67.714  1.00  0.00    -0.066 A  
HETATM   38  O   UNL     1      -7.572   5.137  63.717  1.00  0.00    -0.062 OA 
HETATM   39  O   UNL     1      -7.456   7.324  62.668  1.00  0.00    -0.088 OA 
HETATM   40  C   UNL     1      -7.207   8.527  65.338  1.00  0.00    -0.083 A  
HETATM   41  S   UNL     1      -6.697   6.479  63.550  1.00  0.00    -0.046 S  
HETATM   42  C   UNL     1      -6.725   7.214  65.171  1.00  0.00    -0.047 A  
ENDBRANCH  31  33
ENDBRANCH  30  31
ENDBRANCH  29  30
ENDBRANCH  27  29
ENDBRANCH   4  27
TORSDOF 5
ENDMDL
MODEL      223
REMARK 921   NORMALIZED FREE ENERGY PREDICTED BY IDOCK:   15.72 KCAL/MOL
REMARK 922        TOTAL FREE ENERGY PREDICTED BY IDOCK:   19.61 KCAL/MOL
REMARK 923 INTER-LIGAND FREE ENERGY PREDICTED BY IDOCK:   19.25 KCAL/MOL
REMARK 924 INTRA-LIGAND FREE ENERGY PREDICTED BY IDOCK:    0.37 KCAL/MOL
REMARK 927      BINDING AFFINITY PREDICTED BY RF-SCORE:    0.00 PKD
ROOT
HETATM    1  C   UNL     1      -8.965  13.540  68.449  1.00  0.00    -0.146 C  
HETATM    2  C   UNL     1      -9.672  14.309  69.389  1.00  0.00     0.254 C  
HETATM    3  C   UNL     1     -10.342  13.012  69.031  1.00  0.00     0.035 C  
HETATM    4  C   UNL     1      -9.224  11.629  67.962  1.00  0.00    -0.178 C  
HETATM    5  C   UNL     1     -11.477  12.975  70.294  1.00  0.00     0.104 C  
HETATM    6  O   UNL     1      -7.787  11.875  67.754  1.00  0.00    -0.121 OA 
HETATM    7  C   UNL     1     -12.138  16.718  64.685  1.00  0.00     1.841 C  
HETATM    8  C   UNL     1      -9.592  11.858  69.245  1.00  0.00     0.527 C  
HETATM    9  C   UNL     1     -12.153  16.334  63.228  1.00  0.00     3.891 C  
HETATM   10  C   UNL     1     -11.397  15.774  65.298  1.00  0.00    -0.093 C  
HETATM   11  C   UNL     1      -8.877  11.451  70.540  1.00  0.00     4.308 C  
HETATM   12  H   UNL     1      -7.275  11.242  67.265  1.00  0.00     0.000 HD 
HETATM   13  C   UNL     1     -11.173  11.158  68.364  1.00  0.00    -0.325 C  
HETATM   14  C   UNL     1     -11.499  11.956  66.797  1.00  0.00    -0.316 C  
HETATM   15  C   UNL     1      -9.886  15.869  65.211  1.00  0.00    -0.031 C  
HETATM   16  C   UNL     1     -11.175  13.621  66.534  1.00  0.00    -0.310 C  
HETATM   17  C   UNL     1     -13.477  14.345  65.835  1.00  0.00     1.349 C  
HETATM   18  O   UNL     1     -10.818  11.143  65.816  1.00  0.00    -0.238 OA 
HETATM   19  F   UNL     1     -11.809  14.409  67.532  1.00  0.00    -0.350 F  
HETATM   20  C   UNL     1      -9.582  13.922  66.805  1.00  0.00    -0.288 C  
HETATM   21  C   UNL     1     -11.963  14.331  65.353  1.00  0.00    -0.383 C  
HETATM   22  C   UNL     1     -12.068  13.910  63.892  1.00  0.00    -0.387 C  
HETATM   23  H   UNL     1     -10.991  11.567  64.984  1.00  0.00     0.000 HD 
HETATM   24  O   UNL     1     -12.151  17.183  62.350  1.00  0.00     9.816 OA 
HETATM   25  C   UNL     1      -9.248  15.396  66.506  1.00  0.00    -0.323 C  
HETATM   26  C   UNL     1     -12.207  14.852  62.924  1.00  0.00     2.604 C  
ENDROOT
BRANCH   4  27
HETATM   27  C   UNL     1      -8.888   9.947  68.201  1.00  0.00    -0.118 C  
HETATM   28  O   UNL     1      -9.498   9.006  67.664  1.00  0.00    -0.138 OA 
BRANCH  27  29
HETATM   29  C   UNL     1      -7.688   9.538  69.095  1.00  0.00    -0.081 C  
BRANCH  29  30
HETATM   30  O   UNL     1      -7.391   8.122  69.021  1.00  0.00    -0.079 OA 
BRANCH  30  31
HETATM   31  C   UNL     1      -6.799   7.602  70.127  1.00  0.00    -0.050 C  
HETATM   32  O   UNL     1      -5.604   7.407  70.255  1.00  0.00    -0.023 OA 
BRANCH  31  33
HETATM   33  C   UNL     1      -7.788   7.244  71.191  1.00  0.00    -0.093 A  
HETATM   34  C   UNL     1      -9.542   6.541  73.284  1.00  0.00    -0.168 A  
HETATM   35  O   UNL     1     -12.324   5.721  72.089  1.00  0.00    -0.077 OA 
HETATM   36  C   UNL     1      -8.169   6.470  73.480  1.00  0.00    -0.122 A  
HETATM   37  C   UNL     1      -7.295   6.821  72.443  1.00  0.00    -0.087 A  
HETATM   38  O   UNL     1     -12.281   8.024  73.024  1.00  0.00    -0.155 OA 
HETATM   39  O   UNL     1     -12.059   7.761  70.620  1.00  0.00    -0.165 OA 
HETATM   40  C   UNL     1      -9.177   7.320  70.994  1.00  0.00    -0.154 A  
HETATM   41  S   UNL     1     -11.796   7.045  71.840  1.00  0.00    -0.317 S  
HETATM   42  C   UNL     1     -10.031   6.955  72.053  1.00  0.00    -0.166 A  
ENDBRANCH  31  33
ENDBRANCH  30  31
ENDBRANCH  29  30
ENDBRANCH  27  29
ENDBRANCH   4  27
TORSDOF 5
ENDMDL
MODEL      224
REMARK 921   NORMALIZED FREE ENERGY PREDICTED BY IDOCK:   15.76 KCAL/MOL
REMARK 922        TOTAL FREE ENERGY PREDICTED BY IDOCK:   19.65 KCAL/MOL
REMARK 923 INTER-LIGAND FREE ENERGY PREDICTED BY IDOCK:   19.09 KCAL/MOL
REMARK 924 INTRA-LIGAND FREE ENERGY PREDICTED BY IDOCK:    0.57 KCAL/MOL
REMARK 927      BINDING AFFINITY PREDICTED BY RF-SCORE:    0.00 PKD
ROOT
HETATM    1  C   UNL     1      -8.956  13.517  68.450  1.00  0.00    -0.146 C  
HETATM    2  C   UNL     1      -9.707  14.246  69.389  1.00  0.00     0.254 C  
HETATM    3  C   UNL     1     -10.317  12.925  69.010  1.00  0.00     0.040 C  
HETATM    4  C   UNL     1      -9.128  11.602  67.941  1.00  0.00    -0.171 C  
HETATM    5  C   UNL     1     -11.463  12.827  70.259  1.00  0.00     0.129 C  
HETATM    6  O   UNL     1      -7.700  11.911  67.752  1.00  0.00    -0.119 OA 
HETATM    7  C   UNL     1     -12.219  16.598  64.681  1.00  0.00     1.872 C  
HETATM    8  C   UNL     1      -9.521  11.802  69.221  1.00  0.00     0.498 C  
HETATM    9  C   UNL     1     -12.201  16.228  63.220  1.00  0.00     4.046 C  
HETATM   10  C   UNL     1     -11.446  15.680  65.293  1.00  0.00    -0.034 C  
HETATM   11  C   UNL     1      -8.803  11.412  70.520  1.00  0.00     4.308 C  
HETATM   12  H   UNL     1      -7.157  11.306  67.263  1.00  0.00     0.000 HD 
HETATM   13  C   UNL     1     -11.060  11.045  68.315  1.00  0.00    -0.316 C  
HETATM   14  C   UNL     1     -11.402  11.845  66.752  1.00  0.00    -0.330 C  
HETATM   15  C   UNL     1      -9.939  15.840  65.225  1.00  0.00    -0.176 C  
HETATM   16  C   UNL     1     -11.146  13.525  66.509  1.00  0.00    -0.300 C  
HETATM   17  C   UNL     1     -13.469  14.158  65.791  1.00  0.00     0.958 C  
HETATM   18  O   UNL     1     -10.675  11.072  65.771  1.00  0.00    -0.228 OA 
HETATM   19  F   UNL     1     -11.824  14.274  67.508  1.00  0.00    -0.347 F  
HETATM   20  C   UNL     1      -9.571  13.891  66.802  1.00  0.00    -0.288 C  
HETATM   21  C   UNL     1     -11.950  14.214  65.326  1.00  0.00    -0.383 C  
HETATM   22  C   UNL     1     -12.021  13.803  63.861  1.00  0.00    -0.414 C  
HETATM   23  H   UNL     1     -10.857  11.497  64.942  1.00  0.00     0.000 HD 
HETATM   24  O   UNL     1     -12.225  17.087  62.350  1.00  0.00     9.499 OA 
HETATM   25  C   UNL     1      -9.296  15.381  66.522  1.00  0.00    -0.311 C  
HETATM   26  C   UNL     1     -12.189  14.749  62.900  1.00  0.00     2.389 C  
ENDROOT
BRANCH   4  27
HETATM   27  C   UNL     1      -8.724   9.933  68.166  1.00  0.00    -0.122 C  
HETATM   28  O   UNL     1      -9.350   9.128  68.877  1.00  0.00    -0.145 OA 
BRANCH  27  29
HETATM   29  C   UNL     1      -7.529   9.335  67.377  1.00  0.00    -0.087 C  
BRANCH  29  30
HETATM   30  O   UNL     1      -7.467   7.891  67.465  1.00  0.00    -0.090 OA 
BRANCH  30  31
HETATM   31  C   UNL     1      -8.156   7.227  66.501  1.00  0.00    -0.114 C  
HETATM   32  O   UNL     1      -8.870   7.752  65.666  1.00  0.00    -0.147 OA 
BRANCH  31  33
HETATM   33  C   UNL     1      -7.981   5.744  66.589  1.00  0.00    -0.102 A  
HETATM   34  C   UNL     1      -7.723   2.937  66.631  1.00  0.00    -0.076 A  
HETATM   35  O   UNL     1      -7.255   1.971  69.579  1.00  0.00    -0.039 OA 
HETATM   36  C   UNL     1      -8.397   3.553  65.584  1.00  0.00    -0.106 A  
HETATM   37  C   UNL     1      -8.524   4.948  65.559  1.00  0.00    -0.130 A  
HETATM   38  O   UNL     1      -5.179   2.048  68.214  1.00  0.00    -0.011 OA 
HETATM   39  O   UNL     1      -5.622   3.896  69.727  1.00  0.00    -0.015 OA 
HETATM   40  C   UNL     1      -7.297   5.122  67.646  1.00  0.00    -0.075 A  
HETATM   41  S   UNL     1      -6.323   2.895  68.967  1.00  0.00    -0.029 S  
HETATM   42  C   UNL     1      -7.189   3.717  67.647  1.00  0.00    -0.059 A  
ENDBRANCH  31  33
ENDBRANCH  30  31
ENDBRANCH  29  30
ENDBRANCH  27  29
ENDBRANCH   4  27
TORSDOF 5
ENDMDL
MODEL      225
REMARK 921   NORMALIZED FREE ENERGY PREDICTED BY IDOCK:   15.78 KCAL/MOL
REMARK 922        TOTAL FREE ENERGY PREDICTED BY IDOCK:   19.69 KCAL/MOL
REMARK 923 INTER-LIGAND FREE ENERGY PREDICTED BY IDOCK:   14.49 KCAL/MOL
REMARK 924 INTRA-LIGAND FREE ENERGY PREDICTED BY IDOCK:    5.20 KCAL/MOL
REMARK 927      BINDING AFFINITY PREDICTED BY RF-SCORE:    0.00 PKD
ROOT
HETATM    1  C   UNL     1      -8.973  13.702  66.601  1.00  0.00    -0.138 C  
HETATM    2  C   UNL     1      -7.842  13.652  65.768  1.00  0.00     3.728 C  
HETATM    3  C   UNL     1      -8.009  12.442  66.645  1.00  0.00     0.144 C  
HETATM    4  C   UNL     1      -9.825  12.225  67.626  1.00  0.00    -0.196 C  
HETATM    5  C   UNL     1      -6.895  11.426  65.863  1.00  0.00     0.344 C  
HETATM    6  O   UNL     1     -10.933  13.137  67.295  1.00  0.00    -0.260 OA 
HETATM    7  C   UNL     1      -5.179  16.333  70.210  1.00  0.00    -0.176 C  
HETATM    8  C   UNL     1      -9.213  11.755  66.514  1.00  0.00    -0.206 C  
HETATM    9  C   UNL     1      -5.576  16.576  71.643  1.00  0.00     0.670 C  
HETATM   10  C   UNL     1      -6.208  15.657  69.663  1.00  0.00    -0.164 C  
HETATM   11  C   UNL     1      -9.842  11.241  65.212  1.00  0.00    -0.291 C  
HETATM   12  H   UNL     1     -11.764  13.038  67.744  1.00  0.00     0.000 HD 
HETATM   13  C   UNL     1      -8.376  10.831  68.001  1.00  0.00    -0.120 C  
HETATM   14  C   UNL     1      -7.908  11.938  69.325  1.00  0.00     0.333 C  
HETATM   15  C   UNL     1      -7.440  16.433  69.238  1.00  0.00    -0.202 C  
HETATM   16  C   UNL     1      -7.346  13.532  69.028  1.00  0.00     0.004 C  
HETATM   17  C   UNL     1      -5.133  13.376  70.205  1.00  0.00    -0.098 C  
HETATM   18  O   UNL     1      -9.046  11.956  70.215  1.00  0.00     2.379 OA 
HETATM   19  F   UNL     1      -6.259  13.508  68.113  1.00  0.00    -0.072 F  
HETATM   20  C   UNL     1      -8.488  14.374  68.196  1.00  0.00    -0.160 C  
HETATM   21  C   UNL     1      -6.481  14.217  70.169  1.00  0.00    -0.086 C  
HETATM   22  C   UNL     1      -6.821  14.391  71.644  1.00  0.00     1.687 C  
HETATM   23  H   UNL     1      -8.797  12.545  70.918  1.00  0.00     0.000 HD 
HETATM   24  O   UNL     1      -5.257  17.604  72.222  1.00  0.00    -0.232 OA 
HETATM   25  C   UNL     1      -8.040  15.831  67.978  1.00  0.00    -0.143 C  
HETATM   26  C   UNL     1      -6.349  15.467  72.325  1.00  0.00     2.133 C  
ENDROOT
BRANCH   4  27
HETATM   27  C   UNL     1     -10.954  10.917  67.741  1.00  0.00    -0.283 C  
HETATM   28  O   UNL     1     -11.221  10.283  68.777  1.00  0.00    -0.240 OA 
BRANCH  27  29
HETATM   29  C   UNL     1     -11.775  10.518  66.487  1.00  0.00     1.553 C  
BRANCH  29  30
HETATM   30  O   UNL     1     -11.655   9.112  66.162  1.00  0.00     2.598 OA 
BRANCH  30  31
HETATM   31  C   UNL     1     -10.415   8.587  66.339  1.00  0.00     0.142 C  
HETATM   32  O   UNL     1      -9.370   9.164  66.098  1.00  0.00    -0.190 OA 
BRANCH  31  33
HETATM   33  C   UNL     1     -10.455   7.176  66.836  1.00  0.00    -0.364 A  
HETATM   34  C   UNL     1     -10.588   4.567  67.894  1.00  0.00     0.531 A  
HETATM   35  O   UNL     1      -8.507   2.733  66.427  1.00  0.00    -0.093 OA 
HETATM   36  C   UNL     1     -11.022   5.643  68.656  1.00  0.00    -0.076 A  
HETATM   37  C   UNL     1     -10.960   6.941  68.131  1.00  0.00    -0.220 A  
HETATM   38  O   UNL     1     -10.841   2.428  65.629  1.00  0.00     2.550 OA 
HETATM   39  O   UNL     1      -9.355   3.824  64.310  1.00  0.00    -0.131 OA 
HETATM   40  C   UNL     1     -10.019   6.087  66.064  1.00  0.00     0.091 A  
HETATM   41  S   UNL     1      -9.550   3.390  65.668  1.00  0.00    -0.016 S  
HETATM   42  C   UNL     1     -10.089   4.794  66.620  1.00  0.00    -0.245 A  
ENDBRANCH  31  33
ENDBRANCH  30  31
ENDBRANCH  29  30
ENDBRANCH  27  29
ENDBRANCH   4  27
TORSDOF 5
ENDMDL
MODEL      226
REMARK 921   NORMALIZED FREE ENERGY PREDICTED BY IDOCK:   17.66 KCAL/MOL
REMARK 922        TOTAL FREE ENERGY PREDICTED BY IDOCK:   22.11 KCAL/MOL
REMARK 923 INTER-LIGAND FREE ENERGY PREDICTED BY IDOCK:    2.22 KCAL/MOL
REMARK 924 INTRA-LIGAND FREE ENERGY PREDICTED BY IDOCK:   19.89 KCAL/MOL
REMARK 927      BINDING AFFINITY PREDICTED BY RF-SCORE:    0.00 PKD
ROOT
HETATM    1  C   UNL     1     -10.071   7.141  67.600  1.00  0.00    -0.229 C  
HETATM    2  C   UNL     1      -9.089   6.280  68.119  1.00  0.00    -0.112 C  
HETATM    3  C   UNL     1      -9.211   7.586  68.855  1.00  0.00    -0.142 C  
HETATM    4  C   UNL     1     -10.865   8.765  68.431  1.00  0.00     0.034 C  
HETATM    5  C   UNL     1      -8.310   7.166  70.233  1.00  0.00    -0.136 C  
HETATM    6  O   UNL     1     -11.938   8.217  67.584  1.00  0.00     2.079 OA 
HETATM    7  C   UNL     1      -5.579   8.927  64.288  1.00  0.00    -0.064 C  
HETATM    8  C   UNL     1     -10.469   7.879  69.375  1.00  0.00    -0.222 C  
HETATM    9  C   UNL     1      -5.731  10.173  63.453  1.00  0.00    -0.126 C  
HETATM   10  C   UNL     1      -6.728   8.820  64.982  1.00  0.00    -0.068 C  
HETATM   11  C   UNL     1     -11.328   6.976  70.270  1.00  0.00    -0.339 C  
HETATM   12  H   UNL     1     -12.695   8.757  67.390  1.00  0.00     0.000 HD 
HETATM   13  C   UNL     1      -9.485   9.511  69.744  1.00  0.00    -0.228 C  
HETATM   14  C   UNL     1      -8.737  10.210  68.279  1.00  0.00    -0.120 C  
HETATM   15  C   UNL     1      -7.949   8.255  64.280  1.00  0.00    -0.148 C  
HETATM   16  C   UNL     1      -8.108   9.231  67.017  1.00  0.00    -0.112 C  
HETATM   17  C   UNL     1      -5.758  10.119  66.989  1.00  0.00    -0.046 C  
HETATM   18  O   UNL     1      -9.719  11.136  67.764  1.00  0.00    -0.167 OA 
HETATM   19  F   UNL     1      -7.180   8.291  67.540  1.00  0.00    -0.080 F  
HETATM   20  C   UNL     1      -9.297   8.262  66.426  1.00  0.00    -0.274 C  
HETATM   21  C   UNL     1      -7.028   9.893  66.060  1.00  0.00    -0.104 C  
HETATM   22  C   UNL     1      -7.123  11.198  65.279  1.00  0.00     0.538 C  
HETATM   23  H   UNL     1      -9.321  11.508  66.986  1.00  0.00     0.000 HD 
HETATM   24  O   UNL     1      -5.250  10.246  62.332  1.00  0.00    -0.090 OA 
HETATM   25  C   UNL     1      -8.779   7.423  65.243  1.00  0.00     0.057 C  
HETATM   26  C   UNL     1      -6.471  11.327  64.094  1.00  0.00     1.511 C  
ENDROOT
BRANCH   4  27
HETATM   27  C   UNL     1     -12.058   9.525  69.430  1.00  0.00     0.893 C  
HETATM   28  O   UNL     1     -12.801  10.460  69.082  1.00  0.00     0.179 OA 
BRANCH  27  29
HETATM   29  C   UNL     1     -12.303   8.977  70.860  1.00  0.00    -0.113 C  
BRANCH  29  30
HETATM   30  O   UNL     1     -12.739   7.596  70.864  1.00  0.00    -0.169 OA 
BRANCH  30  31
HETATM   31  C   UNL     1     -12.735   6.997  72.083  1.00  0.00    -0.088 C  
HETATM   32  O   UNL     1     -13.340   7.399  73.061  1.00  0.00     1.095 OA 
BRANCH  31  33
HETATM   33  C   UNL     1     -11.862   5.784  72.123  1.00  0.00    -0.172 A  
HETATM   34  C   UNL     1     -10.291   3.450  72.311  1.00  0.00    -0.116 A  
HETATM   35  O   UNL     1      -7.503   3.951  70.964  1.00  0.00    -0.040 OA 
HETATM   36  C   UNL     1     -11.326   3.660  73.213  1.00  0.00    -0.160 A  
HETATM   37  C   UNL     1     -12.110   4.818  73.120  1.00  0.00     0.152 A  
HETATM   38  O   UNL     1      -9.081   2.662  69.540  1.00  0.00    -0.097 OA 
HETATM   39  O   UNL     1      -8.831   5.040  69.108  1.00  0.00    -0.090 OA 
HETATM   40  C   UNL     1     -10.817   5.570  71.209  1.00  0.00    -0.250 A  
HETATM   41  S   UNL     1      -8.715   4.092  70.185  1.00  0.00    -0.078 S  
HETATM   42  C   UNL     1     -10.043   4.399  71.330  1.00  0.00    -0.140 A  
ENDBRANCH  31  33
ENDBRANCH  30  31
ENDBRANCH  29  30
ENDBRANCH  27  29
ENDBRANCH   4  27
TORSDOF 5
ENDMDL
MODEL      227
REMARK 921   NORMALIZED FREE ENERGY PREDICTED BY IDOCK:   20.73 KCAL/MOL
REMARK 922        TOTAL FREE ENERGY PREDICTED BY IDOCK:   26.07 KCAL/MOL
REMARK 923 INTER-LIGAND FREE ENERGY PREDICTED BY IDOCK:    0.32 KCAL/MOL
REMARK 924 INTRA-LIGAND FREE ENERGY PREDICTED BY IDOCK:   25.75 KCAL/MOL
REMARK 927      BINDING AFFINITY PREDICTED BY RF-SCORE:    0.00 PKD
ROOT
HETATM    1  C   UNL     1     -11.396   8.611  68.170  1.00  0.00     0.798 C  
HETATM    2  C   UNL     1     -11.645   8.592  66.787  1.00  0.00     3.129 C  
HETATM    3  C   UNL     1     -10.321   7.997  67.178  1.00  0.00    -0.395 C  
HETATM    4  C   UNL     1     -10.009   7.619  69.195  1.00  0.00    -0.181 C  
HETATM    5  C   UNL     1      -9.961   7.232  65.705  1.00  0.00     0.833 C  
HETATM    6  O   UNL     1     -11.133   7.766  70.135  1.00  0.00    -0.278 OA 
HETATM    7  C   UNL     1      -9.141  13.858  66.859  1.00  0.00    -0.257 C  
HETATM    8  C   UNL     1     -10.371   6.938  68.082  1.00  0.00    -0.223 C  
HETATM    9  C   UNL     1      -8.339  14.595  67.901  1.00  0.00    -0.152 C  
HETATM   10  C   UNL     1      -9.454  12.674  67.419  1.00  0.00    -0.189 C  
HETATM   11  C   UNL     1     -11.222   5.667  67.964  1.00  0.00     0.493 C  
HETATM   12  H   UNL     1     -10.990   7.593  71.058  1.00  0.00     0.000 HD 
HETATM   13  C   UNL     1      -8.462   7.240  67.912  1.00  0.00    -0.118 C  
HETATM   14  C   UNL     1      -7.997   8.931  68.260  1.00  0.00    -0.105 C  
HETATM   15  C   UNL     1     -10.604  12.621  68.407  1.00  0.00    -0.258 C  
HETATM   16  C   UNL     1      -9.001  10.259  67.841  1.00  0.00    -0.131 C  
HETATM   17  C   UNL     1      -7.365  11.534  66.423  1.00  0.00     0.059 C  
HETATM   18  O   UNL     1      -7.689   8.950  69.671  1.00  0.00    -0.073 OA 
HETATM   19  F   UNL     1      -9.339  10.204  66.462  1.00  0.00    -0.167 F  
HETATM   20  C   UNL     1     -10.465  10.096  68.571  1.00  0.00    -0.221 C  
HETATM   21  C   UNL     1      -8.300  11.677  67.700  1.00  0.00    -0.142 C  
HETATM   22  C   UNL     1      -7.410  12.401  68.703  1.00  0.00    -0.102 C  
HETATM   23  H   UNL     1      -7.443   9.848  69.856  1.00  0.00     0.000 HD 
HETATM   24  O   UNL     1      -8.427  15.808  68.025  1.00  0.00    -0.158 OA 
HETATM   25  C   UNL     1     -11.363  11.311  68.270  1.00  0.00    -0.359 C  
HETATM   26  C   UNL     1      -7.404  13.758  68.746  1.00  0.00    -0.103 C  
ENDROOT
BRANCH   4  27
HETATM   27  C   UNL     1      -9.482   6.217  70.064  1.00  0.00    -0.155 C  
HETATM   28  O   UNL     1     -10.135   5.169  70.207  1.00  0.00    -0.226 OA 
BRANCH  27  29
HETATM   29  C   UNL     1      -8.054   6.199  70.670  1.00  0.00    -0.116 C  
BRANCH  29  30
HETATM   30  O   UNL     1      -7.230   5.137  70.131  1.00  0.00    -0.055 OA 
BRANCH  30  31
HETATM   31  C   UNL     1      -7.209   5.060  68.775  1.00  0.00    -0.058 C  
HETATM   32  O   UNL     1      -7.515   4.076  68.127  1.00  0.00    -0.065 OA 
BRANCH  31  33
HETATM   33  C   UNL     1      -6.724   6.322  68.135  1.00  0.00    -0.068 A  
HETATM   34  C   UNL     1      -5.714   8.713  67.036  1.00  0.00    -0.042 A  
HETATM   35  O   UNL     1      -7.900  10.037  65.217  1.00  0.00    -0.126 OA 
HETATM   36  C   UNL     1      -5.167   8.207  68.208  1.00  0.00    -0.033 A  
HETATM   37  C   UNL     1      -5.666   7.017  68.756  1.00  0.00    -0.018 A  
HETATM   38  O   UNL     1      -6.148   8.820  63.942  1.00  0.00    -0.071 OA 
HETATM   39  O   UNL     1      -8.270   7.702  64.323  1.00  0.00    -0.109 OA 
HETATM   40  C   UNL     1      -7.274   6.831  66.947  1.00  0.00    -0.081 A  
HETATM   41  S   UNL     1      -7.425   8.703  64.917  1.00  0.00    -0.097 S  
HETATM   42  C   UNL     1      -6.756   8.032  66.424  1.00  0.00    -0.058 A  
ENDBRANCH  31  33
ENDBRANCH  30  31
ENDBRANCH  29  30
ENDBRANCH  27  29
ENDBRANCH   4  27
TORSDOF 5
ENDMDL
MODEL      228
REMARK 921   NORMALIZED FREE ENERGY PREDICTED BY IDOCK:   20.80 KCAL/MOL
REMARK 922        TOTAL FREE ENERGY PREDICTED BY IDOCK:   26.17 KCAL/MOL
REMARK 923 INTER-LIGAND FREE ENERGY PREDICTED BY IDOCK:   17.56 KCAL/MOL
REMARK 924 INTRA-LIGAND FREE ENERGY PREDICTED BY IDOCK:    8.61 KCAL/MOL
REMARK 927      BINDING AFFINITY PREDICTED BY RF-SCORE:    0.00 PKD
ROOT
HETATM    1  C   UNL     1      -8.148  14.994  68.843  1.00  0.00    -0.176 C  
HETATM    2  C   UNL     1      -8.893  15.473  69.934  1.00  0.00     0.150 C  
HETATM    3  C   UNL     1      -9.634  14.491  69.070  1.00  0.00    -0.105 C  
HETATM    4  C   UNL     1      -8.527  13.433  67.671  1.00  0.00    -0.187 C  
HETATM    5  C   UNL     1     -10.922  14.170  70.129  1.00  0.00     0.151 C  
HETATM    6  O   UNL     1      -7.057  13.534  67.692  1.00  0.00    -0.145 OA 
HETATM    7  C   UNL     1     -10.475  19.702  66.242  1.00  0.00    -0.621 C  
HETATM    8  C   UNL     1      -9.035  13.244  68.911  1.00  0.00     0.276 C  
HETATM    9  C   UNL     1     -10.337  19.861  64.750  1.00  0.00     1.810 C  
HETATM   10  C   UNL     1      -9.917  18.509  66.529  1.00  0.00    -0.401 C  
HETATM   11  C   UNL     1      -8.538  12.313  70.025  1.00  0.00     3.304 C  
HETATM   12  H   UNL     1      -6.551  13.050  67.051  1.00  0.00     0.000 HD 
HETATM   13  C   UNL     1     -10.549  13.126  67.703  1.00  0.00    -0.235 C  
HETATM   14  C   UNL     1     -10.587  14.461  66.514  1.00  0.00    -0.296 C  
HETATM   15  C   UNL     1      -8.405  18.418  66.613  1.00  0.00    -0.280 C  
HETATM   16  C   UNL     1     -10.070  16.050  66.906  1.00  0.00    -0.265 C  
HETATM   17  C   UNL     1     -12.179  17.286  66.325  1.00  0.00     4.227 C  
HETATM   18  O   UNL     1      -9.866  13.959  65.367  1.00  0.00    -0.502 OA 
HETATM   19  F   UNL     1     -10.748  16.516  68.065  1.00  0.00    -0.292 F  
HETATM   20  C   UNL     1      -8.504  16.013  67.405  1.00  0.00    -0.187 C  
HETATM   21  C   UNL     1     -10.624  17.233  66.003  1.00  0.00    -0.217 C  
HETATM   22  C   UNL     1     -10.578  17.371  64.487  1.00  0.00     2.005 C  
HETATM   23  H   UNL     1      -9.887  14.669  64.735  1.00  0.00     0.000 HD 
HETATM   24  O   UNL     1     -10.137  20.956  64.246  1.00  0.00     1.828 OA 
HETATM   25  C   UNL     1      -7.991  17.436  67.696  1.00  0.00    -0.199 C  
HETATM   26  C   UNL     1     -10.496  18.604  63.921  1.00  0.00     9.295 C  
ENDROOT
BRANCH   4  27
HETATM   27  C   UNL     1      -8.391  11.745  67.306  1.00  0.00    -0.162 C  
HETATM   28  O   UNL     1      -7.364  11.175  66.898  1.00  0.00    -0.123 OA 
BRANCH  27  29
HETATM   29  C   UNL     1      -9.609  10.819  67.563  1.00  0.00    -0.158 C  
BRANCH  29  30
HETATM   30  O   UNL     1      -9.716   9.751  66.591  1.00  0.00    -0.178 OA 
BRANCH  30  31
HETATM   31  C   UNL     1      -8.674   8.880  66.579  1.00  0.00    -0.130 C  
HETATM   32  O   UNL     1      -8.499   8.010  65.746  1.00  0.00    -0.133 OA 
BRANCH  31  33
HETATM   33  C   UNL     1      -7.753   9.071  67.743  1.00  0.00    -0.097 A  
HETATM   34  C   UNL     1      -5.932   9.507  69.850  1.00  0.00    -0.036 A  
HETATM   35  O   UNL     1      -6.306   7.286  72.035  1.00  0.00    -0.043 OA 
HETATM   36  C   UNL     1      -5.662  10.019  68.588  1.00  0.00    -0.038 A  
HETATM   37  C   UNL     1      -6.568   9.807  67.539  1.00  0.00    -0.069 A  
HETATM   38  O   UNL     1      -7.366   9.456  72.627  1.00  0.00     0.155 OA 
HETATM   39  O   UNL     1      -8.781   7.698  71.729  1.00  0.00    -0.113 OA 
HETATM   40  C   UNL     1      -8.028   8.556  69.021  1.00  0.00    -0.113 A  
HETATM   41  S   UNL     1      -7.415   8.149  71.687  1.00  0.00    -0.093 S  
HETATM   42  C   UNL     1      -7.097   8.782  70.054  1.00  0.00    -0.047 A  
ENDBRANCH  31  33
ENDBRANCH  30  31
ENDBRANCH  29  30
ENDBRANCH  27  29
ENDBRANCH   4  27
TORSDOF 5
ENDMDL
MODEL      229
REMARK 921   NORMALIZED FREE ENERGY PREDICTED BY IDOCK:   21.34 KCAL/MOL
REMARK 922        TOTAL FREE ENERGY PREDICTED BY IDOCK:   26.86 KCAL/MOL
REMARK 923 INTER-LIGAND FREE ENERGY PREDICTED BY IDOCK:    9.02 KCAL/MOL
REMARK 924 INTRA-LIGAND FREE ENERGY PREDICTED BY IDOCK:   17.85 KCAL/MOL
REMARK 927      BINDING AFFINITY PREDICTED BY RF-SCORE:    0.00 PKD
ROOT
HETATM    1  C   UNL     1      -7.278   8.133  69.554  1.00  0.00    -0.073 C  
HETATM    2  C   UNL     1      -6.274   9.057  69.216  1.00  0.00    -0.041 C  
HETATM    3  C   UNL     1      -7.617   9.365  68.615  1.00  0.00    -0.080 C  
HETATM    4  C   UNL     1      -9.248   8.308  69.342  1.00  0.00    -0.155 C  
HETATM    5  C   UNL     1      -7.295  10.958  68.120  1.00  0.00    -0.089 C  
HETATM    6  O   UNL     1      -9.076   7.446  70.523  1.00  0.00    -0.155 OA 
HETATM    7  C   UNL     1      -5.265   5.437  64.756  1.00  0.00    -0.009 C  
HETATM    8  C   UNL     1      -8.668   9.519  69.515  1.00  0.00    -0.178 C  
HETATM    9  C   UNL     1      -6.042   4.280  64.182  1.00  0.00    -0.018 C  
HETATM   10  C   UNL     1      -6.004   5.888  65.789  1.00  0.00    -0.028 C  
HETATM   11  C   UNL     1      -8.699  10.435  70.746  1.00  0.00     1.858 C  
HETATM   12  H   UNL     1      -9.822   6.962  70.856  1.00  0.00     0.000 HD 
HETATM   13  C   UNL     1      -9.580   9.616  67.805  1.00  0.00    -0.161 C  
HETATM   14  C   UNL     1      -9.251   8.198  66.767  1.00  0.00    -0.164 C  
HETATM   15  C   UNL     1      -5.943   5.136  67.105  1.00  0.00    -0.026 C  
HETATM   16  C   UNL     1      -7.727   7.408  66.755  1.00  0.00    -0.109 C  
HETATM   17  C   UNL     1      -7.217   7.613  64.303  1.00  0.00    -0.079 C  
HETATM   18  O   UNL     1     -10.308   7.261  67.070  1.00  0.00    -0.251 OA 
HETATM   19  F   UNL     1      -6.689   8.346  66.505  1.00  0.00    -0.056 F  
HETATM   20  C   UNL     1      -7.368   6.879  68.269  1.00  0.00    -0.097 C  
HETATM   21  C   UNL     1      -7.372   6.545  65.470  1.00  0.00    -0.076 C  
HETATM   22  C   UNL     1      -8.184   5.433  64.819  1.00  0.00    -0.132 C  
HETATM   23  H   UNL     1     -10.133   6.508  66.519  1.00  0.00     0.000 HD 
HETATM   24  O   UNL     1      -5.472   3.303  63.720  1.00  0.00    -0.009 OA 
HETATM   25  C   UNL     1      -6.037   6.102  68.274  1.00  0.00    -0.021 C  
HETATM   26  C   UNL     1      -7.550   4.416  64.180  1.00  0.00    -0.071 C  
ENDROOT
BRANCH   4  27
HETATM   27  C   UNL     1     -10.798   8.796  69.941  1.00  0.00    -0.206 C  
HETATM   28  O   UNL     1     -10.996   9.671  70.802  1.00  0.00    -0.276 OA 
BRANCH  27  29
HETATM   29  C   UNL     1     -12.075   8.165  69.327  1.00  0.00     2.046 C  
BRANCH  29  30
HETATM   30  O   UNL     1     -11.780   7.202  68.286  1.00  0.00     0.626 OA 
BRANCH  30  31
HETATM   31  C   UNL     1     -11.628   5.923  68.715  1.00  0.00     0.874 C  
HETATM   32  O   UNL     1     -11.858   4.930  68.048  1.00  0.00     4.298 OA 
BRANCH  31  33
HETATM   33  C   UNL     1     -11.175   5.845  70.139  1.00  0.00    -0.338 A  
HETATM   34  C   UNL     1     -10.286   5.837  72.814  1.00  0.00    -0.221 A  
HETATM   35  O   UNL     1      -9.548   2.909  73.665  1.00  0.00    -0.093 OA 
HETATM   36  C   UNL     1     -10.208   7.004  72.064  1.00  0.00    -0.209 A  
HETATM   37  C   UNL     1     -10.652   7.011  70.735  1.00  0.00    -0.240 A  
HETATM   38  O   UNL     1     -11.764   3.661  74.502  1.00  0.00     0.913 OA 
HETATM   39  O   UNL     1     -11.706   2.257  72.521  1.00  0.00     0.700 OA 
HETATM   40  C   UNL     1     -11.257   4.666  70.898  1.00  0.00     1.532 A  
HETATM   41  S   UNL     1     -10.893   3.214  73.223  1.00  0.00    -0.156 S  
HETATM   42  C   UNL     1     -10.798   4.688  72.230  1.00  0.00    -0.015 A  
ENDBRANCH  31  33
ENDBRANCH  30  31
ENDBRANCH  29  30
ENDBRANCH  27  29
ENDBRANCH   4  27
TORSDOF 5
ENDMDL
MODEL      230
REMARK 921   NORMALIZED FREE ENERGY PREDICTED BY IDOCK:   31.34 KCAL/MOL
REMARK 922        TOTAL FREE ENERGY PREDICTED BY IDOCK:   39.79 KCAL/MOL
REMARK 923 INTER-LIGAND FREE ENERGY PREDICTED BY IDOCK:   16.96 KCAL/MOL
REMARK 924 INTRA-LIGAND FREE ENERGY PREDICTED BY IDOCK:   22.83 KCAL/MOL
REMARK 927      BINDING AFFINITY PREDICTED BY RF-SCORE:    0.00 PKD
ROOT
HETATM    1  C   UNL     1      -7.246  11.320  68.146  1.00  0.00    -0.081 C  
HETATM    2  C   UNL     1      -6.401  11.419  69.265  1.00  0.00    -0.084 C  
HETATM    3  C   UNL     1      -7.118  10.102  69.153  1.00  0.00    -0.073 C  
HETATM    4  C   UNL     1      -8.083   9.695  67.362  1.00  0.00    -0.110 C  
HETATM    5  C   UNL     1      -6.201   9.236  70.290  1.00  0.00    -0.048 C  
HETATM    6  O   UNL     1      -7.884  10.601  66.217  1.00  0.00    -0.138 OA 
HETATM    7  C   UNL     1     -11.121  13.607  71.901  1.00  0.00     3.743 C  
HETATM    8  C   UNL     1      -6.913   9.393  67.972  1.00  0.00    -0.079 C  
HETATM    9  C   UNL     1     -12.578  13.650  71.518  1.00  0.00    -0.295 C  
HETATM   10  C   UNL     1     -10.503  12.969  70.888  1.00  0.00     4.757 C  
HETATM   11  C   UNL     1      -5.563   9.027  67.341  1.00  0.00    -0.042 C  
HETATM   12  H   UNL     1      -8.326  10.415  65.398  1.00  0.00     0.000 HD 
HETATM   13  C   UNL     1      -8.261   8.318  68.864  1.00  0.00    -0.116 C  
HETATM   14  C   UNL     1      -9.710   9.264  69.313  1.00  0.00    -0.169 C  
HETATM   15  C   UNL     1     -10.195  13.747  69.623  1.00  0.00     0.593 C  
HETATM   16  C   UNL     1      -9.614  10.903  69.815  1.00  0.00     0.475 C  
HETATM   17  C   UNL     1     -10.737  10.678  72.051  1.00  0.00     4.623 C  
HETATM   18  O   UNL     1     -10.608   9.127  68.189  1.00  0.00    -0.272 OA 
HETATM   19  F   UNL     1      -8.691  11.035  70.888  1.00  0.00     2.353 F  
HETATM   20  C   UNL     1      -8.909  11.801  68.632  1.00  0.00    -0.062 C  
HETATM   21  C   UNL     1     -10.823  11.467  70.674  1.00  0.00     1.659 C  
HETATM   22  C   UNL     1     -12.312  11.440  70.350  1.00  0.00    -0.404 C  
HETATM   23  H   UNL     1     -11.377   9.629  68.428  1.00  0.00     0.000 HD 
HETATM   24  O   UNL     1     -13.280  14.607  71.809  1.00  0.00    -0.315 OA 
HETATM   25  C   UNL     1      -8.875  13.290  69.025  1.00  0.00     0.444 C  
HETATM   26  C   UNL     1     -13.120  12.436  70.795  1.00  0.00     0.187 C  
ENDROOT
BRANCH   4  27
HETATM   27  C   UNL     1      -8.042   8.342  66.281  1.00  0.00    -0.105 C  
HETATM   28  O   UNL     1      -8.001   8.411  65.040  1.00  0.00    -0.122 OA 
BRANCH  27  29
HETATM   29  C   UNL     1      -7.977   6.909  66.871  1.00  0.00    -0.109 C  
BRANCH  29  30
HETATM   30  O   UNL     1      -9.216   6.178  66.705  1.00  0.00    -0.136 OA 
BRANCH  30  31
HETATM   31  C   UNL     1      -9.747   5.682  67.852  1.00  0.00    -0.125 C  
HETATM   32  O   UNL     1      -9.597   4.544  68.257  1.00  0.00    -0.142 OA 
BRANCH  31  33
HETATM   33  C   UNL     1     -10.592   6.685  68.573  1.00  0.00    -0.276 A  
HETATM   34  C   UNL     1     -12.178   8.657  69.814  1.00  0.00     1.265 A  
HETATM   35  O   UNL     1     -11.966   8.365  72.931  1.00  0.00    -0.289 OA 
HETATM   36  C   UNL     1     -11.718   8.856  68.519  1.00  0.00     1.518 A  
HETATM   37  C   UNL     1     -10.931   7.876  67.899  1.00  0.00     0.069 A  
HETATM   38  O   UNL     1     -14.057   7.414  71.981  1.00  0.00    -0.282 OA 
HETATM   39  O   UNL     1     -12.242   5.888  72.506  1.00  0.00    -0.202 OA 
HETATM   40  C   UNL     1     -11.061   6.482  69.881  1.00  0.00    -0.430 A  
HETATM   41  S   UNL     1     -12.461   7.261  72.136  1.00  0.00    -0.105 S  
HETATM   42  C   UNL     1     -11.845   7.487  70.481  1.00  0.00    -0.117 A  
ENDBRANCH  31  33
ENDBRANCH  30  31
ENDBRANCH  29  30
ENDBRANCH  27  29
ENDBRANCH   4  27
TORSDOF 5
ENDMDL
MODEL      231
REMARK 921   NORMALIZED FREE ENERGY PREDICTED BY IDOCK:   59.24 KCAL/MOL
REMARK 922        TOTAL FREE ENERGY PREDICTED BY IDOCK:   75.84 KCAL/MOL
REMARK 923 INTER-LIGAND FREE ENERGY PREDICTED BY IDOCK:   40.40 KCAL/MOL
REMARK 924 INTRA-LIGAND FREE ENERGY PREDICTED BY IDOCK:   35.45 KCAL/MOL
REMARK 927      BINDING AFFINITY PREDICTED BY RF-SCORE:    0.00 PKD
ROOT
HETATM    1  C   UNL     1     -12.362   8.458  67.772  1.00  0.00     6.583 C  
HETATM    2  C   UNL     1     -12.921   8.265  66.497  1.00  0.00    16.075 C  
HETATM    3  C   UNL     1     -11.622   7.539  66.712  1.00  0.00     2.168 C  
HETATM    4  C   UNL     1     -10.905   7.433  68.656  1.00  0.00    -0.034 C  
HETATM    5  C   UNL     1     -11.700   6.510  65.364  1.00  0.00     5.985 C  
HETATM    6  O   UNL     1     -11.759   7.896  69.763  1.00  0.00    -0.373 OA 
HETATM    7  C   UNL     1      -9.865  13.026  65.083  1.00  0.00    -0.078 C  
HETATM    8  C   UNL     1     -11.588   6.654  67.786  1.00  0.00     0.510 C  
HETATM    9  C   UNL     1      -8.766  13.782  65.785  1.00  0.00     1.249 C  
HETATM   10  C   UNL     1     -10.179  12.006  65.904  1.00  0.00    -0.263 C  
HETATM   11  C   UNL     1     -12.587   5.527  68.082  1.00  0.00     9.736 C  
HETATM   12  H   UNL     1     -11.430   7.847  70.653  1.00  0.00     0.000 HD 
HETATM   13  C   UNL     1      -9.747   6.625  67.177  1.00  0.00    -0.178 C  
HETATM   14  C   UNL     1      -9.019   8.257  67.104  1.00  0.00    -0.138 C  
HETATM   15  C   UNL     1     -11.071  12.285  67.098  1.00  0.00    -0.330 C  
HETATM   16  C   UNL     1      -9.928   9.645  66.662  1.00  0.00    -0.236 C  
HETATM   17  C   UNL     1      -8.521  10.415  64.729  1.00  0.00    -0.176 C  
HETATM   18  O   UNL     1      -8.397   8.445  68.394  1.00  0.00    -0.128 OA 
HETATM   19  F   UNL     1     -10.577   9.431  65.416  1.00  0.00    -0.016 F  
HETATM   20  C   UNL     1     -11.196   9.824  67.693  1.00  0.00     0.027 C  
HETATM   21  C   UNL     1      -9.117  10.897  66.122  1.00  0.00    -0.201 C  
HETATM   22  C   UNL     1      -7.943  11.620  66.770  1.00  0.00    -0.140 C  
HETATM   23  H   UNL     1      -8.011   9.312  68.356  1.00  0.00     0.000 HD 
HETATM   24  O   UNL     1      -8.680  14.998  65.699  1.00  0.00     0.474 OA 
HETATM   25  C   UNL     1     -11.989  11.103  67.364  1.00  0.00     0.413 C  
HETATM   26  C   UNL     1      -7.767  12.950  66.560  1.00  0.00     0.767 C  
ENDROOT
BRANCH   4  27
HETATM   27  C   UNL     1     -10.362   6.117  69.643  1.00  0.00    -0.218 C  
HETATM   28  O   UNL     1     -10.999   5.074  69.868  1.00  0.00     0.129 OA 
BRANCH  27  29
HETATM   29  C   UNL     1      -8.939   6.174  70.257  1.00  0.00    -0.153 C  
BRANCH  29  30
HETATM   30  O   UNL     1      -8.318   4.869  70.355  1.00  0.00    -0.088 OA 
BRANCH  30  31
HETATM   31  C   UNL     1      -8.523   4.055  69.288  1.00  0.00    -0.076 C  
HETATM   32  O   UNL     1      -8.763   2.864  69.353  1.00  0.00    -0.064 OA 
BRANCH  31  33
HETATM   33  C   UNL     1      -8.384   4.774  67.983  1.00  0.00    -0.102 A  
HETATM   34  C   UNL     1      -8.194   6.239  65.582  1.00  0.00    -0.143 A  
HETATM   35  O   UNL     1      -7.728   4.269  63.186  1.00  0.00    -0.063 OA 
HETATM   36  C   UNL     1      -8.860   6.784  66.672  1.00  0.00    -0.142 A  
HETATM   37  C   UNL     1      -8.953   6.059  67.868  1.00  0.00    -0.118 A  
HETATM   38  O   UNL     1      -5.661   5.422  63.943  1.00  0.00    -0.013 OA 
HETATM   39  O   UNL     1      -6.048   3.149  64.707  1.00  0.00    -0.021 OA 
HETATM   40  C   UNL     1      -7.707   4.225  66.882  1.00  0.00    -0.093 A  
HETATM   41  S   UNL     1      -6.779   4.312  64.278  1.00  0.00    -0.045 S  
HETATM   42  C   UNL     1      -7.634   4.975  65.691  1.00  0.00    -0.086 A  
ENDBRANCH  31  33
ENDBRANCH  30  31
ENDBRANCH  29  30
ENDBRANCH  27  29
ENDBRANCH   4  27
TORSDOF 5
ENDMDL
MODEL      232
REMARK 921   NORMALIZED FREE ENERGY PREDICTED BY IDOCK:   64.08 KCAL/MOL
REMARK 922        TOTAL FREE ENERGY PREDICTED BY IDOCK:   82.10 KCAL/MOL
REMARK 923 INTER-LIGAND FREE ENERGY PREDICTED BY IDOCK:   78.56 KCAL/MOL
REMARK 924 INTRA-LIGAND FREE ENERGY PREDICTED BY IDOCK:    3.55 KCAL/MOL
REMARK 927      BINDING AFFINITY PREDICTED BY RF-SCORE:    0.00 PKD
ROOT
HETATM    1  C   UNL     1     -10.492  18.597  70.195  1.00  0.00     1.504 C  
HETATM    2  C   UNL     1     -11.844  18.745  70.546  1.00  0.00     9.032 C  
HETATM    3  C   UNL     1     -11.477  17.357  70.100  1.00  0.00     1.934 C  
HETATM    4  C   UNL     1      -9.456  16.919  69.928  1.00  0.00     0.899 C  
HETATM    5  C   UNL     1     -12.875  16.557  70.639  1.00  0.00     2.457 C  
HETATM    6  O   UNL     1      -8.466  17.895  70.414  1.00  0.00     2.796 OA 
HETATM    7  C   UNL     1     -12.530  20.213  64.944  1.00  0.00     7.319 C  
HETATM    8  C   UNL     1     -10.458  16.735  70.818  1.00  0.00     1.099 C  
HETATM    9  C   UNL     1     -11.633  20.095  63.739  1.00  0.00     7.132 C  
HETATM   10  C   UNL     1     -11.821  19.703  65.970  1.00  0.00     2.271 C  
HETATM   11  C   UNL     1     -10.376  16.567  72.341  1.00  0.00     4.633 C  
HETATM   12  H   UNL     1      -7.541  17.695  70.335  1.00  0.00     0.000 HD 
HETATM   13  C   UNL     1     -10.787  15.462  69.391  1.00  0.00    -0.263 C  
HETATM   14  C   UNL     1     -10.663  16.201  67.767  1.00  0.00    -0.325 C  
HETATM   15  C   UNL     1     -10.760  20.572  66.619  1.00  0.00     0.390 C  
HETATM   16  C   UNL     1     -11.160  17.814  67.456  1.00  0.00     0.092 C  
HETATM   17  C   UNL     1     -12.818  17.349  65.626  1.00  0.00     8.787 C  
HETATM   18  O   UNL     1      -9.286  16.008  67.374  1.00  0.00    -0.205 OA 
HETATM   19  F   UNL     1     -12.499  18.008  67.891  1.00  0.00     2.057 F  
HETATM   20  C   UNL     1     -10.323  18.846  68.422  1.00  0.00    -0.361 C  
HETATM   21  C   UNL     1     -11.506  18.185  65.951  1.00  0.00     1.697 C  
HETATM   22  C   UNL     1     -10.652  17.990  64.705  1.00  0.00     2.531 C  
HETATM   23  H   UNL     1      -9.220  16.401  66.512  1.00  0.00     0.000 HD 
HETATM   24  O   UNL     1     -11.640  20.944  62.860  1.00  0.00     4.411 OA 
HETATM   25  C   UNL     1     -10.697  20.308  68.114  1.00  0.00    -0.026 C  
HETATM   26  C   UNL     1     -10.762  18.859  63.666  1.00  0.00    11.437 C  
ENDROOT
BRANCH   4  27
HETATM   27  C   UNL     1      -8.471  15.634  70.542  1.00  0.00     1.706 C  
HETATM   28  O   UNL     1      -7.812  15.670  71.596  1.00  0.00     3.971 OA 
BRANCH  27  29
HETATM   29  C   UNL     1      -8.437  14.282  69.781  1.00  0.00     0.841 C  
BRANCH  29  30
HETATM   30  O   UNL     1      -8.135  14.439  68.373  1.00  0.00    -0.130 OA 
BRANCH  30  31
HETATM   31  C   UNL     1      -7.541  13.366  67.791  1.00  0.00    -0.157 C  
HETATM   32  O   UNL     1      -6.654  13.423  66.959  1.00  0.00    -0.082 OA 
BRANCH  31  33
HETATM   33  C   UNL     1      -8.123  12.067  68.254  1.00  0.00    -0.155 A  
HETATM   34  C   UNL     1      -9.211   9.670  69.261  1.00  0.00    -0.186 A  
HETATM   35  O   UNL     1      -8.734   7.354  67.198  1.00  0.00    -0.119 OA 
HETATM   36  C   UNL     1      -8.859  10.689  70.136  1.00  0.00     0.894 A  
HETATM   37  C   UNL     1      -8.320  11.883  69.638  1.00  0.00     1.370 A  
HETATM   38  O   UNL     1     -11.044   8.273  67.149  1.00  0.00     0.009 OA 
HETATM   39  O   UNL     1      -9.473   9.034  65.460  1.00  0.00    -0.228 OA 
HETATM   40  C   UNL     1      -8.483  11.038  67.368  1.00  0.00    -0.132 A  
HETATM   41  S   UNL     1      -9.490   8.525  66.805  1.00  0.00    -0.213 S  
HETATM   42  C   UNL     1      -9.017   9.847  67.899  1.00  0.00    -0.128 A  
ENDBRANCH  31  33
ENDBRANCH  30  31
ENDBRANCH  29  30
ENDBRANCH  27  29
ENDBRANCH   4  27
TORSDOF 5
ENDMDL
MODEL      233
REMARK 921   NORMALIZED FREE ENERGY PREDICTED BY IDOCK:   67.59 KCAL/MOL
REMARK 922        TOTAL FREE ENERGY PREDICTED BY IDOCK:   86.64 KCAL/MOL
REMARK 923 INTER-LIGAND FREE ENERGY PREDICTED BY IDOCK:   82.12 KCAL/MOL
REMARK 924 INTRA-LIGAND FREE ENERGY PREDICTED BY IDOCK:    4.52 KCAL/MOL
REMARK 927      BINDING AFFINITY PREDICTED BY RF-SCORE:    0.00 PKD
ROOT
HETATM    1  C   UNL     1      -7.054  15.535  69.548  1.00  0.00    -0.195 C  
HETATM    2  C   UNL     1      -7.653  14.513  70.304  1.00  0.00     0.694 C  
HETATM    3  C   UNL     1      -8.120  14.571  68.876  1.00  0.00    -0.124 C  
HETATM    4  C   UNL     1      -7.040  15.771  67.572  1.00  0.00    -0.186 C  
HETATM    5  C   UNL     1      -8.888  13.057  68.817  1.00  0.00     0.174 C  
HETATM    6  O   UNL     1      -5.772  16.367  68.028  1.00  0.00    -0.099 OA 
HETATM    7  C   UNL     1     -11.601  18.601  71.612  1.00  0.00     6.444 C  
HETATM    8  C   UNL     1      -7.128  14.462  67.905  1.00  0.00    -0.169 C  
HETATM    9  C   UNL     1     -11.889  19.966  71.039  1.00  0.00    10.763 C  
HETATM   10  C   UNL     1     -10.564  18.124  70.897  1.00  0.00     2.405 C  
HETATM   11  C   UNL     1      -6.057  13.368  67.802  1.00  0.00    -0.152 C  
HETATM   12  H   UNL     1      -5.278  16.916  67.431  1.00  0.00     0.000 HD 
HETATM   13  C   UNL     1      -8.704  14.836  66.837  1.00  0.00    -0.264 C  
HETATM   14  C   UNL     1      -9.547  16.326  67.351  1.00  0.00    -0.230 C  
HETATM   15  C   UNL     1      -9.167  18.610  71.234  1.00  0.00     6.019 C  
HETATM   16  C   UNL     1      -9.631  16.808  68.997  1.00  0.00    -0.230 C  
HETATM   17  C   UNL     1     -12.130  16.942  69.222  1.00  0.00     1.666 C  
HETATM   18  O   UNL     1      -8.974  17.377  66.542  1.00  0.00    -0.246 OA 
HETATM   19  F   UNL     1     -10.149  15.751  69.792  1.00  0.00    -0.239 F  
HETATM   20  C   UNL     1      -8.111  16.988  69.597  1.00  0.00     0.736 C  
HETATM   21  C   UNL     1     -10.803  17.799  69.400  1.00  0.00     0.646 C  
HETATM   22  C   UNL     1     -11.170  19.140  68.776  1.00  0.00     1.652 C  
HETATM   23  H   UNL     1      -9.422  18.169  66.816  1.00  0.00     0.000 HD 
HETATM   24  O   UNL     1     -12.266  20.884  71.752  1.00  0.00    13.844 OA 
HETATM   25  C   UNL     1      -8.156  17.490  71.053  1.00  0.00     6.763 C  
HETATM   26  C   UNL     1     -11.721  20.116  69.543  1.00  0.00     4.544 C  
ENDROOT
BRANCH   4  27
HETATM   27  C   UNL     1      -6.331  15.484  66.018  1.00  0.00     4.280 C  
HETATM   28  O   UNL     1      -5.145  15.701  65.715  1.00  0.00     3.084 OA 
BRANCH  27  29
HETATM   29  C   UNL     1      -7.196  14.837  64.905  1.00  0.00    13.599 C  
BRANCH  29  30
HETATM   30  O   UNL     1      -8.309  14.075  65.431  1.00  0.00     2.522 OA 
BRANCH  30  31
HETATM   31  C   UNL     1      -8.731  13.055  64.641  1.00  0.00     2.928 C  
HETATM   32  O   UNL     1      -8.993  13.151  63.455  1.00  0.00     2.366 OA 
BRANCH  31  33
HETATM   33  C   UNL     1      -8.884  11.771  65.393  1.00  0.00     0.256 A  
HETATM   34  C   UNL     1      -9.313   9.360  66.789  1.00  0.00    -0.202 A  
HETATM   35  O   UNL     1      -6.925   8.848  68.758  1.00  0.00    -0.061 OA 
HETATM   36  C   UNL     1     -10.393  10.045  66.247  1.00  0.00    -0.235 A  
HETATM   37  C   UNL     1     -10.182  11.242  65.550  1.00  0.00    -0.312 A  
HETATM   38  O   UNL     1      -6.799   7.507  66.668  1.00  0.00    -0.062 OA 
HETATM   39  O   UNL     1      -5.454   9.525  66.816  1.00  0.00    -0.044 OA 
HETATM   40  C   UNL     1      -7.791  11.076  65.939  1.00  0.00    -0.034 A  
HETATM   41  S   UNL     1      -6.674   8.967  67.337  1.00  0.00    -0.070 S  
HETATM   42  C   UNL     1      -8.035   9.877  66.638  1.00  0.00    -0.113 A  
ENDBRANCH  31  33
ENDBRANCH  30  31
ENDBRANCH  29  30
ENDBRANCH  27  29
ENDBRANCH   4  27
TORSDOF 5
ENDMDL
MODEL      234
REMARK 921   NORMALIZED FREE ENERGY PREDICTED BY IDOCK:  100.82 KCAL/MOL
REMARK 922        TOTAL FREE ENERGY PREDICTED BY IDOCK:  129.59 KCAL/MOL
REMARK 923 INTER-LIGAND FREE ENERGY PREDICTED BY IDOCK:   83.39 KCAL/MOL
REMARK 924 INTRA-LIGAND FREE ENERGY PREDICTED BY IDOCK:   46.20 KCAL/MOL
REMARK 927      BINDING AFFINITY PREDICTED BY RF-SCORE:    0.00 PKD
ROOT
HETATM    1  C   UNL     1     -10.687  12.718  68.779  1.00  0.00    -0.246 C  
HETATM    2  C   UNL     1     -10.643  12.687  70.183  1.00  0.00     1.671 C  
HETATM    3  C   UNL     1     -12.034  12.678  69.614  1.00  0.00    -0.352 C  
HETATM    4  C   UNL     1     -12.224  12.335  67.576  1.00  0.00     0.331 C  
HETATM    5  C   UNL     1     -12.865  12.233  71.027  1.00  0.00    -0.251 C  
HETATM    6  O   UNL     1     -11.037  11.935  66.802  1.00  0.00    -0.276 OA 
HETATM    7  C   UNL     1     -10.645  18.501  69.725  1.00  0.00     1.194 C  
HETATM    8  C   UNL     1     -12.327  11.640  68.733  1.00  0.00     0.179 C  
HETATM    9  C   UNL     1     -10.922  19.436  68.576  1.00  0.00     0.707 C  
HETATM   10  C   UNL     1     -10.797  17.260  69.222  1.00  0.00     0.075 C  
HETATM   11  C   UNL     1     -12.118  10.139  68.977  1.00  0.00     0.410 C  
HETATM   12  H   UNL     1     -11.123  11.778  65.869  1.00  0.00     0.000 HD 
HETATM   13  C   UNL     1     -13.932  12.724  68.631  1.00  0.00     9.915 C  
HETATM   14  C   UNL     1     -13.588  14.427  68.210  1.00  0.00     5.802 C  
HETATM   15  C   UNL     1      -9.665  16.665  68.406  1.00  0.00    -0.243 C  
HETATM   16  C   UNL     1     -12.176  15.237  68.757  1.00  0.00    -0.049 C  
HETATM   17  C   UNL     1     -13.279  17.170  69.923  1.00  0.00     8.436 C  
HETATM   18  O   UNL     1     -13.681  14.481  66.770  1.00  0.00     2.218 OA 
HETATM   19  F   UNL     1     -12.067  15.135  70.170  1.00  0.00    -0.284 F  
HETATM   20  C   UNL     1     -10.842  14.427  68.241  1.00  0.00    -0.250 C  
HETATM   21  C   UNL     1     -12.220  16.823  68.789  1.00  0.00     1.491 C  
HETATM   22  C   UNL     1     -12.587  17.786  67.666  1.00  0.00     4.974 C  
HETATM   23  H   UNL     1     -13.498  15.386  66.546  1.00  0.00     0.000 HD 
HETATM   24  O   UNL     1     -10.313  20.489  68.457  1.00  0.00    -0.175 OA 
HETATM   25  C   UNL     1      -9.558  15.170  68.656  1.00  0.00    -0.213 C  
HETATM   26  C   UNL     1     -12.011  19.015  67.613  1.00  0.00     2.446 C  
ENDROOT
BRANCH   4  27
HETATM   27  C   UNL     1     -13.183  11.229  66.651  1.00  0.00     8.522 C  
HETATM   28  O   UNL     1     -14.190  11.529  65.986  1.00  0.00    10.578 OA 
BRANCH  27  29
HETATM   29  C   UNL     1     -12.743   9.744  66.558  1.00  0.00    11.382 C  
BRANCH  29  30
HETATM   30  O   UNL     1     -11.335   9.559  66.845  1.00  0.00     0.356 OA 
BRANCH  30  31
HETATM   31  C   UNL     1     -10.734  10.606  67.467  1.00  0.00    -0.272 C  
HETATM   32  O   UNL     1     -11.042  11.038  68.563  1.00  0.00    -0.203 OA 
BRANCH  31  33
HETATM   33  C   UNL     1      -9.650  11.220  66.639  1.00  0.00    -0.218 A  
HETATM   34  C   UNL     1      -7.597  12.252  65.007  1.00  0.00     3.783 A  
HETATM   35  O   UNL     1      -6.206  14.656  66.466  1.00  0.00     1.492 OA 
HETATM   36  C   UNL     1      -8.023  10.942  64.833  1.00  0.00     0.222 A  
HETATM   37  C   UNL     1      -9.046  10.427  65.641  1.00  0.00    -0.206 A  
HETATM   38  O   UNL     1      -7.823  15.356  64.713  1.00  0.00     6.151 OA 
HETATM   39  O   UNL     1      -8.556  15.400  67.029  1.00  0.00    -0.197 OA 
HETATM   40  C   UNL     1      -9.221  12.546  66.812  1.00  0.00    -0.217 A  
HETATM   41  S   UNL     1      -7.623  14.712  66.176  1.00  0.00     3.294 S  
HETATM   42  C   UNL     1      -8.187  13.034  65.988  1.00  0.00     1.414 A  
ENDBRANCH  31  33
ENDBRANCH  30  31
ENDBRANCH  29  30
ENDBRANCH  27  29
ENDBRANCH   4  27
TORSDOF 5
ENDMDL
