MODEL        1
REMARK 921   NORMALIZED FREE ENERGY PREDICTED BY IDOCK:   -6.66 KCAL/MOL
REMARK 922        TOTAL FREE ENERGY PREDICTED BY IDOCK:   -7.59 KCAL/MOL
REMARK 923 INTER-LIGAND FREE ENERGY PREDICTED BY IDOCK:   -7.43 KCAL/MOL
REMARK 924 INTRA-LIGAND FREE ENERGY PREDICTED BY IDOCK:   -0.16 KCAL/MOL
REMARK 927      BINDING AFFINITY PREDICTED BY RF-SCORE:    0.00 PKD
ROOT
HETATM    1  C   UNL     1      -9.839  19.691  68.445  1.00  0.00    -0.432 C  
HETATM    2  N   UNL     1     -10.631  18.857  67.539  1.00  0.00    -0.446 NA 
HETATM    3  C   UNL     1     -10.391  19.267  66.152  1.00  0.00    -0.494 C  
ENDROOT
BRANCH   2   4
HETATM    4  C   UNL     1     -10.318  17.424  67.689  1.00  0.00    -0.355 C  
BRANCH   4   5
HETATM    5  C   UNL     1     -10.640  16.841  69.072  1.00  0.00    -0.343 C  
HETATM    6  C   UNL     1     -11.786  15.798  69.076  1.00  0.00    -0.405 C  
HETATM    7  C   UNL     1     -11.421  14.548  68.279  1.00  0.00    -0.336 A  
HETATM    8  C   UNL     1     -12.225  15.478  70.507  1.00  0.00    -0.404 A  
HETATM    9  C   UNL     1     -10.345  13.732  68.660  1.00  0.00    -0.225 A  
HETATM   10  C   UNL     1     -13.529  15.055  70.754  1.00  0.00    -0.316 A  
HETATM   11  C   UNL     1     -13.929  14.828  72.070  1.00  0.00    -0.582 A  
HETATM   12  C   UNL     1      -9.971  12.636  67.879  1.00  0.00    -0.228 A  
HETATM   13  C   UNL     1     -13.018  15.021  73.101  1.00  0.00    -0.631 A  
HETATM   14  C   UNL     1     -10.679  12.340  66.718  1.00  0.00    -0.240 A  
HETATM   15  C   UNL     1     -11.735  15.418  72.773  1.00  0.00    -0.429 A  
HETATM   16  C   UNL     1     -11.764  13.125  66.335  1.00  0.00    -0.429 A  
HETATM   17 BR   UNL     1     -10.152  10.877  65.643  1.00  0.00    -0.332 Br 
HETATM   18  N   UNL     1     -11.320  15.642  71.507  1.00  0.00    -0.396 NA 
HETATM   19  C   UNL     1     -12.132  14.226  67.112  1.00  0.00    -0.412 A  
ENDBRANCH   4   5
ENDBRANCH   2   4
TORSDOF 2
ENDMDL
MODEL        2
REMARK 921   NORMALIZED FREE ENERGY PREDICTED BY IDOCK:   -6.43 KCAL/MOL
REMARK 922        TOTAL FREE ENERGY PREDICTED BY IDOCK:   -7.34 KCAL/MOL
REMARK 923 INTER-LIGAND FREE ENERGY PREDICTED BY IDOCK:   -6.94 KCAL/MOL
REMARK 924 INTRA-LIGAND FREE ENERGY PREDICTED BY IDOCK:   -0.41 KCAL/MOL
REMARK 927      BINDING AFFINITY PREDICTED BY RF-SCORE:    0.00 PKD
ROOT
HETATM    1  C   UNL     1     -12.357  14.201  65.920  1.00  0.00    -0.463 C  
HETATM    2  N   UNL     1     -10.972  13.758  66.083  1.00  0.00    -0.291 NA 
HETATM    3  C   UNL     1     -10.058  14.815  65.637  1.00  0.00    -0.366 C  
ENDROOT
BRANCH   2   4
HETATM    4  C   UNL     1     -10.665  13.402  67.480  1.00  0.00    -0.254 C  
BRANCH   4   5
HETATM    5  C   UNL     1     -11.619  14.008  68.519  1.00  0.00    -0.357 C  
HETATM    6  C   UNL     1     -10.921  14.845  69.620  1.00  0.00    -0.294 C  
HETATM    7  C   UNL     1     -10.243  16.086  69.046  1.00  0.00    -0.236 A  
HETATM    8  C   UNL     1     -11.895  15.174  70.753  1.00  0.00    -0.324 A  
HETATM    9  C   UNL     1     -10.986  17.091  68.409  1.00  0.00    -0.263 A  
HETATM   10  C   UNL     1     -11.412  15.389  72.042  1.00  0.00    -0.521 A  
HETATM   11  C   UNL     1     -12.320  15.627  73.073  1.00  0.00    -0.570 A  
HETATM   12  C   UNL     1     -10.347  18.185  67.819  1.00  0.00    -0.413 A  
HETATM   13  C   UNL     1     -13.680  15.651  72.791  1.00  0.00    -0.662 A  
HETATM   14  C   UNL     1      -8.960  18.286  67.874  1.00  0.00    -0.276 A  
HETATM   15  C   UNL     1     -14.078  15.453  71.482  1.00  0.00    -0.491 A  
HETATM   16  C   UNL     1      -8.206  17.311  68.522  1.00  0.00    -0.267 A  
HETATM   17 BR   UNL     1      -8.093  19.748  67.046  1.00  0.00    -0.345 Br 
HETATM   18  N   UNL     1     -13.222  15.224  70.464  1.00  0.00    -0.301 NA 
HETATM   19  C   UNL     1      -8.845  16.214  69.104  1.00  0.00    -0.239 A  
ENDBRANCH   4   5
ENDBRANCH   2   4
TORSDOF 2
ENDMDL
MODEL        3
REMARK 921   NORMALIZED FREE ENERGY PREDICTED BY IDOCK:   -6.30 KCAL/MOL
REMARK 922        TOTAL FREE ENERGY PREDICTED BY IDOCK:   -7.20 KCAL/MOL
REMARK 923 INTER-LIGAND FREE ENERGY PREDICTED BY IDOCK:   -6.86 KCAL/MOL
REMARK 924 INTRA-LIGAND FREE ENERGY PREDICTED BY IDOCK:   -0.34 KCAL/MOL
REMARK 927      BINDING AFFINITY PREDICTED BY RF-SCORE:    0.00 PKD
ROOT
HETATM    1  C   UNL     1     -10.041  14.001  65.809  1.00  0.00    -0.327 C  
HETATM    2  N   UNL     1     -11.333  13.634  66.391  1.00  0.00    -0.309 NA 
HETATM    3  C   UNL     1     -12.012  12.668  65.521  1.00  0.00    -0.456 C  
ENDROOT
BRANCH   2   4
HETATM    4  C   UNL     1     -11.189  13.060  67.742  1.00  0.00    -0.279 C  
BRANCH   4   5
HETATM    5  C   UNL     1     -12.020  13.760  68.826  1.00  0.00    -0.400 C  
HETATM    6  C   UNL     1     -11.187  14.590  69.835  1.00  0.00    -0.247 C  
HETATM    7  C   UNL     1     -10.485  15.766  69.162  1.00  0.00    -0.240 A  
HETATM    8  C   UNL     1     -12.046  15.019  71.026  1.00  0.00    -0.324 A  
HETATM    9  C   UNL     1     -11.216  16.792  68.544  1.00  0.00    -0.176 A  
HETATM   10  C   UNL     1     -11.451  15.249  72.264  1.00  0.00    -0.480 A  
HETATM   11  C   UNL     1     -12.258  15.579  73.352  1.00  0.00    -0.635 A  
HETATM   12  C   UNL     1     -10.562  17.822  67.863  1.00  0.00    -0.389 A  
HETATM   13  C   UNL     1     -13.632  15.678  73.176  1.00  0.00    -0.560 A  
HETATM   14  C   UNL     1      -9.171  17.840  67.806  1.00  0.00    -0.256 A  
HETATM   15  C   UNL     1     -14.144  15.459  71.911  1.00  0.00    -0.537 A  
HETATM   16  C   UNL     1      -8.427  16.842  68.432  1.00  0.00    -0.239 A  
HETATM   17 BR   UNL     1      -8.288  19.215  66.855  1.00  0.00    -0.315 Br 
HETATM   18  N   UNL     1     -13.387  15.141  70.839  1.00  0.00    -0.427 NA 
HETATM   19  C   UNL     1      -9.082  15.809  69.105  1.00  0.00    -0.262 A  
ENDBRANCH   4   5
ENDBRANCH   2   4
TORSDOF 2
ENDMDL
MODEL        4
REMARK 921   NORMALIZED FREE ENERGY PREDICTED BY IDOCK:   -6.23 KCAL/MOL
REMARK 922        TOTAL FREE ENERGY PREDICTED BY IDOCK:   -7.11 KCAL/MOL
REMARK 923 INTER-LIGAND FREE ENERGY PREDICTED BY IDOCK:   -6.94 KCAL/MOL
REMARK 924 INTRA-LIGAND FREE ENERGY PREDICTED BY IDOCK:   -0.18 KCAL/MOL
REMARK 927      BINDING AFFINITY PREDICTED BY RF-SCORE:    0.00 PKD
ROOT
HETATM    1  C   UNL     1     -13.663  14.184  72.083  1.00  0.00    -0.493 C  
HETATM    2  N   UNL     1     -13.294  15.599  72.160  1.00  0.00    -0.457 NA 
HETATM    3  C   UNL     1     -12.940  15.943  73.541  1.00  0.00    -0.594 C  
ENDROOT
BRANCH   2   4
HETATM    4  C   UNL     1     -12.166  15.927  71.269  1.00  0.00    -0.422 C  
BRANCH   4   5
HETATM    5  C   UNL     1     -11.810  14.828  70.257  1.00  0.00    -0.357 C  
HETATM    6  C   UNL     1     -11.652  15.327  68.799  1.00  0.00    -0.379 C  
HETATM    7  C   UNL     1     -10.477  16.290  68.652  1.00  0.00    -0.282 A  
HETATM    8  C   UNL     1     -11.575  14.149  67.827  1.00  0.00    -0.347 A  
HETATM    9  C   UNL     1      -9.161  15.877  68.914  1.00  0.00    -0.232 A  
HETATM   10  C   UNL     1     -11.995  14.309  66.508  1.00  0.00    -0.448 A  
HETATM   11  C   UNL     1     -11.975  13.207  65.653  1.00  0.00    -0.462 A  
HETATM   12  C   UNL     1      -8.103  16.787  68.852  1.00  0.00    -0.230 A  
HETATM   13  C   UNL     1     -11.531  11.982  66.132  1.00  0.00    -0.401 A  
HETATM   14  C   UNL     1      -8.352  18.115  68.514  1.00  0.00    -0.301 A  
HETATM   15  C   UNL     1     -11.108  11.909  67.446  1.00  0.00    -0.279 A  
HETATM   16  C   UNL     1      -9.647  18.539  68.229  1.00  0.00    -0.370 A  
HETATM   17 BR   UNL     1      -6.925  19.353  68.464  1.00  0.00    -0.346 Br 
HETATM   18  N   UNL     1     -11.113  12.959  68.295  1.00  0.00    -0.249 NA 
HETATM   19  C   UNL     1     -10.706  17.630  68.299  1.00  0.00    -0.285 A  
ENDBRANCH   4   5
ENDBRANCH   2   4
TORSDOF 2
ENDMDL
MODEL        5
REMARK 921   NORMALIZED FREE ENERGY PREDICTED BY IDOCK:   -5.90 KCAL/MOL
REMARK 922        TOTAL FREE ENERGY PREDICTED BY IDOCK:   -6.75 KCAL/MOL
REMARK 923 INTER-LIGAND FREE ENERGY PREDICTED BY IDOCK:   -6.58 KCAL/MOL
REMARK 924 INTRA-LIGAND FREE ENERGY PREDICTED BY IDOCK:   -0.17 KCAL/MOL
REMARK 927      BINDING AFFINITY PREDICTED BY RF-SCORE:    0.00 PKD
ROOT
HETATM    1  C   UNL     1     -11.553  15.095  64.504  1.00  0.00    -0.329 C  
HETATM    2  N   UNL     1     -12.397  13.902  64.426  1.00  0.00    -0.623 NA 
HETATM    3  C   UNL     1     -11.932  13.037  63.338  1.00  0.00    -0.520 C  
ENDROOT
BRANCH   2   4
HETATM    4  C   UNL     1     -12.400  13.142  65.690  1.00  0.00    -0.461 C  
BRANCH   4   5
HETATM    5  C   UNL     1     -12.041  13.968  66.933  1.00  0.00    -0.465 C  
HETATM    6  C   UNL     1     -12.026  13.161  68.255  1.00  0.00    -0.328 C  
HETATM    7  C   UNL     1     -10.938  12.090  68.257  1.00  0.00    -0.275 A  
HETATM    8  C   UNL     1     -11.936  14.096  69.462  1.00  0.00    -0.340 A  
HETATM    9  C   UNL     1      -9.581  12.435  68.164  1.00  0.00    -0.218 A  
HETATM   10  C   UNL     1     -12.462  13.698  70.690  1.00  0.00    -0.417 A  
HETATM   11  C   UNL     1     -12.425  14.588  71.763  1.00  0.00    -0.420 A  
HETATM   12  C   UNL     1      -8.598  11.445  68.087  1.00  0.00    -0.153 A  
HETATM   13  C   UNL     1     -11.860  15.845  71.585  1.00  0.00    -0.565 A  
HETATM   14  C   UNL     1      -8.966  10.102  68.115  1.00  0.00    -0.122 A  
HETATM   15  C   UNL     1     -11.338  16.156  70.344  1.00  0.00    -0.363 A  
HETATM   16  C   UNL     1     -10.306   9.740  68.229  1.00  0.00    -0.231 A  
HETATM   17 BR   UNL     1      -7.639   8.763  67.976  1.00  0.00    -0.098 Br 
HETATM   18  N   UNL     1     -11.357  15.313  69.289  1.00  0.00    -0.277 NA 
HETATM   19  C   UNL     1     -11.288  10.731  68.298  1.00  0.00    -0.376 A  
ENDBRANCH   4   5
ENDBRANCH   2   4
TORSDOF 2
ENDMDL
MODEL        6
REMARK 921   NORMALIZED FREE ENERGY PREDICTED BY IDOCK:   -5.89 KCAL/MOL
REMARK 922        TOTAL FREE ENERGY PREDICTED BY IDOCK:   -6.74 KCAL/MOL
REMARK 923 INTER-LIGAND FREE ENERGY PREDICTED BY IDOCK:   -6.52 KCAL/MOL
REMARK 924 INTRA-LIGAND FREE ENERGY PREDICTED BY IDOCK:   -0.22 KCAL/MOL
REMARK 927      BINDING AFFINITY PREDICTED BY RF-SCORE:    0.00 PKD
ROOT
HETATM    1  C   UNL     1     -10.306  12.569  63.956  1.00  0.00    -0.404 C  
HETATM    2  N   UNL     1     -11.601  13.091  63.516  1.00  0.00    -0.457 NA 
HETATM    3  C   UNL     1     -12.580  12.000  63.455  1.00  0.00    -0.507 C  
ENDROOT
BRANCH   2   4
HETATM    4  C   UNL     1     -12.104  14.151  64.409  1.00  0.00    -0.463 C  
BRANCH   4   5
HETATM    5  C   UNL     1     -11.025  15.108  64.936  1.00  0.00    -0.434 C  
HETATM    6  C   UNL     1     -11.140  15.435  66.445  1.00  0.00    -0.230 C  
HETATM    7  C   UNL     1     -10.921  14.198  67.313  1.00  0.00    -0.304 A  
HETATM    8  C   UNL     1     -10.214  16.592  66.823  1.00  0.00    -0.301 A  
HETATM    9  C   UNL     1      -9.698  13.511  67.304  1.00  0.00    -0.236 A  
HETATM   10  C   UNL     1     -10.533  17.412  67.904  1.00  0.00    -0.383 A  
HETATM   11  C   UNL     1      -9.710  18.499  68.195  1.00  0.00    -0.367 A  
HETATM   12  C   UNL     1      -9.535  12.336  68.041  1.00  0.00    -0.206 A  
HETATM   13  C   UNL     1      -8.590  18.735  67.408  1.00  0.00    -0.289 A  
HETATM   14  C   UNL     1     -10.591  11.847  68.805  1.00  0.00    -0.206 A  
HETATM   15  C   UNL     1      -8.327  17.862  66.369  1.00  0.00    -0.242 A  
HETATM   16  C   UNL     1     -11.806  12.527  68.846  1.00  0.00    -0.346 A  
HETATM   17 BR   UNL     1     -10.382  10.239  69.776  1.00  0.00    -0.268 Br 
HETATM   18  N   UNL     1      -9.105  16.800  66.066  1.00  0.00    -0.488 NA 
HETATM   19  C   UNL     1     -11.970  13.697  68.101  1.00  0.00    -0.390 A  
ENDBRANCH   4   5
ENDBRANCH   2   4
TORSDOF 2
ENDMDL
MODEL        7
REMARK 921   NORMALIZED FREE ENERGY PREDICTED BY IDOCK:   -5.89 KCAL/MOL
REMARK 922        TOTAL FREE ENERGY PREDICTED BY IDOCK:   -6.74 KCAL/MOL
REMARK 923 INTER-LIGAND FREE ENERGY PREDICTED BY IDOCK:   -6.43 KCAL/MOL
REMARK 924 INTRA-LIGAND FREE ENERGY PREDICTED BY IDOCK:   -0.31 KCAL/MOL
REMARK 927      BINDING AFFINITY PREDICTED BY RF-SCORE:    0.00 PKD
ROOT
HETATM    1  C   UNL     1      -9.726  11.253  68.250  1.00  0.00    -0.198 C  
HETATM    2  N   UNL     1      -9.557  12.703  68.139  1.00  0.00    -0.216 NA 
HETATM    3  C   UNL     1      -8.416  13.003  67.268  1.00  0.00    -0.199 C  
ENDROOT
BRANCH   2   4
HETATM    4  C   UNL     1     -10.765  13.363  67.609  1.00  0.00    -0.247 C  
BRANCH   4   5
HETATM    5  C   UNL     1     -11.676  13.981  68.678  1.00  0.00    -0.389 C  
HETATM    6  C   UNL     1     -10.930  14.804  69.759  1.00  0.00    -0.261 C  
HETATM    7  C   UNL     1     -10.249  16.035  69.167  1.00  0.00    -0.242 A  
HETATM    8  C   UNL     1     -11.863  15.145  70.922  1.00  0.00    -0.325 A  
HETATM    9  C   UNL     1     -10.996  17.054  68.555  1.00  0.00    -0.247 A  
HETATM   10  C   UNL     1     -11.337  15.349  72.196  1.00  0.00    -0.447 A  
HETATM   11  C   UNL     1     -12.208  15.599  73.256  1.00  0.00    -0.616 A  
HETATM   12  C   UNL     1     -10.358  18.138  67.948  1.00  0.00    -0.410 A  
HETATM   13  C   UNL     1     -13.575  15.647  73.016  1.00  0.00    -0.619 A  
HETATM   14  C   UNL     1      -8.968  18.217  67.960  1.00  0.00    -0.290 A  
HETATM   15  C   UNL     1     -14.017  15.459  71.720  1.00  0.00    -0.525 A  
HETATM   16  C   UNL     1      -8.210  17.228  68.581  1.00  0.00    -0.262 A  
HETATM   17 BR   UNL     1      -8.103  19.667  67.108  1.00  0.00    -0.329 Br 
HETATM   18  N   UNL     1     -13.197  15.219  70.675  1.00  0.00    -0.369 NA 
HETATM   19  C   UNL     1      -8.849  16.140  69.181  1.00  0.00    -0.239 A  
ENDBRANCH   4   5
ENDBRANCH   2   4
TORSDOF 2
ENDMDL
MODEL        8
REMARK 921   NORMALIZED FREE ENERGY PREDICTED BY IDOCK:   -5.87 KCAL/MOL
REMARK 922        TOTAL FREE ENERGY PREDICTED BY IDOCK:   -6.72 KCAL/MOL
REMARK 923 INTER-LIGAND FREE ENERGY PREDICTED BY IDOCK:   -6.55 KCAL/MOL
REMARK 924 INTRA-LIGAND FREE ENERGY PREDICTED BY IDOCK:   -0.17 KCAL/MOL
REMARK 927      BINDING AFFINITY PREDICTED BY RF-SCORE:    0.00 PKD
ROOT
HETATM    1  C   UNL     1     -12.100  15.953  71.804  1.00  0.00    -0.492 C  
HETATM    2  N   UNL     1     -11.581  15.017  70.806  1.00  0.00    -0.299 NA 
HETATM    3  C   UNL     1     -12.387  13.792  70.809  1.00  0.00    -0.379 C  
ENDROOT
BRANCH   2   4
HETATM    4  C   UNL     1     -11.577  15.598  69.451  1.00  0.00    -0.370 C  
BRANCH   4   5
HETATM    5  C   UNL     1     -11.413  14.577  68.317  1.00  0.00    -0.336 C  
HETATM    6  C   UNL     1     -11.401  15.193  66.896  1.00  0.00    -0.264 C  
HETATM    7  C   UNL     1     -10.196  16.104  66.682  1.00  0.00    -0.291 A  
HETATM    8  C   UNL     1     -11.514  14.102  65.829  1.00  0.00    -0.327 A  
HETATM    9  C   UNL     1      -8.886  15.604  66.743  1.00  0.00    -0.304 A  
HETATM   10  C   UNL     1     -12.078  14.399  64.590  1.00  0.00    -0.485 A  
HETATM   11  C   UNL     1     -12.229  13.377  63.653  1.00  0.00    -0.480 A  
HETATM   12  C   UNL     1      -7.789  16.460  66.623  1.00  0.00    -0.316 A  
HETATM   13  C   UNL     1     -11.806  12.093  63.972  1.00  0.00    -0.523 A  
HETATM   14  C   UNL     1      -7.995  17.824  66.428  1.00  0.00    -0.271 A  
HETATM   15  C   UNL     1     -11.233  11.884  65.213  1.00  0.00    -0.295 A  
HETATM   16  C   UNL     1      -9.287  18.337  66.342  1.00  0.00    -0.280 A  
HETATM   17 BR   UNL     1      -6.511  18.988  66.301  1.00  0.00    -0.231 Br 
HETATM   18  N   UNL     1     -11.072  12.854  66.138  1.00  0.00    -0.280 NA 
HETATM   19  C   UNL     1     -10.383  17.480  66.470  1.00  0.00    -0.325 A  
ENDBRANCH   4   5
ENDBRANCH   2   4
TORSDOF 2
ENDMDL
MODEL        9
REMARK 921   NORMALIZED FREE ENERGY PREDICTED BY IDOCK:   -5.81 KCAL/MOL
REMARK 922        TOTAL FREE ENERGY PREDICTED BY IDOCK:   -6.64 KCAL/MOL
REMARK 923 INTER-LIGAND FREE ENERGY PREDICTED BY IDOCK:   -6.49 KCAL/MOL
REMARK 924 INTRA-LIGAND FREE ENERGY PREDICTED BY IDOCK:   -0.15 KCAL/MOL
REMARK 927      BINDING AFFINITY PREDICTED BY RF-SCORE:    0.00 PKD
ROOT
HETATM    1  C   UNL     1     -14.211  15.169  71.515  1.00  0.00    -0.549 C  
HETATM    2  N   UNL     1     -13.034  14.303  71.615  1.00  0.00    -0.328 NA 
HETATM    3  C   UNL     1     -13.437  12.973  72.081  1.00  0.00    -0.542 C  
ENDROOT
BRANCH   2   4
HETATM    4  C   UNL     1     -12.328  14.179  70.327  1.00  0.00    -0.356 C  
BRANCH   4   5
HETATM    5  C   UNL     1     -11.674  15.475  69.828  1.00  0.00    -0.362 C  
HETATM    6  C   UNL     1     -10.345  15.268  69.060  1.00  0.00    -0.242 C  
HETATM    7  C   UNL     1     -10.553  14.495  67.761  1.00  0.00    -0.250 A  
HETATM    8  C   UNL     1      -9.627  16.602  68.845  1.00  0.00    -0.252 A  
HETATM    9  C   UNL     1     -11.354  15.009  66.730  1.00  0.00    -0.293 A  
HETATM   10  C   UNL     1      -8.240  16.631  68.717  1.00  0.00    -0.249 A  
HETATM   11  C   UNL     1      -7.598  17.862  68.583  1.00  0.00    -0.285 A  
HETATM   12  C   UNL     1     -11.602  14.259  65.578  1.00  0.00    -0.338 A  
HETATM   13  C   UNL     1      -8.355  19.026  68.573  1.00  0.00    -0.387 A  
HETATM   14  C   UNL     1     -11.038  12.993  65.443  1.00  0.00    -0.275 A  
HETATM   15  C   UNL     1      -9.729  18.913  68.681  1.00  0.00    -0.400 A  
HETATM   16  C   UNL     1     -10.222  12.474  66.445  1.00  0.00    -0.260 A  
HETATM   17 BR   UNL     1     -11.401  11.964  63.899  1.00  0.00    -0.531 Br 
HETATM   18  N   UNL     1     -10.377  17.735  68.808  1.00  0.00    -0.362 NA 
HETATM   19  C   UNL     1      -9.982  13.222  67.600  1.00  0.00    -0.229 A  
ENDBRANCH   4   5
ENDBRANCH   2   4
TORSDOF 2
ENDMDL
MODEL       10
REMARK 921   NORMALIZED FREE ENERGY PREDICTED BY IDOCK:   -5.77 KCAL/MOL
REMARK 922        TOTAL FREE ENERGY PREDICTED BY IDOCK:   -6.61 KCAL/MOL
REMARK 923 INTER-LIGAND FREE ENERGY PREDICTED BY IDOCK:   -6.24 KCAL/MOL
REMARK 924 INTRA-LIGAND FREE ENERGY PREDICTED BY IDOCK:   -0.37 KCAL/MOL
REMARK 927      BINDING AFFINITY PREDICTED BY RF-SCORE:    0.00 PKD
ROOT
HETATM    1  C   UNL     1     -10.132  18.779  68.329  1.00  0.00    -0.383 C  
HETATM    2  N   UNL     1     -10.415  18.712  66.895  1.00  0.00    -0.392 NA 
HETATM    3  C   UNL     1     -10.220  20.035  66.290  1.00  0.00    -0.478 C  
ENDROOT
BRANCH   2   4
HETATM    4  C   UNL     1      -9.560  17.728  66.207  1.00  0.00    -0.243 C  
BRANCH   4   5
HETATM    5  C   UNL     1     -10.309  16.510  65.648  1.00  0.00    -0.342 C  
HETATM    6  C   UNL     1      -9.976  15.173  66.356  1.00  0.00    -0.288 C  
HETATM    7  C   UNL     1     -10.417  15.178  67.817  1.00  0.00    -0.247 A  
HETATM    8  C   UNL     1     -10.541  13.987  65.572  1.00  0.00    -0.318 A  
HETATM    9  C   UNL     1     -11.770  15.310  68.167  1.00  0.00    -0.297 A  
HETATM   10  C   UNL     1      -9.927  12.740  65.662  1.00  0.00    -0.249 A  
HETATM   11  C   UNL     1     -10.419  11.686  64.893  1.00  0.00    -0.339 A  
HETATM   12  C   UNL     1     -12.155  15.391  69.507  1.00  0.00    -0.332 A  
HETATM   13  C   UNL     1     -11.511  11.902  64.062  1.00  0.00    -0.480 A  
HETATM   14  C   UNL     1     -11.189  15.328  70.509  1.00  0.00    -0.310 A  
HETATM   15  C   UNL     1     -12.080  13.161  64.047  1.00  0.00    -0.446 A  
HETATM   16  C   UNL     1      -9.844  15.175  70.182  1.00  0.00     0.092 A  
HETATM   17 BR   UNL     1     -11.706  15.473  72.321  1.00  0.00    -0.595 Br 
HETATM   18  N   UNL     1     -11.627  14.198  64.783  1.00  0.00    -0.376 NA 
HETATM   19  C   UNL     1      -9.460  15.101  68.841  1.00  0.00    -0.213 A  
ENDBRANCH   4   5
ENDBRANCH   2   4
TORSDOF 2
ENDMDL
MODEL       11
REMARK 921   NORMALIZED FREE ENERGY PREDICTED BY IDOCK:   -5.69 KCAL/MOL
REMARK 922        TOTAL FREE ENERGY PREDICTED BY IDOCK:   -6.52 KCAL/MOL
REMARK 923 INTER-LIGAND FREE ENERGY PREDICTED BY IDOCK:   -6.36 KCAL/MOL
REMARK 924 INTRA-LIGAND FREE ENERGY PREDICTED BY IDOCK:   -0.16 KCAL/MOL
REMARK 927      BINDING AFFINITY PREDICTED BY RF-SCORE:    0.00 PKD
ROOT
HETATM    1  C   UNL     1     -12.719  11.790  71.245  1.00  0.00    -0.316 C  
HETATM    2  N   UNL     1     -13.128  13.193  71.181  1.00  0.00    -0.188 NA 
HETATM    3  C   UNL     1     -13.199  13.751  72.535  1.00  0.00    -0.498 C  
ENDROOT
BRANCH   2   4
HETATM    4  C   UNL     1     -12.204  14.003  70.364  1.00  0.00    -0.363 C  
BRANCH   4   5
HETATM    5  C   UNL     1     -11.814  13.369  69.022  1.00  0.00    -0.378 C  
HETATM    6  C   UNL     1     -11.810  14.353  67.826  1.00  0.00    -0.402 C  
HETATM    7  C   UNL     1     -10.750  15.439  67.986  1.00  0.00    -0.279 A  
HETATM    8  C   UNL     1     -11.686  13.597  66.501  1.00  0.00    -0.382 A  
HETATM    9  C   UNL     1      -9.385  15.119  68.045  1.00  0.00    -0.187 A  
HETATM   10  C   UNL     1     -12.213  14.150  65.335  1.00  0.00    -0.441 A  
HETATM   11  C   UNL     1     -12.145  13.420  64.150  1.00  0.00    -0.491 A  
HETATM   12  C   UNL     1      -8.430  16.113  68.271  1.00  0.00    -0.180 A  
HETATM   13  C   UNL     1     -11.548  12.165  64.156  1.00  0.00    -0.467 A  
HETATM   14  C   UNL     1      -8.832  17.437  68.427  1.00  0.00    -0.271 A  
HETATM   15  C   UNL     1     -11.027  11.697  65.347  1.00  0.00    -0.270 A  
HETATM   16  C   UNL     1     -10.181  17.777  68.349  1.00  0.00    -0.384 A  
HETATM   17 BR   UNL     1      -7.542  18.776  68.766  1.00  0.00    -0.321 Br 
HETATM   18  N   UNL     1     -11.076  12.383  66.509  1.00  0.00    -0.286 NA 
HETATM   19  C   UNL     1     -11.136  16.782  68.131  1.00  0.00    -0.254 A  
ENDBRANCH   4   5
ENDBRANCH   2   4
TORSDOF 2
ENDMDL
MODEL       12
REMARK 921   NORMALIZED FREE ENERGY PREDICTED BY IDOCK:   -5.65 KCAL/MOL
REMARK 922        TOTAL FREE ENERGY PREDICTED BY IDOCK:   -6.47 KCAL/MOL
REMARK 923 INTER-LIGAND FREE ENERGY PREDICTED BY IDOCK:   -6.27 KCAL/MOL
REMARK 924 INTRA-LIGAND FREE ENERGY PREDICTED BY IDOCK:   -0.20 KCAL/MOL
REMARK 927      BINDING AFFINITY PREDICTED BY RF-SCORE:    0.00 PKD
ROOT
HETATM    1  C   UNL     1     -11.566  15.541  64.247  1.00  0.00    -0.194 C  
HETATM    2  N   UNL     1     -12.446  14.418  64.574  1.00  0.00    -0.660 NA 
HETATM    3  C   UNL     1     -11.964  13.202  63.911  1.00  0.00    -0.488 C  
ENDROOT
BRANCH   2   4
HETATM    4  C   UNL     1     -12.529  14.184  66.028  1.00  0.00    -0.425 C  
BRANCH   4   5
HETATM    5  C   UNL     1     -11.985  12.825  66.489  1.00  0.00    -0.428 C  
HETATM    6  C   UNL     1     -10.747  12.911  67.415  1.00  0.00    -0.252 C  
HETATM    7  C   UNL     1     -11.075  13.591  68.742  1.00  0.00    -0.298 A  
HETATM    8  C   UNL     1     -10.108  11.533  67.599  1.00  0.00    -0.184 A  
HETATM    9  C   UNL     1     -12.009  13.036  69.631  1.00  0.00    -0.367 A  
HETATM   10  C   UNL     1      -8.747  11.431  67.880  1.00  0.00    -0.145 A  
HETATM   11  C   UNL     1      -8.171  10.165  67.983  1.00  0.00    -0.113 A  
HETATM   12  C   UNL     1     -12.360  13.705  70.806  1.00  0.00    -0.446 A  
HETATM   13  C   UNL     1      -8.966   9.039  67.813  1.00  0.00    -0.132 A  
HETATM   14  C   UNL     1     -11.769  14.930  71.106  1.00  0.00    -0.327 A  
HETATM   15  C   UNL     1     -10.313   9.224  67.562  1.00  0.00    -0.262 A  
HETATM   16  C   UNL     1     -10.824  15.487  70.247  1.00  0.00    -0.358 A  
HETATM   17 BR   UNL     1     -12.270  15.853  72.678  1.00  0.00    -0.653 Br 
HETATM   18  N   UNL     1     -10.898  10.436  67.459  1.00  0.00    -0.291 NA 
HETATM   19  C   UNL     1     -10.480  14.820  69.069  1.00  0.00    -0.249 A  
ENDBRANCH   4   5
ENDBRANCH   2   4
TORSDOF 2
ENDMDL
MODEL       13
REMARK 921   NORMALIZED FREE ENERGY PREDICTED BY IDOCK:   -5.64 KCAL/MOL
REMARK 922        TOTAL FREE ENERGY PREDICTED BY IDOCK:   -6.46 KCAL/MOL
REMARK 923 INTER-LIGAND FREE ENERGY PREDICTED BY IDOCK:   -6.24 KCAL/MOL
REMARK 924 INTRA-LIGAND FREE ENERGY PREDICTED BY IDOCK:   -0.23 KCAL/MOL
REMARK 927      BINDING AFFINITY PREDICTED BY RF-SCORE:    0.00 PKD
ROOT
HETATM    1  C   UNL     1     -10.353  17.126  68.801  1.00  0.00    -0.353 C  
HETATM    2  N   UNL     1     -10.315  15.863  69.539  1.00  0.00    -0.257 NA 
HETATM    3  C   UNL     1     -11.672  15.491  69.953  1.00  0.00    -0.352 C  
ENDROOT
BRANCH   2   4
HETATM    4  C   UNL     1      -9.729  14.772  68.740  1.00  0.00    -0.222 C  
BRANCH   4   5
HETATM    5  C   UNL     1     -10.617  14.272  67.592  1.00  0.00    -0.253 C  
HETATM    6  C   UNL     1     -10.306  12.829  67.123  1.00  0.00    -0.237 C  
HETATM    7  C   UNL     1     -10.589  11.802  68.216  1.00  0.00    -0.236 A  
HETATM    8  C   UNL     1     -11.033  12.514  65.814  1.00  0.00    -0.292 A  
HETATM    9  C   UNL     1     -11.885  11.621  68.725  1.00  0.00    -0.387 A  
HETATM   10  C   UNL     1     -10.503  11.572  64.935  1.00  0.00    -0.345 A  
HETATM   11  C   UNL     1     -11.146  11.343  63.719  1.00  0.00    -0.417 A  
HETATM   12  C   UNL     1     -12.119  10.735  69.779  1.00  0.00    -0.389 A  
HETATM   13  C   UNL     1     -12.302  12.051  63.417  1.00  0.00    -0.635 A  
HETATM   14  C   UNL     1     -11.060  10.014  70.325  1.00  0.00    -0.318 A  
HETATM   15  C   UNL     1     -12.780  12.950  64.352  1.00  0.00    -0.245 A  
HETATM   16  C   UNL     1      -9.771  10.163  69.819  1.00  0.00    -0.232 A  
HETATM   17 BR   UNL     1     -11.371   8.841  71.774  1.00  0.00    -0.433 Br 
HETATM   18  N   UNL     1     -12.179  13.190  65.538  1.00  0.00    -0.437 NA 
HETATM   19  C   UNL     1      -9.537  11.055  68.769  1.00  0.00    -0.194 A  
ENDBRANCH   4   5
ENDBRANCH   2   4
TORSDOF 2
ENDMDL
MODEL       14
REMARK 921   NORMALIZED FREE ENERGY PREDICTED BY IDOCK:   -5.63 KCAL/MOL
REMARK 922        TOTAL FREE ENERGY PREDICTED BY IDOCK:   -6.45 KCAL/MOL
REMARK 923 INTER-LIGAND FREE ENERGY PREDICTED BY IDOCK:   -6.24 KCAL/MOL
REMARK 924 INTRA-LIGAND FREE ENERGY PREDICTED BY IDOCK:   -0.20 KCAL/MOL
REMARK 927      BINDING AFFINITY PREDICTED BY RF-SCORE:    0.00 PKD
ROOT
HETATM    1  C   UNL     1     -12.077  15.056  64.099  1.00  0.00    -0.223 C  
HETATM    2  N   UNL     1     -12.646  13.717  64.260  1.00  0.00    -0.677 NA 
HETATM    3  C   UNL     1     -11.959  12.778  63.368  1.00  0.00    -0.535 C  
ENDROOT
BRANCH   2   4
HETATM    4  C   UNL     1     -12.546  13.236  65.650  1.00  0.00    -0.406 C  
BRANCH   4   5
HETATM    5  C   UNL     1     -11.159  12.714  66.048  1.00  0.00    -0.321 C  
HETATM    6  C   UNL     1     -10.408  13.605  67.069  1.00  0.00    -0.260 C  
HETATM    7  C   UNL     1     -11.127  13.659  68.414  1.00  0.00    -0.289 A  
HETATM    8  C   UNL     1      -8.946  13.172  67.197  1.00  0.00    -0.228 A  
HETATM    9  C   UNL     1     -11.310  12.502  69.187  1.00  0.00    -0.331 A  
HETATM   10  C   UNL     1      -7.977  14.101  67.570  1.00  0.00    -0.202 A  
HETATM   11  C   UNL     1      -6.642  13.702  67.622  1.00  0.00    -0.176 A  
HETATM   12  C   UNL     1     -12.038  12.549  70.378  1.00  0.00    -0.380 A  
HETATM   13  C   UNL     1      -6.311  12.390  67.310  1.00  0.00    -0.142 A  
HETATM   14  C   UNL     1     -12.577  13.758  70.812  1.00  0.00    -0.340 A  
HETATM   15  C   UNL     1      -7.332  11.521  66.973  1.00  0.00    -0.145 A  
HETATM   16  C   UNL     1     -12.386  14.921  70.071  1.00  0.00    -0.358 A  
HETATM   17 BR   UNL     1     -13.590  13.814  72.407  1.00  0.00    -0.709 Br 
HETATM   18  N   UNL     1      -8.633  11.879  66.917  1.00  0.00    -0.182 NA 
HETATM   19  C   UNL     1     -11.665  14.872  68.875  1.00  0.00    -0.343 A  
ENDBRANCH   4   5
ENDBRANCH   2   4
TORSDOF 2
ENDMDL
MODEL       15
REMARK 921   NORMALIZED FREE ENERGY PREDICTED BY IDOCK:   -5.62 KCAL/MOL
REMARK 922        TOTAL FREE ENERGY PREDICTED BY IDOCK:   -6.44 KCAL/MOL
REMARK 923 INTER-LIGAND FREE ENERGY PREDICTED BY IDOCK:   -6.33 KCAL/MOL
REMARK 924 INTRA-LIGAND FREE ENERGY PREDICTED BY IDOCK:   -0.11 KCAL/MOL
REMARK 927      BINDING AFFINITY PREDICTED BY RF-SCORE:    0.00 PKD
ROOT
HETATM    1  C   UNL     1     -10.408  12.178  63.462  1.00  0.00    -0.441 C  
HETATM    2  N   UNL     1     -11.711  12.844  63.438  1.00  0.00    -0.515 NA 
HETATM    3  C   UNL     1     -12.777  11.842  63.331  1.00  0.00    -0.366 C  
ENDROOT
BRANCH   2   4
HETATM    4  C   UNL     1     -11.933  13.670  64.639  1.00  0.00    -0.407 C  
BRANCH   4   5
HETATM    5  C   UNL     1     -11.988  12.883  65.955  1.00  0.00    -0.505 C  
HETATM    6  C   UNL     1     -10.707  12.990  66.820  1.00  0.00    -0.273 C  
HETATM    7  C   UNL     1     -10.468  14.415  67.309  1.00  0.00    -0.269 A  
HETATM    8  C   UNL     1     -10.734  11.970  67.960  1.00  0.00    -0.212 A  
HETATM    9  C   UNL     1     -11.388  15.057  68.154  1.00  0.00    -0.343 A  
HETATM   10  C   UNL     1      -9.538  11.488  68.487  1.00  0.00    -0.180 A  
HETATM   11  C   UNL     1      -9.582  10.513  69.484  1.00  0.00    -0.125 A  
HETATM   12  C   UNL     1     -11.199  16.388  68.532  1.00  0.00    -0.334 A  
HETATM   13  C   UNL     1     -10.814  10.053  69.932  1.00  0.00    -0.328 A  
HETATM   14  C   UNL     1     -10.081  17.084  68.079  1.00  0.00    -0.305 A  
HETATM   15  C   UNL     1     -11.956  10.599  69.376  1.00  0.00    -0.226 A  
HETATM   16  C   UNL     1      -9.145  16.458  67.259  1.00  0.00    -0.211 A  
HETATM   17 BR   UNL     1      -9.843  18.896  68.563  1.00  0.00    -0.477 Br 
HETATM   18  N   UNL     1     -11.943  11.546  68.413  1.00  0.00    -0.562 NA 
HETATM   19  C   UNL     1      -9.340  15.129  66.875  1.00  0.00    -0.251 A  
ENDBRANCH   4   5
ENDBRANCH   2   4
TORSDOF 2
ENDMDL
MODEL       16
REMARK 921   NORMALIZED FREE ENERGY PREDICTED BY IDOCK:   -5.54 KCAL/MOL
REMARK 922        TOTAL FREE ENERGY PREDICTED BY IDOCK:   -6.35 KCAL/MOL
REMARK 923 INTER-LIGAND FREE ENERGY PREDICTED BY IDOCK:   -6.13 KCAL/MOL
REMARK 924 INTRA-LIGAND FREE ENERGY PREDICTED BY IDOCK:   -0.22 KCAL/MOL
REMARK 927      BINDING AFFINITY PREDICTED BY RF-SCORE:    0.00 PKD
ROOT
HETATM    1  C   UNL     1      -8.676  16.867  68.656  1.00  0.00    -0.267 C  
HETATM    2  N   UNL     1      -8.942  15.650  69.424  1.00  0.00    -0.265 NA 
HETATM    3  C   UNL     1     -10.325  15.666  69.913  1.00  0.00    -0.315 C  
ENDROOT
BRANCH   2   4
HETATM    4  C   UNL     1      -8.717  14.431  68.626  1.00  0.00    -0.164 C  
BRANCH   4   5
HETATM    5  C   UNL     1      -9.739  14.204  67.504  1.00  0.00    -0.234 C  
HETATM    6  C   UNL     1      -9.838  12.738  67.014  1.00  0.00    -0.231 C  
HETATM    7  C   UNL     1     -10.352  11.806  68.108  1.00  0.00    -0.213 A  
HETATM    8  C   UNL     1     -10.661  12.649  65.727  1.00  0.00    -0.272 A  
HETATM    9  C   UNL     1     -11.634  11.967  68.657  1.00  0.00    -0.372 A  
HETATM   10  C   UNL     1     -10.426  11.614  64.824  1.00  0.00    -0.346 A  
HETATM   11  C   UNL     1     -11.143  11.584  63.628  1.00  0.00    -0.469 A  
HETATM   12  C   UNL     1     -12.064  11.159  69.711  1.00  0.00    -0.414 A  
HETATM   13  C   UNL     1     -12.077  12.579  63.369  1.00  0.00    -0.621 A  
HETATM   14  C   UNL     1     -11.220  10.173  70.216  1.00  0.00    -0.318 A  
HETATM   15  C   UNL     1     -12.270  13.558  64.326  1.00  0.00    -0.396 A  
HETATM   16  C   UNL     1      -9.953   9.982  69.669  1.00  0.00    -0.263 A  
HETATM   17 BR   UNL     1     -11.789   9.102  71.665  1.00  0.00    -0.465 Br 
HETATM   18  N   UNL     1     -11.593  13.610  65.493  1.00  0.00    -0.317 NA 
HETATM   19  C   UNL     1      -9.521  10.797  68.620  1.00  0.00    -0.188 A  
ENDBRANCH   4   5
ENDBRANCH   2   4
TORSDOF 2
ENDMDL
MODEL       17
REMARK 921   NORMALIZED FREE ENERGY PREDICTED BY IDOCK:   -5.51 KCAL/MOL
REMARK 922        TOTAL FREE ENERGY PREDICTED BY IDOCK:   -6.31 KCAL/MOL
REMARK 923 INTER-LIGAND FREE ENERGY PREDICTED BY IDOCK:   -6.16 KCAL/MOL
REMARK 924 INTRA-LIGAND FREE ENERGY PREDICTED BY IDOCK:   -0.15 KCAL/MOL
REMARK 927      BINDING AFFINITY PREDICTED BY RF-SCORE:    0.00 PKD
ROOT
HETATM    1  C   UNL     1     -11.277   9.777  70.977  1.00  0.00    -0.381 C  
HETATM    2  N   UNL     1     -12.340  10.680  70.535  1.00  0.00    -0.332 NA 
HETATM    3  C   UNL     1     -13.124  11.126  71.691  1.00  0.00    -0.424 C  
ENDROOT
BRANCH   2   4
HETATM    4  C   UNL     1     -11.807  11.855  69.821  1.00  0.00    -0.340 C  
BRANCH   4   5
HETATM    5  C   UNL     1     -11.284  11.561  68.408  1.00  0.00    -0.314 C  
HETATM    6  C   UNL     1     -11.684  12.613  67.344  1.00  0.00    -0.432 C  
HETATM    7  C   UNL     1     -11.069  13.979  67.636  1.00  0.00    -0.298 A  
HETATM    8  C   UNL     1     -11.366  12.111  65.935  1.00  0.00    -0.356 A  
HETATM    9  C   UNL     1      -9.677  14.161  67.649  1.00  0.00    -0.228 A  
HETATM   10  C   UNL     1     -12.109  12.571  64.850  1.00  0.00    -0.499 A  
HETATM   11  C   UNL     1     -11.845  12.055  63.581  1.00  0.00    -0.602 A  
HETATM   12  C   UNL     1      -9.124  15.397  67.994  1.00  0.00    -0.175 A  
HETATM   13  C   UNL     1     -10.846  11.103  63.428  1.00  0.00    -0.211 A  
HETATM   14  C   UNL     1      -9.959  16.463  68.316  1.00  0.00    -0.243 A  
HETATM   15  C   UNL     1     -10.136  10.716  64.550  1.00  0.00    -0.353 A  
HETATM   16  C   UNL     1     -11.343  16.309  68.286  1.00  0.00    -0.280 A  
HETATM   17 BR   UNL     1      -9.209  18.125  68.815  1.00  0.00    -0.195 Br 
HETATM   18  N   UNL     1     -10.368  11.200  65.789  1.00  0.00    -0.254 NA 
HETATM   19  C   UNL     1     -11.895  15.071  67.949  1.00  0.00    -0.243 A  
ENDBRANCH   4   5
ENDBRANCH   2   4
TORSDOF 2
ENDMDL
MODEL       18
REMARK 921   NORMALIZED FREE ENERGY PREDICTED BY IDOCK:   -5.50 KCAL/MOL
REMARK 922        TOTAL FREE ENERGY PREDICTED BY IDOCK:   -6.30 KCAL/MOL
REMARK 923 INTER-LIGAND FREE ENERGY PREDICTED BY IDOCK:   -6.11 KCAL/MOL
REMARK 924 INTRA-LIGAND FREE ENERGY PREDICTED BY IDOCK:   -0.19 KCAL/MOL
REMARK 927      BINDING AFFINITY PREDICTED BY RF-SCORE:    0.00 PKD
ROOT
HETATM    1  C   UNL     1     -12.149  14.578  64.463  1.00  0.00    -0.484 C  
HETATM    2  N   UNL     1     -12.560  13.187  64.658  1.00  0.00    -0.648 NA 
HETATM    3  C   UNL     1     -12.061  12.364  63.552  1.00  0.00    -0.558 C  
ENDROOT
BRANCH   2   4
HETATM    4  C   UNL     1     -12.072  12.639  65.937  1.00  0.00    -0.396 C  
BRANCH   4   5
HETATM    5  C   UNL     1     -10.677  13.126  66.350  1.00  0.00    -0.293 C  
HETATM    6  C   UNL     1     -10.565  13.567  67.831  1.00  0.00    -0.255 C  
HETATM    7  C   UNL     1     -10.794  12.402  68.790  1.00  0.00    -0.263 A  
HETATM    8  C   UNL     1      -9.241  14.289  68.085  1.00  0.00    -0.202 A  
HETATM    9  C   UNL     1      -9.938  11.289  68.800  1.00  0.00    -0.203 A  
HETATM   10  C   UNL     1      -9.151  15.235  69.105  1.00  0.00    -0.236 A  
HETATM   11  C   UNL     1      -7.953  15.927  69.281  1.00  0.00    -0.229 A  
HETATM   12  C   UNL     1     -10.201  10.194  69.626  1.00  0.00    -0.272 A  
HETATM   13  C   UNL     1      -6.879  15.654  68.444  1.00  0.00    -0.115 A  
HETATM   14  C   UNL     1     -11.317  10.209  70.459  1.00  0.00    -0.338 A  
HETATM   15  C   UNL     1      -7.039  14.684  67.472  1.00  0.00    -0.178 A  
HETATM   16  C   UNL     1     -12.167  11.313  70.480  1.00  0.00    -0.474 A  
HETATM   17 BR   UNL     1     -11.693   8.713  71.551  1.00  0.00    -0.397 Br 
HETATM   18  N   UNL     1      -8.185  13.996  67.281  1.00  0.00    -0.186 NA 
HETATM   19  C   UNL     1     -11.906  12.404  69.648  1.00  0.00    -0.380 A  
ENDBRANCH   4   5
ENDBRANCH   2   4
TORSDOF 2
ENDMDL
MODEL       19
REMARK 921   NORMALIZED FREE ENERGY PREDICTED BY IDOCK:   -5.46 KCAL/MOL
REMARK 922        TOTAL FREE ENERGY PREDICTED BY IDOCK:   -6.26 KCAL/MOL
REMARK 923 INTER-LIGAND FREE ENERGY PREDICTED BY IDOCK:   -5.91 KCAL/MOL
REMARK 924 INTRA-LIGAND FREE ENERGY PREDICTED BY IDOCK:   -0.35 KCAL/MOL
REMARK 927      BINDING AFFINITY PREDICTED BY RF-SCORE:    0.00 PKD
ROOT
HETATM    1  C   UNL     1      -7.194  15.340  69.331  1.00  0.00    -0.201 C  
HETATM    2  N   UNL     1      -6.933  14.344  68.291  1.00  0.00    -0.101 NA 
HETATM    3  C   UNL     1      -5.599  13.766  68.483  1.00  0.00    -0.093 C  
ENDROOT
BRANCH   2   4
HETATM    4  C   UNL     1      -7.939  13.266  68.291  1.00  0.00    -0.144 C  
BRANCH   4   5
HETATM    5  C   UNL     1      -8.674  13.078  66.956  1.00  0.00    -0.195 C  
HETATM    6  C   UNL     1     -10.120  13.633  66.937  1.00  0.00    -0.260 C  
HETATM    7  C   UNL     1     -10.149  15.150  67.106  1.00  0.00    -0.239 A  
HETATM    8  C   UNL     1     -10.866  13.164  65.686  1.00  0.00    -0.278 A  
HETATM    9  C   UNL     1      -9.548  15.998  66.163  1.00  0.00    -0.366 A  
HETATM   10  C   UNL     1     -12.253  13.039  65.712  1.00  0.00    -0.511 A  
HETATM   11  C   UNL     1     -12.910  12.552  64.582  1.00  0.00    -0.325 A  
HETATM   12  C   UNL     1      -9.512  17.379  66.368  1.00  0.00    -0.279 A  
HETATM   13  C   UNL     1     -12.169  12.210  63.459  1.00  0.00    -0.670 A  
HETATM   14  C   UNL     1     -10.089  17.924  67.512  1.00  0.00    -0.342 A  
HETATM   15  C   UNL     1     -10.798  12.386  63.503  1.00  0.00    -0.438 A  
HETATM   16  C   UNL     1     -10.710  17.101  68.449  1.00  0.00    -0.347 A  
HETATM   17 BR   UNL     1     -10.010  19.789  67.806  1.00  0.00    -0.569 Br 
HETATM   18  N   UNL     1     -10.137  12.859  64.581  1.00  0.00    -0.272 NA 
HETATM   19  C   UNL     1     -10.738  15.719  68.247  1.00  0.00    -0.281 A  
ENDBRANCH   4   5
ENDBRANCH   2   4
TORSDOF 2
ENDMDL
MODEL       20
REMARK 921   NORMALIZED FREE ENERGY PREDICTED BY IDOCK:   -5.34 KCAL/MOL
REMARK 922        TOTAL FREE ENERGY PREDICTED BY IDOCK:   -6.12 KCAL/MOL
REMARK 923 INTER-LIGAND FREE ENERGY PREDICTED BY IDOCK:   -5.97 KCAL/MOL
REMARK 924 INTRA-LIGAND FREE ENERGY PREDICTED BY IDOCK:   -0.15 KCAL/MOL
REMARK 927      BINDING AFFINITY PREDICTED BY RF-SCORE:    0.00 PKD
ROOT
HETATM    1  C   UNL     1     -12.153  14.266  64.323  1.00  0.00    -0.441 C  
HETATM    2  N   UNL     1     -12.538  12.897  64.668  1.00  0.00    -0.657 NA 
HETATM    3  C   UNL     1     -12.645  12.090  63.447  1.00  0.00    -0.469 C  
ENDROOT
BRANCH   2   4
HETATM    4  C   UNL     1     -11.576  12.266  65.590  1.00  0.00    -0.380 C  
BRANCH   4   5
HETATM    5  C   UNL     1     -11.785  12.617  67.069  1.00  0.00    -0.438 C  
HETATM    6  C   UNL     1     -11.532  11.443  68.048  1.00  0.00    -0.377 C  
HETATM    7  C   UNL     1     -10.075  10.990  68.029  1.00  0.00    -0.198 A  
HETATM    8  C   UNL     1     -12.024  11.791  69.454  1.00  0.00    -0.298 A  
HETATM    9  C   UNL     1      -9.040  11.857  68.413  1.00  0.00    -0.167 A  
HETATM   10  C   UNL     1     -12.427  10.776  70.319  1.00  0.00    -0.395 A  
HETATM   11  C   UNL     1     -12.931  11.117  71.574  1.00  0.00    -0.542 A  
HETATM   12  C   UNL     1      -7.704  11.459  68.318  1.00  0.00    -0.124 A  
HETATM   13  C   UNL     1     -13.011  12.456  71.935  1.00  0.00    -0.407 A  
HETATM   14  C   UNL     1      -7.395  10.185  67.848  1.00  0.00    -0.087 A  
HETATM   15  C   UNL     1     -12.568  13.403  71.030  1.00  0.00    -0.343 A  
HETATM   16  C   UNL     1      -8.408   9.302  67.483  1.00  0.00    -0.119 A  
HETATM   17 BR   UNL     1      -5.586   9.659  67.686  1.00  0.00    -0.036 Br 
HETATM   18  N   UNL     1     -12.074  13.102  69.810  1.00  0.00    -0.298 NA 
HETATM   19  C   UNL     1      -9.743   9.704  67.572  1.00  0.00    -0.195 A  
ENDBRANCH   4   5
ENDBRANCH   2   4
TORSDOF 2
ENDMDL
MODEL       21
REMARK 921   NORMALIZED FREE ENERGY PREDICTED BY IDOCK:   -5.32 KCAL/MOL
REMARK 922        TOTAL FREE ENERGY PREDICTED BY IDOCK:   -6.10 KCAL/MOL
REMARK 923 INTER-LIGAND FREE ENERGY PREDICTED BY IDOCK:   -5.73 KCAL/MOL
REMARK 924 INTRA-LIGAND FREE ENERGY PREDICTED BY IDOCK:   -0.37 KCAL/MOL
REMARK 927      BINDING AFFINITY PREDICTED BY RF-SCORE:    0.00 PKD
ROOT
HETATM    1  C   UNL     1     -10.892  16.408  69.760  1.00  0.00    -0.343 C  
HETATM    2  N   UNL     1     -11.201  14.987  69.924  1.00  0.00    -0.264 NA 
HETATM    3  C   UNL     1     -11.910  14.777  71.191  1.00  0.00    -0.334 C  
ENDROOT
BRANCH   2   4
HETATM    4  C   UNL     1     -12.017  14.465  68.813  1.00  0.00    -0.295 C  
BRANCH   4   5
HETATM    5  C   UNL     1     -11.281  13.492  67.881  1.00  0.00    -0.302 C  
HETATM    6  C   UNL     1     -11.065  14.023  66.442  1.00  0.00    -0.316 C  
HETATM    7  C   UNL     1     -10.150  15.244  66.417  1.00  0.00    -0.287 A  
HETATM    8  C   UNL     1     -10.584  12.904  65.516  1.00  0.00    -0.279 A  
HETATM    9  C   UNL     1      -8.817  15.161  66.850  1.00  0.00    -0.284 A  
HETATM   10  C   UNL     1     -10.860  12.965  64.152  1.00  0.00    -0.445 A  
HETATM   11  C   UNL     1     -10.467  11.906  63.334  1.00  0.00    -0.487 A  
HETATM   12  C   UNL     1      -8.011  16.301  66.897  1.00  0.00    -0.278 A  
HETATM   13  C   UNL     1      -9.804  10.823  63.895  1.00  0.00    -0.389 A  
HETATM   14  C   UNL     1      -8.529  17.531  66.498  1.00  0.00    -0.268 A  
HETATM   15  C   UNL     1      -9.545  10.848  65.252  1.00  0.00    -0.229 A  
HETATM   16  C   UNL     1      -9.842  17.629  66.043  1.00  0.00    -0.184 A  
HETATM   17 BR   UNL     1      -7.449  19.079  66.594  1.00  0.00    -0.256 Br 
HETATM   18  N   UNL     1      -9.911  11.860  66.068  1.00  0.00    -0.230 NA 
HETATM   19  C   UNL     1     -10.649  16.490  66.005  1.00  0.00    -0.259 A  
ENDBRANCH   4   5
ENDBRANCH   2   4
TORSDOF 2
ENDMDL
MODEL       22
REMARK 921   NORMALIZED FREE ENERGY PREDICTED BY IDOCK:   -5.31 KCAL/MOL
REMARK 922        TOTAL FREE ENERGY PREDICTED BY IDOCK:   -6.09 KCAL/MOL
REMARK 923 INTER-LIGAND FREE ENERGY PREDICTED BY IDOCK:   -5.89 KCAL/MOL
REMARK 924 INTRA-LIGAND FREE ENERGY PREDICTED BY IDOCK:   -0.20 KCAL/MOL
REMARK 927      BINDING AFFINITY PREDICTED BY RF-SCORE:    0.00 PKD
ROOT
HETATM    1  C   UNL     1     -10.450   8.947  71.770  1.00  0.00    -0.360 C  
HETATM    2  N   UNL     1     -11.755   9.105  71.127  1.00  0.00    -0.294 NA 
HETATM    3  C   UNL     1     -12.787   9.316  72.147  1.00  0.00    -0.408 C  
ENDROOT
BRANCH   2   4
HETATM    4  C   UNL     1     -11.770  10.229  70.174  1.00  0.00    -0.284 C  
BRANCH   4   5
HETATM    5  C   UNL     1     -12.514  11.477  70.669  1.00  0.00    -0.405 C  
HETATM    6  C   UNL     1     -11.719  12.798  70.522  1.00  0.00     0.028 C  
HETATM    7  C   UNL     1     -11.454  13.143  69.059  1.00  0.00    -0.345 A  
HETATM    8  C   UNL     1     -12.406  13.934  71.282  1.00  0.00    -0.335 A  
HETATM    9  C   UNL     1     -12.510  13.393  68.169  1.00  0.00     0.341 A  
HETATM   10  C   UNL     1     -11.652  15.000  71.768  1.00  0.00    -0.425 A  
HETATM   11  C   UNL     1     -12.286  15.994  72.511  1.00  0.00    -0.612 A  
HETATM   12  C   UNL     1     -12.260  13.630  66.815  1.00  0.00    -0.416 A  
HETATM   13  C   UNL     1     -13.653  15.905  72.742  1.00  0.00    -0.589 A  
HETATM   14  C   UNL     1     -10.950  13.632  66.344  1.00  0.00    -0.297 A  
HETATM   15  C   UNL     1     -14.336  14.830  72.205  1.00  0.00    -0.501 A  
HETATM   16  C   UNL     1      -9.887  13.409  67.216  1.00  0.00    -0.233 A  
HETATM   17 BR   UNL     1     -10.614  13.920  64.506  1.00  0.00    -0.256 Br 
HETATM   18  N   UNL     1     -13.748  13.854  71.479  1.00  0.00    -0.292 NA 
HETATM   19  C   UNL     1     -10.138  13.164  68.568  1.00  0.00    -0.203 A  
ENDBRANCH   4   5
ENDBRANCH   2   4
TORSDOF 2
ENDMDL
MODEL       23
REMARK 921   NORMALIZED FREE ENERGY PREDICTED BY IDOCK:   -5.30 KCAL/MOL
REMARK 922        TOTAL FREE ENERGY PREDICTED BY IDOCK:   -6.08 KCAL/MOL
REMARK 923 INTER-LIGAND FREE ENERGY PREDICTED BY IDOCK:   -5.82 KCAL/MOL
REMARK 924 INTRA-LIGAND FREE ENERGY PREDICTED BY IDOCK:   -0.26 KCAL/MOL
REMARK 927      BINDING AFFINITY PREDICTED BY RF-SCORE:    0.00 PKD
ROOT
HETATM    1  C   UNL     1      -6.279  12.680  67.311  1.00  0.00    -0.089 C  
HETATM    2  N   UNL     1      -7.537  13.424  67.371  1.00  0.00    -0.155 NA 
HETATM    3  C   UNL     1      -8.654  12.535  67.035  1.00  0.00    -0.188 C  
ENDROOT
BRANCH   2   4
HETATM    4  C   UNL     1      -7.767  14.020  68.700  1.00  0.00    -0.135 C  
BRANCH   4   5
HETATM    5  C   UNL     1      -8.053  15.528  68.685  1.00  0.00    -0.159 C  
HETATM    6  C   UNL     1      -9.482  15.904  68.221  1.00  0.00    -0.201 C  
HETATM    7  C   UNL     1     -10.547  15.387  69.183  1.00  0.00    -0.248 A  
HETATM    8  C   UNL     1      -9.593  17.409  67.970  1.00  0.00    -0.276 A  
HETATM    9  C   UNL     1     -10.598  15.826  70.515  1.00  0.00    -0.174 A  
HETATM   10  C   UNL     1     -10.522  17.893  67.051  1.00  0.00    -0.345 A  
HETATM   11  C   UNL     1     -10.567  19.262  66.790  1.00  0.00    -0.543 A  
HETATM   12  C   UNL     1     -11.528  15.287  71.408  1.00  0.00    -0.444 A  
HETATM   13  C   UNL     1      -9.692  20.110  67.457  1.00  0.00    -0.557 A  
HETATM   14  C   UNL     1     -12.423  14.314  70.970  1.00  0.00    -0.362 A  
HETATM   15  C   UNL     1      -8.817  19.557  68.372  1.00  0.00    -0.342 A  
HETATM   16  C   UNL     1     -12.403  13.881  69.647  1.00  0.00    -0.301 A  
HETATM   17 BR   UNL     1     -13.658  13.561  72.187  1.00  0.00    -0.678 Br 
HETATM   18  N   UNL     1      -8.753  18.236  68.646  1.00  0.00    -0.300 NA 
HETATM   19  C   UNL     1     -11.467  14.415  68.757  1.00  0.00    -0.319 A  
ENDBRANCH   4   5
ENDBRANCH   2   4
TORSDOF 2
ENDMDL
MODEL       24
REMARK 921   NORMALIZED FREE ENERGY PREDICTED BY IDOCK:   -5.29 KCAL/MOL
REMARK 922        TOTAL FREE ENERGY PREDICTED BY IDOCK:   -6.07 KCAL/MOL
REMARK 923 INTER-LIGAND FREE ENERGY PREDICTED BY IDOCK:   -5.80 KCAL/MOL
REMARK 924 INTRA-LIGAND FREE ENERGY PREDICTED BY IDOCK:   -0.27 KCAL/MOL
REMARK 927      BINDING AFFINITY PREDICTED BY RF-SCORE:    0.00 PKD
ROOT
HETATM    1  C   UNL     1     -13.004  15.802  71.426  1.00  0.00    -0.413 C  
HETATM    2  N   UNL     1     -12.003  14.767  71.167  1.00  0.00    -0.319 NA 
HETATM    3  C   UNL     1     -12.471  13.883  70.094  1.00  0.00    -0.292 C  
ENDROOT
BRANCH   2   4
HETATM    4  C   UNL     1     -10.696  15.340  70.796  1.00  0.00    -0.131 C  
BRANCH   4   5
HETATM    5  C   UNL     1     -10.765  16.470  69.760  1.00  0.00    -0.298 C  
HETATM    6  C   UNL     1      -9.671  16.404  68.665  1.00  0.00    -0.239 C  
HETATM    7  C   UNL     1      -9.815  15.161  67.792  1.00  0.00    -0.223 A  
HETATM    8  C   UNL     1      -9.638  17.698  67.850  1.00  0.00    -0.282 A  
HETATM    9  C   UNL     1     -10.960  14.952  67.007  1.00  0.00    -0.327 A  
HETATM   10  C   UNL     1      -8.453  18.105  67.241  1.00  0.00    -0.243 A  
HETATM   11  C   UNL     1      -8.427  19.318  66.554  1.00  0.00    -0.336 A  
HETATM   12  C   UNL     1     -11.116  13.775  66.272  1.00  0.00    -0.302 A  
HETATM   13  C   UNL     1      -9.581  20.086  66.485  1.00  0.00    -0.539 A  
HETATM   14  C   UNL     1     -10.121  12.801  66.308  1.00  0.00    -0.259 A  
HETATM   15  C   UNL     1     -10.724  19.603  67.094  1.00  0.00    -0.464 A  
HETATM   16  C   UNL     1      -8.967  12.999  67.062  1.00  0.00    -0.225 A  
HETATM   17 BR   UNL     1     -10.348  11.192  65.341  1.00  0.00    -0.328 Br 
HETATM   18  N   UNL     1     -10.779  18.431  67.763  1.00  0.00    -0.394 NA 
HETATM   19  C   UNL     1      -8.816  14.173  67.803  1.00  0.00    -0.185 A  
ENDBRANCH   4   5
ENDBRANCH   2   4
TORSDOF 2
ENDMDL
MODEL       25
REMARK 921   NORMALIZED FREE ENERGY PREDICTED BY IDOCK:   -5.28 KCAL/MOL
REMARK 922        TOTAL FREE ENERGY PREDICTED BY IDOCK:   -6.06 KCAL/MOL
REMARK 923 INTER-LIGAND FREE ENERGY PREDICTED BY IDOCK:   -5.79 KCAL/MOL
REMARK 924 INTRA-LIGAND FREE ENERGY PREDICTED BY IDOCK:   -0.26 KCAL/MOL
REMARK 927      BINDING AFFINITY PREDICTED BY RF-SCORE:    0.00 PKD
ROOT
HETATM    1  C   UNL     1     -10.733  14.071  64.669  1.00  0.00    -0.399 C  
HETATM    2  N   UNL     1     -10.976  14.018  66.111  1.00  0.00    -0.293 NA 
HETATM    3  C   UNL     1     -11.678  12.776  66.450  1.00  0.00    -0.403 C  
ENDROOT
BRANCH   2   4
HETATM    4  C   UNL     1      -9.725  14.102  66.887  1.00  0.00    -0.269 C  
BRANCH   4   5
HETATM    5  C   UNL     1      -9.255  15.531  67.191  1.00  0.00    -0.228 C  
HETATM    6  C   UNL     1     -10.390  16.508  67.587  1.00  0.00    -0.291 C  
HETATM    7  C   UNL     1     -11.056  16.104  68.900  1.00  0.00    -0.347 A  
HETATM    8  C   UNL     1      -9.885  17.952  67.601  1.00  0.00    -0.304 A  
HETATM    9  C   UNL     1     -10.332  16.069  70.102  1.00  0.00    -0.119 A  
HETATM   10  C   UNL     1     -10.772  18.999  67.364  1.00  0.00    -0.559 A  
HETATM   11  C   UNL     1     -10.282  20.304  67.319  1.00  0.00    -0.495 A  
HETATM   12  C   UNL     1     -10.931  15.623  71.282  1.00  0.00    -0.195 A  
HETATM   13  C   UNL     1      -8.926  20.529  67.520  1.00  0.00    -0.379 A  
HETATM   14  C   UNL     1     -12.264  15.219  71.271  1.00  0.00    -0.347 A  
HETATM   15  C   UNL     1      -8.115  19.440  67.775  1.00  0.00    -0.291 A  
HETATM   16  C   UNL     1     -13.006  15.267  70.094  1.00  0.00    -0.128 A  
HETATM   17 BR   UNL     1     -13.064  14.583  72.861  1.00  0.00    -0.607 Br 
HETATM   18  N   UNL     1      -8.562  18.167  67.827  1.00  0.00    -0.252 NA 
HETATM   19  C   UNL     1     -12.403  15.706  68.912  1.00  0.00     0.111 A  
ENDBRANCH   4   5
ENDBRANCH   2   4
TORSDOF 2
ENDMDL
MODEL       26
REMARK 921   NORMALIZED FREE ENERGY PREDICTED BY IDOCK:   -5.27 KCAL/MOL
REMARK 922        TOTAL FREE ENERGY PREDICTED BY IDOCK:   -6.05 KCAL/MOL
REMARK 923 INTER-LIGAND FREE ENERGY PREDICTED BY IDOCK:   -5.90 KCAL/MOL
REMARK 924 INTRA-LIGAND FREE ENERGY PREDICTED BY IDOCK:   -0.15 KCAL/MOL
REMARK 927      BINDING AFFINITY PREDICTED BY RF-SCORE:    0.00 PKD
ROOT
HETATM    1  C   UNL     1     -12.982  13.322  71.549  1.00  0.00    -0.337 C  
HETATM    2  N   UNL     1     -12.803  14.315  70.490  1.00  0.00    -0.326 NA 
HETATM    3  C   UNL     1     -12.623  15.644  71.083  1.00  0.00    -0.453 C  
ENDROOT
BRANCH   2   4
HETATM    4  C   UNL     1     -11.649  14.003  69.627  1.00  0.00    -0.289 C  
BRANCH   4   5
HETATM    5  C   UNL     1     -12.017  13.502  68.224  1.00  0.00    -0.377 C  
HETATM    6  C   UNL     1     -10.841  12.864  67.442  1.00  0.00    -0.272 C  
HETATM    7  C   UNL     1     -10.336  11.590  68.115  1.00  0.00    -0.211 A  
HETATM    8  C   UNL     1     -11.217  12.649  65.975  1.00  0.00    -0.306 A  
HETATM    9  C   UNL     1     -11.167  10.469  68.265  1.00  0.00    -0.354 A  
HETATM   10  C   UNL     1     -10.223  12.641  64.999  1.00  0.00    -0.294 A  
HETATM   11  C   UNL     1     -10.590  12.504  63.660  1.00  0.00    -0.446 A  
HETATM   12  C   UNL     1     -10.720   9.337  68.951  1.00  0.00    -0.182 A  
HETATM   13  C   UNL     1     -11.934  12.372  63.333  1.00  0.00    -0.595 A  
HETATM   14  C   UNL     1      -9.433   9.314  69.481  1.00  0.00    -0.173 A  
HETATM   15  C   UNL     1     -12.858  12.364  64.361  1.00  0.00    -0.250 A  
HETATM   16  C   UNL     1      -8.585  10.408  69.323  1.00  0.00    -0.159 A  
HETATM   17 BR   UNL     1      -8.840   7.796  70.439  1.00  0.00    -0.147 Br 
HETATM   18  N   UNL     1     -12.531  12.491  65.665  1.00  0.00    -0.611 NA 
HETATM   19  C   UNL     1      -9.036  11.542  68.643  1.00  0.00    -0.115 A  
ENDBRANCH   4   5
ENDBRANCH   2   4
TORSDOF 2
ENDMDL
MODEL       27
REMARK 921   NORMALIZED FREE ENERGY PREDICTED BY IDOCK:   -5.26 KCAL/MOL
REMARK 922        TOTAL FREE ENERGY PREDICTED BY IDOCK:   -6.04 KCAL/MOL
REMARK 923 INTER-LIGAND FREE ENERGY PREDICTED BY IDOCK:   -5.68 KCAL/MOL
REMARK 924 INTRA-LIGAND FREE ENERGY PREDICTED BY IDOCK:   -0.36 KCAL/MOL
REMARK 927      BINDING AFFINITY PREDICTED BY RF-SCORE:    0.00 PKD
ROOT
HETATM    1  C   UNL     1     -10.946   9.399  71.215  1.00  0.00    -0.370 C  
HETATM    2  N   UNL     1     -12.092  10.157  70.711  1.00  0.00    -0.318 NA 
HETATM    3  C   UNL     1     -13.127  10.237  71.747  1.00  0.00    -0.465 C  
ENDROOT
BRANCH   2   4
HETATM    4  C   UNL     1     -11.714  11.518  70.288  1.00  0.00    -0.289 C  
BRANCH   4   5
HETATM    5  C   UNL     1     -12.001  11.832  68.813  1.00  0.00    -0.317 C  
HETATM    6  C   UNL     1     -10.743  11.880  67.911  1.00  0.00    -0.239 C  
HETATM    7  C   UNL     1     -10.057  10.520  67.820  1.00  0.00    -0.205 A  
HETATM    8  C   UNL     1     -11.080  12.465  66.538  1.00  0.00    -0.301 A  
HETATM    9  C   UNL     1     -10.714   9.410  67.266  1.00  0.00    -0.258 A  
HETATM   10  C   UNL     1     -10.094  13.118  65.801  1.00  0.00    -0.290 A  
HETATM   11  C   UNL     1     -10.435  13.698  64.580  1.00  0.00    -0.442 A  
HETATM   12  C   UNL     1     -10.106   8.152  67.259  1.00  0.00    -0.309 A  
HETATM   13  C   UNL     1     -11.744  13.605  64.124  1.00  0.00    -0.424 A  
HETATM   14  C   UNL     1      -8.830   7.998  67.795  1.00  0.00    -0.126 A  
HETATM   15  C   UNL     1     -12.658  12.919  64.901  1.00  0.00    -0.458 A  
HETATM   16  C   UNL     1      -8.152   9.092  68.329  1.00  0.00    -0.109 A  
HETATM   17 BR   UNL     1      -8.021   6.290  67.816  1.00  0.00    -0.114 Br 
HETATM   18  N   UNL     1     -12.356  12.345  66.085  1.00  0.00    -0.517 NA 
HETATM   19  C   UNL     1      -8.764  10.347  68.342  1.00  0.00    -0.129 A  
ENDBRANCH   4   5
ENDBRANCH   2   4
TORSDOF 2
ENDMDL
MODEL       28
REMARK 921   NORMALIZED FREE ENERGY PREDICTED BY IDOCK:   -5.23 KCAL/MOL
REMARK 922        TOTAL FREE ENERGY PREDICTED BY IDOCK:   -6.00 KCAL/MOL
REMARK 923 INTER-LIGAND FREE ENERGY PREDICTED BY IDOCK:   -5.84 KCAL/MOL
REMARK 924 INTRA-LIGAND FREE ENERGY PREDICTED BY IDOCK:   -0.16 KCAL/MOL
REMARK 927      BINDING AFFINITY PREDICTED BY RF-SCORE:    0.00 PKD
ROOT
HETATM    1  C   UNL     1      -6.351  12.035  67.313  1.00  0.00    -0.151 C  
HETATM    2  N   UNL     1      -6.923  12.485  68.583  1.00  0.00    -0.087 NA 
HETATM    3  C   UNL     1      -5.955  13.329  69.290  1.00  0.00    -0.094 C  
ENDROOT
BRANCH   2   4
HETATM    4  C   UNL     1      -8.179  13.233  68.390  1.00  0.00    -0.134 C  
BRANCH   4   5
HETATM    5  C   UNL     1      -8.845  13.024  67.023  1.00  0.00    -0.213 C  
HETATM    6  C   UNL     1     -10.273  13.612  66.909  1.00  0.00    -0.261 C  
HETATM    7  C   UNL     1     -10.274  15.133  67.036  1.00  0.00    -0.262 A  
HETATM    8  C   UNL     1     -10.962  13.126  65.633  1.00  0.00    -0.277 A  
HETATM    9  C   UNL     1      -9.602  15.940  66.105  1.00  0.00    -0.365 A  
HETATM   10  C   UNL     1     -12.351  13.034  65.585  1.00  0.00    -0.504 A  
HETATM   11  C   UNL     1     -12.957  12.530  64.435  1.00  0.00    -0.248 A  
HETATM   12  C   UNL     1      -9.543  17.326  66.274  1.00  0.00    -0.268 A  
HETATM   13  C   UNL     1     -12.165  12.140  63.363  1.00  0.00    -0.635 A  
HETATM   14  C   UNL     1     -10.168  17.916  67.370  1.00  0.00    -0.360 A  
HETATM   15  C   UNL     1     -10.795  12.285  63.478  1.00  0.00    -0.454 A  
HETATM   16  C   UNL     1     -10.859  17.134  68.293  1.00  0.00    -0.314 A  
HETATM   17 BR   UNL     1     -10.059  19.787  67.617  1.00  0.00    -0.576 Br 
HETATM   18  N   UNL     1     -10.181  12.772  64.578  1.00  0.00    -0.329 NA 
HETATM   19  C   UNL     1     -10.910  15.748  68.127  1.00  0.00    -0.307 A  
ENDBRANCH   4   5
ENDBRANCH   2   4
TORSDOF 2
ENDMDL
MODEL       29
REMARK 921   NORMALIZED FREE ENERGY PREDICTED BY IDOCK:   -5.20 KCAL/MOL
REMARK 922        TOTAL FREE ENERGY PREDICTED BY IDOCK:   -5.96 KCAL/MOL
REMARK 923 INTER-LIGAND FREE ENERGY PREDICTED BY IDOCK:   -5.70 KCAL/MOL
REMARK 924 INTRA-LIGAND FREE ENERGY PREDICTED BY IDOCK:   -0.26 KCAL/MOL
REMARK 927      BINDING AFFINITY PREDICTED BY RF-SCORE:    0.00 PKD
ROOT
HETATM    1  C   UNL     1      -6.241  15.163  69.374  1.00  0.00    -0.116 C  
HETATM    2  N   UNL     1      -7.692  15.006  69.484  1.00  0.00    -0.193 NA 
HETATM    3  C   UNL     1      -8.361  16.177  68.907  1.00  0.00    -0.233 C  
ENDROOT
BRANCH   2   4
HETATM    4  C   UNL     1      -8.171  13.785  68.809  1.00  0.00    -0.002 C  
BRANCH   4   5
HETATM    5  C   UNL     1      -9.073  14.039  67.594  1.00  0.00    -0.192 C  
HETATM    6  C   UNL     1     -10.416  13.266  67.620  1.00  0.00    -0.231 C  
HETATM    7  C   UNL     1     -11.305  13.711  68.778  1.00  0.00    -0.326 A  
HETATM    8  C   UNL     1     -11.121  13.354  66.266  1.00  0.00    -0.293 A  
HETATM    9  C   UNL     1     -11.780  15.029  68.865  1.00  0.00    -0.354 A  
HETATM   10  C   UNL     1     -11.986  12.337  65.867  1.00  0.00    -0.358 A  
HETATM   11  C   UNL     1     -12.572  12.404  64.603  1.00  0.00    -0.459 A  
HETATM   12  C   UNL     1     -12.528  15.446  69.968  1.00  0.00    -0.316 A  
HETATM   13  C   UNL     1     -12.286  13.484  63.777  1.00  0.00    -0.449 A  
HETATM   14  C   UNL     1     -12.818  14.543  70.988  1.00  0.00    -0.350 A  
HETATM   15  C   UNL     1     -11.437  14.464  64.255  1.00  0.00    -0.211 A  
HETATM   16  C   UNL     1     -12.376  13.225  70.909  1.00  0.00    -0.413 A  
HETATM   17 BR   UNL     1     -13.801  15.117  72.497  1.00  0.00    -0.602 Br 
HETATM   18  N   UNL     1     -10.858  14.427  65.474  1.00  0.00    -0.314 NA 
HETATM   19  C   UNL     1     -11.621  12.811  69.809  1.00  0.00    -0.288 A  
ENDBRANCH   4   5
ENDBRANCH   2   4
TORSDOF 2
ENDMDL
MODEL       30
REMARK 921   NORMALIZED FREE ENERGY PREDICTED BY IDOCK:   -5.14 KCAL/MOL
REMARK 922        TOTAL FREE ENERGY PREDICTED BY IDOCK:   -5.90 KCAL/MOL
REMARK 923 INTER-LIGAND FREE ENERGY PREDICTED BY IDOCK:   -5.58 KCAL/MOL
REMARK 924 INTRA-LIGAND FREE ENERGY PREDICTED BY IDOCK:   -0.31 KCAL/MOL
REMARK 927      BINDING AFFINITY PREDICTED BY RF-SCORE:    0.00 PKD
ROOT
HETATM    1  C   UNL     1      -5.850  12.586  67.365  1.00  0.00    -0.137 C  
HETATM    2  N   UNL     1      -7.070  12.138  68.037  1.00  0.00    -0.087 NA 
HETATM    3  C   UNL     1      -6.721  11.399  69.255  1.00  0.00    -0.113 C  
ENDROOT
BRANCH   2   4
HETATM    4  C   UNL     1      -7.957  13.264  68.384  1.00  0.00    -0.132 C  
BRANCH   4   5
HETATM    5  C   UNL     1      -9.081  13.527  67.373  1.00  0.00    -0.219 C  
HETATM    6  C   UNL     1      -9.837  12.256  66.911  1.00  0.00    -0.216 C  
HETATM    7  C   UNL     1     -10.590  11.592  68.061  1.00  0.00    -0.232 A  
HETATM    8  C   UNL     1     -10.739  12.566  65.714  1.00  0.00    -0.269 A  
HETATM    9  C   UNL     1     -11.624  12.261  68.735  1.00  0.00    -0.380 A  
HETATM   10  C   UNL     1     -11.052  11.560  64.803  1.00  0.00    -0.300 A  
HETATM   11  C   UNL     1     -11.825  11.875  63.686  1.00  0.00    -0.573 A  
HETATM   12  C   UNL     1     -12.253  11.675  69.835  1.00  0.00    -0.310 A  
HETATM   13  C   UNL     1     -12.271  13.179  63.513  1.00  0.00    -0.552 A  
HETATM   14  C   UNL     1     -11.861  10.409  70.262  1.00  0.00    -0.312 A  
HETATM   15  C   UNL     1     -11.939  14.115  64.474  1.00  0.00    -0.458 A  
HETATM   16  C   UNL     1     -10.853   9.720  69.593  1.00  0.00    -0.274 A  
HETATM   17 BR   UNL     1     -12.688   9.630  71.773  1.00  0.00    -0.530 Br 
HETATM   18  N   UNL     1     -11.195  13.837  65.566  1.00  0.00    -0.297 NA 
HETATM   19  C   UNL     1     -10.219  10.310  68.497  1.00  0.00    -0.192 A  
ENDBRANCH   4   5
ENDBRANCH   2   4
TORSDOF 2
ENDMDL
MODEL       31
REMARK 921   NORMALIZED FREE ENERGY PREDICTED BY IDOCK:   -5.13 KCAL/MOL
REMARK 922        TOTAL FREE ENERGY PREDICTED BY IDOCK:   -5.89 KCAL/MOL
REMARK 923 INTER-LIGAND FREE ENERGY PREDICTED BY IDOCK:   -5.57 KCAL/MOL
REMARK 924 INTRA-LIGAND FREE ENERGY PREDICTED BY IDOCK:   -0.32 KCAL/MOL
REMARK 927      BINDING AFFINITY PREDICTED BY RF-SCORE:    0.00 PKD
ROOT
HETATM    1  C   UNL     1      -9.331   8.953  68.440  1.00  0.00    -0.136 C  
HETATM    2  N   UNL     1      -9.968  10.076  69.129  1.00  0.00    -0.192 NA 
HETATM    3  C   UNL     1     -10.267   9.701  70.515  1.00  0.00    -0.287 C  
ENDROOT
BRANCH   2   4
HETATM    4  C   UNL     1      -9.122  11.284  69.119  1.00  0.00     0.124 C  
BRANCH   4   5
HETATM    5  C   UNL     1      -9.490  12.314  68.043  1.00  0.00    -0.206 C  
HETATM    6  C   UNL     1     -10.996  12.675  67.990  1.00  0.00    -0.266 C  
HETATM    7  C   UNL     1     -11.460  13.367  69.268  1.00  0.00    -0.345 A  
HETATM    8  C   UNL     1     -11.318  13.481  66.731  1.00  0.00    -0.328 A  
HETATM    9  C   UNL     1     -10.926  14.604  69.660  1.00  0.00    -0.255 A  
HETATM   10  C   UNL     1     -12.598  13.428  66.181  1.00  0.00    -0.294 A  
HETATM   11  C   UNL     1     -12.855  14.121  64.999  1.00  0.00    -0.249 A  
HETATM   12  C   UNL     1     -11.300  15.192  70.870  1.00  0.00    -0.345 A  
HETATM   13  C   UNL     1     -11.836  14.852  64.402  1.00  0.00    -0.372 A  
HETATM   14  C   UNL     1     -12.223  14.551  71.693  1.00  0.00    -0.331 A  
HETATM   15  C   UNL     1     -10.601  14.875  65.022  1.00  0.00    -0.422 A  
HETATM   16  C   UNL     1     -12.781  13.334  71.312  1.00  0.00    -0.411 A  
HETATM   17 BR   UNL     1     -12.703  15.329  73.348  1.00  0.00    -0.726 Br 
HETATM   18  N   UNL     1     -10.324  14.217  66.168  1.00  0.00    -0.291 NA 
HETATM   19  C   UNL     1     -12.400  12.744  70.105  1.00  0.00    -0.235 A  
ENDBRANCH   4   5
ENDBRANCH   2   4
TORSDOF 2
ENDMDL
MODEL       32
REMARK 921   NORMALIZED FREE ENERGY PREDICTED BY IDOCK:   -5.13 KCAL/MOL
REMARK 922        TOTAL FREE ENERGY PREDICTED BY IDOCK:   -5.89 KCAL/MOL
REMARK 923 INTER-LIGAND FREE ENERGY PREDICTED BY IDOCK:   -5.48 KCAL/MOL
REMARK 924 INTRA-LIGAND FREE ENERGY PREDICTED BY IDOCK:   -0.41 KCAL/MOL
REMARK 927      BINDING AFFINITY PREDICTED BY RF-SCORE:    0.00 PKD
ROOT
HETATM    1  C   UNL     1     -12.786  13.955  65.654  1.00  0.00    -0.495 C  
HETATM    2  N   UNL     1     -11.691  13.485  64.803  1.00  0.00    -0.355 NA 
HETATM    3  C   UNL     1     -10.659  14.522  64.707  1.00  0.00    -0.377 C  
ENDROOT
BRANCH   2   4
HETATM    4  C   UNL     1     -11.089  12.239  65.313  1.00  0.00    -0.316 C  
BRANCH   4   5
HETATM    5  C   UNL     1     -11.540  11.842  66.726  1.00  0.00    -0.341 C  
HETATM    6  C   UNL     1     -10.381  11.612  67.728  1.00  0.00    -0.202 C  
HETATM    7  C   UNL     1      -9.595  12.893  67.991  1.00  0.00    -0.221 A  
HETATM    8  C   UNL     1     -10.895  10.959  69.012  1.00  0.00    -0.230 A  
HETATM    9  C   UNL     1     -10.205  14.014  68.576  1.00  0.00    -0.237 A  
HETATM   10  C   UNL     1     -10.042  10.165  69.776  1.00  0.00    -0.269 A  
HETATM   11  C   UNL     1     -10.544   9.529  70.910  1.00  0.00    -0.395 A  
HETATM   12  C   UNL     1      -9.497  15.206  68.741  1.00  0.00    -0.209 A  
HETATM   13  C   UNL     1     -11.878   9.707  71.256  1.00  0.00    -0.460 A  
HETATM   14  C   UNL     1      -8.167  15.283  68.333  1.00  0.00    -0.146 A  
HETATM   15  C   UNL     1     -12.654  10.530  70.462  1.00  0.00    -0.339 A  
HETATM   16  C   UNL     1      -7.537  14.175  67.772  1.00  0.00    -0.175 A  
HETATM   17 BR   UNL     1      -7.219  16.907  68.525  1.00  0.00    -0.210 Br 
HETATM   18  N   UNL     1     -12.193  11.161  69.360  1.00  0.00    -0.332 NA 
HETATM   19  C   UNL     1      -8.249  12.985  67.600  1.00  0.00    -0.171 A  
ENDBRANCH   4   5
ENDBRANCH   2   4
TORSDOF 2
ENDMDL
MODEL       33
REMARK 921   NORMALIZED FREE ENERGY PREDICTED BY IDOCK:   -5.08 KCAL/MOL
REMARK 922        TOTAL FREE ENERGY PREDICTED BY IDOCK:   -5.83 KCAL/MOL
REMARK 923 INTER-LIGAND FREE ENERGY PREDICTED BY IDOCK:   -5.61 KCAL/MOL
REMARK 924 INTRA-LIGAND FREE ENERGY PREDICTED BY IDOCK:   -0.23 KCAL/MOL
REMARK 927      BINDING AFFINITY PREDICTED BY RF-SCORE:    0.00 PKD
ROOT
HETATM    1  C   UNL     1      -6.703  11.575  67.053  1.00  0.00    -0.143 C  
HETATM    2  N   UNL     1      -7.437  11.714  68.311  1.00  0.00    -0.091 NA 
HETATM    3  C   UNL     1      -6.536  11.459  69.440  1.00  0.00    -0.108 C  
ENDROOT
BRANCH   2   4
HETATM    4  C   UNL     1      -8.039  13.051  68.456  1.00  0.00    -0.082 C  
BRANCH   4   5
HETATM    5  C   UNL     1      -8.967  13.463  67.305  1.00  0.00    -0.221 C  
HETATM    6  C   UNL     1     -10.296  12.671  67.238  1.00  0.00    -0.230 C  
HETATM    7  C   UNL     1     -11.173  12.926  68.461  1.00  0.00    -0.310 A  
HETATM    8  C   UNL     1     -11.026  12.943  65.921  1.00  0.00    -0.276 A  
HETATM    9  C   UNL     1     -11.666  14.208  68.747  1.00  0.00    -0.380 A  
HETATM   10  C   UNL     1     -11.882  11.980  65.390  1.00  0.00    -0.258 A  
HETATM   11  C   UNL     1     -12.490  12.220  64.159  1.00  0.00    -0.530 A  
HETATM   12  C   UNL     1     -12.402  14.446  69.910  1.00  0.00    -0.365 A  
HETATM   13  C   UNL     1     -12.236  13.414  63.495  1.00  0.00    -0.468 A  
HETATM   14  C   UNL     1     -12.660  13.399  70.791  1.00  0.00    -0.294 A  
HETATM   15  C   UNL     1     -11.394  14.329  64.099  1.00  0.00    -0.054 A  
HETATM   16  C   UNL     1     -12.198  12.114  70.514  1.00  0.00    -0.392 A  
HETATM   17 BR   UNL     1     -13.626  13.727  72.382  1.00  0.00    -0.709 Br 
HETATM   18  N   UNL     1     -10.794  14.125  65.291  1.00  0.00    -0.329 NA 
HETATM   19  C   UNL     1     -11.456  11.879  69.354  1.00  0.00    -0.366 A  
ENDBRANCH   4   5
ENDBRANCH   2   4
TORSDOF 2
ENDMDL
MODEL       34
REMARK 921   NORMALIZED FREE ENERGY PREDICTED BY IDOCK:   -5.07 KCAL/MOL
REMARK 922        TOTAL FREE ENERGY PREDICTED BY IDOCK:   -5.82 KCAL/MOL
REMARK 923 INTER-LIGAND FREE ENERGY PREDICTED BY IDOCK:   -5.64 KCAL/MOL
REMARK 924 INTRA-LIGAND FREE ENERGY PREDICTED BY IDOCK:   -0.18 KCAL/MOL
REMARK 927      BINDING AFFINITY PREDICTED BY RF-SCORE:    0.00 PKD
ROOT
HETATM    1  C   UNL     1     -10.271  19.489  65.961  1.00  0.00    -0.478 C  
HETATM    2  N   UNL     1      -9.772  18.117  66.061  1.00  0.00    -0.527 NA 
HETATM    3  C   UNL     1      -8.351  18.132  66.425  1.00  0.00    -0.245 C  
ENDROOT
BRANCH   2   4
HETATM    4  C   UNL     1     -10.524  17.326  67.053  1.00  0.00    -0.287 C  
BRANCH   4   5
HETATM    5  C   UNL     1     -10.634  15.830  66.726  1.00  0.00    -0.309 C  
HETATM    6  C   UNL     1     -10.136  14.890  67.852  1.00  0.00    -0.227 C  
HETATM    7  C   UNL     1     -10.992  15.006  69.110  1.00  0.00    -0.265 A  
HETATM    8  C   UNL     1     -10.020  13.450  67.347  1.00  0.00    -0.230 A  
HETATM    9  C   UNL     1     -12.355  14.671  69.095  1.00  0.00    -0.130 A  
HETATM   10  C   UNL     1      -9.105  12.580  67.936  1.00  0.00    -0.199 A  
HETATM   11  C   UNL     1      -8.970  11.291  67.422  1.00  0.00    -0.144 A  
HETATM   12  C   UNL     1     -13.147  14.855  70.231  1.00  0.00    -0.112 A  
HETATM   13  C   UNL     1      -9.755  10.902  66.344  1.00  0.00    -0.240 A  
HETATM   14  C   UNL     1     -12.578  15.365  71.395  1.00  0.00    -0.405 A  
HETATM   15  C   UNL     1     -10.658  11.815  65.831  1.00  0.00    -0.271 A  
HETATM   16  C   UNL     1     -11.223  15.683  71.437  1.00  0.00    -0.392 A  
HETATM   17 BR   UNL     1     -13.657  15.647  72.921  1.00  0.00    -0.621 Br 
HETATM   18  N   UNL     1     -10.811  13.068  66.310  1.00  0.00    -0.277 NA 
HETATM   19  C   UNL     1     -10.434  15.505  70.298  1.00  0.00    -0.282 A  
ENDBRANCH   4   5
ENDBRANCH   2   4
TORSDOF 2
ENDMDL
MODEL       35
REMARK 921   NORMALIZED FREE ENERGY PREDICTED BY IDOCK:   -5.05 KCAL/MOL
REMARK 922        TOTAL FREE ENERGY PREDICTED BY IDOCK:   -5.80 KCAL/MOL
REMARK 923 INTER-LIGAND FREE ENERGY PREDICTED BY IDOCK:   -5.65 KCAL/MOL
REMARK 924 INTRA-LIGAND FREE ENERGY PREDICTED BY IDOCK:   -0.15 KCAL/MOL
REMARK 927      BINDING AFFINITY PREDICTED BY RF-SCORE:    0.00 PKD
ROOT
HETATM    1  C   UNL     1      -9.904  20.365  67.819  1.00  0.00    -0.353 C  
HETATM    2  N   UNL     1     -10.708  19.326  67.173  1.00  0.00    -0.475 NA 
HETATM    3  C   UNL     1     -10.657  19.493  65.717  1.00  0.00    -0.427 C  
ENDROOT
BRANCH   2   4
HETATM    4  C   UNL     1     -10.250  17.970  67.528  1.00  0.00    -0.369 C  
BRANCH   4   5
HETATM    5  C   UNL     1     -10.717  17.477  68.904  1.00  0.00    -0.072 C  
HETATM    6  C   UNL     1     -10.968  15.951  68.987  1.00  0.00    -0.277 C  
HETATM    7  C   UNL     1      -9.686  15.151  68.779  1.00  0.00    -0.221 A  
HETATM    8  C   UNL     1     -11.687  15.588  70.288  1.00  0.00    -0.346 A  
HETATM    9  C   UNL     1      -8.604  15.269  69.665  1.00  0.00    -0.104 A  
HETATM   10  C   UNL     1     -12.497  14.455  70.341  1.00  0.00    -0.420 A  
HETATM   11  C   UNL     1     -13.192  14.175  71.517  1.00  0.00    -0.423 A  
HETATM   12  C   UNL     1      -7.406  14.592  69.422  1.00  0.00    -0.135 A  
HETATM   13  C   UNL     1     -13.055  15.023  72.607  1.00  0.00    -0.509 A  
HETATM   14  C   UNL     1      -7.286  13.781  68.296  1.00  0.00    -0.118 A  
HETATM   15  C   UNL     1     -12.213  16.113  72.485  1.00  0.00    -0.520 A  
HETATM   16  C   UNL     1      -8.356  13.633  67.417  1.00  0.00    -0.198 A  
HETATM   17 BR   UNL     1      -5.654  12.893  67.949  1.00  0.00    -0.129 Br 
HETATM   18  N   UNL     1     -11.525  16.407  71.360  1.00  0.00    -0.329 NA 
HETATM   19  C   UNL     1      -9.551  14.317  67.657  1.00  0.00    -0.219 A  
ENDBRANCH   4   5
ENDBRANCH   2   4
TORSDOF 2
ENDMDL
MODEL       36
REMARK 921   NORMALIZED FREE ENERGY PREDICTED BY IDOCK:   -5.03 KCAL/MOL
REMARK 922        TOTAL FREE ENERGY PREDICTED BY IDOCK:   -5.78 KCAL/MOL
REMARK 923 INTER-LIGAND FREE ENERGY PREDICTED BY IDOCK:   -5.58 KCAL/MOL
REMARK 924 INTRA-LIGAND FREE ENERGY PREDICTED BY IDOCK:   -0.20 KCAL/MOL
REMARK 927      BINDING AFFINITY PREDICTED BY RF-SCORE:    0.00 PKD
ROOT
HETATM    1  C   UNL     1     -12.184  14.833  64.215  1.00  0.00    -0.379 C  
HETATM    2  N   UNL     1     -12.590  13.429  64.288  1.00  0.00    -0.653 NA 
HETATM    3  C   UNL     1     -11.884  12.655  63.262  1.00  0.00    -0.425 C  
ENDROOT
BRANCH   2   4
HETATM    4  C   UNL     1     -12.323  12.843  65.615  1.00  0.00    -0.423 C  
BRANCH   4   5
HETATM    5  C   UNL     1     -10.925  12.231  65.773  1.00  0.00    -0.338 C  
HETATM    6  C   UNL     1     -10.178  12.662  67.061  1.00  0.00    -0.233 C  
HETATM    7  C   UNL     1     -10.887  12.172  68.320  1.00  0.00    -0.256 A  
HETATM    8  C   UNL     1      -8.709  12.237  67.005  1.00  0.00    -0.199 A  
HETATM    9  C   UNL     1     -11.047  10.801  68.577  1.00  0.00    -0.317 A  
HETATM   10  C   UNL     1      -7.751  12.961  67.712  1.00  0.00    -0.151 A  
HETATM   11  C   UNL     1      -6.410  12.596  67.600  1.00  0.00    -0.147 A  
HETATM   12  C   UNL     1     -11.765  10.364  69.693  1.00  0.00    -0.283 A  
HETATM   13  C   UNL     1      -6.062  11.517  66.797  1.00  0.00    -0.147 A  
HETATM   14  C   UNL     1     -12.318  11.297  70.567  1.00  0.00    -0.356 A  
HETATM   15  C   UNL     1      -7.074  10.834  66.148  1.00  0.00    -0.122 A  
HETATM   16  C   UNL     1     -12.151  12.661  70.342  1.00  0.00    -0.381 A  
HETATM   17 BR   UNL     1     -13.319  10.706  72.058  1.00  0.00    -0.256 Br 
HETATM   18  N   UNL     1      -8.380  11.163  66.240  1.00  0.00    -0.170 NA 
HETATM   19  C   UNL     1     -11.439  13.096  69.222  1.00  0.00    -0.348 A  
ENDBRANCH   4   5
ENDBRANCH   2   4
TORSDOF 2
ENDMDL
MODEL       37
REMARK 921   NORMALIZED FREE ENERGY PREDICTED BY IDOCK:   -5.02 KCAL/MOL
REMARK 922        TOTAL FREE ENERGY PREDICTED BY IDOCK:   -5.76 KCAL/MOL
REMARK 923 INTER-LIGAND FREE ENERGY PREDICTED BY IDOCK:   -5.43 KCAL/MOL
REMARK 924 INTRA-LIGAND FREE ENERGY PREDICTED BY IDOCK:   -0.33 KCAL/MOL
REMARK 927      BINDING AFFINITY PREDICTED BY RF-SCORE:    0.00 PKD
ROOT
HETATM    1  C   UNL     1     -11.935   8.110  72.458  1.00  0.00    -0.350 C  
HETATM    2  N   UNL     1     -12.914   8.830  71.641  1.00  0.00    -0.336 NA 
HETATM    3  C   UNL     1     -14.262   8.611  72.178  1.00  0.00    -0.439 C  
ENDROOT
BRANCH   2   4
HETATM    4  C   UNL     1     -12.636  10.277  71.589  1.00  0.00    -0.432 C  
BRANCH   4   5
HETATM    5  C   UNL     1     -12.456  10.842  70.173  1.00  0.00    -0.357 C  
HETATM    6  C   UNL     1     -10.983  11.085  69.762  1.00  0.00    -0.258 C  
HETATM    7  C   UNL     1     -10.190   9.783  69.689  1.00  0.00    -0.254 A  
HETATM    8  C   UNL     1     -10.906  11.897  68.467  1.00  0.00    -0.221 A  
HETATM    9  C   UNL     1     -10.535   8.773  68.778  1.00  0.00    -0.214 A  
HETATM   10  C   UNL     1      -9.795  12.699  68.216  1.00  0.00    -0.227 A  
HETATM   11  C   UNL     1      -9.771  13.478  67.060  1.00  0.00    -0.251 A  
HETATM   12  C   UNL     1      -9.852   7.554  68.773  1.00  0.00    -0.166 A  
HETATM   13  C   UNL     1     -10.848  13.432  66.185  1.00  0.00    -0.287 A  
HETATM   14  C   UNL     1      -8.810   7.342  69.672  1.00  0.00    -0.141 A  
HETATM   15  C   UNL     1     -11.903  12.593  66.492  1.00  0.00    -0.396 A  
HETATM   16  C   UNL     1      -8.438   8.341  70.569  1.00  0.00    -0.129 A  
HETATM   17 BR   UNL     1      -7.908   5.681  69.689  1.00  0.00    -0.092 Br 
HETATM   18  N   UNL     1     -11.952  11.825  67.602  1.00  0.00    -0.606 NA 
HETATM   19  C   UNL     1      -9.127   9.556  70.578  1.00  0.00    -0.276 A  
ENDBRANCH   4   5
ENDBRANCH   2   4
TORSDOF 2
ENDMDL
MODEL       38
REMARK 921   NORMALIZED FREE ENERGY PREDICTED BY IDOCK:   -4.93 KCAL/MOL
REMARK 922        TOTAL FREE ENERGY PREDICTED BY IDOCK:   -5.66 KCAL/MOL
REMARK 923 INTER-LIGAND FREE ENERGY PREDICTED BY IDOCK:   -5.51 KCAL/MOL
REMARK 924 INTRA-LIGAND FREE ENERGY PREDICTED BY IDOCK:   -0.15 KCAL/MOL
REMARK 927      BINDING AFFINITY PREDICTED BY RF-SCORE:    0.00 PKD
ROOT
HETATM    1  C   UNL     1     -12.508  13.172  63.858  1.00  0.00    -0.278 C  
HETATM    2  N   UNL     1     -12.065  12.956  65.236  1.00  0.00    -0.425 NA 
HETATM    3  C   UNL     1     -11.176  11.791  65.293  1.00  0.00    -0.254 C  
ENDROOT
BRANCH   2   4
HETATM    4  C   UNL     1     -11.366  14.133  65.783  1.00  0.00    -0.317 C  
BRANCH   4   5
HETATM    5  C   UNL     1     -11.806  14.537  67.197  1.00  0.00    -0.412 C  
HETATM    6  C   UNL     1     -11.358  13.560  68.312  1.00  0.00    -0.328 C  
HETATM    7  C   UNL     1      -9.839  13.513  68.451  1.00  0.00    -0.225 A  
HETATM    8  C   UNL     1     -12.063  13.880  69.632  1.00  0.00    -0.349 A  
HETATM    9  C   UNL     1      -9.108  14.654  68.817  1.00  0.00    -0.178 A  
HETATM   10  C   UNL     1     -12.275  12.870  70.568  1.00  0.00    -0.395 A  
HETATM   11  C   UNL     1     -12.973  13.167  71.738  1.00  0.00    -0.435 A  
HETATM   12  C   UNL     1      -7.712  14.621  68.866  1.00  0.00    -0.141 A  
HETATM   13  C   UNL     1     -13.433  14.461  71.945  1.00  0.00    -0.479 A  
HETATM   14  C   UNL     1      -7.038  13.442  68.560  1.00  0.00    -0.108 A  
HETATM   15  C   UNL     1     -13.162  15.413  70.981  1.00  0.00    -0.496 A  
HETATM   16  C   UNL     1      -7.746  12.293  68.217  1.00  0.00    -0.143 A  
HETATM   17 BR   UNL     1      -5.148  13.406  68.592  1.00  0.00    -0.078 Br 
HETATM   18  N   UNL     1     -12.486  15.154  69.841  1.00  0.00    -0.272 NA 
HETATM   19  C   UNL     1      -9.142  12.329  68.161  1.00  0.00    -0.196 A  
ENDBRANCH   4   5
ENDBRANCH   2   4
TORSDOF 2
ENDMDL
MODEL       39
REMARK 921   NORMALIZED FREE ENERGY PREDICTED BY IDOCK:   -4.90 KCAL/MOL
REMARK 922        TOTAL FREE ENERGY PREDICTED BY IDOCK:   -5.64 KCAL/MOL
REMARK 923 INTER-LIGAND FREE ENERGY PREDICTED BY IDOCK:   -5.47 KCAL/MOL
REMARK 924 INTRA-LIGAND FREE ENERGY PREDICTED BY IDOCK:   -0.17 KCAL/MOL
REMARK 927      BINDING AFFINITY PREDICTED BY RF-SCORE:    0.00 PKD
ROOT
HETATM    1  C   UNL     1     -13.210  15.497  72.095  1.00  0.00    -0.450 C  
HETATM    2  N   UNL     1     -12.731  14.214  71.579  1.00  0.00    -0.341 NA 
HETATM    3  C   UNL     1     -13.443  13.117  72.242  1.00  0.00    -0.568 C  
ENDROOT
BRANCH   2   4
HETATM    4  C   UNL     1     -12.907  14.103  70.120  1.00  0.00    -0.054 C  
BRANCH   4   5
HETATM    5  C   UNL     1     -11.944  13.125  69.432  1.00  0.00    -0.347 C  
HETATM    6  C   UNL     1     -11.479  13.568  68.023  1.00  0.00    -0.342 C  
HETATM    7  C   UNL     1     -10.651  14.849  68.074  1.00  0.00    -0.248 A  
HETATM    8  C   UNL     1     -10.758  12.426  67.304  1.00  0.00    -0.230 A  
HETATM    9  C   UNL     1      -9.428  14.897  68.762  1.00  0.00    -0.214 A  
HETATM   10  C   UNL     1     -10.760  12.371  65.912  1.00  0.00    -0.299 A  
HETATM   11  C   UNL     1     -10.151  11.290  65.277  1.00  0.00    -0.318 A  
HETATM   12  C   UNL     1      -8.717  16.094  68.868  1.00  0.00    -0.248 A  
HETATM   13  C   UNL     1      -9.549  10.300  66.044  1.00  0.00    -0.259 A  
HETATM   14  C   UNL     1      -9.217  17.251  68.276  1.00  0.00    -0.265 A  
HETATM   15  C   UNL     1      -9.566  10.440  67.419  1.00  0.00    -0.154 A  
HETATM   16  C   UNL     1     -10.417  17.219  67.570  1.00  0.00    -0.356 A  
HETATM   17 BR   UNL     1      -8.272  18.878  68.449  1.00  0.00    -0.387 Br 
HETATM   18  N   UNL     1     -10.147  11.476  68.060  1.00  0.00    -0.181 NA 
HETATM   19  C   UNL     1     -11.132  16.022  67.470  1.00  0.00    -0.207 A  
ENDBRANCH   4   5
ENDBRANCH   2   4
TORSDOF 2
ENDMDL
MODEL       40
REMARK 921   NORMALIZED FREE ENERGY PREDICTED BY IDOCK:   -4.87 KCAL/MOL
REMARK 922        TOTAL FREE ENERGY PREDICTED BY IDOCK:   -5.60 KCAL/MOL
REMARK 923 INTER-LIGAND FREE ENERGY PREDICTED BY IDOCK:   -5.31 KCAL/MOL
REMARK 924 INTRA-LIGAND FREE ENERGY PREDICTED BY IDOCK:   -0.29 KCAL/MOL
REMARK 927      BINDING AFFINITY PREDICTED BY RF-SCORE:    0.00 PKD
ROOT
HETATM    1  C   UNL     1      -5.748   9.341  71.819  1.00  0.00    -0.071 C  
HETATM    2  N   UNL     1      -6.807   9.913  70.986  1.00  0.00    -0.336 NA 
HETATM    3  C   UNL     1      -6.250  10.965  70.130  1.00  0.00    -0.142 C  
ENDROOT
BRANCH   2   4
HETATM    4  C   UNL     1      -7.463   8.894  70.147  1.00  0.00    -0.065 C  
BRANCH   4   5
HETATM    5  C   UNL     1      -8.924   8.603  70.519  1.00  0.00    -0.185 C  
HETATM    6  C   UNL     1      -9.903   9.768  70.230  1.00  0.00    -0.296 C  
HETATM    7  C   UNL     1     -10.007  10.066  68.737  1.00  0.00    -0.181 A  
HETATM    8  C   UNL     1     -11.265   9.507  70.876  1.00  0.00    -0.341 A  
HETATM    9  C   UNL     1     -10.495   9.107  67.836  1.00  0.00    -0.293 A  
HETATM   10  C   UNL     1     -12.075  10.578  71.244  1.00  0.00    -0.432 A  
HETATM   11  C   UNL     1     -13.286  10.322  71.887  1.00  0.00    -0.550 A  
HETATM   12  C   UNL     1     -10.512   9.362  66.463  1.00  0.00    -0.199 A  
HETATM   13  C   UNL     1     -13.658   9.008  72.139  1.00  0.00    -0.523 A  
HETATM   14  C   UNL     1     -10.053  10.586  65.981  1.00  0.00    -0.256 A  
HETATM   15  C   UNL     1     -12.811   7.999  71.721  1.00  0.00    -0.332 A  
HETATM   16  C   UNL     1      -9.586  11.559  66.861  1.00  0.00    -0.203 A  
HETATM   17 BR   UNL     1     -10.044  10.918  64.121  1.00  0.00    -0.436 Br 
HETATM   18  N   UNL     1     -11.635   8.217  71.094  1.00  0.00    -0.276 NA 
HETATM   19  C   UNL     1      -9.562  11.300  68.233  1.00  0.00    -0.193 A  
ENDBRANCH   4   5
ENDBRANCH   2   4
TORSDOF 2
ENDMDL
MODEL       41
REMARK 921   NORMALIZED FREE ENERGY PREDICTED BY IDOCK:   -4.85 KCAL/MOL
REMARK 922        TOTAL FREE ENERGY PREDICTED BY IDOCK:   -5.58 KCAL/MOL
REMARK 923 INTER-LIGAND FREE ENERGY PREDICTED BY IDOCK:   -5.33 KCAL/MOL
REMARK 924 INTRA-LIGAND FREE ENERGY PREDICTED BY IDOCK:   -0.25 KCAL/MOL
REMARK 927      BINDING AFFINITY PREDICTED BY RF-SCORE:    0.00 PKD
ROOT
HETATM    1  C   UNL     1     -11.928   9.430  71.542  1.00  0.00    -0.382 C  
HETATM    2  N   UNL     1     -11.041  10.183  70.655  1.00  0.00    -0.323 NA 
HETATM    3  C   UNL     1      -9.870   9.368  70.318  1.00  0.00    -0.243 C  
ENDROOT
BRANCH   2   4
HETATM    4  C   UNL     1     -11.722  10.600  69.415  1.00  0.00    -0.273 C  
BRANCH   4   5
HETATM    5  C   UNL     1     -11.780  12.119  69.198  1.00  0.00    -0.384 C  
HETATM    6  C   UNL     1     -10.499  12.726  68.574  1.00  0.00    -0.252 C  
HETATM    7  C   UNL     1     -10.255  12.210  67.159  1.00  0.00    -0.226 A  
HETATM    8  C   UNL     1     -10.530  14.254  68.649  1.00  0.00    -0.249 A  
HETATM    9  C   UNL     1     -11.172  12.459  66.126  1.00  0.00    -0.364 A  
HETATM   10  C   UNL     1      -9.336  14.971  68.695  1.00  0.00    -0.202 A  
HETATM   11  C   UNL     1      -9.384  16.359  68.824  1.00  0.00    -0.245 A  
HETATM   12  C   UNL     1     -10.978  11.916  64.854  1.00  0.00    -0.367 A  
HETATM   13  C   UNL     1     -10.618  16.993  68.896  1.00  0.00    -0.328 A  
HETATM   14  C   UNL     1      -9.858  11.129  64.602  1.00  0.00    -0.280 A  
HETATM   15  C   UNL     1     -11.758  16.214  68.818  1.00  0.00    -0.231 A  
HETATM   16  C   UNL     1      -8.924  10.888  65.607  1.00  0.00    -0.209 A  
HETATM   17 BR   UNL     1      -9.613  10.365  62.890  1.00  0.00    -0.267 Br 
HETATM   18  N   UNL     1     -11.741  14.870  68.690  1.00  0.00    -0.331 NA 
HETATM   19  C   UNL     1      -9.123  11.426  66.881  1.00  0.00    -0.178 A  
ENDBRANCH   4   5
ENDBRANCH   2   4
TORSDOF 2
ENDMDL
MODEL       42
REMARK 921   NORMALIZED FREE ENERGY PREDICTED BY IDOCK:   -4.84 KCAL/MOL
REMARK 922        TOTAL FREE ENERGY PREDICTED BY IDOCK:   -5.57 KCAL/MOL
REMARK 923 INTER-LIGAND FREE ENERGY PREDICTED BY IDOCK:   -5.41 KCAL/MOL
REMARK 924 INTRA-LIGAND FREE ENERGY PREDICTED BY IDOCK:   -0.16 KCAL/MOL
REMARK 927      BINDING AFFINITY PREDICTED BY RF-SCORE:    0.00 PKD
ROOT
HETATM    1  C   UNL     1     -11.061   9.443  71.359  1.00  0.00    -0.380 C  
HETATM    2  N   UNL     1     -12.291   9.954  70.754  1.00  0.00    -0.290 NA 
HETATM    3  C   UNL     1     -13.104  10.623  71.776  1.00  0.00    -0.466 C  
ENDROOT
BRANCH   2   4
HETATM    4  C   UNL     1     -12.018  10.894  69.652  1.00  0.00    -0.343 C  
BRANCH   4   5
HETATM    5  C   UNL     1     -10.824  10.511  68.767  1.00  0.00    -0.269 C  
HETATM    6  C   UNL     1     -10.856  11.129  67.346  1.00  0.00    -0.317 C  
HETATM    7  C   UNL     1     -10.750  12.651  67.385  1.00  0.00    -0.251 A  
HETATM    8  C   UNL     1      -9.796  10.486  66.450  1.00  0.00    -0.210 A  
HETATM    9  C   UNL     1      -9.612  13.287  67.903  1.00  0.00    -0.217 A  
HETATM   10  C   UNL     1      -9.989  10.439  65.071  1.00  0.00    -0.399 A  
HETATM   11  C   UNL     1      -9.041   9.795  64.276  1.00  0.00    -0.293 A  
HETATM   12  C   UNL     1      -9.559  14.679  68.006  1.00  0.00    -0.212 A  
HETATM   13  C   UNL     1      -7.926   9.223  64.876  1.00  0.00    -0.121 A  
HETATM   14  C   UNL     1     -10.640  15.446  67.579  1.00  0.00    -0.283 A  
HETATM   15  C   UNL     1      -7.794   9.333  66.247  1.00  0.00    -0.103 A  
HETATM   16  C   UNL     1     -11.769  14.835  67.041  1.00  0.00    -0.330 A  
HETATM   17 BR   UNL     1     -10.581  17.328  67.750  1.00  0.00    -0.341 Br 
HETATM   18  N   UNL     1      -8.694   9.953  67.040  1.00  0.00    -0.131 NA 
HETATM   19  C   UNL     1     -11.825  13.442  66.946  1.00  0.00    -0.453 A  
ENDBRANCH   4   5
ENDBRANCH   2   4
TORSDOF 2
ENDMDL
MODEL       43
REMARK 921   NORMALIZED FREE ENERGY PREDICTED BY IDOCK:   -4.79 KCAL/MOL
REMARK 922        TOTAL FREE ENERGY PREDICTED BY IDOCK:   -5.51 KCAL/MOL
REMARK 923 INTER-LIGAND FREE ENERGY PREDICTED BY IDOCK:   -5.33 KCAL/MOL
REMARK 924 INTRA-LIGAND FREE ENERGY PREDICTED BY IDOCK:   -0.18 KCAL/MOL
REMARK 927      BINDING AFFINITY PREDICTED BY RF-SCORE:    0.00 PKD
ROOT
HETATM    1  C   UNL     1     -10.431  17.288  68.437  1.00  0.00    -0.381 C  
HETATM    2  N   UNL     1      -9.735  16.272  69.228  1.00  0.00    -0.254 NA 
HETATM    3  C   UNL     1     -10.659  15.686  70.204  1.00  0.00    -0.334 C  
ENDROOT
BRANCH   2   4
HETATM    4  C   UNL     1      -9.171  15.203  68.383  1.00  0.00    -0.189 C  
BRANCH   4   5
HETATM    5  C   UNL     1     -10.179  14.539  67.435  1.00  0.00    -0.240 C  
HETATM    6  C   UNL     1      -9.635  13.293  66.693  1.00  0.00    -0.262 C  
HETATM    7  C   UNL     1      -9.305  12.156  67.656  1.00  0.00    -0.187 A  
HETATM    8  C   UNL     1     -10.590  12.864  65.578  1.00  0.00    -0.279 A  
HETATM    9  C   UNL     1     -10.301  11.557  68.442  1.00  0.00    -0.214 A  
HETATM   10  C   UNL     1     -10.097  12.189  64.462  1.00  0.00    -0.286 A  
HETATM   11  C   UNL     1     -10.973  11.861  63.428  1.00  0.00    -0.470 A  
HETATM   12  C   UNL     1      -9.976  10.571  69.376  1.00  0.00    -0.220 A  
HETATM   13  C   UNL     1     -12.314  12.205  63.537  1.00  0.00    -0.682 A  
HETATM   14  C   UNL     1      -8.651  10.168  69.523  1.00  0.00    -0.164 A  
HETATM   15  C   UNL     1     -12.731  12.852  64.685  1.00  0.00    -0.330 A  
HETATM   16  C   UNL     1      -7.650  10.734  68.736  1.00  0.00    -0.113 A  
HETATM   17 BR   UNL     1      -8.205   8.859  70.811  1.00  0.00    -0.220 Br 
HETATM   18  N   UNL     1     -11.906  13.179  65.703  1.00  0.00    -0.365 NA 
HETATM   19  C   UNL     1      -7.976  11.725  67.807  1.00  0.00    -0.141 A  
ENDBRANCH   4   5
ENDBRANCH   2   4
TORSDOF 2
ENDMDL
MODEL       44
REMARK 921   NORMALIZED FREE ENERGY PREDICTED BY IDOCK:   -4.78 KCAL/MOL
REMARK 922        TOTAL FREE ENERGY PREDICTED BY IDOCK:   -5.50 KCAL/MOL
REMARK 923 INTER-LIGAND FREE ENERGY PREDICTED BY IDOCK:   -5.34 KCAL/MOL
REMARK 924 INTRA-LIGAND FREE ENERGY PREDICTED BY IDOCK:   -0.16 KCAL/MOL
REMARK 927      BINDING AFFINITY PREDICTED BY RF-SCORE:    0.00 PKD
ROOT
HETATM    1  C   UNL     1     -13.008  10.484  70.357  1.00  0.00    -0.144 C  
HETATM    2  N   UNL     1     -11.585  10.503  70.697  1.00  0.00    -0.339 NA 
HETATM    3  C   UNL     1     -11.271   9.370  71.573  1.00  0.00    -0.386 C  
ENDROOT
BRANCH   2   4
HETATM    4  C   UNL     1     -10.728  10.449  69.498  1.00  0.00    -0.251 C  
BRANCH   4   5
HETATM    5  C   UNL     1     -11.302  11.165  68.269  1.00  0.00    -0.365 C  
HETATM    6  C   UNL     1     -10.239  11.831  67.360  1.00  0.00    -0.220 C  
HETATM    7  C   UNL     1      -9.308  10.802  66.725  1.00  0.00    -0.182 A  
HETATM    8  C   UNL     1     -10.902  12.746  66.328  1.00  0.00    -0.275 A  
HETATM    9  C   UNL     1      -9.799   9.821  65.849  1.00  0.00    -0.352 A  
HETATM   10  C   UNL     1     -10.201  13.836  65.816  1.00  0.00    -0.322 A  
HETATM   11  C   UNL     1     -10.843  14.693  64.922  1.00  0.00    -0.436 A  
HETATM   12  C   UNL     1      -8.952   8.837  65.335  1.00  0.00    -0.211 A  
HETATM   13  C   UNL     1     -12.158  14.436  64.559  1.00  0.00    -0.498 A  
HETATM   14  C   UNL     1      -7.604   8.834  65.684  1.00  0.00    -0.086 A  
HETATM   15  C   UNL     1     -12.777  13.321  65.091  1.00  0.00    -0.402 A  
HETATM   16  C   UNL     1      -7.093   9.812  66.533  1.00  0.00    -0.090 A  
HETATM   17 BR   UNL     1      -6.465   7.481  65.015  1.00  0.00    -0.037 Br 
HETATM   18  N   UNL     1     -12.180  12.472  65.955  1.00  0.00    -0.620 NA 
HETATM   19  C   UNL     1      -7.943  10.791  67.053  1.00  0.00    -0.124 A  
ENDBRANCH   4   5
ENDBRANCH   2   4
TORSDOF 2
ENDMDL
MODEL       45
REMARK 921   NORMALIZED FREE ENERGY PREDICTED BY IDOCK:   -4.78 KCAL/MOL
REMARK 922        TOTAL FREE ENERGY PREDICTED BY IDOCK:   -5.49 KCAL/MOL
REMARK 923 INTER-LIGAND FREE ENERGY PREDICTED BY IDOCK:   -5.24 KCAL/MOL
REMARK 924 INTRA-LIGAND FREE ENERGY PREDICTED BY IDOCK:   -0.26 KCAL/MOL
REMARK 927      BINDING AFFINITY PREDICTED BY RF-SCORE:    0.00 PKD
ROOT
HETATM    1  C   UNL     1     -10.834   9.532  71.048  1.00  0.00    -0.353 C  
HETATM    2  N   UNL     1     -10.241  10.245  69.916  1.00  0.00    -0.235 NA 
HETATM    3  C   UNL     1      -8.811   9.932  69.827  1.00  0.00    -0.211 C  
ENDROOT
BRANCH   2   4
HETATM    4  C   UNL     1     -10.898   9.905  68.640  1.00  0.00    -0.209 C  
BRANCH   4   5
HETATM    5  C   UNL     1      -9.993  10.012  67.406  1.00  0.00    -0.242 C  
HETATM    6  C   UNL     1     -10.512  10.978  66.312  1.00  0.00    -0.310 C  
HETATM    7  C   UNL     1     -10.555  12.422  66.803  1.00  0.00    -0.250 A  
HETATM    8  C   UNL     1      -9.710  10.817  65.019  1.00  0.00    -0.269 A  
HETATM    9  C   UNL     1      -9.385  13.094  67.188  1.00  0.00    -0.235 A  
HETATM   10  C   UNL     1     -10.302  11.116  63.794  1.00  0.00    -0.447 A  
HETATM   11  C   UNL     1      -9.576  10.904  62.622  1.00  0.00    -0.290 A  
HETATM   12  C   UNL     1      -9.445  14.389  67.709  1.00  0.00    -0.211 A  
HETATM   13  C   UNL     1      -8.281  10.410  62.704  1.00  0.00    -0.177 A  
HETATM   14  C   UNL     1     -10.676  15.026  67.838  1.00  0.00    -0.268 A  
HETATM   15  C   UNL     1      -7.755  10.162  63.958  1.00  0.00    -0.136 A  
HETATM   16  C   UNL     1     -11.847  14.384  67.440  1.00  0.00    -0.430 A  
HETATM   17 BR   UNL     1     -10.761  16.764  68.575  1.00  0.00    -0.353 Br 
HETATM   18  N   UNL     1      -8.433  10.360  65.108  1.00  0.00    -0.170 NA 
HETATM   19  C   UNL     1     -11.786  13.087  66.926  1.00  0.00    -0.442 A  
ENDBRANCH   4   5
ENDBRANCH   2   4
TORSDOF 2
ENDMDL
MODEL       46
REMARK 921   NORMALIZED FREE ENERGY PREDICTED BY IDOCK:   -4.77 KCAL/MOL
REMARK 922        TOTAL FREE ENERGY PREDICTED BY IDOCK:   -5.49 KCAL/MOL
REMARK 923 INTER-LIGAND FREE ENERGY PREDICTED BY IDOCK:   -5.04 KCAL/MOL
REMARK 924 INTRA-LIGAND FREE ENERGY PREDICTED BY IDOCK:   -0.45 KCAL/MOL
REMARK 927      BINDING AFFINITY PREDICTED BY RF-SCORE:    0.00 PKD
ROOT
HETATM    1  C   UNL     1      -9.082  12.603  66.761  1.00  0.00    -0.214 C  
HETATM    2  N   UNL     1     -10.497  12.598  66.390  1.00  0.00    -0.246 NA 
HETATM    3  C   UNL     1     -11.320  12.358  67.580  1.00  0.00    -0.312 C  
ENDROOT
BRANCH   2   4
HETATM    4  C   UNL     1     -10.908  13.864  65.756  1.00  0.00    -0.289 C  
BRANCH   4   5
HETATM    5  C   UNL     1      -9.881  14.999  65.868  1.00  0.00    -0.369 C  
HETATM    6  C   UNL     1     -10.401  16.265  66.593  1.00  0.00    -0.302 C  
HETATM    7  C   UNL     1     -10.732  15.987  68.057  1.00  0.00    -0.309 A  
HETATM    8  C   UNL     1      -9.426  17.431  66.419  1.00  0.00    -0.261 A  
HETATM    9  C   UNL     1      -9.739  15.578  68.961  1.00  0.00    -0.237 A  
HETATM   10  C   UNL     1      -9.896  18.741  66.462  1.00  0.00    -0.398 A  
HETATM   11  C   UNL     1      -9.003  19.789  66.240  1.00  0.00    -0.431 A  
HETATM   12  C   UNL     1     -10.067  15.251  70.279  1.00  0.00    -0.020 A  
HETATM   13  C   UNL     1      -7.667  19.502  65.989  1.00  0.00    -0.322 A  
HETATM   14  C   UNL     1     -11.389  15.343  70.706  1.00  0.00    -0.345 A  
HETATM   15  C   UNL     1      -7.273  18.177  65.986  1.00  0.00    -0.270 A  
HETATM   16  C   UNL     1     -12.385  15.769  69.830  1.00  0.00    -0.204 A  
HETATM   17 BR   UNL     1     -11.838  14.868  72.480  1.00  0.00    -0.269 Br 
HETATM   18  N   UNL     1      -8.115  17.144  66.201  1.00  0.00    -0.458 NA 
HETATM   19  C   UNL     1     -12.057  16.089  68.510  1.00  0.00     0.218 A  
ENDBRANCH   4   5
ENDBRANCH   2   4
TORSDOF 2
ENDMDL
MODEL       47
REMARK 921   NORMALIZED FREE ENERGY PREDICTED BY IDOCK:   -4.75 KCAL/MOL
REMARK 922        TOTAL FREE ENERGY PREDICTED BY IDOCK:   -5.46 KCAL/MOL
REMARK 923 INTER-LIGAND FREE ENERGY PREDICTED BY IDOCK:   -5.28 KCAL/MOL
REMARK 924 INTRA-LIGAND FREE ENERGY PREDICTED BY IDOCK:   -0.18 KCAL/MOL
REMARK 927      BINDING AFFINITY PREDICTED BY RF-SCORE:    0.00 PKD
ROOT
HETATM    1  C   UNL     1     -10.497  12.396  63.480  1.00  0.00    -0.393 C  
HETATM    2  N   UNL     1     -11.851  12.952  63.457  1.00  0.00    -0.526 NA 
HETATM    3  C   UNL     1     -12.833  11.865  63.512  1.00  0.00    -0.305 C  
ENDROOT
BRANCH   2   4
HETATM    4  C   UNL     1     -12.086  13.884  64.575  1.00  0.00    -0.443 C  
BRANCH   4   5
HETATM    5  C   UNL     1     -10.811  14.458  65.208  1.00  0.00    -0.370 C  
HETATM    6  C   UNL     1     -10.725  14.286  66.745  1.00  0.00    -0.287 C  
HETATM    7  C   UNL     1     -10.650  12.816  67.150  1.00  0.00    -0.249 A  
HETATM    8  C   UNL     1      -9.578  15.117  67.322  1.00  0.00    -0.209 A  
HETATM    9  C   UNL     1      -9.574  12.007  66.753  1.00  0.00    -0.215 A  
HETATM   10  C   UNL     1      -9.645  15.574  68.637  1.00  0.00    -0.203 A  
HETATM   11  C   UNL     1      -8.619  16.382  69.126  1.00  0.00    -0.182 A  
HETATM   12  C   UNL     1      -9.553  10.645  67.062  1.00  0.00    -0.196 A  
HETATM   13  C   UNL     1      -7.553  16.704  68.297  1.00  0.00    -0.181 A  
HETATM   14  C   UNL     1     -10.605  10.084  67.783  1.00  0.00    -0.261 A  
HETATM   15  C   UNL     1      -7.547  16.192  67.013  1.00  0.00    -0.225 A  
HETATM   16  C   UNL     1     -11.671  10.875  68.206  1.00  0.00    -0.259 A  
HETATM   17 BR   UNL     1     -10.594   8.235  68.172  1.00  0.00    -0.109 Br 
HETATM   18  N   UNL     1      -8.525  15.406  66.514  1.00  0.00    -0.262 NA 
HETATM   19  C   UNL     1     -11.694  12.235  67.889  1.00  0.00    -0.410 A  
ENDBRANCH   4   5
ENDBRANCH   2   4
TORSDOF 2
ENDMDL
MODEL       48
REMARK 921   NORMALIZED FREE ENERGY PREDICTED BY IDOCK:   -4.74 KCAL/MOL
REMARK 922        TOTAL FREE ENERGY PREDICTED BY IDOCK:   -5.46 KCAL/MOL
REMARK 923 INTER-LIGAND FREE ENERGY PREDICTED BY IDOCK:   -5.14 KCAL/MOL
REMARK 924 INTRA-LIGAND FREE ENERGY PREDICTED BY IDOCK:   -0.32 KCAL/MOL
REMARK 927      BINDING AFFINITY PREDICTED BY RF-SCORE:    0.00 PKD
ROOT
HETATM    1  C   UNL     1     -11.052   7.851  71.577  1.00  0.00    -0.241 C  
HETATM    2  N   UNL     1     -12.091   8.737  71.050  1.00  0.00    -0.265 NA 
HETATM    3  C   UNL     1     -13.323   8.575  71.830  1.00  0.00    -0.372 C  
ENDROOT
BRANCH   2   4
HETATM    4  C   UNL     1     -11.678  10.152  71.075  1.00  0.00    -0.382 C  
BRANCH   4   5
HETATM    5  C   UNL     1     -11.860  10.896  69.745  1.00  0.00    -0.419 C  
HETATM    6  C   UNL     1     -10.563  11.049  68.913  1.00  0.00    -0.239 C  
HETATM    7  C   UNL     1     -10.019   9.699  68.453  1.00  0.00    -0.178 A  
HETATM    8  C   UNL     1     -10.771  12.027  67.755  1.00  0.00    -0.210 A  
HETATM    9  C   UNL     1     -10.762   8.869  67.598  1.00  0.00    -0.221 A  
HETATM   10  C   UNL     1      -9.689  12.743  67.248  1.00  0.00    -0.206 A  
HETATM   11  C   UNL     1      -9.909  13.675  66.234  1.00  0.00    -0.310 A  
HETATM   12  C   UNL     1     -10.289   7.603  67.246  1.00  0.00    -0.367 A  
HETATM   13  C   UNL     1     -11.197  13.862  65.750  1.00  0.00    -0.303 A  
HETATM   14  C   UNL     1      -9.063   7.161  67.737  1.00  0.00    -0.127 A  
HETATM   15  C   UNL     1     -12.214  13.096  66.287  1.00  0.00    -0.355 A  
HETATM   16  C   UNL     1      -8.301   7.979  68.569  1.00  0.00    -0.127 A  
HETATM   17 BR   UNL     1      -8.440   5.434  67.289  1.00  0.00    -0.105 Br 
HETATM   18  N   UNL     1     -12.030  12.184  67.267  1.00  0.00    -0.578 NA 
HETATM   19  C   UNL     1      -8.778   9.242  68.926  1.00  0.00    -0.131 A  
ENDBRANCH   4   5
ENDBRANCH   2   4
TORSDOF 2
ENDMDL
MODEL       49
REMARK 921   NORMALIZED FREE ENERGY PREDICTED BY IDOCK:   -4.74 KCAL/MOL
REMARK 922        TOTAL FREE ENERGY PREDICTED BY IDOCK:   -5.45 KCAL/MOL
REMARK 923 INTER-LIGAND FREE ENERGY PREDICTED BY IDOCK:   -5.28 KCAL/MOL
REMARK 924 INTRA-LIGAND FREE ENERGY PREDICTED BY IDOCK:   -0.17 KCAL/MOL
REMARK 927      BINDING AFFINITY PREDICTED BY RF-SCORE:    0.00 PKD
ROOT
HETATM    1  C   UNL     1      -5.949   9.600  71.027  1.00  0.00    -0.080 C  
HETATM    2  N   UNL     1      -6.603  10.838  70.602  1.00  0.00    -0.304 NA 
HETATM    3  C   UNL     1      -5.590  11.845  70.271  1.00  0.00    -0.145 C  
ENDROOT
BRANCH   2   4
HETATM    4  C   UNL     1      -7.484  10.628  69.438  1.00  0.00    -0.135 C  
BRANCH   4   5
HETATM    5  C   UNL     1      -8.553   9.543  69.634  1.00  0.00    -0.189 C  
HETATM    6  C   UNL     1      -9.945  10.083  70.047  1.00  0.00    -0.273 C  
HETATM    7  C   UNL     1     -10.566  10.951  68.956  1.00  0.00    -0.248 A  
HETATM    8  C   UNL     1     -10.862   8.940  70.487  1.00  0.00    -0.236 A  
HETATM    9  C   UNL     1     -10.874  10.421  67.694  1.00  0.00    -0.361 A  
HETATM   10  C   UNL     1     -11.888   9.185  71.397  1.00  0.00    -0.415 A  
HETATM   11  C   UNL     1     -12.675   8.119  71.833  1.00  0.00    -0.361 A  
HETATM   12  C   UNL     1     -11.369  11.243  66.678  1.00  0.00    -0.154 A  
HETATM   13  C   UNL     1     -12.424   6.843  71.344  1.00  0.00    -0.413 A  
HETATM   14  C   UNL     1     -11.571  12.598  66.922  1.00  0.00    -0.373 A  
HETATM   15  C   UNL     1     -11.405   6.686  70.424  1.00  0.00    -0.365 A  
HETATM   16  C   UNL     1     -11.293  13.138  68.175  1.00  0.00    -0.328 A  
HETATM   17 BR   UNL     1     -12.209  13.716  65.537  1.00  0.00    -0.514 Br 
HETATM   18  N   UNL     1     -10.629   7.700  69.982  1.00  0.00    -0.234 NA 
HETATM   19  C   UNL     1     -10.791  12.318  69.188  1.00  0.00    -0.149 A  
ENDBRANCH   4   5
ENDBRANCH   2   4
TORSDOF 2
ENDMDL
MODEL       50
REMARK 921   NORMALIZED FREE ENERGY PREDICTED BY IDOCK:   -4.72 KCAL/MOL
REMARK 922        TOTAL FREE ENERGY PREDICTED BY IDOCK:   -5.43 KCAL/MOL
REMARK 923 INTER-LIGAND FREE ENERGY PREDICTED BY IDOCK:   -5.25 KCAL/MOL
REMARK 924 INTRA-LIGAND FREE ENERGY PREDICTED BY IDOCK:   -0.18 KCAL/MOL
REMARK 927      BINDING AFFINITY PREDICTED BY RF-SCORE:    0.00 PKD
ROOT
HETATM    1  C   UNL     1     -11.855   9.804  71.480  1.00  0.00    -0.399 C  
HETATM    2  N   UNL     1     -12.694  10.833  70.863  1.00  0.00    -0.372 NA 
HETATM    3  C   UNL     1     -13.253  11.704  71.903  1.00  0.00    -0.369 C  
ENDROOT
BRANCH   2   4
HETATM    4  C   UNL     1     -11.945  11.648  69.890  1.00  0.00    -0.340 C  
BRANCH   4   5
HETATM    5  C   UNL     1     -10.710  10.959  69.294  1.00  0.00    -0.271 C  
HETATM    6  C   UNL     1     -10.788  10.711  67.767  1.00  0.00    -0.338 C  
HETATM    7  C   UNL     1     -10.835  12.018  66.981  1.00  0.00    -0.297 A  
HETATM    8  C   UNL     1      -9.660   9.785  67.308  1.00  0.00    -0.157 A  
HETATM    9  C   UNL     1      -9.771  12.932  67.027  1.00  0.00    -0.230 A  
HETATM   10  C   UNL     1      -9.832   8.989  66.178  1.00  0.00    -0.349 A  
HETATM   11  C   UNL     1      -8.817   8.106  65.811  1.00  0.00    -0.173 A  
HETATM   12  C   UNL     1      -9.857  14.160  66.366  1.00  0.00    -0.308 A  
HETATM   13  C   UNL     1      -7.657   8.048  66.572  1.00  0.00    -0.092 A  
HETATM   14  C   UNL     1     -11.005  14.477  65.643  1.00  0.00    -0.323 A  
HETATM   15  C   UNL     1      -7.551   8.888  67.665  1.00  0.00    -0.093 A  
HETATM   16  C   UNL     1     -12.062  13.574  65.567  1.00  0.00    -0.454 A  
HETATM   17 BR   UNL     1     -11.136  16.153  64.778  1.00  0.00    -0.202 Br 
HETATM   18  N   UNL     1      -8.517   9.754  68.042  1.00  0.00    -0.117 NA 
HETATM   19  C   UNL     1     -11.978  12.350  66.234  1.00  0.00    -0.369 A  
ENDBRANCH   4   5
ENDBRANCH   2   4
TORSDOF 2
ENDMDL
MODEL       51
REMARK 921   NORMALIZED FREE ENERGY PREDICTED BY IDOCK:   -4.70 KCAL/MOL
REMARK 922        TOTAL FREE ENERGY PREDICTED BY IDOCK:   -5.41 KCAL/MOL
REMARK 923 INTER-LIGAND FREE ENERGY PREDICTED BY IDOCK:   -4.96 KCAL/MOL
REMARK 924 INTRA-LIGAND FREE ENERGY PREDICTED BY IDOCK:   -0.45 KCAL/MOL
REMARK 927      BINDING AFFINITY PREDICTED BY RF-SCORE:    0.00 PKD
ROOT
HETATM    1  C   UNL     1      -6.910  11.345  69.146  1.00  0.00    -0.111 C  
HETATM    2  N   UNL     1      -6.371  10.484  68.092  1.00  0.00    -0.058 NA 
HETATM    3  C   UNL     1      -6.621   9.078  68.426  1.00  0.00    -0.059 C  
ENDROOT
BRANCH   2   4
HETATM    4  C   UNL     1      -6.959  10.788  66.774  1.00  0.00    -0.119 C  
BRANCH   4   5
HETATM    5  C   UNL     1      -8.182  11.715  66.818  1.00  0.00    -0.161 C  
HETATM    6  C   UNL     1      -9.488  11.079  66.278  1.00  0.00    -0.219 C  
HETATM    7  C   UNL     1      -9.946   9.905  67.138  1.00  0.00    -0.252 A  
HETATM    8  C   UNL     1     -10.575  12.140  66.099  1.00  0.00    -0.255 A  
HETATM    9  C   UNL     1     -10.299  10.084  68.485  1.00  0.00    -0.217 A  
HETATM   10  C   UNL     1     -11.574  11.956  65.146  1.00  0.00    -0.278 A  
HETATM   11  C   UNL     1     -12.521  12.961  64.954  1.00  0.00    -0.540 A  
HETATM   12  C   UNL     1     -10.642   8.991  69.283  1.00  0.00    -0.226 A  
HETATM   13  C   UNL     1     -12.451  14.117  65.721  1.00  0.00    -0.490 A  
HETATM   14  C   UNL     1     -10.647   7.710  68.737  1.00  0.00    -0.145 A  
HETATM   15  C   UNL     1     -11.445  14.215  66.664  1.00  0.00    -0.366 A  
HETATM   16  C   UNL     1     -10.321   7.514  67.397  1.00  0.00    -0.346 A  
HETATM   17 BR   UNL     1     -11.077   6.226  69.826  1.00  0.00    -0.500 Br 
HETATM   18  N   UNL     1     -10.517  13.256  66.873  1.00  0.00    -0.260 NA 
HETATM   19  C   UNL     1      -9.971   8.607  66.601  1.00  0.00    -0.357 A  
ENDBRANCH   4   5
ENDBRANCH   2   4
TORSDOF 2
ENDMDL
MODEL       52
REMARK 921   NORMALIZED FREE ENERGY PREDICTED BY IDOCK:   -4.70 KCAL/MOL
REMARK 922        TOTAL FREE ENERGY PREDICTED BY IDOCK:   -5.41 KCAL/MOL
REMARK 923 INTER-LIGAND FREE ENERGY PREDICTED BY IDOCK:   -5.24 KCAL/MOL
REMARK 924 INTRA-LIGAND FREE ENERGY PREDICTED BY IDOCK:   -0.17 KCAL/MOL
REMARK 927      BINDING AFFINITY PREDICTED BY RF-SCORE:    0.00 PKD
ROOT
HETATM    1  C   UNL     1      -9.801  20.117  68.066  1.00  0.00    -0.363 C  
HETATM    2  N   UNL     1     -10.742  19.485  67.141  1.00  0.00    -0.490 NA 
HETATM    3  C   UNL     1     -10.412  19.866  65.763  1.00  0.00    -0.414 C  
ENDROOT
BRANCH   2   4
HETATM    4  C   UNL     1     -10.731  18.015  67.259  1.00  0.00    -0.290 C  
BRANCH   4   5
HETATM    5  C   UNL     1      -9.332  17.386  67.286  1.00  0.00    -0.238 C  
HETATM    6  C   UNL     1      -9.290  15.941  67.845  1.00  0.00    -0.207 C  
HETATM    7  C   UNL     1     -10.061  14.966  66.960  1.00  0.00    -0.244 A  
HETATM    8  C   UNL     1      -7.848  15.497  68.096  1.00  0.00    -0.127 A  
HETATM    9  C   UNL     1      -9.674  14.727  65.632  1.00  0.00    -0.313 A  
HETATM   10  C   UNL     1      -7.576  14.543  69.074  1.00  0.00    -0.124 A  
HETATM   11  C   UNL     1      -6.250  14.195  69.330  1.00  0.00    -0.109 A  
HETATM   12  C   UNL     1     -10.432  13.893  64.808  1.00  0.00    -0.451 A  
HETATM   13  C   UNL     1      -5.234  14.801  68.602  1.00  0.00    -0.095 A  
HETATM   14  C   UNL     1     -11.579  13.282  65.309  1.00  0.00    -0.310 A  
HETATM   15  C   UNL     1      -5.586  15.721  67.632  1.00  0.00    -0.115 A  
HETATM   16  C   UNL     1     -11.968  13.489  66.630  1.00  0.00    -0.452 A  
HETATM   17 BR   UNL     1     -12.624  12.181  64.183  1.00  0.00    -0.389 Br 
HETATM   18  N   UNL     1      -6.861  16.074  67.360  1.00  0.00    -0.173 NA 
HETATM   19  C   UNL     1     -11.212  14.329  67.452  1.00  0.00    -0.330 A  
ENDBRANCH   4   5
ENDBRANCH   2   4
TORSDOF 2
ENDMDL
MODEL       53
REMARK 921   NORMALIZED FREE ENERGY PREDICTED BY IDOCK:   -4.68 KCAL/MOL
REMARK 922        TOTAL FREE ENERGY PREDICTED BY IDOCK:   -5.39 KCAL/MOL
REMARK 923 INTER-LIGAND FREE ENERGY PREDICTED BY IDOCK:   -5.02 KCAL/MOL
REMARK 924 INTRA-LIGAND FREE ENERGY PREDICTED BY IDOCK:   -0.37 KCAL/MOL
REMARK 927      BINDING AFFINITY PREDICTED BY RF-SCORE:    0.00 PKD
ROOT
HETATM    1  C   UNL     1      -7.133   9.158  70.593  1.00  0.00    -0.099 C  
HETATM    2  N   UNL     1      -6.984  10.582  70.292  1.00  0.00    -0.260 NA 
HETATM    3  C   UNL     1      -5.649  11.036  70.696  1.00  0.00    -0.132 C  
ENDROOT
BRANCH   2   4
HETATM    4  C   UNL     1      -7.188  10.870  68.861  1.00  0.00    -0.095 C  
BRANCH   4   5
HETATM    5  C   UNL     1      -8.366  11.807  68.559  1.00  0.00    -0.131 C  
HETATM    6  C   UNL     1      -9.578  11.116  67.887  1.00  0.00    -0.181 C  
HETATM    7  C   UNL     1     -10.222  10.079  68.803  1.00  0.00    -0.201 A  
HETATM    8  C   UNL     1     -10.579  12.153  67.374  1.00  0.00    -0.226 A  
HETATM    9  C   UNL     1     -10.798  10.449  70.028  1.00  0.00    -0.348 A  
HETATM   10  C   UNL     1     -11.402  11.847  66.292  1.00  0.00    -0.394 A  
HETATM   11  C   UNL     1     -12.264  12.826  65.799  1.00  0.00    -0.469 A  
HETATM   12  C   UNL     1     -11.314   9.482  70.894  1.00  0.00    -0.410 A  
HETATM   13  C   UNL     1     -12.289  14.077  66.402  1.00  0.00    -0.468 A  
HETATM   14  C   UNL     1     -11.268   8.138  70.535  1.00  0.00    -0.247 A  
HETATM   15  C   UNL     1     -11.461  14.295  67.486  1.00  0.00    -0.345 A  
HETATM   16  C   UNL     1     -10.720   7.752  69.314  1.00  0.00    -0.156 A  
HETATM   17 BR   UNL     1     -11.935   6.826  71.722  1.00  0.00    -0.396 Br 
HETATM   18  N   UNL     1     -10.618  13.366  67.986  1.00  0.00    -0.237 NA 
HETATM   19  C   UNL     1     -10.198   8.719  68.452  1.00  0.00    -0.228 A  
ENDBRANCH   4   5
ENDBRANCH   2   4
TORSDOF 2
ENDMDL
MODEL       54
REMARK 921   NORMALIZED FREE ENERGY PREDICTED BY IDOCK:   -4.66 KCAL/MOL
REMARK 922        TOTAL FREE ENERGY PREDICTED BY IDOCK:   -5.36 KCAL/MOL
REMARK 923 INTER-LIGAND FREE ENERGY PREDICTED BY IDOCK:   -5.00 KCAL/MOL
REMARK 924 INTRA-LIGAND FREE ENERGY PREDICTED BY IDOCK:   -0.36 KCAL/MOL
REMARK 927      BINDING AFFINITY PREDICTED BY RF-SCORE:    0.00 PKD
ROOT
HETATM    1  C   UNL     1     -12.459  13.582  65.579  1.00  0.00    -0.491 C  
HETATM    2  N   UNL     1     -12.057  12.348  64.903  1.00  0.00    -0.414 NA 
HETATM    3  C   UNL     1     -12.394  12.431  63.478  1.00  0.00    -0.546 C  
ENDROOT
BRANCH   2   4
HETATM    4  C   UNL     1     -10.614  12.080  65.051  1.00  0.00    -0.289 C  
BRANCH   4   5
HETATM    5  C   UNL     1     -10.272  10.940  66.020  1.00  0.00    -0.311 C  
HETATM    6  C   UNL     1      -9.417  11.370  67.238  1.00  0.00    -0.176 C  
HETATM    7  C   UNL     1     -10.166  12.345  68.143  1.00  0.00    -0.225 A  
HETATM    8  C   UNL     1      -8.893  10.147  67.993  1.00  0.00    -0.125 A  
HETATM    9  C   UNL     1     -11.350  11.968  68.795  1.00  0.00    -0.331 A  
HETATM   10  C   UNL     1      -7.707  10.235  68.719  1.00  0.00    -0.096 A  
HETATM   11  C   UNL     1      -7.213   9.094  69.350  1.00  0.00    -0.067 A  
HETATM   12  C   UNL     1     -12.069  12.891  69.558  1.00  0.00    -0.274 A  
HETATM   13  C   UNL     1      -7.916   7.901  69.247  1.00  0.00    -0.117 A  
HETATM   14  C   UNL     1     -11.601  14.197  69.684  1.00  0.00    -0.292 A  
HETATM   15  C   UNL     1      -9.098   7.900  68.530  1.00  0.00    -0.132 A  
HETATM   16  C   UNL     1     -10.416  14.584  69.063  1.00  0.00    -0.241 A  
HETATM   17 BR   UNL     1     -12.591  15.455  70.688  1.00  0.00    -0.490 Br 
HETATM   18  N   UNL     1      -9.601   8.990  67.911  1.00  0.00    -0.145 NA 
HETATM   19  C   UNL     1      -9.702  13.662  68.294  1.00  0.00    -0.231 A  
ENDBRANCH   4   5
ENDBRANCH   2   4
TORSDOF 2
ENDMDL
MODEL       55
REMARK 921   NORMALIZED FREE ENERGY PREDICTED BY IDOCK:   -4.65 KCAL/MOL
REMARK 922        TOTAL FREE ENERGY PREDICTED BY IDOCK:   -5.35 KCAL/MOL
REMARK 923 INTER-LIGAND FREE ENERGY PREDICTED BY IDOCK:   -5.08 KCAL/MOL
REMARK 924 INTRA-LIGAND FREE ENERGY PREDICTED BY IDOCK:   -0.27 KCAL/MOL
REMARK 927      BINDING AFFINITY PREDICTED BY RF-SCORE:    0.00 PKD
ROOT
HETATM    1  C   UNL     1     -11.822  12.388  65.354  1.00  0.00    -0.406 C  
HETATM    2  N   UNL     1     -11.257  13.308  64.365  1.00  0.00    -0.365 NA 
HETATM    3  C   UNL     1     -12.048  13.255  63.132  1.00  0.00    -0.153 C  
ENDROOT
BRANCH   2   4
HETATM    4  C   UNL     1     -11.214  14.696  64.861  1.00  0.00    -0.396 C  
BRANCH   4   5
HETATM    5  C   UNL     1      -9.881  15.104  65.504  1.00  0.00    -0.356 C  
HETATM    6  C   UNL     1      -9.994  15.556  66.981  1.00  0.00    -0.240 C  
HETATM    7  C   UNL     1     -10.453  14.420  67.891  1.00  0.00    -0.239 A  
HETATM    8  C   UNL     1      -8.690  16.201  67.454  1.00  0.00    -0.180 A  
HETATM    9  C   UNL     1      -9.680  13.258  68.048  1.00  0.00    -0.223 A  
HETATM   10  C   UNL     1      -8.715  17.153  68.471  1.00  0.00    -0.261 A  
HETATM   11  C   UNL     1      -7.525  17.775  68.846  1.00  0.00    -0.235 A  
HETATM   12  C   UNL     1     -10.146  12.192  68.821  1.00  0.00    -0.098 A  
HETATM   13  C   UNL     1      -6.343  17.426  68.204  1.00  0.00    -0.167 A  
HETATM   14  C   UNL     1     -11.384  12.285  69.453  1.00  0.00    -0.228 A  
HETATM   15  C   UNL     1      -6.396  16.455  67.221  1.00  0.00    -0.180 A  
HETATM   16  C   UNL     1     -12.155  13.438  69.327  1.00  0.00    -0.312 A  
HETATM   17 BR   UNL     1     -12.029  10.828  70.470  1.00  0.00    -0.485 Br 
HETATM   18  N   UNL     1      -7.534  15.835  66.840  1.00  0.00    -0.204 NA 
HETATM   19  C   UNL     1     -11.692  14.500  68.548  1.00  0.00    -0.353 A  
ENDBRANCH   4   5
ENDBRANCH   2   4
TORSDOF 2
ENDMDL
MODEL       56
REMARK 921   NORMALIZED FREE ENERGY PREDICTED BY IDOCK:   -4.62 KCAL/MOL
REMARK 922        TOTAL FREE ENERGY PREDICTED BY IDOCK:   -5.32 KCAL/MOL
REMARK 923 INTER-LIGAND FREE ENERGY PREDICTED BY IDOCK:   -5.13 KCAL/MOL
REMARK 924 INTRA-LIGAND FREE ENERGY PREDICTED BY IDOCK:   -0.19 KCAL/MOL
REMARK 927      BINDING AFFINITY PREDICTED BY RF-SCORE:    0.00 PKD
ROOT
HETATM    1  C   UNL     1      -6.124  13.426  70.080  1.00  0.00    -0.125 C  
HETATM    2  N   UNL     1      -6.464  14.413  69.054  1.00  0.00    -0.093 NA 
HETATM    3  C   UNL     1      -5.657  14.177  67.853  1.00  0.00    -0.093 C  
ENDROOT
BRANCH   2   4
HETATM    4  C   UNL     1      -7.895  14.375  68.701  1.00  0.00    -0.140 C  
BRANCH   4   5
HETATM    5  C   UNL     1      -8.592  15.742  68.705  1.00  0.00    -0.194 C  
HETATM    6  C   UNL     1      -8.912  16.303  67.297  1.00  0.00    -0.209 C  
HETATM    7  C   UNL     1      -9.922  15.432  66.554  1.00  0.00    -0.282 A  
HETATM    8  C   UNL     1      -9.344  17.768  67.380  1.00  0.00    -0.252 A  
HETATM    9  C   UNL     1     -11.223  15.247  67.047  1.00  0.00    -0.275 A  
HETATM   10  C   UNL     1      -9.134  18.616  66.294  1.00  0.00    -0.236 A  
HETATM   11  C   UNL     1      -9.478  19.962  66.410  1.00  0.00    -0.513 A  
HETATM   12  C   UNL     1     -12.114  14.386  66.402  1.00  0.00    -0.390 A  
HETATM   13  C   UNL     1     -10.028  20.424  67.599  1.00  0.00    -0.514 A  
HETATM   14  C   UNL     1     -11.713  13.712  65.251  1.00  0.00    -0.334 A  
HETATM   15  C   UNL     1     -10.228  19.515  68.622  1.00  0.00    -0.384 A  
HETATM   16  C   UNL     1     -10.434  13.899  64.734  1.00  0.00    -0.451 A  
HETATM   17 BR   UNL     1     -12.907  12.521  64.398  1.00  0.00    -0.222 Br 
HETATM   18  N   UNL     1      -9.907  18.206  68.536  1.00  0.00    -0.363 NA 
HETATM   19  C   UNL     1      -9.542  14.754  65.384  1.00  0.00    -0.064 A  
ENDBRANCH   4   5
ENDBRANCH   2   4
TORSDOF 2
ENDMDL
MODEL       57
REMARK 921   NORMALIZED FREE ENERGY PREDICTED BY IDOCK:   -4.59 KCAL/MOL
REMARK 922        TOTAL FREE ENERGY PREDICTED BY IDOCK:   -5.28 KCAL/MOL
REMARK 923 INTER-LIGAND FREE ENERGY PREDICTED BY IDOCK:   -5.07 KCAL/MOL
REMARK 924 INTRA-LIGAND FREE ENERGY PREDICTED BY IDOCK:   -0.21 KCAL/MOL
REMARK 927      BINDING AFFINITY PREDICTED BY RF-SCORE:    0.00 PKD
ROOT
HETATM    1  C   UNL     1     -10.291   4.947  66.125  1.00  0.00    -0.292 C  
HETATM    2  N   UNL     1      -9.804   6.120  66.852  1.00  0.00    -0.150 NA 
HETATM    3  C   UNL     1      -8.746   6.778  66.078  1.00  0.00    -0.146 C  
ENDROOT
BRANCH   2   4
HETATM    4  C   UNL     1     -10.882   7.086  67.131  1.00  0.00    -0.357 C  
BRANCH   4   5
HETATM    5  C   UNL     1     -10.496   8.555  66.911  1.00  0.00    -0.345 C  
HETATM    6  C   UNL     1     -11.035   9.528  67.990  1.00  0.00    -0.155 C  
HETATM    7  C   UNL     1     -10.435   9.242  69.364  1.00  0.00    -0.229 A  
HETATM    8  C   UNL     1     -10.847  10.982  67.554  1.00  0.00    -0.263 A  
HETATM    9  C   UNL     1      -9.056   9.361  69.594  1.00  0.00    -0.190 A  
HETATM   10  C   UNL     1     -11.710  11.967  68.030  1.00  0.00    -0.382 A  
HETATM   11  C   UNL     1     -11.561  13.276  67.574  1.00  0.00    -0.388 A  
HETATM   12  C   UNL     1      -8.508   9.022  70.833  1.00  0.00    -0.253 A  
HETATM   13  C   UNL     1     -10.554  13.569  66.664  1.00  0.00    -0.280 A  
HETATM   14  C   UNL     1      -9.338   8.573  71.856  1.00  0.00    -0.267 A  
HETATM   15  C   UNL     1      -9.722  12.542  66.258  1.00  0.00    -0.254 A  
HETATM   16  C   UNL     1     -10.713   8.469  71.655  1.00  0.00    -0.351 A  
HETATM   17 BR   UNL     1      -8.593   8.081  73.522  1.00  0.00    -0.322 Br 
HETATM   18  N   UNL     1      -9.841  11.267  66.685  1.00  0.00    -0.201 NA 
HETATM   19  C   UNL     1     -11.258   8.801  70.413  1.00  0.00    -0.247 A  
ENDBRANCH   4   5
ENDBRANCH   2   4
TORSDOF 2
ENDMDL
MODEL       58
REMARK 921   NORMALIZED FREE ENERGY PREDICTED BY IDOCK:   -4.56 KCAL/MOL
REMARK 922        TOTAL FREE ENERGY PREDICTED BY IDOCK:   -5.25 KCAL/MOL
REMARK 923 INTER-LIGAND FREE ENERGY PREDICTED BY IDOCK:   -5.02 KCAL/MOL
REMARK 924 INTRA-LIGAND FREE ENERGY PREDICTED BY IDOCK:   -0.23 KCAL/MOL
REMARK 927      BINDING AFFINITY PREDICTED BY RF-SCORE:    0.00 PKD
ROOT
HETATM    1  C   UNL     1      -7.659   9.415  70.007  1.00  0.00    -0.113 C  
HETATM    2  N   UNL     1      -7.317  10.763  69.549  1.00  0.00    -0.138 NA 
HETATM    3  C   UNL     1      -5.977  11.122  70.023  1.00  0.00    -0.125 C  
ENDROOT
BRANCH   2   4
HETATM    4  C   UNL     1      -7.365  10.878  68.080  1.00  0.00    -0.088 C  
BRANCH   4   5
HETATM    5  C   UNL     1      -8.715  11.345  67.518  1.00  0.00    -0.140 C  
HETATM    6  C   UNL     1      -9.107  10.694  66.168  1.00  0.00    -0.190 C  
HETATM    7  C   UNL     1      -9.320   9.189  66.303  1.00  0.00    -0.274 A  
HETATM    8  C   UNL     1     -10.310  11.409  65.549  1.00  0.00    -0.266 A  
HETATM    9  C   UNL     1     -10.330   8.670  67.128  1.00  0.00    -0.369 A  
HETATM   10  C   UNL     1     -10.483  11.406  64.166  1.00  0.00    -0.421 A  
HETATM   11  C   UNL     1     -11.551  12.114  63.616  1.00  0.00    -0.575 A  
HETATM   12  C   UNL     1     -10.467   7.291  67.305  1.00  0.00    -0.380 A  
HETATM   13  C   UNL     1     -12.419  12.797  64.457  1.00  0.00    -0.501 A  
HETATM   14  C   UNL     1      -9.601   6.420  66.647  1.00  0.00    -0.157 A  
HETATM   15  C   UNL     1     -12.195  12.732  65.820  1.00  0.00    -0.408 A  
HETATM   16  C   UNL     1      -8.607   6.915  65.807  1.00  0.00    -0.139 A  
HETATM   17 BR   UNL     1      -9.764   4.556  66.914  1.00  0.00    -0.237 Br 
HETATM   18  N   UNL     1     -11.171  12.052  66.380  1.00  0.00    -0.322 NA 
HETATM   19  C   UNL     1      -8.467   8.295  65.636  1.00  0.00    -0.173 A  
ENDBRANCH   4   5
ENDBRANCH   2   4
TORSDOF 2
ENDMDL
MODEL       59
REMARK 921   NORMALIZED FREE ENERGY PREDICTED BY IDOCK:   -4.55 KCAL/MOL
REMARK 922        TOTAL FREE ENERGY PREDICTED BY IDOCK:   -5.24 KCAL/MOL
REMARK 923 INTER-LIGAND FREE ENERGY PREDICTED BY IDOCK:   -4.79 KCAL/MOL
REMARK 924 INTRA-LIGAND FREE ENERGY PREDICTED BY IDOCK:   -0.45 KCAL/MOL
REMARK 927      BINDING AFFINITY PREDICTED BY RF-SCORE:    0.00 PKD
ROOT
HETATM    1  C   UNL     1      -9.427   5.192  74.066  1.00  0.00    -0.127 C  
HETATM    2  N   UNL     1      -8.110   5.766  73.783  1.00  0.00    -0.107 NA 
HETATM    3  C   UNL     1      -7.491   5.054  72.661  1.00  0.00    -0.095 C  
ENDROOT
BRANCH   2   4
HETATM    4  C   UNL     1      -8.188   7.204  73.469  1.00  0.00    -0.114 C  
BRANCH   4   5
HETATM    5  C   UNL     1      -9.606   7.722  73.192  1.00  0.00    -0.337 C  
HETATM    6  C   UNL     1      -9.812   8.293  71.767  1.00  0.00    -0.284 C  
HETATM    7  C   UNL     1      -9.648   7.220  70.694  1.00  0.00    -0.172 A  
HETATM    8  C   UNL     1     -11.148   9.031  71.664  1.00  0.00    -0.363 A  
HETATM    9  C   UNL     1     -10.506   6.110  70.640  1.00  0.00    -0.292 A  
HETATM   10  C   UNL     1     -11.302  10.064  70.742  1.00  0.00    -0.439 A  
HETATM   11  C   UNL     1     -12.506  10.766  70.706  1.00  0.00    -0.481 A  
HETATM   12  C   UNL     1     -10.299   5.095  69.703  1.00  0.00    -0.316 A  
HETATM   13  C   UNL     1     -13.525  10.415  71.582  1.00  0.00    -0.335 A  
HETATM   14  C   UNL     1      -9.239   5.188  68.805  1.00  0.00    -0.119 A  
HETATM   15  C   UNL     1     -13.305   9.362  72.451  1.00  0.00    -0.424 A  
HETATM   16  C   UNL     1      -8.390   6.292  68.829  1.00  0.00    -0.120 A  
HETATM   17 BR   UNL     1      -8.938   3.797  67.561  1.00  0.00    -0.175 Br 
HETATM   18  N   UNL     1     -12.150   8.664  72.506  1.00  0.00    -0.349 NA 
HETATM   19  C   UNL     1      -8.593   7.303  69.771  1.00  0.00    -0.141 A  
ENDBRANCH   4   5
ENDBRANCH   2   4
TORSDOF 2
ENDMDL
MODEL       60
REMARK 921   NORMALIZED FREE ENERGY PREDICTED BY IDOCK:   -4.55 KCAL/MOL
REMARK 922        TOTAL FREE ENERGY PREDICTED BY IDOCK:   -5.24 KCAL/MOL
REMARK 923 INTER-LIGAND FREE ENERGY PREDICTED BY IDOCK:   -5.09 KCAL/MOL
REMARK 924 INTRA-LIGAND FREE ENERGY PREDICTED BY IDOCK:   -0.15 KCAL/MOL
REMARK 927      BINDING AFFINITY PREDICTED BY RF-SCORE:    0.00 PKD
ROOT
HETATM    1  C   UNL     1      -9.287   8.561  70.358  1.00  0.00    -0.164 C  
HETATM    2  N   UNL     1     -10.407   9.422  69.977  1.00  0.00    -0.216 NA 
HETATM    3  C   UNL     1     -11.305   9.604  71.123  1.00  0.00    -0.386 C  
ENDROOT
BRANCH   2   4
HETATM    4  C   UNL     1      -9.954  10.740  69.495  1.00  0.00    -0.054 C  
BRANCH   4   5
HETATM    5  C   UNL     1     -10.172  10.983  67.995  1.00  0.00    -0.201 C  
HETATM    6  C   UNL     1     -10.725  12.388  67.647  1.00  0.00    -0.248 C  
HETATM    7  C   UNL     1      -9.737  13.493  68.009  1.00  0.00    -0.228 A  
HETATM    8  C   UNL     1     -11.171  12.449  66.185  1.00  0.00    -0.322 A  
HETATM    9  C   UNL     1      -8.475  13.568  67.400  1.00  0.00    -0.203 A  
HETATM   10  C   UNL     1     -12.172  13.339  65.802  1.00  0.00    -0.510 A  
HETATM   11  C   UNL     1     -12.609  13.338  64.478  1.00  0.00    -0.316 A  
HETATM   12  C   UNL     1      -7.549  14.537  67.795  1.00  0.00    -0.171 A  
HETATM   13  C   UNL     1     -12.031  12.458  63.572  1.00  0.00    -0.627 A  
HETATM   14  C   UNL     1      -7.885  15.446  68.795  1.00  0.00    -0.155 A  
HETATM   15  C   UNL     1     -11.025  11.624  64.023  1.00  0.00    -0.387 A  
HETATM   16  C   UNL     1      -9.140  15.402  69.396  1.00  0.00    -0.258 A  
HETATM   17 BR   UNL     1      -6.619  16.735  69.353  1.00  0.00    -0.207 Br 
HETATM   18  N   UNL     1     -10.581  11.605  65.298  1.00  0.00    -0.273 NA 
HETATM   19  C   UNL     1     -10.062  14.428  69.006  1.00  0.00    -0.161 A  
ENDBRANCH   4   5
ENDBRANCH   2   4
TORSDOF 2
ENDMDL
MODEL       61
REMARK 921   NORMALIZED FREE ENERGY PREDICTED BY IDOCK:   -4.53 KCAL/MOL
REMARK 922        TOTAL FREE ENERGY PREDICTED BY IDOCK:   -5.22 KCAL/MOL
REMARK 923 INTER-LIGAND FREE ENERGY PREDICTED BY IDOCK:   -5.00 KCAL/MOL
REMARK 924 INTRA-LIGAND FREE ENERGY PREDICTED BY IDOCK:   -0.22 KCAL/MOL
REMARK 927      BINDING AFFINITY PREDICTED BY RF-SCORE:    0.00 PKD
ROOT
HETATM    1  C   UNL     1      -6.630  11.091  69.739  1.00  0.00    -0.143 C  
HETATM    2  N   UNL     1      -7.343  12.208  69.118  1.00  0.00     0.001 NA 
HETATM    3  C   UNL     1      -6.510  13.414  69.166  1.00  0.00    -0.105 C  
ENDROOT
BRANCH   2   4
HETATM    4  C   UNL     1      -7.710  11.922  67.719  1.00  0.00    -0.136 C  
BRANCH   4   5
HETATM    5  C   UNL     1      -8.582  12.997  67.054  1.00  0.00    -0.165 C  
HETATM    6  C   UNL     1     -10.007  12.523  66.677  1.00  0.00    -0.243 C  
HETATM    7  C   UNL     1     -10.831  12.161  67.910  1.00  0.00    -0.254 A  
HETATM    8  C   UNL     1     -10.703  13.551  65.783  1.00  0.00    -0.275 A  
HETATM    9  C   UNL     1     -11.142  13.123  68.884  1.00  0.00    -0.310 A  
HETATM   10  C   UNL     1     -11.687  13.137  64.887  1.00  0.00    -0.377 A  
HETATM   11  C   UNL     1     -12.266  14.079  64.036  1.00  0.00    -0.395 A  
HETATM   12  C   UNL     1     -11.829  12.764  70.046  1.00  0.00    -0.352 A  
HETATM   13  C   UNL     1     -11.856  15.404  64.107  1.00  0.00    -0.116 A  
HETATM   14  C   UNL     1     -12.221  11.441  70.237  1.00  0.00    -0.349 A  
HETATM   15  C   UNL     1     -10.892  15.739  65.040  1.00  0.00    -0.443 A  
HETATM   16  C   UNL     1     -11.942  10.477  69.271  1.00  0.00    -0.194 A  
HETATM   17 BR   UNL     1     -13.121  10.949  71.825  1.00  0.00    -0.484 Br 
HETATM   18  N   UNL     1     -10.317  14.850  65.877  1.00  0.00    -0.295 NA 
HETATM   19  C   UNL     1     -11.248  10.836  68.114  1.00  0.00    -0.365 A  
ENDBRANCH   4   5
ENDBRANCH   2   4
TORSDOF 2
ENDMDL
MODEL       62
REMARK 921   NORMALIZED FREE ENERGY PREDICTED BY IDOCK:   -4.53 KCAL/MOL
REMARK 922        TOTAL FREE ENERGY PREDICTED BY IDOCK:   -5.22 KCAL/MOL
REMARK 923 INTER-LIGAND FREE ENERGY PREDICTED BY IDOCK:   -4.94 KCAL/MOL
REMARK 924 INTRA-LIGAND FREE ENERGY PREDICTED BY IDOCK:   -0.28 KCAL/MOL
REMARK 927      BINDING AFFINITY PREDICTED BY RF-SCORE:    0.00 PKD
ROOT
HETATM    1  C   UNL     1     -12.302  15.712  71.198  1.00  0.00    -0.427 C  
HETATM    2  N   UNL     1     -11.673  14.642  70.421  1.00  0.00    -0.284 NA 
HETATM    3  C   UNL     1     -12.604  14.163  69.394  1.00  0.00     0.100 C  
ENDROOT
BRANCH   2   4
HETATM    4  C   UNL     1     -10.421  15.086  69.779  1.00  0.00    -0.186 C  
BRANCH   4   5
HETATM    5  C   UNL     1     -10.528  16.417  69.022  1.00  0.00    -0.288 C  
HETATM    6  C   UNL     1      -9.705  16.476  67.711  1.00  0.00    -0.235 C  
HETATM    7  C   UNL     1     -10.211  15.477  66.675  1.00  0.00    -0.280 A  
HETATM    8  C   UNL     1      -9.643  17.906  67.172  1.00  0.00    -0.280 A  
HETATM    9  C   UNL     1     -11.511  15.568  66.152  1.00  0.00     0.094 A  
HETATM   10  C   UNL     1      -8.559  18.308  66.394  1.00  0.00    -0.262 A  
HETATM   11  C   UNL     1      -8.490  19.633  65.963  1.00  0.00    -0.283 A  
HETATM   12  C   UNL     1     -11.991  14.603  65.263  1.00  0.00    -0.302 A  
HETATM   13  C   UNL     1      -9.504  20.516  66.311  1.00  0.00    -0.189 A  
HETATM   14  C   UNL     1     -11.170  13.546  64.881  1.00  0.00    -0.342 A  
HETATM   15  C   UNL     1     -10.558  20.035  67.065  1.00  0.00    -0.322 A  
HETATM   16  C   UNL     1      -9.869  13.450  65.372  1.00  0.00    -0.132 A  
HETATM   17 BR   UNL     1     -11.831  12.221  63.706  1.00  0.00    -0.632 Br 
HETATM   18  N   UNL     1     -10.652  18.758  67.493  1.00  0.00    -0.432 NA 
HETATM   19  C   UNL     1      -9.393  14.411  66.266  1.00  0.00    -0.261 A  
ENDBRANCH   4   5
ENDBRANCH   2   4
TORSDOF 2
ENDMDL
MODEL       63
REMARK 921   NORMALIZED FREE ENERGY PREDICTED BY IDOCK:   -4.53 KCAL/MOL
REMARK 922        TOTAL FREE ENERGY PREDICTED BY IDOCK:   -5.22 KCAL/MOL
REMARK 923 INTER-LIGAND FREE ENERGY PREDICTED BY IDOCK:   -5.05 KCAL/MOL
REMARK 924 INTRA-LIGAND FREE ENERGY PREDICTED BY IDOCK:   -0.17 KCAL/MOL
REMARK 927      BINDING AFFINITY PREDICTED BY RF-SCORE:    0.00 PKD
ROOT
HETATM    1  C   UNL     1     -10.973  19.466  67.075  1.00  0.00    -0.331 C  
HETATM    2  N   UNL     1      -9.620  19.593  66.531  1.00  0.00    -0.363 NA 
HETATM    3  C   UNL     1      -8.800  20.414  67.428  1.00  0.00    -0.325 C  
ENDROOT
BRANCH   2   4
HETATM    4  C   UNL     1      -8.975  18.281  66.339  1.00  0.00    -0.243 C  
BRANCH   4   5
HETATM    5  C   UNL     1      -9.948  17.098  66.243  1.00  0.00    -0.316 C  
HETATM    6  C   UNL     1      -9.265  15.723  66.035  1.00  0.00    -0.379 C  
HETATM    7  C   UNL     1      -8.402  15.330  67.231  1.00  0.00    -0.225 A  
HETATM    8  C   UNL     1     -10.298  14.653  65.675  1.00  0.00    -0.351 A  
HETATM    9  C   UNL     1      -8.965  15.135  68.501  1.00  0.00    -0.186 A  
HETATM   10  C   UNL     1      -9.916  13.548  64.916  1.00  0.00    -0.176 A  
HETATM   11  C   UNL     1     -10.884  12.615  64.546  1.00  0.00    -0.365 A  
HETATM   12  C   UNL     1      -8.155  14.853  69.604  1.00  0.00     0.018 A  
HETATM   13  C   UNL     1     -12.200  12.803  64.948  1.00  0.00    -0.519 A  
HETATM   14  C   UNL     1      -6.776  14.752  69.441  1.00  0.00    -0.149 A  
HETATM   15  C   UNL     1     -12.494  13.911  65.721  1.00  0.00    -0.495 A  
HETATM   16  C   UNL     1      -6.200  14.919  68.184  1.00  0.00    -0.144 A  
HETATM   17 BR   UNL     1      -5.677  14.404  70.940  1.00  0.00    -0.192 Br 
HETATM   18  N   UNL     1     -11.578  14.829  66.096  1.00  0.00    -0.332 NA 
HETATM   19  C   UNL     1      -7.010  15.209  67.084  1.00  0.00     0.019 A  
ENDBRANCH   4   5
ENDBRANCH   2   4
TORSDOF 2
ENDMDL
MODEL       64
REMARK 921   NORMALIZED FREE ENERGY PREDICTED BY IDOCK:   -4.52 KCAL/MOL
REMARK 922        TOTAL FREE ENERGY PREDICTED BY IDOCK:   -5.21 KCAL/MOL
REMARK 923 INTER-LIGAND FREE ENERGY PREDICTED BY IDOCK:   -5.00 KCAL/MOL
REMARK 924 INTRA-LIGAND FREE ENERGY PREDICTED BY IDOCK:   -0.21 KCAL/MOL
REMARK 927      BINDING AFFINITY PREDICTED BY RF-SCORE:    0.00 PKD
ROOT
HETATM    1  C   UNL     1      -8.044   5.117  73.662  1.00  0.00    -0.110 C  
HETATM    2  N   UNL     1      -9.263   4.348  73.408  1.00  0.00    -0.112 NA 
HETATM    3  C   UNL     1     -10.312   4.758  74.347  1.00  0.00    -0.281 C  
ENDROOT
BRANCH   2   4
HETATM    4  C   UNL     1      -9.748   4.518  72.026  1.00  0.00    -0.170 C  
BRANCH   4   5
HETATM    5  C   UNL     1     -10.994   5.404  71.890  1.00  0.00    -0.219 C  
HETATM    6  C   UNL     1     -10.718   6.815  71.315  1.00  0.00    -0.257 C  
HETATM    7  C   UNL     1     -10.211   6.754  69.877  1.00  0.00    -0.211 A  
HETATM    8  C   UNL     1     -11.945   7.715  71.471  1.00  0.00    -0.303 A  
HETATM    9  C   UNL     1     -11.004   6.221  68.849  1.00  0.00    -0.435 A  
HETATM   10  C   UNL     1     -11.784   9.096  71.570  1.00  0.00    -0.433 A  
HETATM   11  C   UNL     1     -12.909   9.895  71.773  1.00  0.00    -0.540 A  
HETATM   12  C   UNL     1     -10.501   6.098  67.551  1.00  0.00    -0.301 A  
HETATM   13  C   UNL     1     -14.160   9.299  71.865  1.00  0.00    -0.287 A  
HETATM   14  C   UNL     1      -9.204   6.519  67.270  1.00  0.00    -0.120 A  
HETATM   15  C   UNL     1     -14.240   7.926  71.732  1.00  0.00    -0.451 A  
HETATM   16  C   UNL     1      -8.409   7.071  68.271  1.00  0.00    -0.123 A  
HETATM   17 BR   UNL     1      -8.512   6.321  65.522  1.00  0.00    -0.124 Br 
HETATM   18  N   UNL     1     -13.169   7.128  71.532  1.00  0.00    -0.384 NA 
HETATM   19  C   UNL     1      -8.911   7.187  69.570  1.00  0.00    -0.137 A  
ENDBRANCH   4   5
ENDBRANCH   2   4
TORSDOF 2
ENDMDL
MODEL       65
REMARK 921   NORMALIZED FREE ENERGY PREDICTED BY IDOCK:   -4.51 KCAL/MOL
REMARK 922        TOTAL FREE ENERGY PREDICTED BY IDOCK:   -5.19 KCAL/MOL
REMARK 923 INTER-LIGAND FREE ENERGY PREDICTED BY IDOCK:   -4.91 KCAL/MOL
REMARK 924 INTRA-LIGAND FREE ENERGY PREDICTED BY IDOCK:   -0.28 KCAL/MOL
REMARK 927      BINDING AFFINITY PREDICTED BY RF-SCORE:    0.00 PKD
ROOT
HETATM    1  C   UNL     1      -5.993  10.190  64.138  1.00  0.00    -0.140 C  
HETATM    2  N   UNL     1      -7.008   9.709  65.075  1.00  0.00    -0.105 NA 
HETATM    3  C   UNL     1      -6.823   8.273  65.312  1.00  0.00    -0.059 C  
ENDROOT
BRANCH   2   4
HETATM    4  C   UNL     1      -6.961  10.428  66.361  1.00  0.00    -0.114 C  
BRANCH   4   5
HETATM    5  C   UNL     1      -8.085  11.454  66.562  1.00  0.00    -0.141 C  
HETATM    6  C   UNL     1      -9.500  10.931  66.213  1.00  0.00    -0.222 C  
HETATM    7  C   UNL     1      -9.932   9.798  67.140  1.00  0.00    -0.252 A  
HETATM    8  C   UNL     1     -10.510  12.079  66.173  1.00  0.00    -0.236 A  
HETATM    9  C   UNL     1     -10.081  10.005  68.520  1.00  0.00    -0.187 A  
HETATM   10  C   UNL     1     -11.642  11.980  65.367  1.00  0.00    -0.343 A  
HETATM   11  C   UNL     1     -12.520  13.061  65.296  1.00  0.00    -0.555 A  
HETATM   12  C   UNL     1     -10.401   8.944  69.370  1.00  0.00    -0.217 A  
HETATM   13  C   UNL     1     -12.249  14.206  66.034  1.00  0.00    -0.464 A  
HETATM   14  C   UNL     1     -10.587   7.668  68.843  1.00  0.00    -0.159 A  
HETATM   15  C   UNL     1     -11.119  14.219  66.829  1.00  0.00    -0.314 A  
HETATM   16  C   UNL     1     -10.466   7.447  67.473  1.00  0.00    -0.338 A  
HETATM   17 BR   UNL     1     -10.985   6.225  69.997  1.00  0.00    -0.459 Br 
HETATM   18  N   UNL     1     -10.254  13.185  66.920  1.00  0.00    -0.243 NA 
HETATM   19  C   UNL     1     -10.138   8.507  66.626  1.00  0.00    -0.364 A  
ENDBRANCH   4   5
ENDBRANCH   2   4
TORSDOF 2
ENDMDL
MODEL       66
REMARK 921   NORMALIZED FREE ENERGY PREDICTED BY IDOCK:   -4.47 KCAL/MOL
REMARK 922        TOTAL FREE ENERGY PREDICTED BY IDOCK:   -5.16 KCAL/MOL
REMARK 923 INTER-LIGAND FREE ENERGY PREDICTED BY IDOCK:   -4.79 KCAL/MOL
REMARK 924 INTRA-LIGAND FREE ENERGY PREDICTED BY IDOCK:   -0.37 KCAL/MOL
REMARK 927      BINDING AFFINITY PREDICTED BY RF-SCORE:    0.00 PKD
ROOT
HETATM    1  C   UNL     1      -7.092   6.880  68.394  1.00  0.00    -0.086 C  
HETATM    2  N   UNL     1      -7.600   6.128  69.543  1.00  0.00    -0.092 NA 
HETATM    3  C   UNL     1      -6.560   5.221  70.039  1.00  0.00    -0.039 C  
ENDROOT
BRANCH   2   4
HETATM    4  C   UNL     1      -8.039   7.015  70.635  1.00  0.00    -0.117 C  
BRANCH   4   5
HETATM    5  C   UNL     1      -9.560   7.082  70.832  1.00  0.00    -0.167 C  
HETATM    6  C   UNL     1     -10.177   8.482  70.588  1.00  0.00    -0.230 C  
HETATM    7  C   UNL     1     -10.021   8.927  69.136  1.00  0.00    -0.192 A  
HETATM    8  C   UNL     1     -11.628   8.528  71.068  1.00  0.00    -0.279 A  
HETATM    9  C   UNL     1     -10.620   8.210  68.089  1.00  0.00    -0.168 A  
HETATM   10  C   UNL     1     -12.185   9.737  71.479  1.00  0.00    -0.493 A  
HETATM   11  C   UNL     1     -13.490   9.749  71.971  1.00  0.00    -0.498 A  
HETATM   12  C   UNL     1     -10.407   8.581  66.759  1.00  0.00    -0.346 A  
HETATM   13  C   UNL     1     -14.205   8.560  72.033  1.00  0.00    -0.535 A  
HETATM   14  C   UNL     1      -9.603   9.680  66.468  1.00  0.00    -0.196 A  
HETATM   15  C   UNL     1     -13.591   7.406  71.583  1.00  0.00    -0.366 A  
HETATM   16  C   UNL     1      -9.019  10.418  67.494  1.00  0.00    -0.138 A  
HETATM   17 BR   UNL     1      -9.287  10.161  64.667  1.00  0.00    -0.359 Br 
HETATM   18  N   UNL     1     -12.331   7.365  71.099  1.00  0.00    -0.328 NA 
HETATM   19  C   UNL     1      -9.226  10.042  68.823  1.00  0.00    -0.159 A  
ENDBRANCH   4   5
ENDBRANCH   2   4
TORSDOF 2
ENDMDL
MODEL       67
REMARK 921   NORMALIZED FREE ENERGY PREDICTED BY IDOCK:   -4.44 KCAL/MOL
REMARK 922        TOTAL FREE ENERGY PREDICTED BY IDOCK:   -5.12 KCAL/MOL
REMARK 923 INTER-LIGAND FREE ENERGY PREDICTED BY IDOCK:   -5.14 KCAL/MOL
REMARK 924 INTRA-LIGAND FREE ENERGY PREDICTED BY IDOCK:    0.02 KCAL/MOL
REMARK 927      BINDING AFFINITY PREDICTED BY RF-SCORE:    0.00 PKD
ROOT
HETATM    1  C   UNL     1     -12.094  14.392  63.730  1.00  0.00    -0.000 C  
HETATM    2  N   UNL     1     -12.741  13.386  64.573  1.00  0.00    -0.659 NA 
HETATM    3  C   UNL     1     -12.038  12.105  64.443  1.00  0.00    -0.357 C  
ENDROOT
BRANCH   2   4
HETATM    4  C   UNL     1     -12.772  13.787  65.991  1.00  0.00    -0.354 C  
BRANCH   4   5
HETATM    5  C   UNL     1     -11.836  12.982  66.904  1.00  0.00    -0.442 C  
HETATM    6  C   UNL     1     -10.346  13.398  66.821  1.00  0.00    -0.263 C  
HETATM    7  C   UNL     1     -10.126  14.825  67.315  1.00  0.00    -0.236 A  
HETATM    8  C   UNL     1      -9.457  12.380  67.537  1.00  0.00    -0.187 A  
HETATM    9  C   UNL     1     -10.407  15.186  68.642  1.00  0.00    -0.232 A  
HETATM   10  C   UNL     1      -8.133  12.212  67.137  1.00  0.00    -0.175 A  
HETATM   11  C   UNL     1      -7.356  11.237  67.761  1.00  0.00    -0.094 A  
HETATM   12  C   UNL     1     -10.276  16.511  69.063  1.00  0.00    -0.285 A  
HETATM   13  C   UNL     1      -7.916  10.463  68.769  1.00  0.00    -0.122 A  
HETATM   14  C   UNL     1      -9.849  17.484  68.162  1.00  0.00    -0.306 A  
HETATM   15  C   UNL     1      -9.229  10.706  69.126  1.00  0.00    -0.148 A  
HETATM   16  C   UNL     1      -9.543  17.141  66.847  1.00  0.00    -0.268 A  
HETATM   17 BR   UNL     1      -9.705  19.283  68.723  1.00  0.00    -0.514 Br 
HETATM   18  N   UNL     1     -10.003  11.646  68.542  1.00  0.00    -0.197 NA 
HETATM   19  C   UNL     1      -9.683  15.817  66.425  1.00  0.00    -0.305 A  
ENDBRANCH   4   5
ENDBRANCH   2   4
TORSDOF 2
ENDMDL
MODEL       68
REMARK 921   NORMALIZED FREE ENERGY PREDICTED BY IDOCK:   -4.44 KCAL/MOL
REMARK 922        TOTAL FREE ENERGY PREDICTED BY IDOCK:   -5.12 KCAL/MOL
REMARK 923 INTER-LIGAND FREE ENERGY PREDICTED BY IDOCK:   -4.92 KCAL/MOL
REMARK 924 INTRA-LIGAND FREE ENERGY PREDICTED BY IDOCK:   -0.20 KCAL/MOL
REMARK 927      BINDING AFFINITY PREDICTED BY RF-SCORE:    0.00 PKD
ROOT
HETATM    1  C   UNL     1     -13.855   8.930  71.818  1.00  0.00    -0.417 C  
HETATM    2  N   UNL     1     -12.444   9.072  72.178  1.00  0.00    -0.379 NA 
HETATM    3  C   UNL     1     -11.797   7.756  72.173  1.00  0.00    -0.324 C  
ENDROOT
BRANCH   2   4
HETATM    4  C   UNL     1     -11.725   9.975  71.260  1.00  0.00    -0.369 C  
BRANCH   4   5
HETATM    5  C   UNL     1     -10.600   9.308  70.457  1.00  0.00    -0.309 C  
HETATM    6  C   UNL     1     -10.775   9.389  68.920  1.00  0.00    -0.203 C  
HETATM    7  C   UNL     1     -10.717  10.829  68.417  1.00  0.00    -0.255 A  
HETATM    8  C   UNL     1      -9.775   8.474  68.210  1.00  0.00    -0.155 A  
HETATM    9  C   UNL     1      -9.559  11.607  68.574  1.00  0.00    -0.181 A  
HETATM   10  C   UNL     1     -10.085   7.948  66.958  1.00  0.00    -0.347 A  
HETATM   11  C   UNL     1      -9.188   7.067  66.354  1.00  0.00    -0.186 A  
HETATM   12  C   UNL     1      -9.543  12.947  68.180  1.00  0.00    -0.223 A  
HETATM   13  C   UNL     1      -8.008   6.741  67.009  1.00  0.00    -0.109 A  
HETATM   14  C   UNL     1     -10.682  13.515  67.614  1.00  0.00    -0.248 A  
HETATM   15  C   UNL     1      -7.761   7.324  68.238  1.00  0.00    -0.120 A  
HETATM   16  C   UNL     1     -11.833  12.753  67.429  1.00  0.00    -0.404 A  
HETATM   17 BR   UNL     1     -10.671  15.338  67.113  1.00  0.00    -0.320 Br 
HETATM   18  N   UNL     1      -8.609   8.182  68.845  1.00  0.00    -0.130 NA 
HETATM   19  C   UNL     1     -11.850  11.415  67.831  1.00  0.00    -0.239 A  
ENDBRANCH   4   5
ENDBRANCH   2   4
TORSDOF 2
ENDMDL
MODEL       69
REMARK 921   NORMALIZED FREE ENERGY PREDICTED BY IDOCK:   -4.43 KCAL/MOL
REMARK 922        TOTAL FREE ENERGY PREDICTED BY IDOCK:   -5.11 KCAL/MOL
REMARK 923 INTER-LIGAND FREE ENERGY PREDICTED BY IDOCK:   -4.96 KCAL/MOL
REMARK 924 INTRA-LIGAND FREE ENERGY PREDICTED BY IDOCK:   -0.15 KCAL/MOL
REMARK 927      BINDING AFFINITY PREDICTED BY RF-SCORE:    0.00 PKD
ROOT
HETATM    1  C   UNL     1      -8.834   6.924  66.304  1.00  0.00    -0.148 C  
HETATM    2  N   UNL     1     -10.243   6.719  66.641  1.00  0.00    -0.176 NA 
HETATM    3  C   UNL     1     -10.541   5.283  66.670  1.00  0.00    -0.270 C  
ENDROOT
BRANCH   2   4
HETATM    4  C   UNL     1     -10.594   7.319  67.942  1.00  0.00    -0.202 C  
BRANCH   4   5
HETATM    5  C   UNL     1     -10.340   8.830  68.038  1.00  0.00    -0.273 C  
HETATM    6  C   UNL     1     -10.996   9.513  69.264  1.00  0.00    -0.167 C  
HETATM    7  C   UNL     1     -10.411   9.005  70.579  1.00  0.00    -0.271 A  
HETATM    8  C   UNL     1     -10.930  11.036  69.137  1.00  0.00    -0.237 A  
HETATM    9  C   UNL     1      -9.056   9.191  70.892  1.00  0.00    -0.316 A  
HETATM   10  C   UNL     1     -11.894  11.826  69.761  1.00  0.00    -0.420 A  
HETATM   11  C   UNL     1     -11.853  13.209  69.583  1.00  0.00    -0.390 A  
HETATM   12  C   UNL     1      -8.514   8.654  72.062  1.00  0.00    -0.191 A  
HETATM   13  C   UNL     1     -10.852  13.765  68.798  1.00  0.00    -0.281 A  
HETATM   14  C   UNL     1      -9.328   7.937  72.935  1.00  0.00    -0.246 A  
HETATM   15  C   UNL     1      -9.918  12.917  68.233  1.00  0.00    -0.234 A  
HETATM   16  C   UNL     1     -10.681   7.761  72.654  1.00  0.00    -0.402 A  
HETATM   17 BR   UNL     1      -8.587   7.181  74.501  1.00  0.00    -0.217 Br 
HETATM   18  N   UNL     1      -9.931  11.575  68.391  1.00  0.00    -0.201 NA 
HETATM   19  C   UNL     1     -11.219   8.292  71.480  1.00  0.00    -0.316 A  
ENDBRANCH   4   5
ENDBRANCH   2   4
TORSDOF 2
ENDMDL
MODEL       70
REMARK 921   NORMALIZED FREE ENERGY PREDICTED BY IDOCK:   -4.40 KCAL/MOL
REMARK 922        TOTAL FREE ENERGY PREDICTED BY IDOCK:   -5.08 KCAL/MOL
REMARK 923 INTER-LIGAND FREE ENERGY PREDICTED BY IDOCK:   -4.93 KCAL/MOL
REMARK 924 INTRA-LIGAND FREE ENERGY PREDICTED BY IDOCK:   -0.15 KCAL/MOL
REMARK 927      BINDING AFFINITY PREDICTED BY RF-SCORE:    0.00 PKD
ROOT
HETATM    1  C   UNL     1      -6.656  16.133  68.402  1.00  0.00    -0.127 C  
HETATM    2  N   UNL     1      -7.811  16.721  69.080  1.00  0.00    -0.198 NA 
HETATM    3  C   UNL     1      -7.801  18.177  68.903  1.00  0.00    -0.190 C  
ENDROOT
BRANCH   2   4
HETATM    4  C   UNL     1      -9.086  16.175  68.578  1.00  0.00    -0.208 C  
BRANCH   4   5
HETATM    5  C   UNL     1      -9.978  15.542  69.655  1.00  0.00    -0.287 C  
HETATM    6  C   UNL     1     -11.486  15.514  69.302  1.00  0.00    -0.349 C  
HETATM    7  C   UNL     1     -11.770  14.629  68.091  1.00  0.00    -0.360 A  
HETATM    8  C   UNL     1     -12.323  15.130  70.523  1.00  0.00    -0.358 A  
HETATM    9  C   UNL     1     -11.498  13.252  68.117  1.00  0.00    -0.347 A  
HETATM   10  C   UNL     1     -13.640  15.572  70.628  1.00  0.00    -0.003 A  
HETATM   11  C   UNL     1     -14.368  15.264  71.777  1.00  0.00    -0.678 A  
HETATM   12  C   UNL     1     -11.688  12.466  66.978  1.00  0.00    -0.423 A  
HETATM   13  C   UNL     1     -13.768  14.518  72.784  1.00  0.00    -0.466 A  
HETATM   14  C   UNL     1     -12.164  13.051  65.807  1.00  0.00    -0.453 A  
HETATM   15  C   UNL     1     -12.466  14.095  72.594  1.00  0.00    -0.075 A  
HETATM   16  C   UNL     1     -12.461  14.411  65.767  1.00  0.00    -0.334 A  
HETATM   17 BR   UNL     1     -12.389  11.994  64.256  1.00  0.00    -0.354 Br 
HETATM   18  N   UNL     1     -11.738  14.376  71.491  1.00  0.00    -0.151 NA 
HETATM   19  C   UNL     1     -12.263  15.197  66.905  1.00  0.00     0.433 A  
ENDBRANCH   4   5
ENDBRANCH   2   4
TORSDOF 2
ENDMDL
MODEL       71
REMARK 921   NORMALIZED FREE ENERGY PREDICTED BY IDOCK:   -4.40 KCAL/MOL
REMARK 922        TOTAL FREE ENERGY PREDICTED BY IDOCK:   -5.08 KCAL/MOL
REMARK 923 INTER-LIGAND FREE ENERGY PREDICTED BY IDOCK:   -4.77 KCAL/MOL
REMARK 924 INTRA-LIGAND FREE ENERGY PREDICTED BY IDOCK:   -0.30 KCAL/MOL
REMARK 927      BINDING AFFINITY PREDICTED BY RF-SCORE:    0.00 PKD
ROOT
HETATM    1  C   UNL     1      -8.453   6.724  66.225  1.00  0.00    -0.131 C  
HETATM    2  N   UNL     1      -9.061   8.018  66.541  1.00  0.00    -0.164 NA 
HETATM    3  C   UNL     1      -8.996   8.895  65.367  1.00  0.00    -0.182 C  
ENDROOT
BRANCH   2   4
HETATM    4  C   UNL     1     -10.463   7.879  66.974  1.00  0.00    -0.349 C  
BRANCH   4   5
HETATM    5  C   UNL     1     -10.653   7.736  68.490  1.00  0.00    -0.153 C  
HETATM    6  C   UNL     1      -9.805   8.717  69.338  1.00  0.00    -0.186 C  
HETATM    7  C   UNL     1     -10.210  10.170  69.101  1.00  0.00    -0.229 A  
HETATM    8  C   UNL     1      -9.840   8.328  70.817  1.00  0.00    -0.179 A  
HETATM    9  C   UNL     1     -11.500  10.625  69.415  1.00  0.00    -0.356 A  
HETATM   10  C   UNL     1      -8.772   8.661  71.647  1.00  0.00    -0.270 A  
HETATM   11  C   UNL     1      -8.794   8.245  72.978  1.00  0.00    -0.302 A  
HETATM   12  C   UNL     1     -11.884  11.936  69.122  1.00  0.00    -0.371 A  
HETATM   13  C   UNL     1      -9.880   7.516  73.445  1.00  0.00    -0.365 A  
HETATM   14  C   UNL     1     -10.975  12.805  68.523  1.00  0.00    -0.258 A  
HETATM   15  C   UNL     1     -10.912   7.246  72.566  1.00  0.00    -0.282 A  
HETATM   16  C   UNL     1      -9.684  12.378  68.223  1.00  0.00    -0.218 A  
HETATM   17 BR   UNL     1     -11.506  14.568  68.095  1.00  0.00    -0.357 Br 
HETATM   18  N   UNL     1     -10.919   7.640  71.274  1.00  0.00    -0.236 NA 
HETATM   19  C   UNL     1      -9.303  11.065  68.510  1.00  0.00    -0.188 A  
ENDBRANCH   4   5
ENDBRANCH   2   4
TORSDOF 2
ENDMDL
MODEL       72
REMARK 921   NORMALIZED FREE ENERGY PREDICTED BY IDOCK:   -4.39 KCAL/MOL
REMARK 922        TOTAL FREE ENERGY PREDICTED BY IDOCK:   -5.06 KCAL/MOL
REMARK 923 INTER-LIGAND FREE ENERGY PREDICTED BY IDOCK:   -4.83 KCAL/MOL
REMARK 924 INTRA-LIGAND FREE ENERGY PREDICTED BY IDOCK:   -0.23 KCAL/MOL
REMARK 927      BINDING AFFINITY PREDICTED BY RF-SCORE:    0.00 PKD
ROOT
HETATM    1  C   UNL     1      -5.735  17.152  70.127  1.00  0.00    -0.221 C  
HETATM    2  N   UNL     1      -6.272  16.226  69.129  1.00  0.00    -0.150 NA 
HETATM    3  C   UNL     1      -5.211  15.831  68.197  1.00  0.00    -0.114 C  
ENDROOT
BRANCH   2   4
HETATM    4  C   UNL     1      -6.856  15.022  69.747  1.00  0.00    -0.181 C  
BRANCH   4   5
HETATM    5  C   UNL     1      -7.447  14.014  68.752  1.00  0.00    -0.124 C  
HETATM    6  C   UNL     1      -8.983  14.117  68.573  1.00  0.00    -0.174 C  
HETATM    7  C   UNL     1      -9.396  15.452  67.961  1.00  0.00    -0.196 A  
HETATM    8  C   UNL     1      -9.520  12.916  67.791  1.00  0.00    -0.202 A  
HETATM    9  C   UNL     1      -8.974  15.823  66.675  1.00  0.00    -0.313 A  
HETATM   10  C   UNL     1     -10.832  12.492  67.988  1.00  0.00    -0.252 A  
HETATM   11  C   UNL     1     -11.285  11.359  67.312  1.00  0.00    -0.370 A  
HETATM   12  C   UNL     1      -9.294  17.080  66.155  1.00  0.00    -0.245 A  
HETATM   13  C   UNL     1     -10.423  10.687  66.456  1.00  0.00    -0.285 A  
HETATM   14  C   UNL     1     -10.049  17.970  66.914  1.00  0.00    -0.348 A  
HETATM   15  C   UNL     1      -9.143  11.185  66.295  1.00  0.00    -0.194 A  
HETATM   16  C   UNL     1     -10.496  17.612  68.183  1.00  0.00    -0.386 A  
HETATM   17 BR   UNL     1     -10.452  19.684  66.225  1.00  0.00    -0.618 Br 
HETATM   18  N   UNL     1      -8.679  12.280  66.934  1.00  0.00    -0.201 NA 
HETATM   19  C   UNL     1     -10.170  16.358  68.705  1.00  0.00    -0.258 A  
ENDBRANCH   4   5
ENDBRANCH   2   4
TORSDOF 2
ENDMDL
MODEL       73
REMARK 921   NORMALIZED FREE ENERGY PREDICTED BY IDOCK:   -4.34 KCAL/MOL
REMARK 922        TOTAL FREE ENERGY PREDICTED BY IDOCK:   -5.01 KCAL/MOL
REMARK 923 INTER-LIGAND FREE ENERGY PREDICTED BY IDOCK:   -4.56 KCAL/MOL
REMARK 924 INTRA-LIGAND FREE ENERGY PREDICTED BY IDOCK:   -0.45 KCAL/MOL
REMARK 927      BINDING AFFINITY PREDICTED BY RF-SCORE:    0.00 PKD
ROOT
HETATM    1  C   UNL     1      -6.308  11.244  66.464  1.00  0.00    -0.119 C  
HETATM    2  N   UNL     1      -6.927  11.809  67.664  1.00  0.00    -0.094 NA 
HETATM    3  C   UNL     1      -7.816  12.913  67.290  1.00  0.00    -0.131 C  
ENDROOT
BRANCH   2   4
HETATM    4  C   UNL     1      -7.689  10.799  68.421  1.00  0.00    -0.113 C  
BRANCH   4   5
HETATM    5  C   UNL     1      -7.942   9.488  67.664  1.00  0.00    -0.106 C  
HETATM    6  C   UNL     1      -9.438   9.156  67.441  1.00  0.00    -0.177 C  
HETATM    7  C   UNL     1     -10.121  10.182  66.540  1.00  0.00    -0.296 A  
HETATM    8  C   UNL     1      -9.607   7.721  66.936  1.00  0.00    -0.198 A  
HETATM    9  C   UNL     1      -9.710  10.369  65.211  1.00  0.00    -0.339 A  
HETATM   10  C   UNL     1     -10.786   7.027  67.199  1.00  0.00    -0.433 A  
HETATM   11  C   UNL     1     -10.897   5.701  66.784  1.00  0.00    -0.296 A  
HETATM   12  C   UNL     1     -10.289  11.365  64.420  1.00  0.00    -0.375 A  
HETATM   13  C   UNL     1      -9.836   5.106  66.113  1.00  0.00    -0.204 A  
HETATM   14  C   UNL     1     -11.292  12.172  64.950  1.00  0.00    -0.326 A  
HETATM   15  C   UNL     1      -8.709   5.869  65.868  1.00  0.00    -0.150 A  
HETATM   16  C   UNL     1     -11.729  11.987  66.259  1.00  0.00    -0.319 A  
HETATM   17 BR   UNL     1     -12.051  13.542  63.891  1.00  0.00    -0.438 Br 
HETATM   18  N   UNL     1      -8.576   7.155  66.255  1.00  0.00    -0.133 NA 
HETATM   19  C   UNL     1     -11.144  10.996  67.051  1.00  0.00    -0.311 A  
ENDBRANCH   4   5
ENDBRANCH   2   4
TORSDOF 2
ENDMDL
MODEL       74
REMARK 921   NORMALIZED FREE ENERGY PREDICTED BY IDOCK:   -4.32 KCAL/MOL
REMARK 922        TOTAL FREE ENERGY PREDICTED BY IDOCK:   -4.99 KCAL/MOL
REMARK 923 INTER-LIGAND FREE ENERGY PREDICTED BY IDOCK:   -5.22 KCAL/MOL
REMARK 924 INTRA-LIGAND FREE ENERGY PREDICTED BY IDOCK:    0.24 KCAL/MOL
REMARK 927      BINDING AFFINITY PREDICTED BY RF-SCORE:    0.00 PKD
ROOT
HETATM    1  C   UNL     1     -10.313  18.498  66.517  1.00  0.00    -0.414 C  
HETATM    2  N   UNL     1      -9.807  17.374  65.728  1.00  0.00    -0.555 NA 
HETATM    3  C   UNL     1      -8.375  17.193  65.986  1.00  0.00    -0.134 C  
ENDROOT
BRANCH   2   4
HETATM    4  C   UNL     1     -10.522  16.120  66.028  1.00  0.00    -0.338 C  
BRANCH   4   5
HETATM    5  C   UNL     1      -9.620  14.960  66.470  1.00  0.00    -0.297 C  
HETATM    6  C   UNL     1      -9.138  15.048  67.940  1.00  0.00    -0.180 C  
HETATM    7  C   UNL     1     -10.299  14.945  68.926  1.00  0.00    -0.244 A  
HETATM    8  C   UNL     1      -8.037  14.021  68.214  1.00  0.00    -0.148 A  
HETATM    9  C   UNL     1     -11.092  13.789  68.997  1.00  0.00    -0.296 A  
HETATM   10  C   UNL     1      -7.091  14.266  69.206  1.00  0.00    -0.107 A  
HETATM   11  C   UNL     1      -6.059  13.348  69.400  1.00  0.00    -0.104 A  
HETATM   12  C   UNL     1     -12.199  13.735  69.847  1.00  0.00    -0.383 A  
HETATM   13  C   UNL     1      -6.004  12.210  68.606  1.00  0.00    -0.055 A  
HETATM   14  C   UNL     1     -12.513  14.833  70.643  1.00  0.00    -0.345 A  
HETATM   15  C   UNL     1      -6.994  12.026  67.659  1.00  0.00    -0.118 A  
HETATM   16  C   UNL     1     -11.725  15.981  70.604  1.00  0.00    -0.376 A  
HETATM   17 BR   UNL     1     -14.031  14.773  71.768  1.00  0.00    -0.630 Br 
HETATM   18  N   UNL     1      -8.006  12.896  67.452  1.00  0.00    -0.177 NA 
HETATM   19  C   UNL     1     -10.623  16.037  69.748  1.00  0.00    -0.323 A  
ENDBRANCH   4   5
ENDBRANCH   2   4
TORSDOF 2
ENDMDL
MODEL       75
REMARK 921   NORMALIZED FREE ENERGY PREDICTED BY IDOCK:   -4.32 KCAL/MOL
REMARK 922        TOTAL FREE ENERGY PREDICTED BY IDOCK:   -4.98 KCAL/MOL
REMARK 923 INTER-LIGAND FREE ENERGY PREDICTED BY IDOCK:   -4.75 KCAL/MOL
REMARK 924 INTRA-LIGAND FREE ENERGY PREDICTED BY IDOCK:   -0.23 KCAL/MOL
REMARK 927      BINDING AFFINITY PREDICTED BY RF-SCORE:    0.00 PKD
ROOT
HETATM    1  C   UNL     1     -11.564   6.205  72.448  1.00  0.00    -0.292 C  
HETATM    2  N   UNL     1     -10.844   7.021  73.427  1.00  0.00    -0.326 NA 
HETATM    3  C   UNL     1     -10.152   6.150  74.384  1.00  0.00    -0.323 C  
ENDROOT
BRANCH   2   4
HETATM    4  C   UNL     1      -9.866   7.920  72.787  1.00  0.00    -0.270 C  
BRANCH   4   5
HETATM    5  C   UNL     1     -10.472   8.914  71.787  1.00  0.00    -0.431 C  
HETATM    6  C   UNL     1      -9.652   9.092  70.484  1.00  0.00    -0.293 C  
HETATM    7  C   UNL     1      -9.600   7.806  69.665  1.00  0.00    -0.163 A  
HETATM    8  C   UNL     1     -10.166  10.286  69.678  1.00  0.00    -0.235 A  
HETATM    9  C   UNL     1     -10.768   7.229  69.142  1.00  0.00    -0.201 A  
HETATM   10  C   UNL     1      -9.301  10.974  68.829  1.00  0.00    -0.185 A  
HETATM   11  C   UNL     1      -9.771  12.097  68.149  1.00  0.00    -0.208 A  
HETATM   12  C   UNL     1     -10.717   6.010  68.461  1.00  0.00    -0.354 A  
HETATM   13  C   UNL     1     -11.089  12.498  68.326  1.00  0.00    -0.294 A  
HETATM   14  C   UNL     1      -9.495   5.366  68.286  1.00  0.00    -0.119 A  
HETATM   15  C   UNL     1     -11.892  11.748  69.165  1.00  0.00    -0.326 A  
HETATM   16  C   UNL     1      -8.322   5.933  68.778  1.00  0.00    -0.105 A  
HETATM   17 BR   UNL     1      -9.432   3.701  67.394  1.00  0.00    -0.199 Br 
HETATM   18  N   UNL     1     -11.464  10.656  69.834  1.00  0.00    -0.291 NA 
HETATM   19  C   UNL     1      -8.375   7.148  69.466  1.00  0.00    -0.133 A  
ENDBRANCH   4   5
ENDBRANCH   2   4
TORSDOF 2
ENDMDL
MODEL       76
REMARK 921   NORMALIZED FREE ENERGY PREDICTED BY IDOCK:   -4.31 KCAL/MOL
REMARK 922        TOTAL FREE ENERGY PREDICTED BY IDOCK:   -4.97 KCAL/MOL
REMARK 923 INTER-LIGAND FREE ENERGY PREDICTED BY IDOCK:   -4.71 KCAL/MOL
REMARK 924 INTRA-LIGAND FREE ENERGY PREDICTED BY IDOCK:   -0.26 KCAL/MOL
REMARK 927      BINDING AFFINITY PREDICTED BY RF-SCORE:    0.00 PKD
ROOT
HETATM    1  C   UNL     1      -9.287   5.777  66.255  1.00  0.00    -0.156 C  
HETATM    2  N   UNL     1      -9.036   5.657  67.692  1.00  0.00    -0.109 NA 
HETATM    3  C   UNL     1      -8.203   6.776  68.143  1.00  0.00    -0.114 C  
ENDROOT
BRANCH   2   4
HETATM    4  C   UNL     1     -10.286   5.629  68.473  1.00  0.00    -0.199 C  
BRANCH   4   5
HETATM    5  C   UNL     1     -10.661   6.966  69.127  1.00  0.00    -0.262 C  
HETATM    6  C   UNL     1     -11.299   6.835  70.532  1.00  0.00    -0.394 C  
HETATM    7  C   UNL     1     -10.323   6.245  71.547  1.00  0.00    -0.243 A  
HETATM    8  C   UNL     1     -11.890   8.170  70.988  1.00  0.00    -0.260 A  
HETATM    9  C   UNL     1      -9.132   6.908  71.879  1.00  0.00    -0.143 A  
HETATM   10  C   UNL     1     -12.958   8.188  71.883  1.00  0.00    -0.356 A  
HETATM   11  C   UNL     1     -13.522   9.412  72.239  1.00  0.00    -0.539 A  
HETATM   12  C   UNL     1      -8.209   6.322  72.750  1.00  0.00    -0.112 A  
HETATM   13  C   UNL     1     -13.004  10.583  71.702  1.00  0.00    -0.581 A  
HETATM   14  C   UNL     1      -8.479   5.073  73.304  1.00  0.00    -0.110 A  
HETATM   15  C   UNL     1     -11.927  10.485  70.840  1.00  0.00    -0.377 A  
HETATM   16  C   UNL     1      -9.666   4.410  73.004  1.00  0.00    -0.167 A  
HETATM   17 BR   UNL     1      -7.215   4.265  74.455  1.00  0.00    -0.072 Br 
HETATM   18  N   UNL     1     -11.359   9.314  70.480  1.00  0.00    -0.257 NA 
HETATM   19  C   UNL     1     -10.584   4.993  72.128  1.00  0.00    -0.259 A  
ENDBRANCH   4   5
ENDBRANCH   2   4
TORSDOF 2
ENDMDL
MODEL       77
REMARK 921   NORMALIZED FREE ENERGY PREDICTED BY IDOCK:   -4.31 KCAL/MOL
REMARK 922        TOTAL FREE ENERGY PREDICTED BY IDOCK:   -4.97 KCAL/MOL
REMARK 923 INTER-LIGAND FREE ENERGY PREDICTED BY IDOCK:   -4.79 KCAL/MOL
REMARK 924 INTRA-LIGAND FREE ENERGY PREDICTED BY IDOCK:   -0.18 KCAL/MOL
REMARK 927      BINDING AFFINITY PREDICTED BY RF-SCORE:    0.00 PKD
ROOT
HETATM    1  C   UNL     1     -13.021  14.043  72.828  1.00  0.00    -0.378 C  
HETATM    2  N   UNL     1     -13.378  14.013  71.409  1.00  0.00    -0.335 NA 
HETATM    3  C   UNL     1     -13.759  15.358  70.966  1.00  0.00    -0.342 C  
ENDROOT
BRANCH   2   4
HETATM    4  C   UNL     1     -12.273  13.514  70.570  1.00  0.00    -0.361 C  
BRANCH   4   5
HETATM    5  C   UNL     1     -11.806  14.490  69.481  1.00  0.00    -0.374 C  
HETATM    6  C   UNL     1     -10.375  14.223  68.952  1.00  0.00    -0.218 C  
HETATM    7  C   UNL     1     -10.273  12.877  68.240  1.00  0.00    -0.245 A  
HETATM    8  C   UNL     1      -9.889  15.388  68.087  1.00  0.00    -0.213 A  
HETATM    9  C   UNL     1     -11.017  12.611  67.080  1.00  0.00    -0.296 A  
HETATM   10  C   UNL     1      -8.525  15.653  67.983  1.00  0.00    -0.146 A  
HETATM   11  C   UNL     1      -8.105  16.756  67.240  1.00  0.00    -0.201 A  
HETATM   12  C   UNL     1     -10.976  11.350  66.481  1.00  0.00    -0.328 A  
HETATM   13  C   UNL     1      -9.053  17.556  66.615  1.00  0.00    -0.287 A  
HETATM   14  C   UNL     1     -10.180  10.348  67.032  1.00  0.00    -0.225 A  
HETATM   15  C   UNL     1     -10.385  17.213  66.745  1.00  0.00    -0.302 A  
HETATM   16  C   UNL     1      -9.417  10.600  68.170  1.00  0.00    -0.158 A  
HETATM   17 BR   UNL     1     -10.151   8.631  66.242  1.00  0.00    -0.068 Br 
HETATM   18  N   UNL     1     -10.820  16.150  67.456  1.00  0.00    -0.313 NA 
HETATM   19  C   UNL     1      -9.465  11.859  68.773  1.00  0.00    -0.002 A  
ENDBRANCH   4   5
ENDBRANCH   2   4
TORSDOF 2
ENDMDL
MODEL       78
REMARK 921   NORMALIZED FREE ENERGY PREDICTED BY IDOCK:   -4.29 KCAL/MOL
REMARK 922        TOTAL FREE ENERGY PREDICTED BY IDOCK:   -4.95 KCAL/MOL
REMARK 923 INTER-LIGAND FREE ENERGY PREDICTED BY IDOCK:   -4.71 KCAL/MOL
REMARK 924 INTRA-LIGAND FREE ENERGY PREDICTED BY IDOCK:   -0.24 KCAL/MOL
REMARK 927      BINDING AFFINITY PREDICTED BY RF-SCORE:    0.00 PKD
ROOT
HETATM    1  C   UNL     1     -10.633  11.096  64.560  1.00  0.00    -0.328 C  
HETATM    2  N   UNL     1      -9.774  10.259  65.399  1.00  0.00    -0.256 NA 
HETATM    3  C   UNL     1      -8.687  11.070  65.959  1.00  0.00    -0.188 C  
ENDROOT
BRANCH   2   4
HETATM    4  C   UNL     1     -10.524   9.621  66.497  1.00  0.00    -0.143 C  
BRANCH   4   5
HETATM    5  C   UNL     1     -10.950  10.575  67.621  1.00  0.00    -0.375 C  
HETATM    6  C   UNL     1     -11.150   9.895  68.998  1.00  0.00    -0.184 C  
HETATM    7  C   UNL     1      -9.845   9.320  69.543  1.00  0.00    -0.188 A  
HETATM    8  C   UNL     1     -11.832  10.848  69.981  1.00  0.00    -0.347 A  
HETATM    9  C   UNL     1      -8.752  10.150  69.836  1.00  0.00    -0.091 A  
HETATM   10  C   UNL     1     -12.603  10.335  71.022  1.00  0.00    -0.487 A  
HETATM   11  C   UNL     1     -13.268  11.220  71.871  1.00  0.00    -0.491 A  
HETATM   12  C   UNL     1      -7.537   9.605  70.260  1.00  0.00    -0.175 A  
HETATM   13  C   UNL     1     -13.138  12.587  71.666  1.00  0.00    -0.414 A  
HETATM   14  C   UNL     1      -7.411   8.226  70.406  1.00  0.00    -0.067 A  
HETATM   15  C   UNL     1     -12.335  13.018  70.626  1.00  0.00    -0.310 A  
HETATM   16  C   UNL     1      -8.492   7.388  70.142  1.00  0.00    -0.137 A  
HETATM   17 BR   UNL     1      -5.758   7.487  70.947  1.00  0.00    -0.031 Br 
HETATM   18  N   UNL     1     -11.678  12.185  69.791  1.00  0.00    -0.320 NA 
HETATM   19  C   UNL     1      -9.703   7.933  69.711  1.00  0.00    -0.176 A  
ENDBRANCH   4   5
ENDBRANCH   2   4
TORSDOF 2
ENDMDL
MODEL       79
REMARK 921   NORMALIZED FREE ENERGY PREDICTED BY IDOCK:   -4.27 KCAL/MOL
REMARK 922        TOTAL FREE ENERGY PREDICTED BY IDOCK:   -4.93 KCAL/MOL
REMARK 923 INTER-LIGAND FREE ENERGY PREDICTED BY IDOCK:   -4.61 KCAL/MOL
REMARK 924 INTRA-LIGAND FREE ENERGY PREDICTED BY IDOCK:   -0.31 KCAL/MOL
REMARK 927      BINDING AFFINITY PREDICTED BY RF-SCORE:    0.00 PKD
ROOT
HETATM    1  C   UNL     1      -9.479  10.310  64.807  1.00  0.00    -0.283 C  
HETATM    2  N   UNL     1      -9.109   8.916  65.057  1.00  0.00    -0.118 NA 
HETATM    3  C   UNL     1      -8.229   8.438  63.986  1.00  0.00    -0.113 C  
ENDROOT
BRANCH   2   4
HETATM    4  C   UNL     1      -8.437   8.746  66.358  1.00  0.00    -0.121 C  
BRANCH   4   5
HETATM    5  C   UNL     1      -9.363   8.324  67.506  1.00  0.00    -0.166 C  
HETATM    6  C   UNL     1      -9.339   9.273  68.731  1.00  0.00    -0.139 C  
HETATM    7  C   UNL     1      -9.870  10.661  68.385  1.00  0.00    -0.170 A  
HETATM    8  C   UNL     1     -10.064   8.643  69.921  1.00  0.00    -0.194 A  
HETATM    9  C   UNL     1     -11.194  10.847  67.957  1.00  0.00    -0.378 A  
HETATM   10  C   UNL     1      -9.706   8.999  71.220  1.00  0.00    -0.371 A  
HETATM   11  C   UNL     1     -10.335   8.369  72.293  1.00  0.00    -0.403 A  
HETATM   12  C   UNL     1     -11.646  12.111  67.568  1.00  0.00    -0.413 A  
HETATM   13  C   UNL     1     -11.308   7.409  72.043  1.00  0.00    -0.301 A  
HETATM   14  C   UNL     1     -10.780  13.200  67.617  1.00  0.00    -0.238 A  
HETATM   15  C   UNL     1     -11.625   7.129  70.727  1.00  0.00    -0.318 A  
HETATM   16  C   UNL     1      -9.470  13.040  68.061  1.00  0.00    -0.217 A  
HETATM   17 BR   UNL     1     -11.383  14.903  67.059  1.00  0.00    -0.322 Br 
HETATM   18  N   UNL     1     -11.035   7.725  69.670  1.00  0.00    -0.179 NA 
HETATM   19  C   UNL     1      -9.016  11.775  68.442  1.00  0.00    -0.168 A  
ENDBRANCH   4   5
ENDBRANCH   2   4
TORSDOF 2
ENDMDL
MODEL       80
REMARK 921   NORMALIZED FREE ENERGY PREDICTED BY IDOCK:   -4.27 KCAL/MOL
REMARK 922        TOTAL FREE ENERGY PREDICTED BY IDOCK:   -4.92 KCAL/MOL
REMARK 923 INTER-LIGAND FREE ENERGY PREDICTED BY IDOCK:   -4.75 KCAL/MOL
REMARK 924 INTRA-LIGAND FREE ENERGY PREDICTED BY IDOCK:   -0.18 KCAL/MOL
REMARK 927      BINDING AFFINITY PREDICTED BY RF-SCORE:    0.00 PKD
ROOT
HETATM    1  C   UNL     1     -11.359  12.211  68.134  1.00  0.00    -0.293 C  
HETATM    2  N   UNL     1     -11.462  11.228  67.055  1.00  0.00    -0.470 NA 
HETATM    3  C   UNL     1     -11.304  11.897  65.759  1.00  0.00    -0.299 C  
ENDROOT
BRANCH   2   4
HETATM    4  C   UNL     1     -10.455  10.159  67.181  1.00  0.00    -0.246 C  
BRANCH   4   5
HETATM    5  C   UNL     1     -10.248   9.641  68.611  1.00  0.00    -0.209 C  
HETATM    6  C   UNL     1     -10.896   8.263  68.893  1.00  0.00     0.002 C  
HETATM    7  C   UNL     1     -10.263   7.154  68.057  1.00  0.00    -0.223 A  
HETATM    8  C   UNL     1     -10.884   7.953  70.391  1.00  0.00    -0.244 A  
HETATM    9  C   UNL     1      -8.906   6.821  68.199  1.00  0.00    -0.120 A  
HETATM   10  C   UNL     1     -11.857   7.117  70.935  1.00  0.00    -0.379 A  
HETATM   11  C   UNL     1     -11.866   6.896  72.312  1.00  0.00    -0.274 A  
HETATM   12  C   UNL     1      -8.318   5.860  67.374  1.00  0.00    -0.105 A  
HETATM   13  C   UNL     1     -10.903   7.505  73.106  1.00  0.00    -0.448 A  
HETATM   14  C   UNL     1      -9.087   5.214  66.409  1.00  0.00    -0.131 A  
HETATM   15  C   UNL     1      -9.957   8.301  72.489  1.00  0.00    -0.303 A  
HETATM   16  C   UNL     1     -10.439   5.514  66.267  1.00  0.00    -0.230 A  
HETATM   17 BR   UNL     1      -8.283   3.937  65.270  1.00  0.00    -0.101 Br 
HETATM   18  N   UNL     1      -9.922   8.530  71.158  1.00  0.00    -0.193 NA 
HETATM   19  C   UNL     1     -11.024   6.482  67.087  1.00  0.00    -0.480 A  
ENDBRANCH   4   5
ENDBRANCH   2   4
TORSDOF 2
ENDMDL
MODEL       81
REMARK 921   NORMALIZED FREE ENERGY PREDICTED BY IDOCK:   -4.24 KCAL/MOL
REMARK 922        TOTAL FREE ENERGY PREDICTED BY IDOCK:   -4.90 KCAL/MOL
REMARK 923 INTER-LIGAND FREE ENERGY PREDICTED BY IDOCK:   -4.71 KCAL/MOL
REMARK 924 INTRA-LIGAND FREE ENERGY PREDICTED BY IDOCK:   -0.18 KCAL/MOL
REMARK 927      BINDING AFFINITY PREDICTED BY RF-SCORE:    0.00 PKD
ROOT
HETATM    1  C   UNL     1      -5.696  13.636  69.591  1.00  0.00    -0.102 C  
HETATM    2  N   UNL     1      -5.998  12.272  69.155  1.00  0.00    -0.074 NA 
HETATM    3  C   UNL     1      -5.930  11.359  70.302  1.00  0.00    -0.159 C  
ENDROOT
BRANCH   2   4
HETATM    4  C   UNL     1      -7.328  12.172  68.528  1.00  0.00    -0.105 C  
BRANCH   4   5
HETATM    5  C   UNL     1      -8.145  10.944  68.951  1.00  0.00    -0.144 C  
HETATM    6  C   UNL     1      -9.669  11.197  69.068  1.00  0.00    -0.113 C  
HETATM    7  C   UNL     1     -10.293  11.546  67.719  1.00  0.00    -0.204 A  
HETATM    8  C   UNL     1     -10.365  10.019  69.754  1.00  0.00    -0.255 A  
HETATM    9  C   UNL     1     -10.277  10.633  66.653  1.00  0.00    -0.284 A  
HETATM   10  C   UNL     1     -11.546  10.228  70.461  1.00  0.00    -0.424 A  
HETATM   11  C   UNL     1     -12.133   9.155  71.131  1.00  0.00    -0.365 A  
HETATM   12  C   UNL     1     -10.780  10.992  65.401  1.00  0.00    -0.222 A  
HETATM   13  C   UNL     1     -11.532   7.904  71.070  1.00  0.00    -0.298 A  
HETATM   14  C   UNL     1     -11.315  12.263  65.209  1.00  0.00    -0.338 A  
HETATM   15  C   UNL     1     -10.374   7.772  70.327  1.00  0.00    -0.215 A  
HETATM   16  C   UNL     1     -11.361  13.175  66.260  1.00  0.00    -0.348 A  
HETATM   17 BR   UNL     1     -11.965  12.760  63.505  1.00  0.00    -0.630 Br 
HETATM   18  N   UNL     1      -9.786   8.793  69.667  1.00  0.00    -0.170 NA 
HETATM   19  C   UNL     1     -10.850  12.818  67.510  1.00  0.00    -0.263 A  
ENDBRANCH   4   5
ENDBRANCH   2   4
TORSDOF 2
ENDMDL
MODEL       82
REMARK 921   NORMALIZED FREE ENERGY PREDICTED BY IDOCK:   -4.17 KCAL/MOL
REMARK 922        TOTAL FREE ENERGY PREDICTED BY IDOCK:   -4.81 KCAL/MOL
REMARK 923 INTER-LIGAND FREE ENERGY PREDICTED BY IDOCK:   -4.69 KCAL/MOL
REMARK 924 INTRA-LIGAND FREE ENERGY PREDICTED BY IDOCK:   -0.13 KCAL/MOL
REMARK 927      BINDING AFFINITY PREDICTED BY RF-SCORE:    0.00 PKD
ROOT
HETATM    1  C   UNL     1      -9.103   9.866  63.300  1.00  0.00    -0.266 C  
HETATM    2  N   UNL     1      -9.017   9.528  64.722  1.00  0.00    -0.214 NA 
HETATM    3  C   UNL     1      -7.647   9.741  65.199  1.00  0.00    -0.125 C  
ENDROOT
BRANCH   2   4
HETATM    4  C   UNL     1      -9.952  10.324  65.538  1.00  0.00    -0.296 C  
BRANCH   4   5
HETATM    5  C   UNL     1     -10.292   9.710  66.903  1.00  0.00    -0.307 C  
HETATM    6  C   UNL     1      -9.560  10.366  68.101  1.00  0.00    -0.155 C  
HETATM    7  C   UNL     1      -9.976  11.822  68.293  1.00  0.00    -0.200 A  
HETATM    8  C   UNL     1      -9.736   9.529  69.369  1.00  0.00    -0.183 A  
HETATM    9  C   UNL     1     -11.302  12.165  68.598  1.00  0.00    -0.330 A  
HETATM   10  C   UNL     1      -8.767   9.574  70.370  1.00  0.00    -0.265 A  
HETATM   11  C   UNL     1      -8.914   8.757  71.491  1.00  0.00    -0.306 A  
HETATM   12  C   UNL     1     -11.688  13.504  68.695  1.00  0.00    -0.389 A  
HETATM   13  C   UNL     1     -10.023   7.927  71.588  1.00  0.00    -0.227 A  
HETATM   14  C   UNL     1     -10.746  14.510  68.499  1.00  0.00    -0.250 A  
HETATM   15  C   UNL     1     -10.953   7.958  70.565  1.00  0.00    -0.248 A  
HETATM   16  C   UNL     1      -9.420  14.190  68.218  1.00  0.00    -0.211 A  
HETATM   17 BR   UNL     1     -11.275  16.322  68.596  1.00  0.00    -0.320 Br 
HETATM   18  N   UNL     1     -10.838   8.740  69.470  1.00  0.00    -0.190 NA 
HETATM   19  C   UNL     1      -9.037  12.851  68.114  1.00  0.00    -0.207 A  
ENDBRANCH   4   5
ENDBRANCH   2   4
TORSDOF 2
ENDMDL
MODEL       83
REMARK 921   NORMALIZED FREE ENERGY PREDICTED BY IDOCK:   -4.16 KCAL/MOL
REMARK 922        TOTAL FREE ENERGY PREDICTED BY IDOCK:   -4.80 KCAL/MOL
REMARK 923 INTER-LIGAND FREE ENERGY PREDICTED BY IDOCK:   -4.62 KCAL/MOL
REMARK 924 INTRA-LIGAND FREE ENERGY PREDICTED BY IDOCK:   -0.18 KCAL/MOL
REMARK 927      BINDING AFFINITY PREDICTED BY RF-SCORE:    0.00 PKD
ROOT
HETATM    1  C   UNL     1     -10.813   3.649  73.180  1.00  0.00    -0.154 C  
HETATM    2  N   UNL     1     -10.469   4.758  74.071  1.00  0.00    -0.251 NA 
HETATM    3  C   UNL     1      -9.080   4.618  74.522  1.00  0.00    -0.110 C  
ENDROOT
BRANCH   2   4
HETATM    4  C   UNL     1     -10.644   6.068  73.418  1.00  0.00    -0.260 C  
BRANCH   4   5
HETATM    5  C   UNL     1     -10.012   6.176  72.023  1.00  0.00    -0.194 C  
HETATM    6  C   UNL     1     -11.009   6.538  70.895  1.00  0.00    -0.325 C  
HETATM    7  C   UNL     1     -11.604   7.931  71.086  1.00  0.00    -0.302 A  
HETATM    8  C   UNL     1     -10.365   6.354  69.520  1.00  0.00    -0.208 A  
HETATM    9  C   UNL     1     -10.791   9.076  71.072  1.00  0.00    -0.345 A  
HETATM   10  C   UNL     1     -11.161   6.063  68.414  1.00  0.00    -0.271 A  
HETATM   11  C   UNL     1     -10.549   5.838  67.181  1.00  0.00    -0.365 A  
HETATM   12  C   UNL     1     -11.334  10.338  71.326  1.00  0.00    -0.122 A  
HETATM   13  C   UNL     1      -9.166   5.918  67.082  1.00  0.00    -0.116 A  
HETATM   14  C   UNL     1     -12.696  10.465  71.583  1.00  0.00    -0.455 A  
HETATM   15  C   UNL     1      -8.448   6.236  68.220  1.00  0.00    -0.114 A  
HETATM   16  C   UNL     1     -13.523   9.344  71.579  1.00  0.00    -0.445 A  
HETATM   17 BR   UNL     1     -13.424  12.169  71.961  1.00  0.00    -0.181 Br 
HETATM   18  N   UNL     1      -9.013   6.462  69.425  1.00  0.00    -0.131 NA 
HETATM   19  C   UNL     1     -12.978   8.082  71.333  1.00  0.00    -0.277 A  
ENDBRANCH   4   5
ENDBRANCH   2   4
TORSDOF 2
ENDMDL
MODEL       84
REMARK 921   NORMALIZED FREE ENERGY PREDICTED BY IDOCK:   -4.16 KCAL/MOL
REMARK 922        TOTAL FREE ENERGY PREDICTED BY IDOCK:   -4.80 KCAL/MOL
REMARK 923 INTER-LIGAND FREE ENERGY PREDICTED BY IDOCK:   -4.61 KCAL/MOL
REMARK 924 INTRA-LIGAND FREE ENERGY PREDICTED BY IDOCK:   -0.19 KCAL/MOL
REMARK 927      BINDING AFFINITY PREDICTED BY RF-SCORE:    0.00 PKD
ROOT
HETATM    1  C   UNL     1      -7.809  11.206  67.240  1.00  0.00    -0.137 C  
HETATM    2  N   UNL     1      -9.180  11.655  66.993  1.00  0.00    -0.179 NA 
HETATM    3  C   UNL     1     -10.076  11.088  68.007  1.00  0.00    -0.179 C  
ENDROOT
BRANCH   2   4
HETATM    4  C   UNL     1      -9.293  13.125  67.006  1.00  0.00    -0.238 C  
BRANCH   4   5
HETATM    5  C   UNL     1     -10.430  13.672  67.881  1.00  0.00    -0.249 C  
HETATM    6  C   UNL     1      -9.995  14.770  68.883  1.00  0.00    -0.233 C  
HETATM    7  C   UNL     1      -9.506  16.028  68.172  1.00  0.00    -0.208 A  
HETATM    8  C   UNL     1     -11.109  15.057  69.892  1.00  0.00    -0.274 A  
HETATM    9  C   UNL     1     -10.360  16.775  67.345  1.00  0.00    -0.302 A  
HETATM   10  C   UNL     1     -10.790  15.535  71.161  1.00  0.00    -0.147 A  
HETATM   11  C   UNL     1     -11.813  15.732  72.087  1.00  0.00    -0.593 A  
HETATM   12  C   UNL     1      -9.881  17.879  66.638  1.00  0.00    -0.342 A  
HETATM   13  C   UNL     1     -13.124  15.456  71.722  1.00  0.00    -0.529 A  
HETATM   14  C   UNL     1      -8.546  18.253  66.761  1.00  0.00    -0.261 A  
HETATM   15  C   UNL     1     -13.363  15.008  70.436  1.00  0.00    -0.020 A  
HETATM   16  C   UNL     1      -7.687  17.539  67.593  1.00  0.00    -0.207 A  
HETATM   17 BR   UNL     1      -7.889  19.728  65.776  1.00  0.00    -0.110 Br 
HETATM   18  N   UNL     1     -12.392  14.811  69.518  1.00  0.00    -0.229 NA 
HETATM   19  C   UNL     1      -8.166  16.430  68.295  1.00  0.00    -0.177 A  
ENDBRANCH   4   5
ENDBRANCH   2   4
TORSDOF 2
ENDMDL
MODEL       85
REMARK 921   NORMALIZED FREE ENERGY PREDICTED BY IDOCK:   -4.13 KCAL/MOL
REMARK 922        TOTAL FREE ENERGY PREDICTED BY IDOCK:   -4.77 KCAL/MOL
REMARK 923 INTER-LIGAND FREE ENERGY PREDICTED BY IDOCK:   -4.60 KCAL/MOL
REMARK 924 INTRA-LIGAND FREE ENERGY PREDICTED BY IDOCK:   -0.18 KCAL/MOL
REMARK 927      BINDING AFFINITY PREDICTED BY RF-SCORE:    0.00 PKD
ROOT
HETATM    1  C   UNL     1     -12.786  13.865  65.465  1.00  0.00    -0.499 C  
HETATM    2  N   UNL     1     -12.206  12.590  65.041  1.00  0.00    -0.459 NA 
HETATM    3  C   UNL     1     -12.519  12.349  63.629  1.00  0.00    -0.508 C  
ENDROOT
BRANCH   2   4
HETATM    4  C   UNL     1     -10.744  12.555  65.233  1.00  0.00    -0.286 C  
BRANCH   4   5
HETATM    5  C   UNL     1     -10.040  11.367  64.563  1.00  0.00    -0.337 C  
HETATM    6  C   UNL     1      -8.845  10.795  65.366  1.00  0.00    -0.202 C  
HETATM    7  C   UNL     1      -9.290  10.194  66.696  1.00  0.00    -0.195 A  
HETATM    8  C   UNL     1      -8.038   9.813  64.514  1.00  0.00    -0.146 A  
HETATM    9  C   UNL     1     -10.164   9.097  66.742  1.00  0.00    -0.331 A  
HETATM   10  C   UNL     1      -6.683   9.622  64.772  1.00  0.00    -0.103 A  
HETATM   11  C   UNL     1      -5.950   8.770  63.947  1.00  0.00    -0.072 A  
HETATM   12  C   UNL     1     -10.627   8.604  67.965  1.00  0.00    -0.205 A  
HETATM   13  C   UNL     1      -6.588   8.127  62.895  1.00  0.00    -0.086 A  
HETATM   14  C   UNL     1     -10.207   9.198  69.152  1.00  0.00    -0.207 A  
HETATM   15  C   UNL     1      -7.941   8.348  62.719  1.00  0.00    -0.159 A  
HETATM   16  C   UNL     1      -9.322  10.274  69.129  1.00  0.00    -0.214 A  
HETATM   17 BR   UNL     1     -10.859   8.554  70.805  1.00  0.00    -0.282 Br 
HETATM   18  N   UNL     1      -8.676   9.166  63.504  1.00  0.00    -0.174 NA 
HETATM   19  C   UNL     1      -8.867  10.770  67.905  1.00  0.00    -0.132 A  
ENDBRANCH   4   5
ENDBRANCH   2   4
TORSDOF 2
ENDMDL
MODEL       86
REMARK 921   NORMALIZED FREE ENERGY PREDICTED BY IDOCK:   -4.09 KCAL/MOL
REMARK 922        TOTAL FREE ENERGY PREDICTED BY IDOCK:   -4.72 KCAL/MOL
REMARK 923 INTER-LIGAND FREE ENERGY PREDICTED BY IDOCK:   -4.57 KCAL/MOL
REMARK 924 INTRA-LIGAND FREE ENERGY PREDICTED BY IDOCK:   -0.15 KCAL/MOL
REMARK 927      BINDING AFFINITY PREDICTED BY RF-SCORE:    0.00 PKD
ROOT
HETATM    1  C   UNL     1     -11.582  14.220  67.645  1.00  0.00    -0.368 C  
HETATM    2  N   UNL     1     -12.335  13.200  66.913  1.00  0.00    -0.312 NA 
HETATM    3  C   UNL     1     -12.818  13.756  65.645  1.00  0.00    -0.408 C  
ENDROOT
BRANCH   2   4
HETATM    4  C   UNL     1     -11.523  11.999  66.645  1.00  0.00    -0.346 C  
BRANCH   4   5
HETATM    5  C   UNL     1     -11.059  11.248  67.901  1.00  0.00    -0.325 C  
HETATM    6  C   UNL     1     -10.522   9.820  67.632  1.00  0.00    -0.305 C  
HETATM    7  C   UNL     1      -9.254   9.840  66.783  1.00  0.00    -0.179 A  
HETATM    8  C   UNL     1     -10.345   9.050  68.941  1.00  0.00    -0.215 A  
HETATM    9  C   UNL     1      -8.082  10.459  67.243  1.00  0.00    -0.114 A  
HETATM   10  C   UNL     1     -10.434   7.659  68.946  1.00  0.00    -0.211 A  
HETATM   11  C   UNL     1     -10.332   6.978  70.159  1.00  0.00    -0.213 A  
HETATM   12  C   UNL     1      -6.951  10.540  66.427  1.00  0.00    -0.124 A  
HETATM   13  C   UNL     1     -10.135   7.700  71.329  1.00  0.00    -0.203 A  
HETATM   14  C   UNL     1      -6.980   9.989  65.148  1.00  0.00    -0.134 A  
HETATM   15  C   UNL     1     -10.032   9.075  71.239  1.00  0.00    -0.311 A  
HETATM   16  C   UNL     1      -8.127   9.350  64.682  1.00  0.00    -0.133 A  
HETATM   17 BR   UNL     1      -5.462  10.129  64.031  1.00  0.00    -0.137 Br 
HETATM   18  N   UNL     1     -10.125   9.760  70.079  1.00  0.00    -0.243 NA 
HETATM   19  C   UNL     1      -9.259   9.277  65.496  1.00  0.00    -0.292 A  
ENDBRANCH   4   5
ENDBRANCH   2   4
TORSDOF 2
ENDMDL
MODEL       87
REMARK 921   NORMALIZED FREE ENERGY PREDICTED BY IDOCK:   -4.08 KCAL/MOL
REMARK 922        TOTAL FREE ENERGY PREDICTED BY IDOCK:   -4.71 KCAL/MOL
REMARK 923 INTER-LIGAND FREE ENERGY PREDICTED BY IDOCK:   -4.36 KCAL/MOL
REMARK 924 INTRA-LIGAND FREE ENERGY PREDICTED BY IDOCK:   -0.35 KCAL/MOL
REMARK 927      BINDING AFFINITY PREDICTED BY RF-SCORE:    0.00 PKD
ROOT
HETATM    1  C   UNL     1      -8.835  11.909  68.543  1.00  0.00    -0.108 C  
HETATM    2  N   UNL     1      -7.572  12.635  68.402  1.00  0.00    -0.128 NA 
HETATM    3  C   UNL     1      -6.460  11.682  68.327  1.00  0.00    -0.051 C  
ENDROOT
BRANCH   2   4
HETATM    4  C   UNL     1      -7.560  13.499  67.207  1.00  0.00    -0.058 C  
BRANCH   4   5
HETATM    5  C   UNL     1      -7.301  14.984  67.495  1.00  0.00    -0.228 C  
HETATM    6  C   UNL     1      -8.519  15.907  67.242  1.00  0.00    -0.207 C  
HETATM    7  C   UNL     1      -9.675  15.595  68.188  1.00  0.00    -0.204 A  
HETATM    8  C   UNL     1      -8.103  17.379  67.283  1.00  0.00    -0.201 A  
HETATM    9  C   UNL     1      -9.538  15.744  69.577  1.00  0.00    -0.262 A  
HETATM   10  C   UNL     1      -8.826  18.324  66.558  1.00  0.00    -0.284 A  
HETATM   11  C   UNL     1      -8.396  19.651  66.558  1.00  0.00    -0.357 A  
HETATM   12  C   UNL     1     -10.576  15.382  70.439  1.00  0.00    -0.274 A  
HETATM   13  C   UNL     1      -7.265  19.999  67.284  1.00  0.00    -0.286 A  
HETATM   14  C   UNL     1     -11.765  14.878  69.916  1.00  0.00    -0.305 A  
HETATM   15  C   UNL     1      -6.616  19.009  67.997  1.00  0.00    -0.225 A  
HETATM   16  C   UNL     1     -11.928  14.743  68.539  1.00  0.00    -0.284 A  
HETATM   17 BR   UNL     1     -13.156  14.355  71.083  1.00  0.00    -0.415 Br 
HETATM   18  N   UNL     1      -7.012  17.718  68.018  1.00  0.00    -0.193 NA 
HETATM   19  C   UNL     1     -10.887  15.099  67.679  1.00  0.00    -0.295 A  
ENDBRANCH   4   5
ENDBRANCH   2   4
TORSDOF 2
ENDMDL
MODEL       88
REMARK 921   NORMALIZED FREE ENERGY PREDICTED BY IDOCK:   -4.06 KCAL/MOL
REMARK 922        TOTAL FREE ENERGY PREDICTED BY IDOCK:   -4.69 KCAL/MOL
REMARK 923 INTER-LIGAND FREE ENERGY PREDICTED BY IDOCK:   -4.53 KCAL/MOL
REMARK 924 INTRA-LIGAND FREE ENERGY PREDICTED BY IDOCK:   -0.16 KCAL/MOL
REMARK 927      BINDING AFFINITY PREDICTED BY RF-SCORE:    0.00 PKD
ROOT
HETATM    1  C   UNL     1     -13.079  15.435  70.533  1.00  0.00    -0.272 C  
HETATM    2  N   UNL     1     -11.815  14.809  70.143  1.00  0.00    -0.288 NA 
HETATM    3  C   UNL     1     -11.953  13.350  70.178  1.00  0.00    -0.326 C  
ENDROOT
BRANCH   2   4
HETATM    4  C   UNL     1     -11.380  15.229  68.798  1.00  0.00    -0.308 C  
BRANCH   4   5
HETATM    5  C   UNL     1     -11.803  14.284  67.666  1.00  0.00    -0.420 C  
HETATM    6  C   UNL     1     -10.664  13.909  66.685  1.00  0.00    -0.281 C  
HETATM    7  C   UNL     1      -9.560  13.110  67.373  1.00  0.00    -0.219 A  
HETATM    8  C   UNL     1     -11.222  13.202  65.448  1.00  0.00    -0.291 A  
HETATM    9  C   UNL     1      -9.819  11.853  67.940  1.00  0.00    -0.190 A  
HETATM   10  C   UNL     1     -10.539  13.282  64.236  1.00  0.00    -0.402 A  
HETATM   11  C   UNL     1     -11.094  12.683  63.106  1.00  0.00     0.041 A  
HETATM   12  C   UNL     1      -8.821  11.165  68.635  1.00  0.00    -0.155 A  
HETATM   13  C   UNL     1     -12.307  12.015  63.216  1.00  0.00    -0.553 A  
HETATM   14  C   UNL     1      -7.553  11.726  68.758  1.00  0.00    -0.104 A  
HETATM   15  C   UNL     1     -12.911  11.958  64.458  1.00  0.00     0.290 A  
HETATM   16  C   UNL     1      -7.270  12.963  68.183  1.00  0.00    -0.114 A  
HETATM   17 BR   UNL     1      -6.213  10.812  69.728  1.00  0.00    -0.108 Br 
HETATM   18  N   UNL     1     -12.395  12.527  65.570  1.00  0.00    -0.642 NA 
HETATM   19  C   UNL     1      -8.271  13.653  67.495  1.00  0.00    -0.189 A  
ENDBRANCH   4   5
ENDBRANCH   2   4
TORSDOF 2
ENDMDL
MODEL       89
REMARK 921   NORMALIZED FREE ENERGY PREDICTED BY IDOCK:   -4.06 KCAL/MOL
REMARK 922        TOTAL FREE ENERGY PREDICTED BY IDOCK:   -4.69 KCAL/MOL
REMARK 923 INTER-LIGAND FREE ENERGY PREDICTED BY IDOCK:   -4.58 KCAL/MOL
REMARK 924 INTRA-LIGAND FREE ENERGY PREDICTED BY IDOCK:   -0.11 KCAL/MOL
REMARK 927      BINDING AFFINITY PREDICTED BY RF-SCORE:    0.00 PKD
ROOT
HETATM    1  C   UNL     1     -12.397  11.042  70.464  1.00  0.00    -0.373 C  
HETATM    2  N   UNL     1     -11.854  10.911  69.111  1.00  0.00    -0.323 NA 
HETATM    3  C   UNL     1     -11.849  12.221  68.451  1.00  0.00    -0.304 C  
ENDROOT
BRANCH   2   4
HETATM    4  C   UNL     1     -10.488  10.358  69.114  1.00  0.00    -0.227 C  
BRANCH   4   5
HETATM    5  C   UNL     1     -10.185   9.408  70.281  1.00  0.00    -0.295 C  
HETATM    6  C   UNL     1     -10.787   7.989  70.125  1.00  0.00    -0.242 C  
HETATM    7  C   UNL     1     -10.182   7.242  68.940  1.00  0.00    -0.196 A  
HETATM    8  C   UNL     1     -10.679   7.206  71.435  1.00  0.00    -0.225 A  
HETATM    9  C   UNL     1      -8.814   6.933  68.897  1.00  0.00    -0.129 A  
HETATM   10  C   UNL     1     -11.601   6.200  71.720  1.00  0.00    -0.333 A  
HETATM   11  C   UNL     1     -11.524   5.539  72.945  1.00  0.00    -0.327 A  
HETATM   12  C   UNL     1      -8.256   6.319  67.773  1.00  0.00    -0.118 A  
HETATM   13  C   UNL     1     -10.528   5.892  73.847  1.00  0.00    -0.288 A  
HETATM   14  C   UNL     1      -9.067   5.997  66.688  1.00  0.00    -0.137 A  
HETATM   15  C   UNL     1      -9.636   6.882  73.481  1.00  0.00    -0.192 A  
HETATM   16  C   UNL     1     -10.432   6.274  66.720  1.00  0.00    -0.311 A  
HETATM   17 BR   UNL     1      -8.307   5.197  65.153  1.00  0.00    -0.147 Br 
HETATM   18  N   UNL     1      -9.685   7.536  72.300  1.00  0.00    -0.155 NA 
HETATM   19  C   UNL     1     -10.986   6.895  67.842  1.00  0.00    -0.260 A  
ENDBRANCH   4   5
ENDBRANCH   2   4
TORSDOF 2
ENDMDL
MODEL       90
REMARK 921   NORMALIZED FREE ENERGY PREDICTED BY IDOCK:   -4.04 KCAL/MOL
REMARK 922        TOTAL FREE ENERGY PREDICTED BY IDOCK:   -4.67 KCAL/MOL
REMARK 923 INTER-LIGAND FREE ENERGY PREDICTED BY IDOCK:   -4.37 KCAL/MOL
REMARK 924 INTRA-LIGAND FREE ENERGY PREDICTED BY IDOCK:   -0.30 KCAL/MOL
REMARK 927      BINDING AFFINITY PREDICTED BY RF-SCORE:    0.00 PKD
ROOT
HETATM    1  C   UNL     1     -10.314   5.165  66.510  1.00  0.00    -0.291 C  
HETATM    2  N   UNL     1     -10.192   6.201  67.537  1.00  0.00    -0.156 NA 
HETATM    3  C   UNL     1     -10.215   7.525  66.908  1.00  0.00    -0.289 C  
ENDROOT
BRANCH   2   4
HETATM    4  C   UNL     1     -11.269   6.115  68.541  1.00  0.00    -0.145 C  
BRANCH   4   5
HETATM    5  C   UNL     1     -10.797   5.746  69.954  1.00  0.00    -0.417 C  
HETATM    6  C   UNL     1      -9.884   6.805  70.621  1.00  0.00    -0.191 C  
HETATM    7  C   UNL     1     -10.620   8.120  70.863  1.00  0.00    -0.236 A  
HETATM    8  C   UNL     1      -9.242   6.245  71.892  1.00  0.00    -0.146 A  
HETATM    9  C   UNL     1     -11.733   8.184  71.716  1.00  0.00    -0.343 A  
HETATM   10  C   UNL     1      -8.015   6.743  72.326  1.00  0.00    -0.095 A  
HETATM   11  C   UNL     1      -7.415   6.178  73.451  1.00  0.00    -0.092 A  
HETATM   12  C   UNL     1     -12.447   9.375  71.868  1.00  0.00    -0.468 A  
HETATM   13  C   UNL     1      -8.057   5.142  74.116  1.00  0.00    -0.100 A  
HETATM   14  C   UNL     1     -12.044  10.515  71.178  1.00  0.00    -0.370 A  
HETATM   15  C   UNL     1      -9.284   4.721  73.639  1.00  0.00    -0.121 A  
HETATM   16  C   UNL     1     -10.929  10.478  70.345  1.00  0.00    -0.252 A  
HETATM   17 BR   UNL     1     -13.030  12.118  71.359  1.00  0.00    -0.242 Br 
HETATM   18  N   UNL     1      -9.889   5.251  72.554  1.00  0.00    -0.160 NA 
HETATM   19  C   UNL     1     -10.221   9.285  70.187  1.00  0.00    -0.251 A  
ENDBRANCH   4   5
ENDBRANCH   2   4
TORSDOF 2
ENDMDL
MODEL       91
REMARK 921   NORMALIZED FREE ENERGY PREDICTED BY IDOCK:   -4.03 KCAL/MOL
REMARK 922        TOTAL FREE ENERGY PREDICTED BY IDOCK:   -4.66 KCAL/MOL
REMARK 923 INTER-LIGAND FREE ENERGY PREDICTED BY IDOCK:   -4.35 KCAL/MOL
REMARK 924 INTRA-LIGAND FREE ENERGY PREDICTED BY IDOCK:   -0.30 KCAL/MOL
REMARK 927      BINDING AFFINITY PREDICTED BY RF-SCORE:    0.00 PKD
ROOT
HETATM    1  C   UNL     1     -10.945   6.571  72.861  1.00  0.00    -0.250 C  
HETATM    2  N   UNL     1     -11.560   7.712  72.181  1.00  0.00    -0.293 NA 
HETATM    3  C   UNL     1     -10.585   8.801  72.060  1.00  0.00    -0.344 C  
ENDROOT
BRANCH   2   4
HETATM    4  C   UNL     1     -12.063   7.354  70.842  1.00  0.00    -0.257 C  
BRANCH   4   5
HETATM    5  C   UNL     1     -11.188   6.349  70.078  1.00  0.00    -0.475 C  
HETATM    6  C   UNL     1     -10.978   6.690  68.582  1.00  0.00    -0.317 C  
HETATM    7  C   UNL     1     -10.204   7.993  68.398  1.00  0.00    -0.239 A  
HETATM    8  C   UNL     1     -10.340   5.514  67.841  1.00  0.00    -0.182 A  
HETATM    9  C   UNL     1      -8.888   8.128  68.868  1.00  0.00    -0.141 A  
HETATM   10  C   UNL     1     -10.569   5.347  66.476  1.00  0.00    -0.353 A  
HETATM   11  C   UNL     1     -10.029   4.235  65.831  1.00  0.00    -0.232 A  
HETATM   12  C   UNL     1      -8.217   9.349  68.764  1.00  0.00    -0.108 A  
HETATM   13  C   UNL     1      -9.271   3.327  66.558  1.00  0.00    -0.169 A  
HETATM   14  C   UNL     1      -8.853  10.440  68.179  1.00  0.00    -0.132 A  
HETATM   15  C   UNL     1      -9.068   3.575  67.903  1.00  0.00    -0.157 A  
HETATM   16  C   UNL     1     -10.150  10.320  67.687  1.00  0.00    -0.229 A  
HETATM   17 BR   UNL     1      -7.957  12.101  68.070  1.00  0.00    -0.162 Br 
HETATM   18  N   UNL     1      -9.576   4.645  68.553  1.00  0.00    -0.153 NA 
HETATM   19  C   UNL     1     -10.823   9.101  67.798  1.00  0.00    -0.159 A  
ENDBRANCH   4   5
ENDBRANCH   2   4
TORSDOF 2
ENDMDL
MODEL       92
REMARK 921   NORMALIZED FREE ENERGY PREDICTED BY IDOCK:   -4.01 KCAL/MOL
REMARK 922        TOTAL FREE ENERGY PREDICTED BY IDOCK:   -4.64 KCAL/MOL
REMARK 923 INTER-LIGAND FREE ENERGY PREDICTED BY IDOCK:   -4.20 KCAL/MOL
REMARK 924 INTRA-LIGAND FREE ENERGY PREDICTED BY IDOCK:   -0.44 KCAL/MOL
REMARK 927      BINDING AFFINITY PREDICTED BY RF-SCORE:    0.00 PKD
ROOT
HETATM    1  C   UNL     1      -7.805   5.649  71.668  1.00  0.00    -0.109 C  
HETATM    2  N   UNL     1      -6.854   6.406  70.853  1.00  0.00    -0.061 NA 
HETATM    3  C   UNL     1      -6.804   5.843  69.499  1.00  0.00    -0.062 C  
ENDROOT
BRANCH   2   4
HETATM    4  C   UNL     1      -7.204   7.836  70.777  1.00  0.00    -0.057 C  
BRANCH   4   5
HETATM    5  C   UNL     1      -8.641   8.166  71.201  1.00  0.00    -0.153 C  
HETATM    6  C   UNL     1      -9.515   8.783  70.081  1.00  0.00    -0.182 C  
HETATM    7  C   UNL     1      -9.737   7.806  68.930  1.00  0.00    -0.160 A  
HETATM    8  C   UNL     1     -10.824   9.332  70.651  1.00  0.00    -0.278 A  
HETATM    9  C   UNL     1     -10.414   6.592  69.127  1.00  0.00    -0.250 A  
HETATM   10  C   UNL     1     -11.473  10.384  70.009  1.00  0.00    -0.382 A  
HETATM   11  C   UNL     1     -12.632  10.911  70.578  1.00  0.00    -0.409 A  
HETATM   12  C   UNL     1     -10.544   5.671  68.086  1.00  0.00    -0.256 A  
HETATM   13  C   UNL     1     -13.115  10.372  71.763  1.00  0.00    -0.567 A  
HETATM   14  C   UNL     1     -10.007   5.963  66.834  1.00  0.00    -0.171 A  
HETATM   15  C   UNL     1     -12.428   9.313  72.326  1.00  0.00    -0.307 A  
HETATM   16  C   UNL     1      -9.352   7.171  66.612  1.00  0.00    -0.207 A  
HETATM   17 BR   UNL     1     -10.153   4.701  65.434  1.00  0.00    -0.131 Br 
HETATM   18  N   UNL     1     -11.306   8.780  71.796  1.00  0.00    -0.315 NA 
HETATM   19  C   UNL     1      -9.216   8.088  67.656  1.00  0.00    -0.145 A  
ENDBRANCH   4   5
ENDBRANCH   2   4
TORSDOF 2
ENDMDL
MODEL       93
REMARK 921   NORMALIZED FREE ENERGY PREDICTED BY IDOCK:   -4.01 KCAL/MOL
REMARK 922        TOTAL FREE ENERGY PREDICTED BY IDOCK:   -4.64 KCAL/MOL
REMARK 923 INTER-LIGAND FREE ENERGY PREDICTED BY IDOCK:   -4.46 KCAL/MOL
REMARK 924 INTRA-LIGAND FREE ENERGY PREDICTED BY IDOCK:   -0.17 KCAL/MOL
REMARK 927      BINDING AFFINITY PREDICTED BY RF-SCORE:    0.00 PKD
ROOT
HETATM    1  C   UNL     1     -11.396  11.869  63.606  1.00  0.00    -0.450 C  
HETATM    2  N   UNL     1     -10.709  10.857  64.410  1.00  0.00    -0.286 NA 
HETATM    3  C   UNL     1      -9.259  11.058  64.325  1.00  0.00    -0.152 C  
ENDROOT
BRANCH   2   4
HETATM    4  C   UNL     1     -11.128  10.895  65.824  1.00  0.00     0.122 C  
BRANCH   4   5
HETATM    5  C   UNL     1     -10.719  12.168  66.578  1.00  0.00    -0.290 C  
HETATM    6  C   UNL     1     -11.182  12.214  68.055  1.00  0.00    -0.319 C  
HETATM    7  C   UNL     1     -10.523  11.121  68.892  1.00  0.00    -0.233 A  
HETATM    8  C   UNL     1     -10.981  13.612  68.645  1.00  0.00    -0.267 A  
HETATM    9  C   UNL     1      -9.131  11.084  69.072  1.00  0.00    -0.076 A  
HETATM   10  C   UNL     1     -11.797  14.049  69.686  1.00  0.00    -0.386 A  
HETATM   11  C   UNL     1     -11.640  15.348  70.169  1.00  0.00    -0.351 A  
HETATM   12  C   UNL     1      -8.531  10.035  69.774  1.00  0.00    -0.189 A  
HETATM   13  C   UNL     1     -10.671  16.170  69.608  1.00  0.00    -0.325 A  
HETATM   14  C   UNL     1      -9.321   9.023  70.313  1.00  0.00    -0.198 A  
HETATM   15  C   UNL     1      -9.885  15.655  68.595  1.00  0.00    -0.210 A  
HETATM   16  C   UNL     1     -10.706   9.054  70.164  1.00  0.00    -0.258 A  
HETATM   17 BR   UNL     1      -8.507   7.587  71.233  1.00  0.00    -0.120 Br 
HETATM   18  N   UNL     1     -10.013  14.401  68.110  1.00  0.00    -0.218 NA 
HETATM   19  C   UNL     1     -11.304  10.099  69.455  1.00  0.00    -0.260 A  
ENDBRANCH   4   5
ENDBRANCH   2   4
TORSDOF 2
ENDMDL
MODEL       94
REMARK 921   NORMALIZED FREE ENERGY PREDICTED BY IDOCK:   -4.01 KCAL/MOL
REMARK 922        TOTAL FREE ENERGY PREDICTED BY IDOCK:   -4.63 KCAL/MOL
REMARK 923 INTER-LIGAND FREE ENERGY PREDICTED BY IDOCK:   -4.45 KCAL/MOL
REMARK 924 INTRA-LIGAND FREE ENERGY PREDICTED BY IDOCK:   -0.18 KCAL/MOL
REMARK 927      BINDING AFFINITY PREDICTED BY RF-SCORE:    0.00 PKD
ROOT
HETATM    1  C   UNL     1     -13.631  14.026  71.306  1.00  0.00    -0.201 C  
HETATM    2  N   UNL     1     -12.331  13.597  70.788  1.00  0.00    -0.361 NA 
HETATM    3  C   UNL     1     -12.325  12.142  70.609  1.00  0.00    -0.295 C  
ENDROOT
BRANCH   2   4
HETATM    4  C   UNL     1     -12.002  14.251  69.508  1.00  0.00    -0.336 C  
BRANCH   4   5
HETATM    5  C   UNL     1     -11.471  13.303  68.424  1.00  0.00    -0.349 C  
HETATM    6  C   UNL     1     -10.606  13.991  67.339  1.00  0.00    -0.278 C  
HETATM    7  C   UNL     1      -9.317  14.567  67.919  1.00  0.00    -0.201 A  
HETATM    8  C   UNL     1     -10.354  13.044  66.164  1.00  0.00    -0.278 A  
HETATM    9  C   UNL     1      -8.353  13.737  68.511  1.00  0.00    -0.120 A  
HETATM   10  C   UNL     1     -10.125  13.564  64.891  1.00  0.00    -0.280 A  
HETATM   11  C   UNL     1      -9.959  12.685  63.821  1.00  0.00    -0.043 A  
HETATM   12  C   UNL     1      -7.214  14.282  69.109  1.00  0.00    -0.104 A  
HETATM   13  C   UNL     1     -10.016  11.316  64.050  1.00  0.00    -0.362 A  
HETATM   14  C   UNL     1      -7.025  15.661  69.107  1.00  0.00    -0.166 A  
HETATM   15  C   UNL     1     -10.222  10.879  65.345  1.00  0.00    -0.277 A  
HETATM   16  C   UNL     1      -7.960  16.500  68.504  1.00  0.00    -0.216 A  
HETATM   17 BR   UNL     1      -5.501  16.401  69.945  1.00  0.00    -0.176 Br 
HETATM   18  N   UNL     1     -10.384  11.706  66.400  1.00  0.00    -0.223 NA 
HETATM   19  C   UNL     1      -9.102  15.955  67.914  1.00  0.00    -0.190 A  
ENDBRANCH   4   5
ENDBRANCH   2   4
TORSDOF 2
ENDMDL
MODEL       95
REMARK 921   NORMALIZED FREE ENERGY PREDICTED BY IDOCK:   -3.99 KCAL/MOL
REMARK 922        TOTAL FREE ENERGY PREDICTED BY IDOCK:   -4.61 KCAL/MOL
REMARK 923 INTER-LIGAND FREE ENERGY PREDICTED BY IDOCK:   -4.35 KCAL/MOL
REMARK 924 INTRA-LIGAND FREE ENERGY PREDICTED BY IDOCK:   -0.26 KCAL/MOL
REMARK 927      BINDING AFFINITY PREDICTED BY RF-SCORE:    0.00 PKD
ROOT
HETATM    1  C   UNL     1      -8.968  10.351  65.196  1.00  0.00    -0.191 C  
HETATM    2  N   UNL     1      -9.352  11.736  65.474  1.00  0.00    -0.171 NA 
HETATM    3  C   UNL     1     -10.764  11.937  65.131  1.00  0.00    -0.291 C  
ENDROOT
BRANCH   2   4
HETATM    4  C   UNL     1      -9.135  12.098  66.887  1.00  0.00    -0.203 C  
BRANCH   4   5
HETATM    5  C   UNL     1      -8.230  13.318  67.103  1.00  0.00    -0.123 C  
HETATM    6  C   UNL     1      -8.937  14.683  66.908  1.00  0.00    -0.275 C  
HETATM    7  C   UNL     1     -10.032  14.909  67.947  1.00  0.00    -0.219 A  
HETATM    8  C   UNL     1      -7.918  15.823  66.866  1.00  0.00    -0.250 A  
HETATM    9  C   UNL     1      -9.731  14.982  69.315  1.00  0.00    -0.192 A  
HETATM   10  C   UNL     1      -8.210  16.990  66.164  1.00  0.00    -0.284 A  
HETATM   11  C   UNL     1      -7.244  17.993  66.086  1.00  0.00    -0.325 A  
HETATM   12  C   UNL     1     -10.750  15.111  70.263  1.00  0.00    -0.232 A  
HETATM   13  C   UNL     1      -6.020  17.809  66.714  1.00  0.00    -0.195 A  
HETATM   14  C   UNL     1     -12.077  15.181  69.846  1.00  0.00    -0.336 A  
HETATM   15  C   UNL     1      -5.815  16.633  67.413  1.00  0.00    -0.158 A  
HETATM   16  C   UNL     1     -12.394  15.133  68.491  1.00  0.00     0.150 A  
HETATM   17 BR   UNL     1     -13.457  15.321  71.131  1.00  0.00    -0.542 Br 
HETATM   18  N   UNL     1      -6.732  15.647  67.507  1.00  0.00    -0.178 NA 
HETATM   19  C   UNL     1     -11.375  14.996  67.545  1.00  0.00    -0.340 A  
ENDBRANCH   4   5
ENDBRANCH   2   4
TORSDOF 2
ENDMDL
MODEL       96
REMARK 921   NORMALIZED FREE ENERGY PREDICTED BY IDOCK:   -3.98 KCAL/MOL
REMARK 922        TOTAL FREE ENERGY PREDICTED BY IDOCK:   -4.60 KCAL/MOL
REMARK 923 INTER-LIGAND FREE ENERGY PREDICTED BY IDOCK:   -4.42 KCAL/MOL
REMARK 924 INTRA-LIGAND FREE ENERGY PREDICTED BY IDOCK:   -0.18 KCAL/MOL
REMARK 927      BINDING AFFINITY PREDICTED BY RF-SCORE:    0.00 PKD
ROOT
HETATM    1  C   UNL     1     -11.790  12.922  67.887  1.00  0.00    -0.339 C  
HETATM    2  N   UNL     1     -11.765  11.616  67.226  1.00  0.00    -0.611 NA 
HETATM    3  C   UNL     1     -10.912  11.680  66.035  1.00  0.00    -0.286 C  
ENDROOT
BRANCH   2   4
HETATM    4  C   UNL     1     -11.279  10.551  68.122  1.00  0.00    -0.293 C  
BRANCH   4   5
HETATM    5  C   UNL     1     -10.530   9.413  67.415  1.00  0.00    -0.343 C  
HETATM    6  C   UNL     1      -9.198   9.004  68.092  1.00  0.00    -0.141 C  
HETATM    7  C   UNL     1      -9.423   8.422  69.485  1.00  0.00    -0.166 A  
HETATM    8  C   UNL     1      -8.390   8.074  67.186  1.00  0.00    -0.121 A  
HETATM    9  C   UNL     1     -10.163   7.244  69.669  1.00  0.00    -0.214 A  
HETATM   10  C   UNL     1      -7.001   8.036  67.291  1.00  0.00    -0.075 A  
HETATM   11  C   UNL     1      -6.278   7.228  66.415  1.00  0.00    -0.040 A  
HETATM   12  C   UNL     1     -10.429   6.762  70.952  1.00  0.00    -0.239 A  
HETATM   13  C   UNL     1      -6.957   6.474  65.466  1.00  0.00    -0.053 A  
HETATM   14  C   UNL     1      -9.946   7.450  72.063  1.00  0.00    -0.166 A  
HETATM   15  C   UNL     1      -8.337   6.547  65.441  1.00  0.00    -0.140 A  
HETATM   16  C   UNL     1      -9.190   8.609  71.900  1.00  0.00    -0.345 A  
HETATM   17 BR   UNL     1     -10.335   6.817  73.801  1.00  0.00    -0.394 Br 
HETATM   18  N   UNL     1      -9.063   7.318  66.279  1.00  0.00    -0.164 NA 
HETATM   19  C   UNL     1      -8.932   9.093  70.616  1.00  0.00    -0.292 A  
ENDBRANCH   4   5
ENDBRANCH   2   4
TORSDOF 2
ENDMDL
MODEL       97
REMARK 921   NORMALIZED FREE ENERGY PREDICTED BY IDOCK:   -3.96 KCAL/MOL
REMARK 922        TOTAL FREE ENERGY PREDICTED BY IDOCK:   -4.58 KCAL/MOL
REMARK 923 INTER-LIGAND FREE ENERGY PREDICTED BY IDOCK:   -4.42 KCAL/MOL
REMARK 924 INTRA-LIGAND FREE ENERGY PREDICTED BY IDOCK:   -0.16 KCAL/MOL
REMARK 927      BINDING AFFINITY PREDICTED BY RF-SCORE:    0.00 PKD
ROOT
HETATM    1  C   UNL     1      -6.020  14.520  70.255  1.00  0.00    -0.158 C  
HETATM    2  N   UNL     1      -6.701  14.486  68.959  1.00  0.00    -0.098 NA 
HETATM    3  C   UNL     1      -5.721  14.650  67.881  1.00  0.00    -0.118 C  
ENDROOT
BRANCH   2   4
HETATM    4  C   UNL     1      -7.447  13.230  68.758  1.00  0.00    -0.053 C  
BRANCH   4   5
HETATM    5  C   UNL     1      -8.818  13.401  68.090  1.00  0.00    -0.180 C  
HETATM    6  C   UNL     1      -9.287  12.175  67.267  1.00  0.00    -0.183 C  
HETATM    7  C   UNL     1      -9.512  10.950  68.150  1.00  0.00    -0.167 A  
HETATM    8  C   UNL     1     -10.512  12.525  66.419  1.00  0.00    -0.247 A  
HETATM    9  C   UNL     1     -10.484  10.953  69.162  1.00  0.00    -0.248 A  
HETATM   10  C   UNL     1     -10.756  11.834  65.235  1.00  0.00    -0.338 A  
HETATM   11  C   UNL     1     -11.842  12.208  64.444  1.00  0.00    -0.436 A  
HETATM   12  C   UNL     1     -10.628   9.856  70.015  1.00  0.00    -0.335 A  
HETATM   13  C   UNL     1     -12.657  13.253  64.859  1.00  0.00    -0.444 A  
HETATM   14  C   UNL     1      -9.809   8.742  69.853  1.00  0.00    -0.184 A  
HETATM   15  C   UNL     1     -12.364  13.873  66.059  1.00  0.00    -0.475 A  
HETATM   16  C   UNL     1      -8.853   8.711  68.840  1.00  0.00    -0.138 A  
HETATM   17 BR   UNL     1      -9.981   7.272  71.028  1.00  0.00    -0.191 Br 
HETATM   18  N   UNL     1     -11.321  13.530  66.846  1.00  0.00    -0.315 NA 
HETATM   19  C   UNL     1      -8.705   9.812  67.993  1.00  0.00    -0.118 A  
ENDBRANCH   4   5
ENDBRANCH   2   4
TORSDOF 2
ENDMDL
MODEL       98
REMARK 921   NORMALIZED FREE ENERGY PREDICTED BY IDOCK:   -3.93 KCAL/MOL
REMARK 922        TOTAL FREE ENERGY PREDICTED BY IDOCK:   -4.55 KCAL/MOL
REMARK 923 INTER-LIGAND FREE ENERGY PREDICTED BY IDOCK:   -4.25 KCAL/MOL
REMARK 924 INTRA-LIGAND FREE ENERGY PREDICTED BY IDOCK:   -0.29 KCAL/MOL
REMARK 927      BINDING AFFINITY PREDICTED BY RF-SCORE:    0.00 PKD
ROOT
HETATM    1  C   UNL     1      -9.381   8.491  66.414  1.00  0.00    -0.213 C  
HETATM    2  N   UNL     1      -9.797   7.732  67.594  1.00  0.00    -0.154 NA 
HETATM    3  C   UNL     1     -10.691   6.641  67.190  1.00  0.00    -0.370 C  
ENDROOT
BRANCH   2   4
HETATM    4  C   UNL     1      -8.647   7.177  68.330  1.00  0.00    -0.122 C  
BRANCH   4   5
HETATM    5  C   UNL     1      -8.923   5.842  69.036  1.00  0.00    -0.122 C  
HETATM    6  C   UNL     1      -9.007   5.940  70.580  1.00  0.00    -0.151 C  
HETATM    7  C   UNL     1     -10.190   6.791  71.032  1.00  0.00    -0.217 A  
HETATM    8  C   UNL     1      -9.005   4.547  71.213  1.00  0.00    -0.127 A  
HETATM    9  C   UNL     1     -11.510   6.416  70.737  1.00  0.00    -0.415 A  
HETATM   10  C   UNL     1      -8.514   4.373  72.505  1.00  0.00    -0.109 A  
HETATM   11  C   UNL     1      -8.463   3.088  73.043  1.00  0.00    -0.080 A  
HETATM   12  C   UNL     1     -12.581   7.242  71.087  1.00  0.00    -0.362 A  
HETATM   13  C   UNL     1      -8.910   2.014  72.283  1.00  0.00    -0.095 A  
HETATM   14  C   UNL     1     -12.340   8.445  71.746  1.00  0.00    -0.331 A  
HETATM   15  C   UNL     1      -9.406   2.271  71.019  1.00  0.00    -0.139 A  
HETATM   16  C   UNL     1     -11.039   8.824  72.068  1.00  0.00    -0.441 A  
HETATM   17 BR   UNL     1     -13.786   9.579  72.189  1.00  0.00    -0.393 Br 
HETATM   18  N   UNL     1      -9.470   3.505  70.474  1.00  0.00    -0.168 NA 
HETATM   19  C   UNL     1      -9.968   8.001  71.710  1.00  0.00    -0.245 A  
ENDBRANCH   4   5
ENDBRANCH   2   4
TORSDOF 2
ENDMDL
MODEL       99
REMARK 921   NORMALIZED FREE ENERGY PREDICTED BY IDOCK:   -3.92 KCAL/MOL
REMARK 922        TOTAL FREE ENERGY PREDICTED BY IDOCK:   -4.54 KCAL/MOL
REMARK 923 INTER-LIGAND FREE ENERGY PREDICTED BY IDOCK:   -4.48 KCAL/MOL
REMARK 924 INTRA-LIGAND FREE ENERGY PREDICTED BY IDOCK:   -0.06 KCAL/MOL
REMARK 927      BINDING AFFINITY PREDICTED BY RF-SCORE:    0.00 PKD
ROOT
HETATM    1  C   UNL     1     -12.069  12.651  70.314  1.00  0.00    -0.294 C  
HETATM    2  N   UNL     1     -12.533  13.922  69.757  1.00  0.00    -0.267 NA 
HETATM    3  C   UNL     1     -11.769  15.028  70.344  1.00  0.00    -0.291 C  
ENDROOT
BRANCH   2   4
HETATM    4  C   UNL     1     -12.407  13.963  68.289  1.00  0.00     0.038 C  
BRANCH   4   5
HETATM    5  C   UNL     1     -11.532  15.105  67.754  1.00  0.00    -0.329 C  
HETATM    6  C   UNL     1     -10.063  14.706  67.467  1.00  0.00    -0.224 C  
HETATM    7  C   UNL     1      -9.962  13.674  66.347  1.00  0.00    -0.299 A  
HETATM    8  C   UNL     1      -9.204  15.945  67.208  1.00  0.00    -0.206 A  
HETATM    9  C   UNL     1     -10.395  13.971  65.045  1.00  0.00    -0.432 A  
HETATM   10  C   UNL     1      -7.839  15.914  67.488  1.00  0.00    -0.176 A  
HETATM   11  C   UNL     1      -7.084  17.071  67.304  1.00  0.00    -0.193 A  
HETATM   12  C   UNL     1     -10.370  12.994  64.046  1.00  0.00    -0.272 A  
HETATM   13  C   UNL     1      -7.706  18.223  66.839  1.00  0.00    -0.242 A  
HETATM   14  C   UNL     1      -9.901  11.717  64.340  1.00  0.00    -0.223 A  
HETATM   15  C   UNL     1      -9.058  18.167  66.560  1.00  0.00    -0.276 A  
HETATM   16  C   UNL     1      -9.447  11.409  65.620  1.00  0.00    -0.253 A  
HETATM   17 BR   UNL     1      -9.901  10.386  62.997  1.00  0.00    -0.042 Br 
HETATM   18  N   UNL     1      -9.813  17.060  66.726  1.00  0.00    -0.266 NA 
HETATM   19  C   UNL     1      -9.479  12.384  66.620  1.00  0.00    -0.232 A  
ENDBRANCH   4   5
ENDBRANCH   2   4
TORSDOF 2
ENDMDL
MODEL      100
REMARK 921   NORMALIZED FREE ENERGY PREDICTED BY IDOCK:   -3.86 KCAL/MOL
REMARK 922        TOTAL FREE ENERGY PREDICTED BY IDOCK:   -4.47 KCAL/MOL
REMARK 923 INTER-LIGAND FREE ENERGY PREDICTED BY IDOCK:   -4.36 KCAL/MOL
REMARK 924 INTRA-LIGAND FREE ENERGY PREDICTED BY IDOCK:   -0.11 KCAL/MOL
REMARK 927      BINDING AFFINITY PREDICTED BY RF-SCORE:    0.00 PKD
ROOT
HETATM    1  C   UNL     1     -10.241   9.627  70.459  1.00  0.00    -0.287 C  
HETATM    2  N   UNL     1     -10.338  10.334  69.181  1.00  0.00    -0.208 NA 
HETATM    3  C   UNL     1     -10.999   9.478  68.190  1.00  0.00    -0.089 C  
ENDROOT
BRANCH   2   4
HETATM    4  C   UNL     1     -11.078  11.603  69.304  1.00  0.00    -0.233 C  
BRANCH   4   5
HETATM    5  C   UNL     1     -11.430  12.271  67.968  1.00  0.00    -0.378 C  
HETATM    6  C   UNL     1     -10.341  13.227  67.422  1.00  0.00    -0.243 C  
HETATM    7  C   UNL     1      -9.052  12.485  67.079  1.00  0.00    -0.213 A  
HETATM    8  C   UNL     1     -10.878  14.051  66.251  1.00  0.00    -0.291 A  
HETATM    9  C   UNL     1      -9.027  11.493  66.086  1.00  0.00    -0.201 A  
HETATM   10  C   UNL     1     -10.338  15.307  65.981  1.00  0.00    -0.327 A  
HETATM   11  C   UNL     1     -10.882  16.070  64.948  1.00  0.00    -0.391 A  
HETATM   12  C   UNL     1      -7.862  10.766  65.834  1.00  0.00    -0.131 A  
HETATM   13  C   UNL     1     -11.940  15.558  64.208  1.00  0.00    -0.161 A  
HETATM   14  C   UNL     1      -6.708  11.034  66.566  1.00  0.00    -0.135 A  
HETATM   15  C   UNL     1     -12.403  14.293  64.521  1.00  0.00    -0.410 A  
HETATM   16  C   UNL     1      -6.706  12.029  67.540  1.00  0.00    -0.120 A  
HETATM   17 BR   UNL     1      -5.140  10.026  66.249  1.00  0.00    -0.041 Br 
HETATM   18  N   UNL     1     -11.894  13.532  65.514  1.00  0.00    -0.345 NA 
HETATM   19  C   UNL     1      -7.874  12.751  67.797  1.00  0.00    -0.156 A  
ENDBRANCH   4   5
ENDBRANCH   2   4
TORSDOF 2
ENDMDL
MODEL      101
REMARK 921   NORMALIZED FREE ENERGY PREDICTED BY IDOCK:   -3.81 KCAL/MOL
REMARK 922        TOTAL FREE ENERGY PREDICTED BY IDOCK:   -4.42 KCAL/MOL
REMARK 923 INTER-LIGAND FREE ENERGY PREDICTED BY IDOCK:   -4.09 KCAL/MOL
REMARK 924 INTRA-LIGAND FREE ENERGY PREDICTED BY IDOCK:   -0.32 KCAL/MOL
REMARK 927      BINDING AFFINITY PREDICTED BY RF-SCORE:    0.00 PKD
ROOT
HETATM    1  C   UNL     1      -7.113   6.936  65.137  1.00  0.00    -0.067 C  
HETATM    2  N   UNL     1      -7.944   7.166  66.320  1.00  0.00    -0.106 NA 
HETATM    3  C   UNL     1      -8.244   5.886  66.970  1.00  0.00    -0.105 C  
ENDROOT
BRANCH   2   4
HETATM    4  C   UNL     1      -7.294   8.068  67.287  1.00  0.00    -0.089 C  
BRANCH   4   5
HETATM    5  C   UNL     1      -7.837   9.504  67.288  1.00  0.00    -0.098 C  
HETATM    6  C   UNL     1      -9.373   9.607  67.458  1.00  0.00    -0.149 C  
HETATM    7  C   UNL     1      -9.831   9.091  68.819  1.00  0.00    -0.180 A  
HETATM    8  C   UNL     1      -9.857  11.030  67.172  1.00  0.00    -0.184 A  
HETATM    9  C   UNL     1      -9.411   9.707  70.008  1.00  0.00    -0.277 A  
HETATM   10  C   UNL     1     -11.154  11.242  66.709  1.00  0.00    -0.314 A  
HETATM   11  C   UNL     1     -11.557  12.540  66.396  1.00  0.00    -0.449 A  
HETATM   12  C   UNL     1      -9.773   9.180  71.250  1.00  0.00    -0.351 A  
HETATM   13  C   UNL     1     -10.661  13.589  66.559  1.00  0.00    -0.287 A  
HETATM   14  C   UNL     1     -10.569   8.039  71.311  1.00  0.00    -0.209 A  
HETATM   15  C   UNL     1      -9.400  13.301  67.046  1.00  0.00    -0.242 A  
HETATM   16  C   UNL     1     -11.015   7.426  70.142  1.00  0.00    -0.272 A  
HETATM   17 BR   UNL     1     -11.030   7.305  72.991  1.00  0.00    -0.381 Br 
HETATM   18  N   UNL     1      -8.984  12.055  67.360  1.00  0.00    -0.170 NA 
HETATM   19  C   UNL     1     -10.646   7.950  68.901  1.00  0.00    -0.165 A  
ENDBRANCH   4   5
ENDBRANCH   2   4
TORSDOF 2
ENDMDL
MODEL      102
REMARK 921   NORMALIZED FREE ENERGY PREDICTED BY IDOCK:   -3.80 KCAL/MOL
REMARK 922        TOTAL FREE ENERGY PREDICTED BY IDOCK:   -4.40 KCAL/MOL
REMARK 923 INTER-LIGAND FREE ENERGY PREDICTED BY IDOCK:   -4.11 KCAL/MOL
REMARK 924 INTRA-LIGAND FREE ENERGY PREDICTED BY IDOCK:   -0.29 KCAL/MOL
REMARK 927      BINDING AFFINITY PREDICTED BY RF-SCORE:    0.00 PKD
ROOT
HETATM    1  C   UNL     1     -12.115  12.801  69.353  1.00  0.00    -0.192 C  
HETATM    2  N   UNL     1     -11.431  12.136  68.243  1.00  0.00    -0.282 NA 
HETATM    3  C   UNL     1     -11.559  12.945  67.026  1.00  0.00    -0.362 C  
ENDROOT
BRANCH   2   4
HETATM    4  C   UNL     1     -10.003  11.905  68.530  1.00  0.00    -0.192 C  
BRANCH   4   5
HETATM    5  C   UNL     1      -9.678  10.505  69.070  1.00  0.00    -0.221 C  
HETATM    6  C   UNL     1     -10.048   9.346  68.111  1.00  0.00    -0.215 C  
HETATM    7  C   UNL     1      -9.229   9.390  66.824  1.00  0.00    -0.179 A  
HETATM    8  C   UNL     1      -9.953   7.997  68.826  1.00  0.00    -0.189 A  
HETATM    9  C   UNL     1      -7.832   9.254  66.846  1.00  0.00    -0.098 A  
HETATM   10  C   UNL     1     -10.741   6.929  68.401  1.00  0.00    -0.259 A  
HETATM   11  C   UNL     1     -10.686   5.726  69.104  1.00  0.00    -0.370 A  
HETATM   12  C   UNL     1      -7.086   9.373  65.672  1.00  0.00    -0.090 A  
HETATM   13  C   UNL     1      -9.843   5.618  70.203  1.00  0.00    -0.250 A  
HETATM   14  C   UNL     1      -7.733   9.618  64.463  1.00  0.00    -0.131 A  
HETATM   15  C   UNL     1      -9.075   6.714  70.547  1.00  0.00    -0.152 A  
HETATM   16  C   UNL     1      -9.120   9.734  64.417  1.00  0.00    -0.296 A  
HETATM   17 BR   UNL     1      -6.720   9.815  62.879  1.00  0.00    -0.115 Br 
HETATM   18  N   UNL     1      -9.106   7.890  69.883  1.00  0.00    -0.146 NA 
HETATM   19  C   UNL     1      -9.865   9.622  65.593  1.00  0.00    -0.369 A  
ENDBRANCH   4   5
ENDBRANCH   2   4
TORSDOF 2
ENDMDL
MODEL      103
REMARK 921   NORMALIZED FREE ENERGY PREDICTED BY IDOCK:   -3.80 KCAL/MOL
REMARK 922        TOTAL FREE ENERGY PREDICTED BY IDOCK:   -4.40 KCAL/MOL
REMARK 923 INTER-LIGAND FREE ENERGY PREDICTED BY IDOCK:   -4.23 KCAL/MOL
REMARK 924 INTRA-LIGAND FREE ENERGY PREDICTED BY IDOCK:   -0.17 KCAL/MOL
REMARK 927      BINDING AFFINITY PREDICTED BY RF-SCORE:    0.00 PKD
ROOT
HETATM    1  C   UNL     1      -8.526   5.789  74.523  1.00  0.00    -0.111 C  
HETATM    2  N   UNL     1      -7.678   6.982  74.564  1.00  0.00    -0.117 NA 
HETATM    3  C   UNL     1      -6.312   6.631  74.164  1.00  0.00    -0.065 C  
ENDROOT
BRANCH   2   4
HETATM    4  C   UNL     1      -8.187   8.053  73.689  1.00  0.00    -0.227 C  
BRANCH   4   5
HETATM    5  C   UNL     1      -9.631   7.855  73.208  1.00  0.00    -0.351 C  
HETATM    6  C   UNL     1     -10.073   8.830  72.088  1.00  0.00    -0.362 C  
HETATM    7  C   UNL     1      -9.276   8.619  70.803  1.00  0.00    -0.223 A  
HETATM    8  C   UNL     1     -11.585   8.752  71.865  1.00  0.00    -0.361 A  
HETATM    9  C   UNL     1      -9.331   7.403  70.105  1.00  0.00    -0.158 A  
HETATM   10  C   UNL     1     -12.271   9.860  71.371  1.00  0.00    -0.499 A  
HETATM   11  C   UNL     1     -13.656   9.791  71.232  1.00  0.00    -0.285 A  
HETATM   12  C   UNL     1      -8.539   7.193  68.974  1.00  0.00    -0.129 A  
HETATM   13  C   UNL     1     -14.318   8.621  71.582  1.00  0.00    -0.451 A  
HETATM   14  C   UNL     1      -7.693   8.205  68.526  1.00  0.00    -0.112 A  
HETATM   15  C   UNL     1     -13.564   7.557  72.041  1.00  0.00    -0.136 A  
HETATM   16  C   UNL     1      -7.641   9.427  69.192  1.00  0.00    -0.074 A  
HETATM   17 BR   UNL     1      -6.595   7.909  67.016  1.00  0.00    -0.061 Br 
HETATM   18  N   UNL     1     -12.222   7.595  72.183  1.00  0.00    -0.286 NA 
HETATM   19  C   UNL     1      -8.429   9.632  70.327  1.00  0.00    -0.221 A  
ENDBRANCH   4   5
ENDBRANCH   2   4
TORSDOF 2
ENDMDL
MODEL      104
REMARK 921   NORMALIZED FREE ENERGY PREDICTED BY IDOCK:   -3.76 KCAL/MOL
REMARK 922        TOTAL FREE ENERGY PREDICTED BY IDOCK:   -4.35 KCAL/MOL
REMARK 923 INTER-LIGAND FREE ENERGY PREDICTED BY IDOCK:   -4.09 KCAL/MOL
REMARK 924 INTRA-LIGAND FREE ENERGY PREDICTED BY IDOCK:   -0.26 KCAL/MOL
REMARK 927      BINDING AFFINITY PREDICTED BY RF-SCORE:    0.00 PKD
ROOT
HETATM    1  C   UNL     1      -7.984   3.571  66.331  1.00  0.00    -0.088 C  
HETATM    2  N   UNL     1      -8.760   4.666  66.915  1.00  0.00    -0.108 NA 
HETATM    3  C   UNL     1     -10.171   4.527  66.539  1.00  0.00    -0.191 C  
ENDROOT
BRANCH   2   4
HETATM    4  C   UNL     1      -8.645   4.704  68.385  1.00  0.00    -0.097 C  
BRANCH   4   5
HETATM    5  C   UNL     1      -9.823   5.380  69.100  1.00  0.00    -0.242 C  
HETATM    6  C   UNL     1      -9.541   6.827  69.574  1.00  0.00    -0.148 C  
HETATM    7  C   UNL     1      -9.295   7.772  68.400  1.00  0.00    -0.143 A  
HETATM    8  C   UNL     1     -10.648   7.320  70.508  1.00  0.00    -0.222 A  
HETATM    9  C   UNL     1     -10.293   8.017  67.444  1.00  0.00    -0.354 A  
HETATM   10  C   UNL     1     -10.365   8.288  71.469  1.00  0.00    -0.276 A  
HETATM   11  C   UNL     1     -11.371   8.680  72.351  1.00  0.00    -0.353 A  
HETATM   12  C   UNL     1     -10.032   8.821  66.332  1.00  0.00    -0.346 A  
HETATM   13  C   UNL     1     -12.630   8.104  72.246  1.00  0.00    -0.314 A  
HETATM   14  C   UNL     1      -8.774   9.397  66.175  1.00  0.00    -0.147 A  
HETATM   15  C   UNL     1     -12.839   7.169  71.250  1.00  0.00    -0.349 A  
HETATM   16  C   UNL     1      -7.778   9.184  67.125  1.00  0.00    -0.098 A  
HETATM   17 BR   UNL     1      -8.411  10.457  64.653  1.00  0.00    -0.125 Br 
HETATM   18  N   UNL     1     -11.885   6.773  70.381  1.00  0.00    -0.372 NA 
HETATM   19  C   UNL     1      -8.037   8.373  68.232  1.00  0.00    -0.120 A  
ENDBRANCH   4   5
ENDBRANCH   2   4
TORSDOF 2
ENDMDL
MODEL      105
REMARK 921   NORMALIZED FREE ENERGY PREDICTED BY IDOCK:   -3.74 KCAL/MOL
REMARK 922        TOTAL FREE ENERGY PREDICTED BY IDOCK:   -4.34 KCAL/MOL
REMARK 923 INTER-LIGAND FREE ENERGY PREDICTED BY IDOCK:   -4.17 KCAL/MOL
REMARK 924 INTRA-LIGAND FREE ENERGY PREDICTED BY IDOCK:   -0.17 KCAL/MOL
REMARK 927      BINDING AFFINITY PREDICTED BY RF-SCORE:    0.00 PKD
ROOT
HETATM    1  C   UNL     1     -10.416  15.774  67.544  1.00  0.00    -0.288 C  
HETATM    2  N   UNL     1      -9.806  15.199  68.743  1.00  0.00    -0.215 NA 
HETATM    3  C   UNL     1     -10.853  14.817  69.697  1.00  0.00    -0.226 C  
ENDROOT
BRANCH   2   4
HETATM    4  C   UNL     1      -8.972  14.023  68.432  1.00  0.00    -0.189 C  
BRANCH   4   5
HETATM    5  C   UNL     1      -9.456  13.196  67.234  1.00  0.00    -0.225 C  
HETATM    6  C   UNL     1      -8.719  11.847  67.047  1.00  0.00    -0.181 C  
HETATM    7  C   UNL     1      -8.968  10.895  68.214  1.00  0.00    -0.150 A  
HETATM    8  C   UNL     1      -9.061  11.223  65.692  1.00  0.00    -0.189 A  
HETATM    9  C   UNL     1     -10.258  10.430  68.509  1.00  0.00    -0.191 A  
HETATM   10  C   UNL     1      -8.149  10.372  65.070  1.00  0.00    -0.136 A  
HETATM   11  C   UNL     1      -8.453   9.862  63.808  1.00  0.00    -0.182 A  
HETATM   12  C   UNL     1     -10.487   9.623  69.626  1.00  0.00    -0.246 A  
HETATM   13  C   UNL     1      -9.656  10.206  63.206  1.00  0.00    -0.231 A  
HETATM   14  C   UNL     1      -9.422   9.264  70.449  1.00  0.00    -0.246 A  
HETATM   15  C   UNL     1     -10.519  11.035  63.899  1.00  0.00    -0.354 A  
HETATM   16  C   UNL     1      -8.131   9.698  70.160  1.00  0.00    -0.205 A  
HETATM   17 BR   UNL     1      -9.737   8.200  71.980  1.00  0.00    -0.323 Br 
HETATM   18  N   UNL     1     -10.253  11.541  65.122  1.00  0.00    -0.260 NA 
HETATM   19  C   UNL     1      -7.905  10.511  69.048  1.00  0.00    -0.129 A  
ENDBRANCH   4   5
ENDBRANCH   2   4
TORSDOF 2
ENDMDL
MODEL      106
REMARK 921   NORMALIZED FREE ENERGY PREDICTED BY IDOCK:   -3.73 KCAL/MOL
REMARK 922        TOTAL FREE ENERGY PREDICTED BY IDOCK:   -4.32 KCAL/MOL
REMARK 923 INTER-LIGAND FREE ENERGY PREDICTED BY IDOCK:   -4.15 KCAL/MOL
REMARK 924 INTRA-LIGAND FREE ENERGY PREDICTED BY IDOCK:   -0.18 KCAL/MOL
REMARK 927      BINDING AFFINITY PREDICTED BY RF-SCORE:    0.00 PKD
ROOT
HETATM    1  C   UNL     1      -6.453  10.568  69.905  1.00  0.00    -0.116 C  
HETATM    2  N   UNL     1      -6.861  10.578  68.499  1.00  0.00    -0.063 NA 
HETATM    3  C   UNL     1      -7.116   9.206  68.048  1.00  0.00    -0.078 C  
ENDROOT
BRANCH   2   4
HETATM    4  C   UNL     1      -8.065  11.400  68.277  1.00  0.00    -0.143 C  
BRANCH   4   5
HETATM    5  C   UNL     1      -9.355  10.815  68.868  1.00  0.00    -0.183 C  
HETATM    6  C   UNL     1     -10.429  11.871  69.231  1.00  0.00     0.050 C  
HETATM    7  C   UNL     1     -10.946  12.605  67.997  1.00  0.00    -0.266 A  
HETATM    8  C   UNL     1     -11.552  11.242  70.058  1.00  0.00    -0.321 A  
HETATM    9  C   UNL     1     -11.614  11.919  66.971  1.00  0.00    -0.365 A  
HETATM   10  C   UNL     1     -12.282  12.027  70.948  1.00  0.00    -0.325 A  
HETATM   11  C   UNL     1     -13.260  11.424  71.738  1.00  0.00    -0.472 A  
HETATM   12  C   UNL     1     -12.014  12.587  65.810  1.00  0.00    -0.482 A  
HETATM   13  C   UNL     1     -13.489  10.060  71.614  1.00  0.00    -0.398 A  
HETATM   14  C   UNL     1     -11.759  13.949  65.674  1.00  0.00    -0.354 A  
HETATM   15  C   UNL     1     -12.741   9.354  70.691  1.00  0.00     0.098 A  
HETATM   16  C   UNL     1     -11.117  14.652  66.691  1.00  0.00    -0.334 A  
HETATM   17 BR   UNL     1     -12.269  14.844  64.089  1.00  0.00    -0.066 Br 
HETATM   18  N   UNL     1     -11.790   9.912  69.911  1.00  0.00    -0.084 NA 
HETATM   19  C   UNL     1     -10.711  13.981  67.847  1.00  0.00    -0.246 A  
ENDBRANCH   4   5
ENDBRANCH   2   4
TORSDOF 2
ENDMDL
MODEL      107
REMARK 921   NORMALIZED FREE ENERGY PREDICTED BY IDOCK:   -3.73 KCAL/MOL
REMARK 922        TOTAL FREE ENERGY PREDICTED BY IDOCK:   -4.32 KCAL/MOL
REMARK 923 INTER-LIGAND FREE ENERGY PREDICTED BY IDOCK:   -4.14 KCAL/MOL
REMARK 924 INTRA-LIGAND FREE ENERGY PREDICTED BY IDOCK:   -0.18 KCAL/MOL
REMARK 927      BINDING AFFINITY PREDICTED BY RF-SCORE:    0.00 PKD
ROOT
HETATM    1  C   UNL     1      -5.894  11.004  69.854  1.00  0.00    -0.086 C  
HETATM    2  N   UNL     1      -6.214  11.303  68.458  1.00  0.00    -0.046 NA 
HETATM    3  C   UNL     1      -7.161  10.308  67.943  1.00  0.00    -0.085 C  
ENDROOT
BRANCH   2   4
HETATM    4  C   UNL     1      -6.784  12.653  68.296  1.00  0.00    -0.081 C  
BRANCH   4   5
HETATM    5  C   UNL     1      -7.899  12.754  67.246  1.00  0.00    -0.148 C  
HETATM    6  C   UNL     1      -8.964  13.838  67.546  1.00  0.00    -0.201 C  
HETATM    7  C   UNL     1      -8.369  15.244  67.517  1.00  0.00    -0.191 A  
HETATM    8  C   UNL     1     -10.170  13.688  66.616  1.00  0.00    -0.276 A  
HETATM    9  C   UNL     1      -7.806  15.770  66.344  1.00  0.00     0.058 A  
HETATM   10  C   UNL     1     -11.426  14.125  67.031  1.00  0.00    -0.370 A  
HETATM   11  C   UNL     1     -12.523  13.924  66.195  1.00  0.00    -0.478 A  
HETATM   12  C   UNL     1      -7.195  17.026  66.349  1.00  0.00    -0.311 A  
HETATM   13  C   UNL     1     -12.338  13.302  64.967  1.00  0.00    -0.499 A  
HETATM   14  C   UNL     1      -7.153  17.770  67.526  1.00  0.00    -0.185 A  
HETATM   15  C   UNL     1     -11.057  12.919  64.616  1.00  0.00    -0.324 A  
HETATM   16  C   UNL     1      -7.726  17.275  68.694  1.00  0.00    -0.265 A  
HETATM   17 BR   UNL     1      -6.295  19.455  67.541  1.00  0.00    -0.218 Br 
HETATM   18  N   UNL     1      -9.976  13.104  65.404  1.00  0.00    -0.234 NA 
HETATM   19  C   UNL     1      -8.330  16.015  68.690  1.00  0.00    -0.203 A  
ENDBRANCH   4   5
ENDBRANCH   2   4
TORSDOF 2
ENDMDL
MODEL      108
REMARK 921   NORMALIZED FREE ENERGY PREDICTED BY IDOCK:   -3.73 KCAL/MOL
REMARK 922        TOTAL FREE ENERGY PREDICTED BY IDOCK:   -4.32 KCAL/MOL
REMARK 923 INTER-LIGAND FREE ENERGY PREDICTED BY IDOCK:   -4.06 KCAL/MOL
REMARK 924 INTRA-LIGAND FREE ENERGY PREDICTED BY IDOCK:   -0.26 KCAL/MOL
REMARK 927      BINDING AFFINITY PREDICTED BY RF-SCORE:    0.00 PKD
ROOT
HETATM    1  C   UNL     1      -5.624  14.046  68.758  1.00  0.00    -0.082 C  
HETATM    2  N   UNL     1      -6.283  13.400  67.622  1.00  0.00    -0.220 NA 
HETATM    3  C   UNL     1      -5.876  11.993  67.548  1.00  0.00    -0.109 C  
ENDROOT
BRANCH   2   4
HETATM    4  C   UNL     1      -7.752  13.481  67.715  1.00  0.00    -0.163 C  
BRANCH   4   5
HETATM    5  C   UNL     1      -8.402  12.373  68.555  1.00  0.00    -0.081 C  
HETATM    6  C   UNL     1      -9.796  11.922  68.051  1.00  0.00    -0.190 C  
HETATM    7  C   UNL     1      -9.721  11.275  66.671  1.00  0.00    -0.222 A  
HETATM    8  C   UNL     1     -10.485  11.030  69.086  1.00  0.00    -0.210 A  
HETATM    9  C   UNL     1      -8.991  10.094  66.461  1.00  0.00    -0.161 A  
HETATM   10  C   UNL     1     -11.876  10.976  69.139  1.00  0.00    -0.407 A  
HETATM   11  C   UNL     1     -12.486  10.206  70.128  1.00  0.00    -0.103 A  
HETATM   12  C   UNL     1      -8.863   9.554  65.180  1.00  0.00    -0.223 A  
HETATM   13  C   UNL     1     -11.695   9.504  71.029  1.00  0.00    -0.419 A  
HETATM   14  C   UNL     1      -9.477  10.183  64.100  1.00  0.00    -0.293 A  
HETATM   15  C   UNL     1     -10.322   9.589  70.895  1.00  0.00    -0.302 A  
HETATM   16  C   UNL     1     -10.225  11.343  64.291  1.00  0.00    -0.367 A  
HETATM   17 BR   UNL     1      -9.276   9.470  62.361  1.00  0.00    -0.053 Br 
HETATM   18  N   UNL     1      -9.705  10.324  69.946  1.00  0.00    -0.151 NA 
HETATM   19  C   UNL     1     -10.345  11.887  65.572  1.00  0.00    -0.303 A  
ENDBRANCH   4   5
ENDBRANCH   2   4
TORSDOF 2
ENDMDL
MODEL      109
REMARK 921   NORMALIZED FREE ENERGY PREDICTED BY IDOCK:   -3.71 KCAL/MOL
REMARK 922        TOTAL FREE ENERGY PREDICTED BY IDOCK:   -4.30 KCAL/MOL
REMARK 923 INTER-LIGAND FREE ENERGY PREDICTED BY IDOCK:   -4.14 KCAL/MOL
REMARK 924 INTRA-LIGAND FREE ENERGY PREDICTED BY IDOCK:   -0.16 KCAL/MOL
REMARK 927      BINDING AFFINITY PREDICTED BY RF-SCORE:    0.00 PKD
ROOT
HETATM    1  C   UNL     1     -12.092   9.948  71.376  1.00  0.00    -0.413 C  
HETATM    2  N   UNL     1     -12.548   9.009  72.403  1.00  0.00    -0.363 NA 
HETATM    3  C   UNL     1     -14.013   8.955  72.407  1.00  0.00    -0.448 C  
ENDROOT
BRANCH   2   4
HETATM    4  C   UNL     1     -12.007   7.654  72.194  1.00  0.00    -0.302 C  
BRANCH   4   5
HETATM    5  C   UNL     1     -11.612   7.339  70.744  1.00  0.00    -0.334 C  
HETATM    6  C   UNL     1     -10.105   7.044  70.540  1.00  0.00    -0.202 C  
HETATM    7  C   UNL     1      -9.670   5.777  71.272  1.00  0.00    -0.210 A  
HETATM    8  C   UNL     1      -9.753   7.017  69.051  1.00  0.00    -0.145 A  
HETATM    9  C   UNL     1     -10.212   4.525  70.943  1.00  0.00    -0.170 A  
HETATM   10  C   UNL     1      -8.462   7.336  68.638  1.00  0.00    -0.129 A  
HETATM   11  C   UNL     1      -8.176   7.366  67.273  1.00  0.00    -0.115 A  
HETATM   12  C   UNL     1      -9.865   3.385  71.671  1.00  0.00    -0.222 A  
HETATM   13  C   UNL     1      -9.180   7.070  66.361  1.00  0.00    -0.186 A  
HETATM   14  C   UNL     1      -8.962   3.487  72.726  1.00  0.00    -0.096 A  
HETATM   15  C   UNL     1     -10.430   6.738  66.850  1.00  0.00    -0.280 A  
HETATM   16  C   UNL     1      -8.396   4.716  73.054  1.00  0.00    -0.100 A  
HETATM   17 BR   UNL     1      -8.518   1.950  73.733  1.00  0.00    -0.058 Br 
HETATM   18  N   UNL     1     -10.734   6.698  68.166  1.00  0.00    -0.239 NA 
HETATM   19  C   UNL     1      -8.750   5.857  72.330  1.00  0.00    -0.128 A  
ENDBRANCH   4   5
ENDBRANCH   2   4
TORSDOF 2
ENDMDL
MODEL      110
REMARK 921   NORMALIZED FREE ENERGY PREDICTED BY IDOCK:   -3.70 KCAL/MOL
REMARK 922        TOTAL FREE ENERGY PREDICTED BY IDOCK:   -4.29 KCAL/MOL
REMARK 923 INTER-LIGAND FREE ENERGY PREDICTED BY IDOCK:   -4.02 KCAL/MOL
REMARK 924 INTRA-LIGAND FREE ENERGY PREDICTED BY IDOCK:   -0.28 KCAL/MOL
REMARK 927      BINDING AFFINITY PREDICTED BY RF-SCORE:    0.00 PKD
ROOT
HETATM    1  C   UNL     1      -7.971   9.592  63.970  1.00  0.00    -0.140 C  
HETATM    2  N   UNL     1      -8.306   8.689  65.072  1.00  0.00    -0.164 NA 
HETATM    3  C   UNL     1      -7.208   8.665  66.044  1.00  0.00    -0.084 C  
ENDROOT
BRANCH   2   4
HETATM    4  C   UNL     1      -9.553   9.085  65.752  1.00  0.00    -0.217 C  
BRANCH   4   5
HETATM    5  C   UNL     1      -9.649  10.577  66.096  1.00  0.00    -0.237 C  
HETATM    6  C   UNL     1     -10.310  10.879  67.464  1.00  0.00    -0.237 C  
HETATM    7  C   UNL     1      -9.485  10.335  68.627  1.00  0.00    -0.169 A  
HETATM    8  C   UNL     1     -10.615  12.371  67.604  1.00  0.00    -0.216 A  
HETATM    9  C   UNL     1      -8.185  10.800  68.876  1.00  0.00    -0.149 A  
HETATM   10  C   UNL     1     -11.663  12.792  68.420  1.00  0.00    -0.380 A  
HETATM   11  C   UNL     1     -11.966  14.152  68.486  1.00  0.00    -0.367 A  
HETATM   12  C   UNL     1      -7.410  10.240  69.894  1.00  0.00    -0.166 A  
HETATM   13  C   UNL     1     -11.212  15.053  67.746  1.00  0.00    -0.327 A  
HETATM   14  C   UNL     1      -7.936   9.217  70.680  1.00  0.00    -0.162 A  
HETATM   15  C   UNL     1     -10.172  14.561  66.979  1.00  0.00    -0.262 A  
HETATM   16  C   UNL     1      -9.232   8.757  70.464  1.00  0.00    -0.218 A  
HETATM   17 BR   UNL     1      -6.875   8.436  72.036  1.00  0.00    -0.099 Br 
HETATM   18  N   UNL     1      -9.856  13.250  66.898  1.00  0.00    -0.241 NA 
HETATM   19  C   UNL     1     -10.003   9.313  69.440  1.00  0.00    -0.184 A  
ENDBRANCH   4   5
ENDBRANCH   2   4
TORSDOF 2
ENDMDL
MODEL      111
REMARK 921   NORMALIZED FREE ENERGY PREDICTED BY IDOCK:   -3.68 KCAL/MOL
REMARK 922        TOTAL FREE ENERGY PREDICTED BY IDOCK:   -4.27 KCAL/MOL
REMARK 923 INTER-LIGAND FREE ENERGY PREDICTED BY IDOCK:   -4.05 KCAL/MOL
REMARK 924 INTRA-LIGAND FREE ENERGY PREDICTED BY IDOCK:   -0.22 KCAL/MOL
REMARK 927      BINDING AFFINITY PREDICTED BY RF-SCORE:    0.00 PKD
ROOT
HETATM    1  C   UNL     1      -8.901   9.166  62.389  1.00  0.00    -0.204 C  
HETATM    2  N   UNL     1      -8.787  10.393  63.178  1.00  0.00    -0.195 NA 
HETATM    3  C   UNL     1     -10.082  11.082  63.210  1.00  0.00    -0.348 C  
ENDROOT
BRANCH   2   4
HETATM    4  C   UNL     1      -8.339  10.126  64.557  1.00  0.00    -0.167 C  
BRANCH   4   5
HETATM    5  C   UNL     1      -9.117   9.017  65.278  1.00  0.00    -0.226 C  
HETATM    6  C   UNL     1      -9.058   9.094  66.824  1.00  0.00    -0.176 C  
HETATM    7  C   UNL     1      -9.732  10.356  67.357  1.00  0.00    -0.191 A  
HETATM    8  C   UNL     1      -9.615   7.816  67.454  1.00  0.00    -0.151 A  
HETATM    9  C   UNL     1     -11.101  10.591  67.152  1.00  0.00    -0.232 A  
HETATM   10  C   UNL     1      -9.168   7.410  68.710  1.00  0.00    -0.144 A  
HETATM   11  C   UNL     1      -9.641   6.211  69.241  1.00  0.00    -0.153 A  
HETATM   12  C   UNL     1     -11.690  11.784  67.575  1.00  0.00    -0.312 A  
HETATM   13  C   UNL     1     -10.550   5.455  68.512  1.00  0.00    -0.153 A  
HETATM   14  C   UNL     1     -10.917  12.747  68.218  1.00  0.00    -0.252 A  
HETATM   15  C   UNL     1     -10.964   5.938  67.285  1.00  0.00    -0.178 A  
HETATM   16  C   UNL     1      -9.562  12.524  68.451  1.00  0.00    -0.176 A  
HETATM   17 BR   UNL     1     -11.707  14.377  68.760  1.00  0.00    -0.379 Br 
HETATM   18  N   UNL     1     -10.525   7.096  66.747  1.00  0.00    -0.261 NA 
HETATM   19  C   UNL     1      -8.972  11.333  68.020  1.00  0.00    -0.156 A  
ENDBRANCH   4   5
ENDBRANCH   2   4
TORSDOF 2
ENDMDL
MODEL      112
REMARK 921   NORMALIZED FREE ENERGY PREDICTED BY IDOCK:   -3.68 KCAL/MOL
REMARK 922        TOTAL FREE ENERGY PREDICTED BY IDOCK:   -4.27 KCAL/MOL
REMARK 923 INTER-LIGAND FREE ENERGY PREDICTED BY IDOCK:   -4.10 KCAL/MOL
REMARK 924 INTRA-LIGAND FREE ENERGY PREDICTED BY IDOCK:   -0.17 KCAL/MOL
REMARK 927      BINDING AFFINITY PREDICTED BY RF-SCORE:    0.00 PKD
ROOT
HETATM    1  C   UNL     1     -11.795  14.068  64.991  1.00  0.00    -0.378 C  
HETATM    2  N   UNL     1     -11.810  12.608  65.092  1.00  0.00    -0.374 NA 
HETATM    3  C   UNL     1     -11.983  12.021  63.759  1.00  0.00    -0.490 C  
ENDROOT
BRANCH   2   4
HETATM    4  C   UNL     1     -10.574  12.082  65.702  1.00  0.00    -0.265 C  
BRANCH   4   5
HETATM    5  C   UNL     1     -10.653  10.614  66.141  1.00  0.00    -0.211 C  
HETATM    6  C   UNL     1      -9.288   9.882  66.179  1.00  0.00    -0.232 C  
HETATM    7  C   UNL     1      -8.351  10.479  67.225  1.00  0.00    -0.122 A  
HETATM    8  C   UNL     1      -9.484   8.375  66.352  1.00  0.00    -0.227 A  
HETATM    9  C   UNL     1      -8.678  10.458  68.590  1.00  0.00    -0.138 A  
HETATM   10  C   UNL     1      -8.526   7.490  65.862  1.00  0.00    -0.153 A  
HETATM   11  C   UNL     1      -8.751   6.118  65.974  1.00  0.00    -0.157 A  
HETATM   12  C   UNL     1      -7.851  11.076  69.531  1.00  0.00     0.083 A  
HETATM   13  C   UNL     1      -9.918   5.667  66.578  1.00  0.00    -0.210 A  
HETATM   14  C   UNL     1      -6.684  11.710  69.114  1.00  0.00    -0.109 A  
HETATM   15  C   UNL     1     -10.808   6.608  67.062  1.00  0.00    -0.397 A  
HETATM   16  C   UNL     1      -6.330  11.722  67.767  1.00  0.00    -0.067 A  
HETATM   17 BR   UNL     1      -5.582  12.576  70.383  1.00  0.00    -0.168 Br 
HETATM   18  N   UNL     1     -10.614   7.941  66.970  1.00  0.00    -0.345 NA 
HETATM   19  C   UNL     1      -7.162  11.110  66.826  1.00  0.00    -0.146 A  
ENDBRANCH   4   5
ENDBRANCH   2   4
TORSDOF 2
ENDMDL
MODEL      113
REMARK 921   NORMALIZED FREE ENERGY PREDICTED BY IDOCK:   -3.68 KCAL/MOL
REMARK 922        TOTAL FREE ENERGY PREDICTED BY IDOCK:   -4.27 KCAL/MOL
REMARK 923 INTER-LIGAND FREE ENERGY PREDICTED BY IDOCK:   -4.08 KCAL/MOL
REMARK 924 INTRA-LIGAND FREE ENERGY PREDICTED BY IDOCK:   -0.19 KCAL/MOL
REMARK 927      BINDING AFFINITY PREDICTED BY RF-SCORE:    0.00 PKD
ROOT
HETATM    1  C   UNL     1     -11.507  13.688  66.690  1.00  0.00    -0.343 C  
HETATM    2  N   UNL     1     -11.586  12.353  66.096  1.00  0.00    -0.380 NA 
HETATM    3  C   UNL     1     -10.754  12.298  64.889  1.00  0.00    -0.297 C  
ENDROOT
BRANCH   2   4
HETATM    4  C   UNL     1     -11.155  11.302  67.037  1.00  0.00    -0.293 C  
BRANCH   4   5
HETATM    5  C   UNL     1     -10.231  10.238  66.427  1.00  0.00    -0.290 C  
HETATM    6  C   UNL     1      -9.033   9.840  67.325  1.00  0.00    -0.146 C  
HETATM    7  C   UNL     1      -9.488   9.167  68.616  1.00  0.00    -0.145 A  
HETATM    8  C   UNL     1      -8.024   8.997  66.542  1.00  0.00    -0.103 A  
HETATM    9  C   UNL     1     -10.191   7.952  68.594  1.00  0.00    -0.223 A  
HETATM   10  C   UNL     1      -6.680   9.006  66.909  1.00  0.00    -0.072 A  
HETATM   11  C   UNL     1      -5.766   8.280  66.146  1.00  0.00    -0.040 A  
HETATM   12  C   UNL     1     -10.671   7.384  69.776  1.00  0.00    -0.252 A  
HETATM   13  C   UNL     1      -6.216   7.560  65.047  1.00  0.00    -0.038 A  
HETATM   14  C   UNL     1     -10.440   8.022  70.993  1.00  0.00    -0.203 A  
HETATM   15  C   UNL     1      -7.569   7.581  64.763  1.00  0.00    -0.102 A  
HETATM   16  C   UNL     1      -9.725   9.216  71.038  1.00  0.00    -0.359 A  
HETATM   17 BR   UNL     1     -11.119   7.271  72.589  1.00  0.00    -0.376 Br 
HETATM   18  N   UNL     1      -8.476   8.273  65.485  1.00  0.00    -0.155 NA 
HETATM   19  C   UNL     1      -9.252   9.787  69.854  1.00  0.00    -0.263 A  
ENDBRANCH   4   5
ENDBRANCH   2   4
TORSDOF 2
ENDMDL
MODEL      114
REMARK 921   NORMALIZED FREE ENERGY PREDICTED BY IDOCK:   -3.68 KCAL/MOL
REMARK 922        TOTAL FREE ENERGY PREDICTED BY IDOCK:   -4.26 KCAL/MOL
REMARK 923 INTER-LIGAND FREE ENERGY PREDICTED BY IDOCK:   -4.10 KCAL/MOL
REMARK 924 INTRA-LIGAND FREE ENERGY PREDICTED BY IDOCK:   -0.17 KCAL/MOL
REMARK 927      BINDING AFFINITY PREDICTED BY RF-SCORE:    0.00 PKD
ROOT
HETATM    1  C   UNL     1      -6.074   8.863  71.206  1.00  0.00    -0.057 C  
HETATM    2  N   UNL     1      -7.131   9.495  70.414  1.00  0.00    -0.105 NA 
HETATM    3  C   UNL     1      -6.553  10.090  69.204  1.00  0.00    -0.053 C  
ENDROOT
BRANCH   2   4
HETATM    4  C   UNL     1      -8.186   8.538  70.034  1.00  0.00    -0.121 C  
BRANCH   4   5
HETATM    5  C   UNL     1      -9.535   8.765  70.730  1.00  0.00    -0.253 C  
HETATM    6  C   UNL     1     -10.392   7.485  70.898  1.00  0.00    -0.203 C  
HETATM    7  C   UNL     1      -9.723   6.470  71.820  1.00  0.00    -0.168 A  
HETATM    8  C   UNL     1     -11.814   7.837  71.339  1.00  0.00    -0.297 A  
HETATM    9  C   UNL     1      -9.465   6.770  73.167  1.00  0.00    -0.166 A  
HETATM   10  C   UNL     1     -12.871   6.989  71.015  1.00  0.00    -0.258 A  
HETATM   11  C   UNL     1     -14.168   7.357  71.373  1.00  0.00    -0.508 A  
HETATM   12  C   UNL     1      -8.782   5.864  73.981  1.00  0.00    -0.119 A  
HETATM   13  C   UNL     1     -14.374   8.553  72.048  1.00  0.00    -0.537 A  
HETATM   14  C   UNL     1      -8.364   4.644  73.458  1.00  0.00    -0.102 A  
HETATM   15  C   UNL     1     -13.271   9.328  72.355  1.00  0.00    -0.426 A  
HETATM   16  C   UNL     1      -8.630   4.317  72.130  1.00  0.00    -0.115 A  
HETATM   17 BR   UNL     1      -7.410   3.432  74.550  1.00  0.00    -0.053 Br 
HETATM   18  N   UNL     1     -12.005   8.995  72.024  1.00  0.00    -0.368 NA 
HETATM   19  C   UNL     1      -9.306   5.227  71.315  1.00  0.00    -0.187 A  
ENDBRANCH   4   5
ENDBRANCH   2   4
TORSDOF 2
ENDMDL
MODEL      115
REMARK 921   NORMALIZED FREE ENERGY PREDICTED BY IDOCK:   -3.67 KCAL/MOL
REMARK 922        TOTAL FREE ENERGY PREDICTED BY IDOCK:   -4.26 KCAL/MOL
REMARK 923 INTER-LIGAND FREE ENERGY PREDICTED BY IDOCK:   -4.15 KCAL/MOL
REMARK 924 INTRA-LIGAND FREE ENERGY PREDICTED BY IDOCK:   -0.11 KCAL/MOL
REMARK 927      BINDING AFFINITY PREDICTED BY RF-SCORE:    0.00 PKD
ROOT
HETATM    1  C   UNL     1     -11.817  13.125  63.333  1.00  0.00    -0.427 C  
HETATM    2  N   UNL     1     -11.268  12.849  64.661  1.00  0.00    -0.306 NA 
HETATM    3  C   UNL     1     -12.358  12.747  65.636  1.00  0.00    -0.382 C  
ENDROOT
BRANCH   2   4
HETATM    4  C   UNL     1     -10.471  11.609  64.684  1.00  0.00    -0.302 C  
BRANCH   4   5
HETATM    5  C   UNL     1     -10.531  10.835  66.008  1.00  0.00    -0.273 C  
HETATM    6  C   UNL     1      -9.302  11.044  66.928  1.00  0.00    -0.189 C  
HETATM    7  C   UNL     1      -9.188  12.489  67.407  1.00  0.00    -0.186 A  
HETATM    8  C   UNL     1      -9.309  10.039  68.081  1.00  0.00    -0.131 A  
HETATM    9  C   UNL     1     -10.189  13.073  68.199  1.00  0.00    -0.239 A  
HETATM   10  C   UNL     1      -8.107   9.649  68.670  1.00  0.00    -0.100 A  
HETATM   11  C   UNL     1      -8.128   8.686  69.678  1.00  0.00    -0.112 A  
HETATM   12  C   UNL     1     -10.113  14.419  68.565  1.00  0.00    -0.244 A  
HETATM   13  C   UNL     1      -9.344   8.145  70.077  1.00  0.00    -0.159 A  
HETATM   14  C   UNL     1      -9.027  15.187  68.153  1.00  0.00    -0.174 A  
HETATM   15  C   UNL     1     -10.494   8.601  69.462  1.00  0.00    -0.220 A  
HETATM   16  C   UNL     1      -8.013  14.620  67.385  1.00  0.00    -0.223 A  
HETATM   17 BR   UNL     1      -8.941  17.017  68.620  1.00  0.00    -0.252 Br 
HETATM   18  N   UNL     1     -10.504   9.534  68.486  1.00  0.00    -0.211 NA 
HETATM   19  C   UNL     1      -8.094  13.277  67.013  1.00  0.00    -0.020 A  
ENDBRANCH   4   5
ENDBRANCH   2   4
TORSDOF 2
ENDMDL
MODEL      116
REMARK 921   NORMALIZED FREE ENERGY PREDICTED BY IDOCK:   -3.61 KCAL/MOL
REMARK 922        TOTAL FREE ENERGY PREDICTED BY IDOCK:   -4.19 KCAL/MOL
REMARK 923 INTER-LIGAND FREE ENERGY PREDICTED BY IDOCK:   -3.94 KCAL/MOL
REMARK 924 INTRA-LIGAND FREE ENERGY PREDICTED BY IDOCK:   -0.26 KCAL/MOL
REMARK 927      BINDING AFFINITY PREDICTED BY RF-SCORE:    0.00 PKD
ROOT
HETATM    1  C   UNL     1      -8.975   5.663  65.625  1.00  0.00    -0.131 C  
HETATM    2  N   UNL     1      -8.634   7.057  65.912  1.00  0.00    -0.147 NA 
HETATM    3  C   UNL     1      -8.168   7.715  64.687  1.00  0.00    -0.063 C  
ENDROOT
BRANCH   2   4
HETATM    4  C   UNL     1      -9.779   7.804  66.465  1.00  0.00    -0.195 C  
BRANCH   4   5
HETATM    5  C   UNL     1     -10.106   9.110  65.728  1.00  0.00    -0.005 C  
HETATM    6  C   UNL     1     -10.343  10.328  66.656  1.00  0.00    -0.283 C  
HETATM    7  C   UNL     1      -9.084  10.705  67.432  1.00  0.00    -0.146 A  
HETATM    8  C   UNL     1     -10.928  11.504  65.871  1.00  0.00    -0.243 A  
HETATM    9  C   UNL     1      -7.920  11.125  66.769  1.00  0.00    -0.156 A  
HETATM   10  C   UNL     1     -11.725  12.443  66.521  1.00  0.00    -0.443 A  
HETATM   11  C   UNL     1     -12.300  13.474  65.778  1.00  0.00    -0.516 A  
HETATM   12  C   UNL     1      -6.750  11.393  67.483  1.00  0.00    -0.078 A  
HETATM   13  C   UNL     1     -12.059  13.544  64.412  1.00  0.00    -0.468 A  
HETATM   14  C   UNL     1      -6.740  11.254  68.869  1.00  0.00    -0.081 A  
HETATM   15  C   UNL     1     -11.237  12.588  63.845  1.00  0.00    -0.436 A  
HETATM   16  C   UNL     1      -7.890  10.861  69.547  1.00  0.00     0.016 A  
HETATM   17 BR   UNL     1      -5.147  11.583  69.832  1.00  0.00    -0.066 Br 
HETATM   18  N   UNL     1     -10.665  11.582  64.540  1.00  0.00    -0.315 NA 
HETATM   19  C   UNL     1      -9.057  10.586  68.831  1.00  0.00    -0.180 A  
ENDBRANCH   4   5
ENDBRANCH   2   4
TORSDOF 2
ENDMDL
MODEL      117
REMARK 921   NORMALIZED FREE ENERGY PREDICTED BY IDOCK:   -3.61 KCAL/MOL
REMARK 922        TOTAL FREE ENERGY PREDICTED BY IDOCK:   -4.19 KCAL/MOL
REMARK 923 INTER-LIGAND FREE ENERGY PREDICTED BY IDOCK:   -4.01 KCAL/MOL
REMARK 924 INTRA-LIGAND FREE ENERGY PREDICTED BY IDOCK:   -0.17 KCAL/MOL
REMARK 927      BINDING AFFINITY PREDICTED BY RF-SCORE:    0.00 PKD
ROOT
HETATM    1  C   UNL     1     -12.147  11.786  70.571  1.00  0.00    -0.347 C  
HETATM    2  N   UNL     1     -12.182  11.323  69.183  1.00  0.00    -0.415 NA 
HETATM    3  C   UNL     1     -11.940  12.451  68.279  1.00  0.00    -0.214 C  
ENDROOT
BRANCH   2   4
HETATM    4  C   UNL     1     -11.187  10.266  68.926  1.00  0.00    -0.207 C  
BRANCH   4   5
HETATM    5  C   UNL     1     -10.701  10.185  67.473  1.00  0.00    -0.347 C  
HETATM    6  C   UNL     1      -9.298   9.551  67.300  1.00  0.00    -0.161 C  
HETATM    7  C   UNL     1      -9.280   8.085  67.726  1.00  0.00    -0.142 A  
HETATM    8  C   UNL     1      -8.778   9.760  65.877  1.00  0.00    -0.139 A  
HETATM    9  C   UNL     1     -10.065   7.127  67.065  1.00  0.00    -0.308 A  
HETATM   10  C   UNL     1      -7.406   9.806  65.639  1.00  0.00    -0.106 A  
HETATM   11  C   UNL     1      -6.952  10.059  64.345  1.00  0.00    -0.129 A  
HETATM   12  C   UNL     1     -10.101   5.804  67.511  1.00  0.00    -0.204 A  
HETATM   13  C   UNL     1      -7.875  10.249  63.325  1.00  0.00    -0.139 A  
HETATM   14  C   UNL     1      -9.341   5.427  68.616  1.00  0.00    -0.118 A  
HETATM   15  C   UNL     1      -9.219  10.163  63.636  1.00  0.00    -0.282 A  
HETATM   16  C   UNL     1      -8.539   6.357  69.271  1.00  0.00    -0.125 A  
HETATM   17 BR   UNL     1      -9.416   3.644  69.241  1.00  0.00    -0.199 Br 
HETATM   18  N   UNL     1      -9.687   9.917  64.879  1.00  0.00    -0.301 NA 
HETATM   19  C   UNL     1      -8.510   7.682  68.828  1.00  0.00    -0.129 A  
ENDBRANCH   4   5
ENDBRANCH   2   4
TORSDOF 2
ENDMDL
MODEL      118
REMARK 921   NORMALIZED FREE ENERGY PREDICTED BY IDOCK:   -3.59 KCAL/MOL
REMARK 922        TOTAL FREE ENERGY PREDICTED BY IDOCK:   -4.16 KCAL/MOL
REMARK 923 INTER-LIGAND FREE ENERGY PREDICTED BY IDOCK:   -3.99 KCAL/MOL
REMARK 924 INTRA-LIGAND FREE ENERGY PREDICTED BY IDOCK:   -0.17 KCAL/MOL
REMARK 927      BINDING AFFINITY PREDICTED BY RF-SCORE:    0.00 PKD
ROOT
HETATM    1  C   UNL     1      -9.012   8.348  72.266  1.00  0.00    -0.233 C  
HETATM    2  N   UNL     1      -9.836   8.657  71.096  1.00  0.00    -0.202 NA 
HETATM    3  C   UNL     1     -11.021   9.413  71.512  1.00  0.00    -0.359 C  
ENDROOT
BRANCH   2   4
HETATM    4  C   UNL     1      -9.092   9.427  70.083  1.00  0.00    -0.231 C  
BRANCH   4   5
HETATM    5  C   UNL     1      -9.849  10.637  69.517  1.00  0.00    -0.115 C  
HETATM    6  C   UNL     1      -9.046  11.472  68.489  1.00  0.00    -0.157 C  
HETATM    7  C   UNL     1      -8.734  10.672  67.227  1.00  0.00    -0.129 A  
HETATM    8  C   UNL     1      -9.755  12.794  68.189  1.00  0.00    -0.223 A  
HETATM    9  C   UNL     1      -9.760  10.187  66.401  1.00  0.00    -0.259 A  
HETATM   10  C   UNL     1      -9.014  13.902  67.785  1.00  0.00    -0.188 A  
HETATM   11  C   UNL     1      -9.670  15.115  67.576  1.00  0.00    -0.205 A  
HETATM   12  C   UNL     1      -9.465   9.390  65.292  1.00  0.00    -0.296 A  
HETATM   13  C   UNL     1     -11.044  15.188  67.768  1.00  0.00    -0.313 A  
HETATM   14  C   UNL     1      -8.140   9.083  64.994  1.00  0.00    -0.137 A  
HETATM   15  C   UNL     1     -11.712  14.038  68.146  1.00  0.00    -0.352 A  
HETATM   16  C   UNL     1      -7.107   9.573  65.788  1.00  0.00    -0.096 A  
HETATM   17 BR   UNL     1      -7.744   7.976  63.513  1.00  0.00    -0.144 Br 
HETATM   18  N   UNL     1     -11.103  12.851  68.352  1.00  0.00    -0.247 NA 
HETATM   19  C   UNL     1      -7.403  10.364  66.901  1.00  0.00    -0.106 A  
ENDBRANCH   4   5
ENDBRANCH   2   4
TORSDOF 2
ENDMDL
MODEL      119
REMARK 921   NORMALIZED FREE ENERGY PREDICTED BY IDOCK:   -3.57 KCAL/MOL
REMARK 922        TOTAL FREE ENERGY PREDICTED BY IDOCK:   -4.15 KCAL/MOL
REMARK 923 INTER-LIGAND FREE ENERGY PREDICTED BY IDOCK:   -3.97 KCAL/MOL
REMARK 924 INTRA-LIGAND FREE ENERGY PREDICTED BY IDOCK:   -0.17 KCAL/MOL
REMARK 927      BINDING AFFINITY PREDICTED BY RF-SCORE:    0.00 PKD
ROOT
HETATM    1  C   UNL     1      -9.323   4.636  65.050  1.00  0.00    -0.138 C  
HETATM    2  N   UNL     1      -8.860   5.565  66.082  1.00  0.00    -0.135 NA 
HETATM    3  C   UNL     1      -7.932   6.536  65.493  1.00  0.00    -0.117 C  
ENDROOT
BRANCH   2   4
HETATM    4  C   UNL     1      -9.978   6.281  66.724  1.00  0.00    -0.170 C  
BRANCH   4   5
HETATM    5  C   UNL     1      -9.689   7.751  67.055  1.00  0.00    -0.259 C  
HETATM    6  C   UNL     1     -10.600   8.351  68.156  1.00  0.00    -0.175 C  
HETATM    7  C   UNL     1     -10.386   7.671  69.505  1.00  0.00    -0.217 A  
HETATM    8  C   UNL     1     -10.438   9.870  68.228  1.00  0.00    -0.210 A  
HETATM    9  C   UNL     1      -9.145   7.726  70.158  1.00  0.00    -0.153 A  
HETATM   10  C   UNL     1     -11.490  10.660  68.686  1.00  0.00    -0.332 A  
HETATM   11  C   UNL     1     -11.346  12.047  68.686  1.00  0.00    -0.329 A  
HETATM   12  C   UNL     1      -8.937   7.034  71.353  1.00  0.00    -0.139 A  
HETATM   13  C   UNL     1     -10.156  12.607  68.239  1.00  0.00    -0.233 A  
HETATM   14  C   UNL     1      -9.974   6.292  71.912  1.00  0.00    -0.172 A  
HETATM   15  C   UNL     1      -9.149  11.756  67.824  1.00  0.00    -0.178 A  
HETATM   16  C   UNL     1     -11.220   6.243  71.291  1.00  0.00    -0.355 A  
HETATM   17 BR   UNL     1      -9.683   5.329  73.512  1.00  0.00    -0.166 Br 
HETATM   18  N   UNL     1      -9.261  10.410  67.815  1.00  0.00    -0.141 NA 
HETATM   19  C   UNL     1     -11.424   6.929  70.091  1.00  0.00    -0.354 A  
ENDBRANCH   4   5
ENDBRANCH   2   4
TORSDOF 2
ENDMDL
MODEL      120
REMARK 921   NORMALIZED FREE ENERGY PREDICTED BY IDOCK:   -3.56 KCAL/MOL
REMARK 922        TOTAL FREE ENERGY PREDICTED BY IDOCK:   -4.13 KCAL/MOL
REMARK 923 INTER-LIGAND FREE ENERGY PREDICTED BY IDOCK:   -4.33 KCAL/MOL
REMARK 924 INTRA-LIGAND FREE ENERGY PREDICTED BY IDOCK:    0.20 KCAL/MOL
REMARK 927      BINDING AFFINITY PREDICTED BY RF-SCORE:    0.00 PKD
ROOT
HETATM    1  C   UNL     1     -13.043  15.107  70.455  1.00  0.00    -0.277 C  
HETATM    2  N   UNL     1     -11.862  15.963  70.339  1.00  0.00    -0.353 NA 
HETATM    3  C   UNL     1     -10.741  15.361  71.069  1.00  0.00    -0.030 C  
ENDROOT
BRANCH   2   4
HETATM    4  C   UNL     1     -11.472  16.181  68.934  1.00  0.00    -0.331 C  
BRANCH   4   5
HETATM    5  C   UNL     1      -9.992  15.905  68.631  1.00  0.00    -0.214 C  
HETATM    6  C   UNL     1      -9.658  14.415  68.370  1.00  0.00    -0.219 C  
HETATM    7  C   UNL     1     -10.345  13.890  67.112  1.00  0.00    -0.265 A  
HETATM    8  C   UNL     1      -8.145  14.192  68.353  1.00  0.00    -0.144 A  
HETATM    9  C   UNL     1     -10.060  14.430  65.849  1.00  0.00    -0.344 A  
HETATM   10  C   UNL     1      -7.623  12.948  68.703  1.00  0.00    -0.085 A  
HETATM   11  C   UNL     1      -6.239  12.782  68.741  1.00  0.00    -0.075 A  
HETATM   12  C   UNL     1     -10.751  13.996  64.715  1.00  0.00    -0.442 A  
HETATM   13  C   UNL     1      -5.415  13.854  68.424  1.00  0.00    -0.101 A  
HETATM   14  C   UNL     1     -11.725  13.008  64.836  1.00  0.00    -0.341 A  
HETATM   15  C   UNL     1      -6.009  15.049  68.063  1.00  0.00    -0.146 A  
HETATM   16  C   UNL     1     -12.007  12.444  66.077  1.00  0.00    -0.419 A  
HETATM   17 BR   UNL     1     -12.685  12.445  63.307  1.00  0.00    -0.079 Br 
HETATM   18  N   UNL     1      -7.346  15.238  68.014  1.00  0.00    -0.114 NA 
HETATM   19  C   UNL     1     -11.321  12.884  67.211  1.00  0.00    -0.356 A  
ENDBRANCH   4   5
ENDBRANCH   2   4
TORSDOF 2
ENDMDL
MODEL      121
REMARK 921   NORMALIZED FREE ENERGY PREDICTED BY IDOCK:   -3.55 KCAL/MOL
REMARK 922        TOTAL FREE ENERGY PREDICTED BY IDOCK:   -4.12 KCAL/MOL
REMARK 923 INTER-LIGAND FREE ENERGY PREDICTED BY IDOCK:   -3.92 KCAL/MOL
REMARK 924 INTRA-LIGAND FREE ENERGY PREDICTED BY IDOCK:   -0.20 KCAL/MOL
REMARK 927      BINDING AFFINITY PREDICTED BY RF-SCORE:    0.00 PKD
ROOT
HETATM    1  C   UNL     1     -10.056   6.755  74.242  1.00  0.00    -0.317 C  
HETATM    2  N   UNL     1     -10.526   7.479  73.060  1.00  0.00    -0.308 NA 
HETATM    3  C   UNL     1      -9.487   8.407  72.603  1.00  0.00    -0.265 C  
ENDROOT
BRANCH   2   4
HETATM    4  C   UNL     1     -10.887   6.567  71.960  1.00  0.00    -0.234 C  
BRANCH   4   5
HETATM    5  C   UNL     1      -9.808   5.535  71.604  1.00  0.00    -0.221 C  
HETATM    6  C   UNL     1      -9.978   4.886  70.207  1.00  0.00    -0.321 C  
HETATM    7  C   UNL     1      -9.827   5.907  69.083  1.00  0.00    -0.199 A  
HETATM    8  C   UNL     1      -9.041   3.687  70.047  1.00  0.00    -0.127 A  
HETATM    9  C   UNL     1      -8.622   6.599  68.887  1.00  0.00    -0.126 A  
HETATM   10  C   UNL     1      -9.385   2.648  69.185  1.00  0.00    -0.198 A  
HETATM   11  C   UNL     1      -8.548   1.536  69.098  1.00  0.00    -0.090 A  
HETATM   12  C   UNL     1      -8.519   7.587  67.906  1.00  0.00    -0.122 A  
HETATM   13  C   UNL     1      -7.390   1.494  69.865  1.00  0.00    -0.036 A  
HETATM   14  C   UNL     1      -9.619   7.882  67.104  1.00  0.00    -0.171 A  
HETATM   15  C   UNL     1      -7.106   2.575  70.677  1.00  0.00    -0.033 A  
HETATM   16  C   UNL     1     -10.817   7.191  67.268  1.00  0.00    -0.382 A  
HETATM   17 BR   UNL     1      -9.490   9.244  65.799  1.00  0.00    -0.324 Br 
HETATM   18  N   UNL     1      -7.896   3.666  70.779  1.00  0.00    -0.050 NA 
HETATM   19  C   UNL     1     -10.921   6.209  68.255  1.00  0.00    -0.397 A  
ENDBRANCH   4   5
ENDBRANCH   2   4
TORSDOF 2
ENDMDL
MODEL      122
REMARK 921   NORMALIZED FREE ENERGY PREDICTED BY IDOCK:   -3.54 KCAL/MOL
REMARK 922        TOTAL FREE ENERGY PREDICTED BY IDOCK:   -4.11 KCAL/MOL
REMARK 923 INTER-LIGAND FREE ENERGY PREDICTED BY IDOCK:   -3.96 KCAL/MOL
REMARK 924 INTRA-LIGAND FREE ENERGY PREDICTED BY IDOCK:   -0.16 KCAL/MOL
REMARK 927      BINDING AFFINITY PREDICTED BY RF-SCORE:    0.00 PKD
ROOT
HETATM    1  C   UNL     1     -10.684  14.515  67.944  1.00  0.00    -0.245 C  
HETATM    2  N   UNL     1     -11.846  13.688  67.618  1.00  0.00    -0.361 NA 
HETATM    3  C   UNL     1     -12.285  13.969  66.247  1.00  0.00    -0.462 C  
ENDROOT
BRANCH   2   4
HETATM    4  C   UNL     1     -11.558  12.248  67.755  1.00  0.00    -0.351 C  
BRANCH   4   5
HETATM    5  C   UNL     1     -10.218  11.804  67.153  1.00  0.00    -0.236 C  
HETATM    6  C   UNL     1      -9.208  11.240  68.183  1.00  0.00    -0.170 C  
HETATM    7  C   UNL     1      -9.712   9.951  68.827  1.00  0.00    -0.164 A  
HETATM    8  C   UNL     1      -7.821  11.085  67.557  1.00  0.00    -0.116 A  
HETATM    9  C   UNL     1      -9.948   8.800  68.059  1.00  0.00    -0.220 A  
HETATM   10  C   UNL     1      -6.685  11.153  68.360  1.00  0.00    -0.060 A  
HETATM   11  C   UNL     1      -5.428  11.071  67.763  1.00  0.00    -0.039 A  
HETATM   12  C   UNL     1     -10.484   7.650  68.645  1.00  0.00    -0.203 A  
HETATM   13  C   UNL     1      -5.337  10.915  66.386  1.00  0.00    -0.099 A  
HETATM   14  C   UNL     1     -10.775   7.640  70.006  1.00  0.00    -0.241 A  
HETATM   15  C   UNL     1      -6.511  10.830  65.660  1.00  0.00    -0.042 A  
HETATM   16  C   UNL     1     -10.527   8.765  70.789  1.00  0.00    -0.270 A  
HETATM   17 BR   UNL     1     -11.531   6.096  70.792  1.00  0.00    -0.234 Br 
HETATM   18  N   UNL     1      -7.741  10.903  66.212  1.00  0.00    -0.152 NA 
HETATM   19  C   UNL     1      -9.999   9.916  70.201  1.00  0.00    -0.291 A  
ENDBRANCH   4   5
ENDBRANCH   2   4
TORSDOF 2
ENDMDL
MODEL      123
REMARK 921   NORMALIZED FREE ENERGY PREDICTED BY IDOCK:   -3.51 KCAL/MOL
REMARK 922        TOTAL FREE ENERGY PREDICTED BY IDOCK:   -4.08 KCAL/MOL
REMARK 923 INTER-LIGAND FREE ENERGY PREDICTED BY IDOCK:   -3.90 KCAL/MOL
REMARK 924 INTRA-LIGAND FREE ENERGY PREDICTED BY IDOCK:   -0.17 KCAL/MOL
REMARK 927      BINDING AFFINITY PREDICTED BY RF-SCORE:    0.00 PKD
ROOT
HETATM    1  C   UNL     1      -7.535  16.747  69.042  1.00  0.00    -0.228 C  
HETATM    2  N   UNL     1      -7.186  15.530  68.308  1.00  0.00    -0.112 NA 
HETATM    3  C   UNL     1      -6.001  14.910  68.911  1.00  0.00    -0.085 C  
ENDROOT
BRANCH   2   4
HETATM    4  C   UNL     1      -8.293  14.556  68.292  1.00  0.00    -0.152 C  
BRANCH   4   5
HETATM    5  C   UNL     1      -7.859  13.091  68.441  1.00  0.00    -0.134 C  
HETATM    6  C   UNL     1      -9.030  12.086  68.567  1.00  0.00    -0.098 C  
HETATM    7  C   UNL     1      -9.880  12.040  67.301  1.00  0.00    -0.200 A  
HETATM    8  C   UNL     1      -8.520  10.706  68.987  1.00  0.00    -0.145 A  
HETATM    9  C   UNL     1      -9.335  11.628  66.074  1.00  0.00    -0.241 A  
HETATM   10  C   UNL     1      -9.355   9.842  69.692  1.00  0.00    -0.237 A  
HETATM   11  C   UNL     1      -8.852   8.613  70.119  1.00  0.00    -0.144 A  
HETATM   12  C   UNL     1     -10.100  11.665  64.906  1.00  0.00    -0.303 A  
HETATM   13  C   UNL     1      -7.537   8.277  69.825  1.00  0.00    -0.092 A  
HETATM   14  C   UNL     1     -11.421  12.102  64.959  1.00  0.00    -0.323 A  
HETATM   15  C   UNL     1      -6.779   9.177  69.099  1.00  0.00    -0.050 A  
HETATM   16  C   UNL     1     -11.987  12.493  66.169  1.00  0.00    -0.432 A  
HETATM   17 BR   UNL     1     -12.446  12.184  63.372  1.00  0.00    -0.500 Br 
HETATM   18  N   UNL     1      -7.241  10.372  68.671  1.00  0.00    -0.079 NA 
HETATM   19  C   UNL     1     -11.219  12.464  67.335  1.00  0.00    -0.351 A  
ENDBRANCH   4   5
ENDBRANCH   2   4
TORSDOF 2
ENDMDL
MODEL      124
REMARK 921   NORMALIZED FREE ENERGY PREDICTED BY IDOCK:   -3.50 KCAL/MOL
REMARK 922        TOTAL FREE ENERGY PREDICTED BY IDOCK:   -4.07 KCAL/MOL
REMARK 923 INTER-LIGAND FREE ENERGY PREDICTED BY IDOCK:   -3.73 KCAL/MOL
REMARK 924 INTRA-LIGAND FREE ENERGY PREDICTED BY IDOCK:   -0.34 KCAL/MOL
REMARK 927      BINDING AFFINITY PREDICTED BY RF-SCORE:    0.00 PKD
ROOT
HETATM    1  C   UNL     1      -6.710   8.404  72.695  1.00  0.00    -0.088 C  
HETATM    2  N   UNL     1      -7.911   8.958  72.067  1.00  0.00    -0.354 NA 
HETATM    3  C   UNL     1      -7.810   8.829  70.609  1.00  0.00    -0.107 C  
ENDROOT
BRANCH   2   4
HETATM    4  C   UNL     1      -9.139   8.290  72.535  1.00  0.00    -0.253 C  
BRANCH   4   5
HETATM    5  C   UNL     1      -8.945   6.835  72.982  1.00  0.00    -0.142 C  
HETATM    6  C   UNL     1     -10.006   5.849  72.433  1.00  0.00    -0.194 C  
HETATM    7  C   UNL     1      -9.939   5.728  70.914  1.00  0.00    -0.243 A  
HETATM    8  C   UNL     1      -9.907   4.495  73.139  1.00  0.00    -0.137 A  
HETATM    9  C   UNL     1      -8.792   5.234  70.274  1.00  0.00    -0.145 A  
HETATM   10  C   UNL     1     -11.035   3.685  73.248  1.00  0.00    -0.276 A  
HETATM   11  C   UNL     1     -10.940   2.482  73.947  1.00  0.00    -0.281 A  
HETATM   12  C   UNL     1      -8.711   5.201  68.880  1.00  0.00    -0.096 A  
HETATM   13  C   UNL     1      -9.724   2.117  74.510  1.00  0.00    -0.128 A  
HETATM   14  C   UNL     1      -9.784   5.652  68.115  1.00  0.00    -0.127 A  
HETATM   15  C   UNL     1      -8.645   2.963  74.337  1.00  0.00    -0.072 A  
HETATM   16  C   UNL     1     -10.940   6.125  68.730  1.00  0.00    -0.421 A  
HETATM   17 BR   UNL     1      -9.661   5.639  66.228  1.00  0.00    -0.147 Br 
HETATM   18  N   UNL     1      -8.707   4.131  73.663  1.00  0.00    -0.094 NA 
HETATM   19  C   UNL     1     -11.016   6.164  70.125  1.00  0.00    -0.426 A  
ENDBRANCH   4   5
ENDBRANCH   2   4
TORSDOF 2
ENDMDL
MODEL      125
REMARK 921   NORMALIZED FREE ENERGY PREDICTED BY IDOCK:   -3.47 KCAL/MOL
REMARK 922        TOTAL FREE ENERGY PREDICTED BY IDOCK:   -4.03 KCAL/MOL
REMARK 923 INTER-LIGAND FREE ENERGY PREDICTED BY IDOCK:   -3.78 KCAL/MOL
REMARK 924 INTRA-LIGAND FREE ENERGY PREDICTED BY IDOCK:   -0.25 KCAL/MOL
REMARK 927      BINDING AFFINITY PREDICTED BY RF-SCORE:    0.00 PKD
ROOT
HETATM    1  C   UNL     1      -8.508  10.519  66.144  1.00  0.00    -0.153 C  
HETATM    2  N   UNL     1      -9.437   9.960  67.127  1.00  0.00    -0.155 NA 
HETATM    3  C   UNL     1      -9.911   8.649  66.669  1.00  0.00    -0.287 C  
ENDROOT
BRANCH   2   4
HETATM    4  C   UNL     1      -8.819   9.821  68.458  1.00  0.00    -0.121 C  
BRANCH   4   5
HETATM    5  C   UNL     1      -8.229   8.434  68.747  1.00  0.00    -0.119 C  
HETATM    6  C   UNL     1      -8.351   7.980  70.223  1.00  0.00    -0.125 C  
HETATM    7  C   UNL     1      -9.807   7.802  70.645  1.00  0.00    -0.182 A  
HETATM    8  C   UNL     1      -7.504   6.732  70.480  1.00  0.00    -0.086 A  
HETATM    9  C   UNL     1     -10.631   6.849  70.027  1.00  0.00    -0.254 A  
HETATM   10  C   UNL     1      -7.005   6.484  71.757  1.00  0.00    -0.076 A  
HETATM   11  C   UNL     1      -6.184   5.375  71.959  1.00  0.00    -0.035 A  
HETATM   12  C   UNL     1     -11.982   6.747  70.366  1.00  0.00    -0.343 A  
HETATM   13  C   UNL     1      -5.891   4.541  70.887  1.00  0.00    -0.017 A  
HETATM   14  C   UNL     1     -12.516   7.592  71.336  1.00  0.00    -0.352 A  
HETATM   15  C   UNL     1      -6.445   4.841  69.657  1.00  0.00    -0.032 A  
HETATM   16  C   UNL     1     -11.710   8.529  71.977  1.00  0.00    -0.431 A  
HETATM   17 BR   UNL     1     -14.353   7.478  71.770  1.00  0.00    -0.585 Br 
HETATM   18  N   UNL     1      -7.245   5.906  69.433  1.00  0.00    -0.065 NA 
HETATM   19  C   UNL     1     -10.361   8.634  71.631  1.00  0.00    -0.366 A  
ENDBRANCH   4   5
ENDBRANCH   2   4
TORSDOF 2
ENDMDL
MODEL      126
REMARK 921   NORMALIZED FREE ENERGY PREDICTED BY IDOCK:   -3.45 KCAL/MOL
REMARK 922        TOTAL FREE ENERGY PREDICTED BY IDOCK:   -4.01 KCAL/MOL
REMARK 923 INTER-LIGAND FREE ENERGY PREDICTED BY IDOCK:   -3.96 KCAL/MOL
REMARK 924 INTRA-LIGAND FREE ENERGY PREDICTED BY IDOCK:   -0.05 KCAL/MOL
REMARK 927      BINDING AFFINITY PREDICTED BY RF-SCORE:    0.00 PKD
ROOT
HETATM    1  C   UNL     1     -11.450   7.136  70.712  1.00  0.00    -0.305 C  
HETATM    2  N   UNL     1     -11.845   8.529  70.921  1.00  0.00    -0.258 NA 
HETATM    3  C   UNL     1     -12.193   8.739  72.330  1.00  0.00    -0.358 C  
ENDROOT
BRANCH   2   4
HETATM    4  C   UNL     1     -10.779   9.472  70.534  1.00  0.00    -0.298 C  
BRANCH   4   5
HETATM    5  C   UNL     1      -9.635   8.846  69.724  1.00  0.00    -0.175 C  
HETATM    6  C   UNL     1      -9.892   8.778  68.198  1.00  0.00    -0.194 C  
HETATM    7  C   UNL     1      -9.999  10.168  67.577  1.00  0.00    -0.231 A  
HETATM    8  C   UNL     1      -8.844   7.902  67.509  1.00  0.00    -0.128 A  
HETATM    9  C   UNL     1      -8.917  11.061  67.604  1.00  0.00    -0.142 A  
HETATM   10  C   UNL     1      -9.162   7.244  66.323  1.00  0.00    -0.175 A  
HETATM   11  C   UNL     1      -8.214   6.401  65.742  1.00  0.00    -0.134 A  
HETATM   12  C   UNL     1      -9.051  12.358  67.103  1.00  0.00    -0.199 A  
HETATM   13  C   UNL     1      -6.977   6.245  66.353  1.00  0.00    -0.067 A  
HETATM   14  C   UNL     1     -10.266  12.767  66.559  1.00  0.00    -0.253 A  
HETATM   15  C   UNL     1      -6.729   6.951  67.514  1.00  0.00    -0.067 A  
HETATM   16  C   UNL     1     -11.345  11.888  66.503  1.00  0.00    -0.403 A  
HETATM   17 BR   UNL     1     -10.458  14.533  65.912  1.00  0.00    -0.343 Br 
HETATM   18  N   UNL     1      -7.625   7.776  68.097  1.00  0.00    -0.114 NA 
HETATM   19  C   UNL     1     -11.212  10.594  67.011  1.00  0.00    -0.117 A  
ENDBRANCH   4   5
ENDBRANCH   2   4
TORSDOF 2
ENDMDL
MODEL      127
REMARK 921   NORMALIZED FREE ENERGY PREDICTED BY IDOCK:   -3.45 KCAL/MOL
REMARK 922        TOTAL FREE ENERGY PREDICTED BY IDOCK:   -4.01 KCAL/MOL
REMARK 923 INTER-LIGAND FREE ENERGY PREDICTED BY IDOCK:   -3.68 KCAL/MOL
REMARK 924 INTRA-LIGAND FREE ENERGY PREDICTED BY IDOCK:   -0.33 KCAL/MOL
REMARK 927      BINDING AFFINITY PREDICTED BY RF-SCORE:    0.00 PKD
ROOT
HETATM    1  C   UNL     1     -11.155  17.237  67.051  1.00  0.00     0.250 C  
HETATM    2  N   UNL     1     -10.179  17.110  65.968  1.00  0.00    -0.462 NA 
HETATM    3  C   UNL     1      -8.867  17.576  66.427  1.00  0.00    -0.241 C  
ENDROOT
BRANCH   2   4
HETATM    4  C   UNL     1     -10.066  15.722  65.484  1.00  0.00    -0.351 C  
BRANCH   4   5
HETATM    5  C   UNL     1     -10.563  14.658  66.473  1.00  0.00    -0.300 C  
HETATM    6  C   UNL     1      -9.456  13.717  67.012  1.00  0.00    -0.255 C  
HETATM    7  C   UNL     1      -8.424  14.472  67.846  1.00  0.00    -0.161 A  
HETATM    8  C   UNL     1     -10.068  12.531  67.760  1.00  0.00    -0.218 A  
HETATM    9  C   UNL     1      -8.788  15.127  69.032  1.00  0.00    -0.219 A  
HETATM   10  C   UNL     1      -9.378  11.323  67.826  1.00  0.00    -0.163 A  
HETATM   11  C   UNL     1      -9.978  10.235  68.459  1.00  0.00    -0.177 A  
HETATM   12  C   UNL     1      -7.852  15.880  69.746  1.00  0.00     0.184 A  
HETATM   13  C   UNL     1     -11.242  10.383  69.015  1.00  0.00    -0.289 A  
HETATM   14  C   UNL     1      -6.542  15.972  69.284  1.00  0.00    -0.176 A  
HETATM   15  C   UNL     1     -11.851  11.621  68.929  1.00  0.00    -0.329 A  
HETATM   16  C   UNL     1      -6.156  15.310  68.121  1.00  0.00    -0.139 A  
HETATM   17 BR   UNL     1      -5.284  17.018  70.232  1.00  0.00    -0.227 Br 
HETATM   18  N   UNL     1     -11.293  12.692  68.325  1.00  0.00    -0.272 NA 
HETATM   19  C   UNL     1      -7.094  14.564  67.404  1.00  0.00    -0.138 A  
ENDBRANCH   4   5
ENDBRANCH   2   4
TORSDOF 2
ENDMDL
MODEL      128
REMARK 921   NORMALIZED FREE ENERGY PREDICTED BY IDOCK:   -3.44 KCAL/MOL
REMARK 922        TOTAL FREE ENERGY PREDICTED BY IDOCK:   -4.01 KCAL/MOL
REMARK 923 INTER-LIGAND FREE ENERGY PREDICTED BY IDOCK:   -3.84 KCAL/MOL
REMARK 924 INTRA-LIGAND FREE ENERGY PREDICTED BY IDOCK:   -0.16 KCAL/MOL
REMARK 927      BINDING AFFINITY PREDICTED BY RF-SCORE:    0.00 PKD
ROOT
HETATM    1  C   UNL     1      -7.288   8.760  69.315  1.00  0.00    -0.070 C  
HETATM    2  N   UNL     1      -8.499   9.138  68.585  1.00  0.00    -0.126 NA 
HETATM    3  C   UNL     1      -9.597   8.237  68.948  1.00  0.00    -0.153 C  
ENDROOT
BRANCH   2   4
HETATM    4  C   UNL     1      -8.897  10.531  68.857  1.00  0.00    -0.165 C  
BRANCH   4   5
HETATM    5  C   UNL     1      -9.936  11.101  67.882  1.00  0.00    -0.189 C  
HETATM    6  C   UNL     1      -9.332  11.815  66.647  1.00  0.00    -0.205 C  
HETATM    7  C   UNL     1      -8.554  10.850  65.757  1.00  0.00    -0.176 A  
HETATM    8  C   UNL     1     -10.411  12.585  65.883  1.00  0.00    -0.263 A  
HETATM    9  C   UNL     1      -9.190   9.768  65.128  1.00  0.00    -0.297 A  
HETATM   10  C   UNL     1     -10.063  13.707  65.133  1.00  0.00    -0.298 A  
HETATM   11  C   UNL     1     -11.068  14.431  64.493  1.00  0.00    -0.301 A  
HETATM   12  C   UNL     1      -8.455   8.846  64.380  1.00  0.00    -0.170 A  
HETATM   13  C   UNL     1     -12.387  14.015  64.611  1.00  0.00    -0.425 A  
HETATM   14  C   UNL     1      -7.078   9.007  64.244  1.00  0.00    -0.090 A  
HETATM   15  C   UNL     1     -12.649  12.878  65.352  1.00  0.00    -0.378 A  
HETATM   16  C   UNL     1      -6.432  10.087  64.841  1.00  0.00    -0.125 A  
HETATM   17 BR   UNL     1      -6.078   7.740  63.259  1.00  0.00    -0.063 Br 
HETATM   18  N   UNL     1     -11.697  12.155  65.979  1.00  0.00    -0.504 NA 
HETATM   19  C   UNL     1      -7.168  11.003  65.596  1.00  0.00     0.154 A  
ENDBRANCH   4   5
ENDBRANCH   2   4
TORSDOF 2
ENDMDL
MODEL      129
REMARK 921   NORMALIZED FREE ENERGY PREDICTED BY IDOCK:   -3.44 KCAL/MOL
REMARK 922        TOTAL FREE ENERGY PREDICTED BY IDOCK:   -4.00 KCAL/MOL
REMARK 923 INTER-LIGAND FREE ENERGY PREDICTED BY IDOCK:   -3.73 KCAL/MOL
REMARK 924 INTRA-LIGAND FREE ENERGY PREDICTED BY IDOCK:   -0.27 KCAL/MOL
REMARK 927      BINDING AFFINITY PREDICTED BY RF-SCORE:    0.00 PKD
ROOT
HETATM    1  C   UNL     1     -12.733   9.449  72.093  1.00  0.00    -0.382 C  
HETATM    2  N   UNL     1     -11.750   8.457  72.531  1.00  0.00    -0.385 NA 
HETATM    3  C   UNL     1     -12.220   7.110  72.188  1.00  0.00    -0.218 C  
ENDROOT
BRANCH   2   4
HETATM    4  C   UNL     1     -10.426   8.684  71.924  1.00  0.00    -0.340 C  
BRANCH   4   5
HETATM    5  C   UNL     1     -10.427   8.743  70.391  1.00  0.00    -0.240 C  
HETATM    6  C   UNL     1      -9.182   8.105  69.724  1.00  0.00    -0.151 C  
HETATM    7  C   UNL     1      -9.103   6.603  69.987  1.00  0.00    -0.151 A  
HETATM    8  C   UNL     1      -9.127   8.448  68.234  1.00  0.00    -0.139 A  
HETATM    9  C   UNL     1     -10.102   5.732  69.526  1.00  0.00    -0.278 A  
HETATM   10  C   UNL     1      -7.899   8.494  67.578  1.00  0.00    -0.099 A  
HETATM   11  C   UNL     1      -7.863   8.868  66.235  1.00  0.00    -0.102 A  
HETATM   12  C   UNL     1     -10.060   4.371  69.838  1.00  0.00    -0.123 A  
HETATM   13  C   UNL     1      -9.049   9.178  65.583  1.00  0.00    -0.273 A  
HETATM   14  C   UNL     1      -9.011   3.870  70.605  1.00  0.00    -0.092 A  
HETATM   15  C   UNL     1     -10.230   9.085  66.296  1.00  0.00    -0.167 A  
HETATM   16  C   UNL     1      -7.999   4.714  71.053  1.00  0.00    -0.082 A  
HETATM   17 BR   UNL     1      -8.973   2.035  71.057  1.00  0.00    -0.149 Br 
HETATM   18  N   UNL     1     -10.295   8.722  67.595  1.00  0.00    -0.241 NA 
HETATM   19  C   UNL     1      -8.046   6.076  70.746  1.00  0.00    -0.120 A  
ENDBRANCH   4   5
ENDBRANCH   2   4
TORSDOF 2
ENDMDL
MODEL      130
REMARK 921   NORMALIZED FREE ENERGY PREDICTED BY IDOCK:   -3.40 KCAL/MOL
REMARK 922        TOTAL FREE ENERGY PREDICTED BY IDOCK:   -3.96 KCAL/MOL
REMARK 923 INTER-LIGAND FREE ENERGY PREDICTED BY IDOCK:   -3.80 KCAL/MOL
REMARK 924 INTRA-LIGAND FREE ENERGY PREDICTED BY IDOCK:   -0.15 KCAL/MOL
REMARK 927      BINDING AFFINITY PREDICTED BY RF-SCORE:    0.00 PKD
ROOT
HETATM    1  C   UNL     1      -6.904  11.171  67.478  1.00  0.00    -0.086 C  
HETATM    2  N   UNL     1      -7.428  11.753  68.714  1.00  0.00    -0.120 NA 
HETATM    3  C   UNL     1      -6.317  12.150  69.584  1.00  0.00    -0.115 C  
ENDROOT
BRANCH   2   4
HETATM    4  C   UNL     1      -8.291  12.920  68.455  1.00  0.00    -0.054 C  
BRANCH   4   5
HETATM    5  C   UNL     1      -9.597  12.941  69.261  1.00  0.00     0.780 C  
HETATM    6  C   UNL     1     -10.569  14.084  68.876  1.00  0.00    -0.241 C  
HETATM    7  C   UNL     1     -11.078  13.940  67.445  1.00  0.00    -0.313 A  
HETATM    8  C   UNL     1     -11.702  14.202  69.898  1.00  0.00    -0.309 A  
HETATM    9  C   UNL     1     -11.841  12.829  67.053  1.00  0.00    -0.428 A  
HETATM   10  C   UNL     1     -12.330  15.429  70.099  1.00  0.00    -0.395 A  
HETATM   11  C   UNL     1     -13.319  15.531  71.077  1.00  0.00    -0.495 A  
HETATM   12  C   UNL     1     -12.235  12.668  65.723  1.00  0.00    -0.427 A  
HETATM   13  C   UNL     1     -13.659  14.408  71.821  1.00  0.00    -0.479 A  
HETATM   14  C   UNL     1     -11.880  13.626  64.776  1.00  0.00    -0.387 A  
HETATM   15  C   UNL     1     -13.007  13.221  71.545  1.00  0.00    -0.337 A  
HETATM   16  C   UNL     1     -11.144  14.748  65.149  1.00  0.00    -0.389 A  
HETATM   17 BR   UNL     1     -12.385  13.391  62.970  1.00  0.00     0.623 Br 
HETATM   18  N   UNL     1     -12.049  13.093  70.602  1.00  0.00    -0.325 NA 
HETATM   19  C   UNL     1     -10.743  14.903  66.478  1.00  0.00    -0.309 A  
ENDBRANCH   4   5
ENDBRANCH   2   4
TORSDOF 2
ENDMDL
MODEL      131
REMARK 921   NORMALIZED FREE ENERGY PREDICTED BY IDOCK:   -3.39 KCAL/MOL
REMARK 922        TOTAL FREE ENERGY PREDICTED BY IDOCK:   -3.94 KCAL/MOL
REMARK 923 INTER-LIGAND FREE ENERGY PREDICTED BY IDOCK:   -3.74 KCAL/MOL
REMARK 924 INTRA-LIGAND FREE ENERGY PREDICTED BY IDOCK:   -0.20 KCAL/MOL
REMARK 927      BINDING AFFINITY PREDICTED BY RF-SCORE:    0.00 PKD
ROOT
HETATM    1  C   UNL     1      -9.354   2.165  71.742  1.00  0.00    -0.106 C  
HETATM    2  N   UNL     1      -8.638   3.229  72.448  1.00  0.00    -0.083 NA 
HETATM    3  C   UNL     1      -7.199   3.116  72.185  1.00  0.00    -0.046 C  
ENDROOT
BRANCH   2   4
HETATM    4  C   UNL     1      -9.106   4.570  72.050  1.00  0.00    -0.130 C  
BRANCH   4   5
HETATM    5  C   UNL     1      -8.699   4.994  70.632  1.00  0.00    -0.140 C  
HETATM    6  C   UNL     1      -9.888   5.324  69.696  1.00  0.00    -0.275 C  
HETATM    7  C   UNL     1     -10.674   6.540  70.181  1.00  0.00    -0.305 A  
HETATM    8  C   UNL     1      -9.418   5.464  68.247  1.00  0.00    -0.119 A  
HETATM    9  C   UNL     1     -10.073   7.805  70.269  1.00  0.00    -0.195 A  
HETATM   10  C   UNL     1     -10.299   5.193  67.202  1.00  0.00    -0.246 A  
HETATM   11  C   UNL     1      -9.834   5.267  65.889  1.00  0.00    -0.112 A  
HETATM   12  C   UNL     1     -10.777   8.894  70.788  1.00  0.00    -0.287 A  
HETATM   13  C   UNL     1      -8.510   5.615  65.654  1.00  0.00    -0.147 A  
HETATM   14  C   UNL     1     -12.093   8.728  71.211  1.00  0.00    -0.296 A  
HETATM   15  C   UNL     1      -7.706   5.893  66.743  1.00  0.00    -0.100 A  
HETATM   16  C   UNL     1     -12.715   7.485  71.111  1.00  0.00    -0.279 A  
HETATM   17 BR   UNL     1     -13.035  10.193  71.945  1.00  0.00    -0.536 Br 
HETATM   18  N   UNL     1      -8.129   5.833  68.024  1.00  0.00    -0.104 NA 
HETATM   19  C   UNL     1     -12.007   6.395  70.599  1.00  0.00    -0.240 A  
ENDBRANCH   4   5
ENDBRANCH   2   4
TORSDOF 2
ENDMDL
MODEL      132
REMARK 921   NORMALIZED FREE ENERGY PREDICTED BY IDOCK:   -3.37 KCAL/MOL
REMARK 922        TOTAL FREE ENERGY PREDICTED BY IDOCK:   -3.92 KCAL/MOL
REMARK 923 INTER-LIGAND FREE ENERGY PREDICTED BY IDOCK:   -3.75 KCAL/MOL
REMARK 924 INTRA-LIGAND FREE ENERGY PREDICTED BY IDOCK:   -0.17 KCAL/MOL
REMARK 927      BINDING AFFINITY PREDICTED BY RF-SCORE:    0.00 PKD
ROOT
HETATM    1  C   UNL     1      -5.322   8.272  63.290  1.00  0.00    -0.062 C  
HETATM    2  N   UNL     1      -6.236   7.656  64.253  1.00  0.00    -0.048 NA 
HETATM    3  C   UNL     1      -5.467   6.939  65.276  1.00  0.00    -0.027 C  
ENDROOT
BRANCH   2   4
HETATM    4  C   UNL     1      -7.109   8.650  64.904  1.00  0.00    -0.080 C  
BRANCH   4   5
HETATM    5  C   UNL     1      -8.258   8.051  65.726  1.00  0.00    -0.132 C  
HETATM    6  C   UNL     1      -8.635   8.865  66.989  1.00  0.00    -0.120 C  
HETATM    7  C   UNL     1      -9.182  10.245  66.634  1.00  0.00    -0.179 A  
HETATM    8  C   UNL     1      -9.583   8.067  67.887  1.00  0.00    -0.155 A  
HETATM    9  C   UNL     1     -10.362  10.389  65.888  1.00  0.00    -0.261 A  
HETATM   10  C   UNL     1      -9.604   8.307  69.260  1.00  0.00    -0.164 A  
HETATM   11  C   UNL     1     -10.429   7.529  70.070  1.00  0.00    -0.231 A  
HETATM   12  C   UNL     1     -10.811  11.654  65.502  1.00  0.00    -0.334 A  
HETATM   13  C   UNL     1     -11.214   6.540  69.492  1.00  0.00    -0.434 A  
HETATM   14  C   UNL     1     -10.088  12.786  65.870  1.00  0.00    -0.276 A  
HETATM   15  C   UNL     1     -11.156   6.380  68.120  1.00  0.00    -0.263 A  
HETATM   16  C   UNL     1      -8.927  12.666  66.629  1.00  0.00    -0.164 A  
HETATM   17 BR   UNL     1     -10.677  14.496  65.318  1.00  0.00    -0.422 Br 
HETATM   18  N   UNL     1     -10.369   7.121  67.311  1.00  0.00    -0.240 NA 
HETATM   19  C   UNL     1      -8.475  11.399  67.008  1.00  0.00    -0.159 A  
ENDBRANCH   4   5
ENDBRANCH   2   4
TORSDOF 2
ENDMDL
MODEL      133
REMARK 921   NORMALIZED FREE ENERGY PREDICTED BY IDOCK:   -3.34 KCAL/MOL
REMARK 922        TOTAL FREE ENERGY PREDICTED BY IDOCK:   -3.89 KCAL/MOL
REMARK 923 INTER-LIGAND FREE ENERGY PREDICTED BY IDOCK:   -3.93 KCAL/MOL
REMARK 924 INTRA-LIGAND FREE ENERGY PREDICTED BY IDOCK:    0.03 KCAL/MOL
REMARK 927      BINDING AFFINITY PREDICTED BY RF-SCORE:    0.00 PKD
ROOT
HETATM    1  C   UNL     1      -7.732  13.009  68.236  1.00  0.00    -0.141 C  
HETATM    2  N   UNL     1      -6.792  11.890  68.310  1.00  0.00    -0.062 NA 
HETATM    3  C   UNL     1      -5.427  12.374  68.078  1.00  0.00    -0.073 C  
ENDROOT
BRANCH   2   4
HETATM    4  C   UNL     1      -6.854  11.199  69.611  1.00  0.00    -0.117 C  
BRANCH   4   5
HETATM    5  C   UNL     1      -7.393   9.763  69.547  1.00  0.00    -0.092 C  
HETATM    6  C   UNL     1      -8.909   9.635  69.839  1.00  0.00    -0.240 C  
HETATM    7  C   UNL     1      -9.753  10.341  68.781  1.00  0.00    -0.178 A  
HETATM    8  C   UNL     1      -9.304   8.169  70.028  1.00  0.00    -0.159 A  
HETATM    9  C   UNL     1      -9.727   9.933  67.439  1.00  0.00    -0.199 A  
HETATM   10  C   UNL     1     -10.400   7.843  70.824  1.00  0.00    -0.211 A  
HETATM   11  C   UNL     1     -10.708   6.500  71.035  1.00  0.00    -0.289 A  
HETATM   12  C   UNL     1     -10.443  10.634  66.466  1.00  0.00    -0.285 A  
HETATM   13  C   UNL     1      -9.921   5.520  70.443  1.00  0.00    -0.279 A  
HETATM   14  C   UNL     1     -11.201  11.743  66.832  1.00  0.00    -0.327 A  
HETATM   15  C   UNL     1      -8.865   5.924  69.647  1.00  0.00    -0.131 A  
HETATM   16  C   UNL     1     -11.259  12.150  68.163  1.00  0.00    -0.320 A  
HETATM   17 BR   UNL     1     -12.143  12.714  65.511  1.00  0.00    -0.492 Br 
HETATM   18  N   UNL     1      -8.546   7.217  69.423  1.00  0.00    -0.133 NA 
HETATM   19  C   UNL     1     -10.536  11.452  69.133  1.00  0.00    -0.196 A  
ENDBRANCH   4   5
ENDBRANCH   2   4
TORSDOF 2
ENDMDL
MODEL      134
REMARK 921   NORMALIZED FREE ENERGY PREDICTED BY IDOCK:   -3.32 KCAL/MOL
REMARK 922        TOTAL FREE ENERGY PREDICTED BY IDOCK:   -3.87 KCAL/MOL
REMARK 923 INTER-LIGAND FREE ENERGY PREDICTED BY IDOCK:   -3.45 KCAL/MOL
REMARK 924 INTRA-LIGAND FREE ENERGY PREDICTED BY IDOCK:   -0.43 KCAL/MOL
REMARK 927      BINDING AFFINITY PREDICTED BY RF-SCORE:    0.00 PKD
ROOT
HETATM    1  C   UNL     1     -11.334   5.500  72.335  1.00  0.00    -0.234 C  
HETATM    2  N   UNL     1     -11.875   6.836  72.079  1.00  0.00    -0.305 NA 
HETATM    3  C   UNL     1     -11.057   7.840  72.767  1.00  0.00    -0.398 C  
ENDROOT
BRANCH   2   4
HETATM    4  C   UNL     1     -11.926   7.147  70.639  1.00  0.00    -0.269 C  
BRANCH   4   5
HETATM    5  C   UNL     1     -11.164   6.160  69.744  1.00  0.00    -0.494 C  
HETATM    6  C   UNL     1      -9.952   6.773  69.000  1.00  0.00    -0.161 C  
HETATM    7  C   UNL     1      -8.865   7.234  69.966  1.00  0.00    -0.141 A  
HETATM    8  C   UNL     1      -9.426   5.812  67.932  1.00  0.00    -0.110 A  
HETATM    9  C   UNL     1      -8.202   6.322  70.802  1.00  0.00    -0.125 A  
HETATM   10  C   UNL     1      -8.773   6.313  66.808  1.00  0.00    -0.117 A  
HETATM   11  C   UNL     1      -8.355   5.426  65.817  1.00  0.00    -0.126 A  
HETATM   12  C   UNL     1      -7.264   6.765  71.738  1.00  0.00    -0.084 A  
HETATM   13  C   UNL     1      -8.591   4.067  65.976  1.00  0.00    -0.110 A  
HETATM   14  C   UNL     1      -6.973   8.123  71.835  1.00  0.00    -0.079 A  
HETATM   15  C   UNL     1      -9.224   3.645  67.131  1.00  0.00    -0.188 A  
HETATM   16  C   UNL     1      -7.603   9.041  70.998  1.00  0.00    -0.138 A  
HETATM   17 BR   UNL     1      -5.729   8.726  73.124  1.00  0.00    -0.084 Br 
HETATM   18  N   UNL     1      -9.636   4.481  68.108  1.00  0.00    -0.151 NA 
HETATM   19  C   UNL     1      -8.546   8.598  70.069  1.00  0.00    -0.132 A  
ENDBRANCH   4   5
ENDBRANCH   2   4
TORSDOF 2
ENDMDL
MODEL      135
REMARK 921   NORMALIZED FREE ENERGY PREDICTED BY IDOCK:   -3.30 KCAL/MOL
REMARK 922        TOTAL FREE ENERGY PREDICTED BY IDOCK:   -3.84 KCAL/MOL
REMARK 923 INTER-LIGAND FREE ENERGY PREDICTED BY IDOCK:   -3.64 KCAL/MOL
REMARK 924 INTRA-LIGAND FREE ENERGY PREDICTED BY IDOCK:   -0.21 KCAL/MOL
REMARK 927      BINDING AFFINITY PREDICTED BY RF-SCORE:    0.00 PKD
ROOT
HETATM    1  C   UNL     1      -7.578   7.721  71.813  1.00  0.00    -0.085 C  
HETATM    2  N   UNL     1      -6.709   8.095  70.697  1.00  0.00    -0.037 NA 
HETATM    3  C   UNL     1      -6.048   6.900  70.162  1.00  0.00    -0.024 C  
ENDROOT
BRANCH   2   4
HETATM    4  C   UNL     1      -7.453   8.769  69.617  1.00  0.00    -0.071 C  
BRANCH   4   5
HETATM    5  C   UNL     1      -7.746   7.886  68.396  1.00  0.00    -0.114 C  
HETATM    6  C   UNL     1      -9.251   7.731  68.064  1.00  0.00    -0.140 C  
HETATM    7  C   UNL     1      -9.885   9.059  67.658  1.00  0.00    -0.220 A  
HETATM    8  C   UNL     1      -9.468   6.631  67.024  1.00  0.00    -0.144 A  
HETATM    9  C   UNL     1      -9.452   9.751  66.516  1.00  0.00    -0.228 A  
HETATM   10  C   UNL     1     -10.675   5.936  66.989  1.00  0.00    -0.396 A  
HETATM   11  C   UNL     1     -10.831   4.895  66.075  1.00  0.00    -0.137 A  
HETATM   12  C   UNL     1      -9.984  11.003  66.198  1.00  0.00    -0.277 A  
HETATM   13  C   UNL     1      -9.786   4.582  65.215  1.00  0.00    -0.182 A  
HETATM   14  C   UNL     1     -10.962  11.566  67.013  1.00  0.00    -0.294 A  
HETATM   15  C   UNL     1      -8.629   5.334  65.294  1.00  0.00    -0.150 A  
HETATM   16  C   UNL     1     -11.421  10.885  68.138  1.00  0.00    -0.368 A  
HETATM   17 BR   UNL     1     -11.657  13.275  66.601  1.00  0.00    -0.434 Br 
HETATM   18  N   UNL     1      -8.451   6.348  66.167  1.00  0.00    -0.134 NA 
HETATM   19  C   UNL     1     -10.883   9.637  68.460  1.00  0.00    -0.202 A  
ENDBRANCH   4   5
ENDBRANCH   2   4
TORSDOF 2
ENDMDL
MODEL      136
REMARK 921   NORMALIZED FREE ENERGY PREDICTED BY IDOCK:   -3.30 KCAL/MOL
REMARK 922        TOTAL FREE ENERGY PREDICTED BY IDOCK:   -3.84 KCAL/MOL
REMARK 923 INTER-LIGAND FREE ENERGY PREDICTED BY IDOCK:   -3.69 KCAL/MOL
REMARK 924 INTRA-LIGAND FREE ENERGY PREDICTED BY IDOCK:   -0.16 KCAL/MOL
REMARK 927      BINDING AFFINITY PREDICTED BY RF-SCORE:    0.00 PKD
ROOT
HETATM    1  C   UNL     1      -5.811  13.307  70.287  1.00  0.00    -0.158 C  
HETATM    2  N   UNL     1      -6.721  13.144  69.152  1.00  0.00    -0.105 NA 
HETATM    3  C   UNL     1      -6.272  13.981  68.034  1.00  0.00    -0.142 C  
ENDROOT
BRANCH   2   4
HETATM    4  C   UNL     1      -6.809  11.741  68.709  1.00  0.00    -0.095 C  
BRANCH   4   5
HETATM    5  C   UNL     1      -7.543  10.808  69.683  1.00  0.00    -0.052 C  
HETATM    6  C   UNL     1      -8.892  10.261  69.152  1.00  0.00    -0.182 C  
HETATM    7  C   UNL     1      -8.701   9.363  67.933  1.00  0.00    -0.120 A  
HETATM    8  C   UNL     1      -9.679   9.577  70.272  1.00  0.00    -0.263 A  
HETATM    9  C   UNL     1      -7.967   8.170  68.016  1.00  0.00    -0.127 A  
HETATM   10  C   UNL     1     -11.070   9.525  70.210  1.00  0.00    -0.317 A  
HETATM   11  C   UNL     1     -11.774   8.953  71.269  1.00  0.00    -0.370 A  
HETATM   12  C   UNL     1      -7.733   7.396  66.877  1.00  0.00    -0.110 A  
HETATM   13  C   UNL     1     -11.073   8.441  72.354  1.00  0.00    -0.431 A  
HETATM   14  C   UNL     1      -8.241   7.805  65.647  1.00  0.00    -0.135 A  
HETATM   15  C   UNL     1      -9.693   8.507  72.329  1.00  0.00    -0.310 A  
HETATM   16  C   UNL     1      -8.991   8.974  65.547  1.00  0.00    -0.252 A  
HETATM   17 BR   UNL     1      -7.895   6.776  64.100  1.00  0.00    -0.080 Br 
HETATM   18  N   UNL     1      -8.986   9.053  71.316  1.00  0.00    -0.252 NA 
HETATM   19  C   UNL     1      -9.218   9.751  66.686  1.00  0.00    -0.184 A  
ENDBRANCH   4   5
ENDBRANCH   2   4
TORSDOF 2
ENDMDL
MODEL      137
REMARK 921   NORMALIZED FREE ENERGY PREDICTED BY IDOCK:   -3.29 KCAL/MOL
REMARK 922        TOTAL FREE ENERGY PREDICTED BY IDOCK:   -3.83 KCAL/MOL
REMARK 923 INTER-LIGAND FREE ENERGY PREDICTED BY IDOCK:   -3.63 KCAL/MOL
REMARK 924 INTRA-LIGAND FREE ENERGY PREDICTED BY IDOCK:   -0.20 KCAL/MOL
REMARK 927      BINDING AFFINITY PREDICTED BY RF-SCORE:    0.00 PKD
ROOT
HETATM    1  C   UNL     1     -11.453   9.366  70.583  1.00  0.00    -0.284 C  
HETATM    2  N   UNL     1     -12.193  10.317  69.753  1.00  0.00    -0.084 NA 
HETATM    3  C   UNL     1     -12.128  11.654  70.353  1.00  0.00    -0.373 C  
ENDROOT
BRANCH   2   4
HETATM    4  C   UNL     1     -11.670  10.373  68.375  1.00  0.00     0.082 C  
BRANCH   4   5
HETATM    5  C   UNL     1     -11.164  11.755  67.939  1.00  0.00    -0.331 C  
HETATM    6  C   UNL     1      -9.661  11.799  67.567  1.00  0.00    -0.185 C  
HETATM    7  C   UNL     1      -9.353  10.944  66.340  1.00  0.00    -0.199 A  
HETATM    8  C   UNL     1      -9.180  13.243  67.415  1.00  0.00    -0.216 A  
HETATM    9  C   UNL     1      -9.924  11.233  65.091  1.00  0.00    -0.312 A  
HETATM   10  C   UNL     1      -7.843  13.558  67.650  1.00  0.00    -0.178 A  
HETATM   11  C   UNL     1      -7.436  14.889  67.567  1.00  0.00    -0.224 A  
HETATM   12  C   UNL     1      -9.697  10.399  63.994  1.00  0.00    -0.373 A  
HETATM   13  C   UNL     1      -8.369  15.867  67.246  1.00  0.00    -0.211 A  
HETATM   14  C   UNL     1      -8.888   9.275  64.136  1.00  0.00    -0.141 A  
HETATM   15  C   UNL     1      -9.671  15.472  67.004  1.00  0.00    -0.224 A  
HETATM   16  C   UNL     1      -8.295   8.983  65.362  1.00  0.00    -0.151 A  
HETATM   17 BR   UNL     1      -8.610   8.127  62.660  1.00  0.00     0.156 Br 
HETATM   18  N   UNL     1     -10.092  14.191  67.073  1.00  0.00    -0.258 NA 
HETATM   19  C   UNL     1      -8.528   9.814  66.460  1.00  0.00    -0.127 A  
ENDBRANCH   4   5
ENDBRANCH   2   4
TORSDOF 2
ENDMDL
MODEL      138
REMARK 921   NORMALIZED FREE ENERGY PREDICTED BY IDOCK:   -3.28 KCAL/MOL
REMARK 922        TOTAL FREE ENERGY PREDICTED BY IDOCK:   -3.82 KCAL/MOL
REMARK 923 INTER-LIGAND FREE ENERGY PREDICTED BY IDOCK:   -3.66 KCAL/MOL
REMARK 924 INTRA-LIGAND FREE ENERGY PREDICTED BY IDOCK:   -0.17 KCAL/MOL
REMARK 927      BINDING AFFINITY PREDICTED BY RF-SCORE:    0.00 PKD
ROOT
HETATM    1  C   UNL     1      -8.727   7.296  68.420  1.00  0.00    -0.122 C  
HETATM    2  N   UNL     1      -9.309   8.229  69.385  1.00  0.00    -0.155 NA 
HETATM    3  C   UNL     1      -8.575   8.152  70.653  1.00  0.00    -0.130 C  
ENDROOT
BRANCH   2   4
HETATM    4  C   UNL     1      -9.292   9.619  68.892  1.00  0.00    -0.151 C  
BRANCH   4   5
HETATM    5  C   UNL     1      -9.001   9.761  67.392  1.00  0.00    -0.144 C  
HETATM    6  C   UNL     1      -9.588  11.040  66.744  1.00  0.00    -0.216 C  
HETATM    7  C   UNL     1      -8.958  12.308  67.315  1.00  0.00    -0.187 A  
HETATM    8  C   UNL     1      -9.495  10.969  65.219  1.00  0.00    -0.223 A  
HETATM    9  C   UNL     1      -7.586  12.566  67.168  1.00  0.00    -0.087 A  
HETATM   10  C   UNL     1     -10.412  11.664  64.434  1.00  0.00    -0.374 A  
HETATM   11  C   UNL     1     -10.350  11.537  63.047  1.00  0.00    -0.293 A  
HETATM   12  C   UNL     1      -7.005  13.690  67.761  1.00  0.00    -0.168 A  
HETATM   13  C   UNL     1      -9.372  10.730  62.481  1.00  0.00    -0.310 A  
HETATM   14  C   UNL     1      -7.796  14.571  68.495  1.00  0.00    -0.136 A  
HETATM   15  C   UNL     1      -8.482  10.093  63.325  1.00  0.00    -0.184 A  
HETATM   16  C   UNL     1      -9.163  14.343  68.633  1.00  0.00    -0.181 A  
HETATM   17 BR   UNL     1      -7.004  16.072  69.326  1.00  0.00    -0.211 Br 
HETATM   18  N   UNL     1      -8.518  10.199  64.671  1.00  0.00    -0.164 NA 
HETATM   19  C   UNL     1      -9.741  13.215  68.046  1.00  0.00    -0.224 A  
ENDBRANCH   4   5
ENDBRANCH   2   4
TORSDOF 2
ENDMDL
MODEL      139
REMARK 921   NORMALIZED FREE ENERGY PREDICTED BY IDOCK:   -3.28 KCAL/MOL
REMARK 922        TOTAL FREE ENERGY PREDICTED BY IDOCK:   -3.82 KCAL/MOL
REMARK 923 INTER-LIGAND FREE ENERGY PREDICTED BY IDOCK:   -3.62 KCAL/MOL
REMARK 924 INTRA-LIGAND FREE ENERGY PREDICTED BY IDOCK:   -0.20 KCAL/MOL
REMARK 927      BINDING AFFINITY PREDICTED BY RF-SCORE:    0.00 PKD
ROOT
HETATM    1  C   UNL     1     -11.696  12.674  69.168  1.00  0.00    -0.321 C  
HETATM    2  N   UNL     1     -12.082  11.785  68.071  1.00  0.00    -0.542 NA 
HETATM    3  C   UNL     1     -11.645  12.357  66.793  1.00  0.00    -0.379 C  
ENDROOT
BRANCH   2   4
HETATM    4  C   UNL     1     -11.511  10.435  68.225  1.00  0.00    -0.144 C  
BRANCH   4   5
HETATM    5  C   UNL     1     -10.355  10.117  67.267  1.00  0.00    -0.291 C  
HETATM    6  C   UNL     1      -8.948  10.205  67.908  1.00  0.00    -0.128 C  
HETATM    7  C   UNL     1      -8.754   9.158  69.001  1.00  0.00    -0.135 A  
HETATM    8  C   UNL     1      -7.857  10.149  66.837  1.00  0.00    -0.107 A  
HETATM    9  C   UNL     1      -8.805   7.786  68.711  1.00  0.00    -0.134 A  
HETATM   10  C   UNL     1      -6.625  10.757  67.068  1.00  0.00    -0.085 A  
HETATM   11  C   UNL     1      -5.666  10.748  66.056  1.00  0.00    -0.140 A  
HETATM   12  C   UNL     1      -8.705   6.837  69.731  1.00  0.00    -0.141 A  
HETATM   13  C   UNL     1      -5.956  10.129  64.848  1.00  0.00    -0.124 A  
HETATM   14  C   UNL     1      -8.540   7.254  71.049  1.00  0.00    -0.128 A  
HETATM   15  C   UNL     1      -7.192   9.527  64.704  1.00  0.00    -0.113 A  
HETATM   16  C   UNL     1      -8.465   8.611  71.355  1.00  0.00    -0.240 A  
HETATM   17 BR   UNL     1      -8.439   5.971  72.434  1.00  0.00    -0.115 Br 
HETATM   18  N   UNL     1      -8.139   9.517  65.667  1.00  0.00    -0.110 NA 
HETATM   19  C   UNL     1      -8.573   9.559  70.335  1.00  0.00    -0.246 A  
ENDBRANCH   4   5
ENDBRANCH   2   4
TORSDOF 2
ENDMDL
MODEL      140
REMARK 921   NORMALIZED FREE ENERGY PREDICTED BY IDOCK:   -3.26 KCAL/MOL
REMARK 922        TOTAL FREE ENERGY PREDICTED BY IDOCK:   -3.80 KCAL/MOL
REMARK 923 INTER-LIGAND FREE ENERGY PREDICTED BY IDOCK:   -3.55 KCAL/MOL
REMARK 924 INTRA-LIGAND FREE ENERGY PREDICTED BY IDOCK:   -0.25 KCAL/MOL
REMARK 927      BINDING AFFINITY PREDICTED BY RF-SCORE:    0.00 PKD
ROOT
HETATM    1  C   UNL     1     -11.036   2.377  73.083  1.00  0.00    -0.131 C  
HETATM    2  N   UNL     1     -10.788   3.438  74.060  1.00  0.00    -0.209 NA 
HETATM    3  C   UNL     1      -9.372   3.437  74.443  1.00  0.00    -0.093 C  
ENDROOT
BRANCH   2   4
HETATM    4  C   UNL     1     -11.154   4.768  73.539  1.00  0.00    -0.335 C  
BRANCH   4   5
HETATM    5  C   UNL     1     -10.861   4.972  72.046  1.00  0.00    -0.150 C  
HETATM    6  C   UNL     1     -10.474   6.422  71.662  1.00  0.00    -0.251 C  
HETATM    7  C   UNL     1      -9.159   6.850  72.308  1.00  0.00    -0.143 A  
HETATM    8  C   UNL     1     -10.471   6.600  70.143  1.00  0.00    -0.210 A  
HETATM    9  C   UNL     1      -7.956   6.189  72.013  1.00  0.00    -0.106 A  
HETATM   10  C   UNL     1     -10.718   7.855  69.590  1.00  0.00    -0.218 A  
HETATM   11  C   UNL     1     -10.773   7.985  68.203  1.00  0.00    -0.093 A  
HETATM   12  C   UNL     1      -6.773   6.537  72.669  1.00  0.00    -0.064 A  
HETATM   13  C   UNL     1     -10.572   6.866  67.406  1.00  0.00    -0.373 A  
HETATM   14  C   UNL     1      -6.781   7.559  73.615  1.00  0.00    -0.075 A  
HETATM   15  C   UNL     1     -10.308   5.660  68.029  1.00  0.00    -0.202 A  
HETATM   16  C   UNL     1      -7.960   8.242  73.904  1.00  0.00    -0.256 A  
HETATM   17 BR   UNL     1      -5.187   8.007  74.526  1.00  0.00    -0.067 Br 
HETATM   18  N   UNL     1     -10.247   5.506  69.369  1.00  0.00    -0.234 NA 
HETATM   19  C   UNL     1      -9.144   7.887  73.254  1.00  0.00    -0.341 A  
ENDBRANCH   4   5
ENDBRANCH   2   4
TORSDOF 2
ENDMDL
MODEL      141
REMARK 921   NORMALIZED FREE ENERGY PREDICTED BY IDOCK:   -3.25 KCAL/MOL
REMARK 922        TOTAL FREE ENERGY PREDICTED BY IDOCK:   -3.78 KCAL/MOL
REMARK 923 INTER-LIGAND FREE ENERGY PREDICTED BY IDOCK:   -3.54 KCAL/MOL
REMARK 924 INTRA-LIGAND FREE ENERGY PREDICTED BY IDOCK:   -0.24 KCAL/MOL
REMARK 927      BINDING AFFINITY PREDICTED BY RF-SCORE:    0.00 PKD
ROOT
HETATM    1  C   UNL     1     -10.445   8.723  70.604  1.00  0.00    -0.210 C  
HETATM    2  N   UNL     1      -9.202   9.426  70.926  1.00  0.00    -0.226 NA 
HETATM    3  C   UNL     1      -8.476   8.694  71.969  1.00  0.00    -0.122 C  
ENDROOT
BRANCH   2   4
HETATM    4  C   UNL     1      -8.334   9.586  69.745  1.00  0.00    -0.164 C  
BRANCH   4   5
HETATM    5  C   UNL     1      -9.074   9.960  68.453  1.00  0.00    -0.123 C  
HETATM    6  C   UNL     1      -8.566   9.224  67.188  1.00  0.00    -0.130 C  
HETATM    7  C   UNL     1      -8.807   7.719  67.270  1.00  0.00    -0.130 A  
HETATM    8  C   UNL     1      -9.157   9.849  65.922  1.00  0.00    -0.162 A  
HETATM    9  C   UNL     1     -10.105   7.194  67.354  1.00  0.00    -0.260 A  
HETATM   10  C   UNL     1      -8.460   9.768  64.718  1.00  0.00    -0.172 A  
HETATM   11  C   UNL     1      -8.985  10.396  63.589  1.00  0.00    -0.247 A  
HETATM   12  C   UNL     1     -10.310   5.821  67.508  1.00  0.00    -0.274 A  
HETATM   13  C   UNL     1     -10.190  11.079  63.688  1.00  0.00    -0.431 A  
HETATM   14  C   UNL     1      -9.217   4.961  67.565  1.00  0.00    -0.123 A  
HETATM   15  C   UNL     1     -10.834  11.092  64.912  1.00  0.00    -0.190 A  
HETATM   16  C   UNL     1      -7.921   5.460  67.461  1.00  0.00    -0.101 A  
HETATM   17 BR   UNL     1      -9.493   3.107  67.808  1.00  0.00    -0.130 Br 
HETATM   18  N   UNL     1     -10.351  10.491  66.020  1.00  0.00    -0.237 NA 
HETATM   19  C   UNL     1      -7.717   6.834  67.315  1.00  0.00    -0.109 A  
ENDBRANCH   4   5
ENDBRANCH   2   4
TORSDOF 2
ENDMDL
MODEL      142
REMARK 921   NORMALIZED FREE ENERGY PREDICTED BY IDOCK:   -3.22 KCAL/MOL
REMARK 922        TOTAL FREE ENERGY PREDICTED BY IDOCK:   -3.76 KCAL/MOL
REMARK 923 INTER-LIGAND FREE ENERGY PREDICTED BY IDOCK:   -3.59 KCAL/MOL
REMARK 924 INTRA-LIGAND FREE ENERGY PREDICTED BY IDOCK:   -0.17 KCAL/MOL
REMARK 927      BINDING AFFINITY PREDICTED BY RF-SCORE:    0.00 PKD
ROOT
HETATM    1  C   UNL     1     -13.389  10.307  71.862  1.00  0.00    -0.383 C  
HETATM    2  N   UNL     1     -12.186   9.480  71.760  1.00  0.00    -0.382 NA 
HETATM    3  C   UNL     1     -12.565   8.070  71.627  1.00  0.00    -0.322 C  
ENDROOT
BRANCH   2   4
HETATM    4  C   UNL     1     -11.340   9.871  70.617  1.00  0.00    -0.339 C  
BRANCH   4   5
HETATM    5  C   UNL     1     -10.510   8.728  70.016  1.00  0.00    -0.222 C  
HETATM    6  C   UNL     1      -9.856   9.061  68.651  1.00  0.00    -0.177 C  
HETATM    7  C   UNL     1      -8.823  10.177  68.772  1.00  0.00    -0.146 A  
HETATM    8  C   UNL     1      -9.289   7.799  67.998  1.00  0.00    -0.141 A  
HETATM    9  C   UNL     1      -7.674  10.021  69.563  1.00  0.00    -0.146 A  
HETATM   10  C   UNL     1      -9.184   7.722  66.611  1.00  0.00    -0.220 A  
HETATM   11  C   UNL     1      -8.722   6.541  66.031  1.00  0.00    -0.155 A  
HETATM   12  C   UNL     1      -6.775  11.077  69.729  1.00  0.00    -0.136 A  
HETATM   13  C   UNL     1      -8.371   5.474  66.848  1.00  0.00    -0.108 A  
HETATM   14  C   UNL     1      -7.012  12.294  69.094  1.00  0.00    -0.041 A  
HETATM   15  C   UNL     1      -8.480   5.636  68.217  1.00  0.00    -0.105 A  
HETATM   16  C   UNL     1      -8.135  12.461  68.288  1.00  0.00    -0.166 A  
HETATM   17 BR   UNL     1      -5.813  13.733  69.347  1.00  0.00    -0.101 Br 
HETATM   18  N   UNL     1      -8.921   6.769  68.805  1.00  0.00    -0.130 NA 
HETATM   19  C   UNL     1      -9.038  11.407  68.129  1.00  0.00    -0.174 A  
ENDBRANCH   4   5
ENDBRANCH   2   4
TORSDOF 2
ENDMDL
MODEL      143
REMARK 921   NORMALIZED FREE ENERGY PREDICTED BY IDOCK:   -3.17 KCAL/MOL
REMARK 922        TOTAL FREE ENERGY PREDICTED BY IDOCK:   -3.70 KCAL/MOL
REMARK 923 INTER-LIGAND FREE ENERGY PREDICTED BY IDOCK:   -3.53 KCAL/MOL
REMARK 924 INTRA-LIGAND FREE ENERGY PREDICTED BY IDOCK:   -0.17 KCAL/MOL
REMARK 927      BINDING AFFINITY PREDICTED BY RF-SCORE:    0.00 PKD
ROOT
HETATM    1  C   UNL     1      -7.385   7.886  66.311  1.00  0.00    -0.075 C  
HETATM    2  N   UNL     1      -7.771   8.733  67.440  1.00  0.00    -0.096 NA 
HETATM    3  C   UNL     1      -8.935   9.546  67.074  1.00  0.00    -0.134 C  
ENDROOT
BRANCH   2   4
HETATM    4  C   UNL     1      -8.084   7.943  68.644  1.00  0.00    -0.126 C  
BRANCH   4   5
HETATM    5  C   UNL     1      -9.179   8.543  69.537  1.00  0.00    -0.150 C  
HETATM    6  C   UNL     1      -9.796   7.548  70.552  1.00  0.00    -0.183 C  
HETATM    7  C   UNL     1      -8.770   7.074  71.578  1.00  0.00    -0.121 A  
HETATM    8  C   UNL     1     -11.050   8.139  71.198  1.00  0.00    -0.245 A  
HETATM    9  C   UNL     1      -8.156   7.976  72.461  1.00  0.00    -0.182 A  
HETATM   10  C   UNL     1     -12.052   7.292  71.668  1.00  0.00    -0.359 A  
HETATM   11  C   UNL     1     -13.215   7.850  72.198  1.00  0.00    -0.175 A  
HETATM   12  C   UNL     1      -7.163   7.545  73.343  1.00  0.00    -0.098 A  
HETATM   13  C   UNL     1     -13.344   9.232  72.253  1.00  0.00    -0.547 A  
HETATM   14  C   UNL     1      -6.785   6.205  73.357  1.00  0.00    -0.075 A  
HETATM   15  C   UNL     1     -12.295  10.004  71.790  1.00  0.00    -0.345 A  
HETATM   16  C   UNL     1      -7.399   5.290  72.505  1.00  0.00    -0.094 A  
HETATM   17 BR   UNL     1      -5.417   5.628  74.527  1.00  0.00    -0.037 Br 
HETATM   18  N   UNL     1     -11.157   9.491  71.274  1.00  0.00    -0.361 NA 
HETATM   19  C   UNL     1      -8.386   5.724  71.618  1.00  0.00    -0.124 A  
ENDBRANCH   4   5
ENDBRANCH   2   4
TORSDOF 2
ENDMDL
MODEL      144
REMARK 921   NORMALIZED FREE ENERGY PREDICTED BY IDOCK:   -3.16 KCAL/MOL
REMARK 922        TOTAL FREE ENERGY PREDICTED BY IDOCK:   -3.69 KCAL/MOL
REMARK 923 INTER-LIGAND FREE ENERGY PREDICTED BY IDOCK:   -3.68 KCAL/MOL
REMARK 924 INTRA-LIGAND FREE ENERGY PREDICTED BY IDOCK:   -0.01 KCAL/MOL
REMARK 927      BINDING AFFINITY PREDICTED BY RF-SCORE:    0.00 PKD
ROOT
HETATM    1  C   UNL     1      -6.401  12.429  67.725  1.00  0.00    -0.109 C  
HETATM    2  N   UNL     1      -6.299  13.596  68.603  1.00  0.00    -0.084 NA 
HETATM    3  C   UNL     1      -6.126  13.156  69.992  1.00  0.00    -0.113 C  
ENDROOT
BRANCH   2   4
HETATM    4  C   UNL     1      -5.179  14.477  68.224  1.00  0.00    -0.113 C  
BRANCH   4   5
HETATM    5  C   UNL     1      -5.270  15.903  68.785  1.00  0.00    -0.104 C  
HETATM    6  C   UNL     1      -6.256  16.828  68.028  1.00  0.00    -0.144 C  
HETATM    7  C   UNL     1      -7.698  16.343  68.151  1.00  0.00    -0.161 A  
HETATM    8  C   UNL     1      -6.083  18.283  68.467  1.00  0.00    -0.196 A  
HETATM    9  C   UNL     1      -8.337  16.272  69.398  1.00  0.00    -0.027 A  
HETATM   10  C   UNL     1      -6.404  19.315  67.588  1.00  0.00    -0.222 A  
HETATM   11  C   UNL     1      -6.181  20.634  67.983  1.00  0.00    -0.342 A  
HETATM   12  C   UNL     1      -9.630  15.754  69.508  1.00  0.00    -0.262 A  
HETATM   13  C   UNL     1      -5.653  20.887  69.242  1.00  0.00    -0.391 A  
HETATM   14  C   UNL     1     -10.298  15.314  68.368  1.00  0.00    -0.227 A  
HETATM   15  C   UNL     1      -5.384  19.810  70.066  1.00  0.00    -0.211 A  
HETATM   16  C   UNL     1      -9.689  15.397  67.118  1.00  0.00    -0.219 A  
HETATM   17 BR   UNL     1     -12.033  14.580  68.522  1.00  0.00    -0.274 Br 
HETATM   18  N   UNL     1      -5.592  18.524  69.711  1.00  0.00    -0.221 NA 
HETATM   19  C   UNL     1      -8.394  15.908  67.011  1.00  0.00    -0.255 A  
ENDBRANCH   4   5
ENDBRANCH   2   4
TORSDOF 2
ENDMDL
MODEL      145
REMARK 921   NORMALIZED FREE ENERGY PREDICTED BY IDOCK:   -3.15 KCAL/MOL
REMARK 922        TOTAL FREE ENERGY PREDICTED BY IDOCK:   -3.68 KCAL/MOL
REMARK 923 INTER-LIGAND FREE ENERGY PREDICTED BY IDOCK:   -3.48 KCAL/MOL
REMARK 924 INTRA-LIGAND FREE ENERGY PREDICTED BY IDOCK:   -0.20 KCAL/MOL
REMARK 927      BINDING AFFINITY PREDICTED BY RF-SCORE:    0.00 PKD
ROOT
HETATM    1  C   UNL     1      -7.899   2.574  72.374  1.00  0.00    -0.054 C  
HETATM    2  N   UNL     1      -7.544   3.789  73.109  1.00  0.00    -0.071 NA 
HETATM    3  C   UNL     1      -6.136   4.120  72.867  1.00  0.00    -0.016 C  
ENDROOT
BRANCH   2   4
HETATM    4  C   UNL     1      -8.390   4.935  72.726  1.00  0.00    -0.112 C  
BRANCH   4   5
HETATM    5  C   UNL     1      -7.751   5.890  71.708  1.00  0.00    -0.101 C  
HETATM    6  C   UNL     1      -8.634   6.193  70.472  1.00  0.00    -0.138 C  
HETATM    7  C   UNL     1      -9.910   6.939  70.854  1.00  0.00    -0.193 A  
HETATM    8  C   UNL     1      -7.828   6.916  69.392  1.00  0.00    -0.113 A  
HETATM    9  C   UNL     1      -9.859   8.214  71.437  1.00  0.00    -0.223 A  
HETATM   10  C   UNL     1      -8.190   6.787  68.053  1.00  0.00    -0.114 A  
HETATM   11  C   UNL     1      -7.406   7.404  67.078  1.00  0.00    -0.097 A  
HETATM   12  C   UNL     1     -11.029   8.854  71.854  1.00  0.00    -0.439 A  
HETATM   13  C   UNL     1      -6.291   8.136  67.463  1.00  0.00    -0.056 A  
HETATM   14  C   UNL     1     -12.260   8.228  71.678  1.00  0.00    -0.313 A  
HETATM   15  C   UNL     1      -6.012   8.237  68.813  1.00  0.00    -0.044 A  
HETATM   16  C   UNL     1     -12.333   6.972  71.080  1.00  0.00    -0.423 A  
HETATM   17 BR   UNL     1     -13.839   9.079  72.273  1.00  0.00    -0.534 Br 
HETATM   18  N   UNL     1      -6.754   7.654  69.779  1.00  0.00    -0.039 NA 
HETATM   19  C   UNL     1     -11.162   6.330  70.671  1.00  0.00    -0.401 A  
ENDBRANCH   4   5
ENDBRANCH   2   4
TORSDOF 2
ENDMDL
MODEL      146
REMARK 921   NORMALIZED FREE ENERGY PREDICTED BY IDOCK:   -3.14 KCAL/MOL
REMARK 922        TOTAL FREE ENERGY PREDICTED BY IDOCK:   -3.67 KCAL/MOL
REMARK 923 INTER-LIGAND FREE ENERGY PREDICTED BY IDOCK:   -3.49 KCAL/MOL
REMARK 924 INTRA-LIGAND FREE ENERGY PREDICTED BY IDOCK:   -0.18 KCAL/MOL
REMARK 927      BINDING AFFINITY PREDICTED BY RF-SCORE:    0.00 PKD
ROOT
HETATM    1  C   UNL     1      -6.169  14.282  70.040  1.00  0.00    -0.157 C  
HETATM    2  N   UNL     1      -6.589  13.844  68.708  1.00  0.00    -0.091 NA 
HETATM    3  C   UNL     1      -5.409  13.534  67.895  1.00  0.00    -0.095 C  
ENDROOT
BRANCH   2   4
HETATM    4  C   UNL     1      -7.469  12.662  68.766  1.00  0.00    -0.044 C  
BRANCH   4   5
HETATM    5  C   UNL     1      -8.303  12.424  67.499  1.00  0.00    -0.173 C  
HETATM    6  C   UNL     1      -8.233  10.977  66.949  1.00  0.00    -0.140 C  
HETATM    7  C   UNL     1      -8.836   9.969  67.923  1.00  0.00    -0.125 A  
HETATM    8  C   UNL     1      -8.855  10.896  65.554  1.00  0.00    -0.188 A  
HETATM    9  C   UNL     1     -10.191  10.028  68.285  1.00  0.00    -0.200 A  
HETATM   10  C   UNL     1      -8.425   9.918  64.659  1.00  0.00    -0.178 A  
HETATM   11  C   UNL     1      -8.960   9.898  63.371  1.00  0.00    -0.278 A  
HETATM   12  C   UNL     1     -10.713   9.149  69.236  1.00  0.00    -0.199 A  
HETATM   13  C   UNL     1      -9.911  10.845  63.014  1.00  0.00    -0.358 A  
HETATM   14  C   UNL     1      -9.887   8.195  69.824  1.00  0.00    -0.187 A  
HETATM   15  C   UNL     1     -10.304  11.767  63.966  1.00  0.00    -0.356 A  
HETATM   16  C   UNL     1      -8.545   8.105  69.461  1.00  0.00    -0.134 A  
HETATM   17 BR   UNL     1     -10.586   7.028  71.136  1.00  0.00    -0.242 Br 
HETATM   18  N   UNL     1      -9.806  11.808  65.220  1.00  0.00    -0.242 NA 
HETATM   19  C   UNL     1      -8.022   8.990  68.516  1.00  0.00    -0.103 A  
ENDBRANCH   4   5
ENDBRANCH   2   4
TORSDOF 2
ENDMDL
MODEL      147
REMARK 921   NORMALIZED FREE ENERGY PREDICTED BY IDOCK:   -3.14 KCAL/MOL
REMARK 922        TOTAL FREE ENERGY PREDICTED BY IDOCK:   -3.67 KCAL/MOL
REMARK 923 INTER-LIGAND FREE ENERGY PREDICTED BY IDOCK:   -3.50 KCAL/MOL
REMARK 924 INTRA-LIGAND FREE ENERGY PREDICTED BY IDOCK:   -0.17 KCAL/MOL
REMARK 927      BINDING AFFINITY PREDICTED BY RF-SCORE:    0.00 PKD
ROOT
HETATM    1  C   UNL     1     -10.629  13.492  67.589  1.00  0.00    -0.241 C  
HETATM    2  N   UNL     1     -11.700  12.500  67.480  1.00  0.00    -0.375 NA 
HETATM    3  C   UNL     1     -12.108  12.364  66.078  1.00  0.00    -0.254 C  
ENDROOT
BRANCH   2   4
HETATM    4  C   UNL     1     -11.290  11.183  68.002  1.00  0.00    -0.312 C  
BRANCH   4   5
HETATM    5  C   UNL     1      -9.804  11.076  68.371  1.00  0.00    -0.186 C  
HETATM    6  C   UNL     1      -9.434   9.805  69.176  1.00  0.00    -0.191 C  
HETATM    7  C   UNL     1      -9.654   8.533  68.362  1.00  0.00    -0.157 A  
HETATM    8  C   UNL     1      -8.014   9.910  69.736  1.00  0.00    -0.174 A  
HETATM    9  C   UNL     1      -8.936   8.292  67.180  1.00  0.00    -0.154 A  
HETATM   10  C   UNL     1      -7.674   9.221  70.898  1.00  0.00    -0.134 A  
HETATM   11  C   UNL     1      -6.394   9.378  71.427  1.00  0.00    -0.020 A  
HETATM   12  C   UNL     1      -9.201   7.163  66.402  1.00  0.00    -0.196 A  
HETATM   13  C   UNL     1      -5.487  10.208  70.781  1.00  0.00    -0.073 A  
HETATM   14  C   UNL     1     -10.179   6.258  66.808  1.00  0.00    -0.202 A  
HETATM   15  C   UNL     1      -5.892  10.838  69.619  1.00  0.00    -0.052 A  
HETATM   16  C   UNL     1     -10.887   6.467  67.989  1.00  0.00    -0.372 A  
HETATM   17 BR   UNL     1     -10.562   4.748  65.738  1.00  0.00    -0.154 Br 
HETATM   18  N   UNL     1      -7.124  10.702  69.082  1.00  0.00    -0.084 NA 
HETATM   19  C   UNL     1     -10.626   7.601  68.762  1.00  0.00    -0.169 A  
ENDBRANCH   4   5
ENDBRANCH   2   4
TORSDOF 2
ENDMDL
MODEL      148
REMARK 921   NORMALIZED FREE ENERGY PREDICTED BY IDOCK:   -3.13 KCAL/MOL
REMARK 922        TOTAL FREE ENERGY PREDICTED BY IDOCK:   -3.66 KCAL/MOL
REMARK 923 INTER-LIGAND FREE ENERGY PREDICTED BY IDOCK:   -3.39 KCAL/MOL
REMARK 924 INTRA-LIGAND FREE ENERGY PREDICTED BY IDOCK:   -0.26 KCAL/MOL
REMARK 927      BINDING AFFINITY PREDICTED BY RF-SCORE:    0.00 PKD
ROOT
HETATM    1  C   UNL     1      -5.176   8.414  69.579  1.00  0.00    -0.030 C  
HETATM    2  N   UNL     1      -6.222   7.898  68.695  1.00  0.00    -0.039 NA 
HETATM    3  C   UNL     1      -6.028   6.459  68.488  1.00  0.00    -0.021 C  
ENDROOT
BRANCH   2   4
HETATM    4  C   UNL     1      -7.573   8.138  69.234  1.00  0.00    -0.095 C  
BRANCH   4   5
HETATM    5  C   UNL     1      -8.036   7.112  70.278  1.00  0.00    -0.118 C  
HETATM    6  C   UNL     1      -9.541   6.752  70.198  1.00  0.00    -0.165 C  
HETATM    7  C   UNL     1      -9.889   6.054  68.886  1.00  0.00    -0.173 A  
HETATM    8  C   UNL     1      -9.974   5.951  71.427  1.00  0.00    -0.185 A  
HETATM    9  C   UNL     1      -9.322   4.815  68.550  1.00  0.00    -0.181 A  
HETATM   10  C   UNL     1     -11.297   6.006  71.860  1.00  0.00    -0.335 A  
HETATM   11  C   UNL     1     -11.660   5.318  73.017  1.00  0.00    -0.290 A  
HETATM   12  C   UNL     1      -9.587   4.222  67.313  1.00  0.00    -0.224 A  
HETATM   13  C   UNL     1     -10.698   4.590  73.706  1.00  0.00    -0.348 A  
HETATM   14  C   UNL     1     -10.433   4.859  66.408  1.00  0.00    -0.280 A  
HETATM   15  C   UNL     1      -9.412   4.564  73.199  1.00  0.00    -0.120 A  
HETATM   16  C   UNL     1     -11.023   6.078  66.733  1.00  0.00    -0.305 A  
HETATM   17 BR   UNL     1     -10.764   4.074  64.721  1.00  0.00    -0.021 Br 
HETATM   18  N   UNL     1      -9.034   5.218  72.080  1.00  0.00    -0.134 NA 
HETATM   19  C   UNL     1     -10.751   6.674  67.966  1.00  0.00    -0.330 A  
ENDBRANCH   4   5
ENDBRANCH   2   4
TORSDOF 2
ENDMDL
MODEL      149
REMARK 921   NORMALIZED FREE ENERGY PREDICTED BY IDOCK:   -3.11 KCAL/MOL
REMARK 922        TOTAL FREE ENERGY PREDICTED BY IDOCK:   -3.64 KCAL/MOL
REMARK 923 INTER-LIGAND FREE ENERGY PREDICTED BY IDOCK:   -3.45 KCAL/MOL
REMARK 924 INTRA-LIGAND FREE ENERGY PREDICTED BY IDOCK:   -0.19 KCAL/MOL
REMARK 927      BINDING AFFINITY PREDICTED BY RF-SCORE:    0.00 PKD
ROOT
HETATM    1  C   UNL     1     -10.794  11.017  67.191  1.00  0.00    -0.282 C  
HETATM    2  N   UNL     1     -10.332  10.098  66.150  1.00  0.00    -0.204 NA 
HETATM    3  C   UNL     1     -10.325  10.782  64.853  1.00  0.00    -0.299 C  
ENDROOT
BRANCH   2   4
HETATM    4  C   UNL     1      -8.984   9.571  66.435  1.00  0.00    -0.154 C  
BRANCH   4   5
HETATM    5  C   UNL     1      -8.770   8.108  66.024  1.00  0.00    -0.182 C  
HETATM    6  C   UNL     1      -8.195   7.205  67.144  1.00  0.00    -0.118 C  
HETATM    7  C   UNL     1      -9.162   7.070  68.318  1.00  0.00    -0.128 A  
HETATM    8  C   UNL     1      -7.756   5.852  66.581  1.00  0.00    -0.100 A  
HETATM    9  C   UNL     1     -10.426   6.482  68.154  1.00  0.00    -0.264 A  
HETATM   10  C   UNL     1      -6.742   5.135  67.210  1.00  0.00    -0.055 A  
HETATM   11  C   UNL     1      -6.313   3.933  66.648  1.00  0.00    -0.036 A  
HETATM   12  C   UNL     1     -11.332   6.434  69.215  1.00  0.00    -0.405 A  
HETATM   13  C   UNL     1      -6.911   3.477  65.480  1.00  0.00    -0.058 A  
HETATM   14  C   UNL     1     -10.975   6.962  70.453  1.00  0.00    -0.274 A  
HETATM   15  C   UNL     1      -7.929   4.233  64.929  1.00  0.00    -0.093 A  
HETATM   16  C   UNL     1      -9.718   7.530  70.642  1.00  0.00    -0.175 A  
HETATM   17 BR   UNL     1     -12.215   6.928  71.880  1.00  0.00    -0.352 Br 
HETATM   18  N   UNL     1      -8.366   5.398  65.454  1.00  0.00    -0.133 NA 
HETATM   19  C   UNL     1      -8.815   7.584  69.578  1.00  0.00    -0.137 A  
ENDBRANCH   4   5
ENDBRANCH   2   4
TORSDOF 2
ENDMDL
MODEL      150
REMARK 921   NORMALIZED FREE ENERGY PREDICTED BY IDOCK:   -3.06 KCAL/MOL
REMARK 922        TOTAL FREE ENERGY PREDICTED BY IDOCK:   -3.58 KCAL/MOL
REMARK 923 INTER-LIGAND FREE ENERGY PREDICTED BY IDOCK:   -3.41 KCAL/MOL
REMARK 924 INTRA-LIGAND FREE ENERGY PREDICTED BY IDOCK:   -0.17 KCAL/MOL
REMARK 927      BINDING AFFINITY PREDICTED BY RF-SCORE:    0.00 PKD
ROOT
HETATM    1  C   UNL     1      -9.334   7.825  69.146  1.00  0.00    -0.151 C  
HETATM    2  N   UNL     1      -9.350   9.155  69.756  1.00  0.00    -0.172 NA 
HETATM    3  C   UNL     1      -7.995   9.520  70.181  1.00  0.00    -0.160 C  
ENDROOT
BRANCH   2   4
HETATM    4  C   UNL     1      -9.868  10.181  68.833  1.00  0.00    -0.189 C  
BRANCH   4   5
HETATM    5  C   UNL     1     -10.697  11.285  69.505  1.00  0.00    -0.147 C  
HETATM    6  C   UNL     1     -10.441  12.708  68.947  1.00  0.00    -0.109 C  
HETATM    7  C   UNL     1     -10.868  12.831  67.487  1.00  0.00    -0.263 A  
HETATM    8  C   UNL     1     -11.085  13.767  69.843  1.00  0.00     0.103 A  
HETATM    9  C   UNL     1     -12.206  12.655  67.104  1.00  0.00     0.010 A  
HETATM   10  C   UNL     1     -10.549  15.052  69.894  1.00  0.00    -0.207 A  
HETATM   11  C   UNL     1     -11.113  15.986  70.763  1.00  0.00    -0.321 A  
HETATM   12  C   UNL     1     -12.573  12.693  65.757  1.00  0.00     0.041 A  
HETATM   13  C   UNL     1     -12.197  15.618  71.548  1.00  0.00    -0.487 A  
HETATM   14  C   UNL     1     -11.604  12.920  64.783  1.00  0.00    -0.331 A  
HETATM   15  C   UNL     1     -12.687  14.332  71.422  1.00  0.00    -0.352 A  
HETATM   16  C   UNL     1     -10.274  13.120  65.145  1.00  0.00    -0.299 A  
HETATM   17 BR   UNL     1     -12.094  12.937  62.957  1.00  0.00     0.253 Br 
HETATM   18  N   UNL     1     -12.164  13.408  70.588  1.00  0.00    -0.366 NA 
HETATM   19  C   UNL     1      -9.907  13.074  66.492  1.00  0.00    -0.263 A  
ENDBRANCH   4   5
ENDBRANCH   2   4
TORSDOF 2
ENDMDL
MODEL      151
REMARK 921   NORMALIZED FREE ENERGY PREDICTED BY IDOCK:   -3.04 KCAL/MOL
REMARK 922        TOTAL FREE ENERGY PREDICTED BY IDOCK:   -3.55 KCAL/MOL
REMARK 923 INTER-LIGAND FREE ENERGY PREDICTED BY IDOCK:   -3.45 KCAL/MOL
REMARK 924 INTRA-LIGAND FREE ENERGY PREDICTED BY IDOCK:   -0.11 KCAL/MOL
REMARK 927      BINDING AFFINITY PREDICTED BY RF-SCORE:    0.00 PKD
ROOT
HETATM    1  C   UNL     1     -12.700   7.651  71.101  1.00  0.00    -0.206 C  
HETATM    2  N   UNL     1     -13.159   9.040  71.151  1.00  0.00    -0.196 NA 
HETATM    3  C   UNL     1     -13.432   9.421  72.541  1.00  0.00    -0.362 C  
ENDROOT
BRANCH   2   4
HETATM    4  C   UNL     1     -12.173   9.970  70.572  1.00  0.00    -0.222 C  
BRANCH   4   5
HETATM    5  C   UNL     1     -10.708   9.561  70.781  1.00  0.00    -0.391 C  
HETATM    6  C   UNL     1      -9.975   9.120  69.490  1.00  0.00    -0.193 C  
HETATM    7  C   UNL     1      -9.847  10.266  68.489  1.00  0.00    -0.174 A  
HETATM    8  C   UNL     1      -8.629   8.473  69.822  1.00  0.00    -0.131 A  
HETATM    9  C   UNL     1      -9.120  11.425  68.800  1.00  0.00    -0.096 A  
HETATM   10  C   UNL     1      -8.081   7.530  68.956  1.00  0.00    -0.127 A  
HETATM   11  C   UNL     1      -6.884   6.906  69.306  1.00  0.00    -0.058 A  
HETATM   12  C   UNL     1      -9.075  12.499  67.909  1.00  0.00    -0.199 A  
HETATM   13  C   UNL     1      -6.264   7.244  70.502  1.00  0.00    -0.031 A  
HETATM   14  C   UNL     1      -9.747  12.416  66.692  1.00  0.00    -0.225 A  
HETATM   15  C   UNL     1      -6.858   8.208  71.295  1.00  0.00    -0.054 A  
HETATM   16  C   UNL     1     -10.456  11.266  66.355  1.00  0.00    -0.306 A  
HETATM   17 BR   UNL     1      -9.714  13.883  65.500  1.00  0.00    -0.034 Br 
HETATM   18  N   UNL     1      -8.014   8.830  70.980  1.00  0.00    -0.131 NA 
HETATM   19  C   UNL     1     -10.507  10.195  67.251  1.00  0.00    -0.313 A  
ENDBRANCH   4   5
ENDBRANCH   2   4
TORSDOF 2
ENDMDL
MODEL      152
REMARK 921   NORMALIZED FREE ENERGY PREDICTED BY IDOCK:   -3.03 KCAL/MOL
REMARK 922        TOTAL FREE ENERGY PREDICTED BY IDOCK:   -3.54 KCAL/MOL
REMARK 923 INTER-LIGAND FREE ENERGY PREDICTED BY IDOCK:   -3.38 KCAL/MOL
REMARK 924 INTRA-LIGAND FREE ENERGY PREDICTED BY IDOCK:   -0.16 KCAL/MOL
REMARK 927      BINDING AFFINITY PREDICTED BY RF-SCORE:    0.00 PKD
ROOT
HETATM    1  C   UNL     1     -10.924  13.482  66.970  1.00  0.00    -0.288 C  
HETATM    2  N   UNL     1     -11.106  12.031  67.037  1.00  0.00    -0.280 NA 
HETATM    3  C   UNL     1     -10.838  11.438  65.723  1.00  0.00    -0.230 C  
ENDROOT
BRANCH   2   4
HETATM    4  C   UNL     1     -10.229  11.408  68.045  1.00  0.00    -0.185 C  
BRANCH   4   5
HETATM    5  C   UNL     1     -10.951  10.930  69.313  1.00  0.00    -0.295 C  
HETATM    6  C   UNL     1     -11.014   9.391  69.472  1.00  0.00    -0.193 C  
HETATM    7  C   UNL     1      -9.626   8.779  69.644  1.00  0.00    -0.171 A  
HETATM    8  C   UNL     1     -11.975   8.999  70.596  1.00  0.00    -0.099 A  
HETATM    9  C   UNL     1      -8.819   9.107  70.745  1.00  0.00    -0.291 A  
HETATM   10  C   UNL     1     -12.619   7.764  70.559  1.00  0.00     0.355 A  
HETATM   11  C   UNL     1     -13.538   7.450  71.560  1.00  0.00    -0.454 A  
HETATM   12  C   UNL     1      -7.521   8.603  70.852  1.00  0.00    -0.083 A  
HETATM   13  C   UNL     1     -13.784   8.370  72.571  1.00  0.00    -0.194 A  
HETATM   14  C   UNL     1      -7.024   7.756  69.865  1.00  0.00    -0.050 A  
HETATM   15  C   UNL     1     -13.087   9.564  72.551  1.00  0.00    -0.246 A  
HETATM   16  C   UNL     1      -7.817   7.401  68.776  1.00  0.00    -0.121 A  
HETATM   17 BR   UNL     1      -5.255   7.101  69.992  1.00  0.00    -0.019 Br 
HETATM   18  N   UNL     1     -12.190   9.893  71.597  1.00  0.00    -0.401 NA 
HETATM   19  C   UNL     1      -9.112   7.912  68.666  1.00  0.00    -0.136 A  
ENDBRANCH   4   5
ENDBRANCH   2   4
TORSDOF 2
ENDMDL
MODEL      153
REMARK 921   NORMALIZED FREE ENERGY PREDICTED BY IDOCK:   -2.97 KCAL/MOL
REMARK 922        TOTAL FREE ENERGY PREDICTED BY IDOCK:   -3.47 KCAL/MOL
REMARK 923 INTER-LIGAND FREE ENERGY PREDICTED BY IDOCK:   -3.30 KCAL/MOL
REMARK 924 INTRA-LIGAND FREE ENERGY PREDICTED BY IDOCK:   -0.18 KCAL/MOL
REMARK 927      BINDING AFFINITY PREDICTED BY RF-SCORE:    0.00 PKD
ROOT
HETATM    1  C   UNL     1      -5.689   7.696  70.852  1.00  0.00    -0.030 C  
HETATM    2  N   UNL     1      -6.959   8.337  70.512  1.00  0.00    -0.037 NA 
HETATM    3  C   UNL     1      -6.708   9.530  69.696  1.00  0.00    -0.054 C  
ENDROOT
BRANCH   2   4
HETATM    4  C   UNL     1      -7.863   7.427  69.785  1.00  0.00    -0.116 C  
BRANCH   4   5
HETATM    5  C   UNL     1      -8.047   6.051  70.440  1.00  0.00    -0.111 C  
HETATM    6  C   UNL     1      -8.660   6.095  71.862  1.00  0.00    -0.132 C  
HETATM    7  C   UNL     1     -10.086   6.638  71.850  1.00  0.00    -0.196 A  
HETATM    8  C   UNL     1      -8.552   4.730  72.543  1.00  0.00    -0.116 A  
HETATM    9  C   UNL     1     -11.111   5.970  71.162  1.00  0.00    -0.336 A  
HETATM   10  C   UNL     1      -8.493   4.650  73.933  1.00  0.00    -0.104 A  
HETATM   11  C   UNL     1      -8.333   3.402  74.533  1.00  0.00    -0.080 A  
HETATM   12  C   UNL     1     -12.395   6.516  71.092  1.00  0.00    -0.196 A  
HETATM   13  C   UNL     1      -8.245   2.269  73.734  1.00  0.00    -0.058 A  
HETATM   14  C   UNL     1     -12.667   7.728  71.721  1.00  0.00    -0.329 A  
HETATM   15  C   UNL     1      -8.338   2.428  72.364  1.00  0.00    -0.058 A  
HETATM   16  C   UNL     1     -11.669   8.394  72.428  1.00  0.00    -0.452 A  
HETATM   17 BR   UNL     1     -14.395   8.483  71.597  1.00  0.00    -0.460 Br 
HETATM   18  N   UNL     1      -8.495   3.623  71.756  1.00  0.00    -0.083 NA 
HETATM   19  C   UNL     1     -10.383   7.852  72.490  1.00  0.00    -0.349 A  
ENDBRANCH   4   5
ENDBRANCH   2   4
TORSDOF 2
ENDMDL
MODEL      154
REMARK 921   NORMALIZED FREE ENERGY PREDICTED BY IDOCK:   -2.92 KCAL/MOL
REMARK 922        TOTAL FREE ENERGY PREDICTED BY IDOCK:   -3.42 KCAL/MOL
REMARK 923 INTER-LIGAND FREE ENERGY PREDICTED BY IDOCK:   -3.20 KCAL/MOL
REMARK 924 INTRA-LIGAND FREE ENERGY PREDICTED BY IDOCK:   -0.22 KCAL/MOL
REMARK 927      BINDING AFFINITY PREDICTED BY RF-SCORE:    0.00 PKD
ROOT
HETATM    1  C   UNL     1     -10.411   5.106  71.498  1.00  0.00    -0.208 C  
HETATM    2  N   UNL     1     -10.628   5.254  70.059  1.00  0.00    -0.286 NA 
HETATM    3  C   UNL     1     -11.499   6.406  69.805  1.00  0.00    -0.399 C  
ENDROOT
BRANCH   2   4
HETATM    4  C   UNL     1      -9.362   5.425  69.322  1.00  0.00    -0.120 C  
BRANCH   4   5
HETATM    5  C   UNL     1      -9.197   4.497  68.111  1.00  0.00    -0.170 C  
HETATM    6  C   UNL     1      -9.721   5.084  66.777  1.00  0.00    -0.188 C  
HETATM    7  C   UNL     1      -8.928   6.316  66.347  1.00  0.00    -0.159 A  
HETATM    8  C   UNL     1      -9.775   4.007  65.692  1.00  0.00    -0.192 A  
HETATM    9  C   UNL     1      -7.558   6.232  66.056  1.00  0.00    -0.087 A  
HETATM   10  C   UNL     1     -10.693   4.117  64.650  1.00  0.00    -0.155 A  
HETATM   11  C   UNL     1     -10.769   3.095  63.704  1.00  0.00    -0.234 A  
HETATM   12  C   UNL     1      -6.825   7.379  65.740  1.00  0.00    -0.056 A  
HETATM   13  C   UNL     1      -9.924   1.999  63.818  1.00  0.00    -0.130 A  
HETATM   14  C   UNL     1      -7.462   8.617  65.700  1.00  0.00    -0.085 A  
HETATM   15  C   UNL     1      -9.023   1.975  64.866  1.00  0.00    -0.122 A  
HETATM   16  C   UNL     1      -8.826   8.717  65.963  1.00  0.00    -0.210 A  
HETATM   17 BR   UNL     1      -6.464  10.173  65.305  1.00  0.00    -0.123 Br 
HETATM   18  N   UNL     1      -8.926   2.951  65.794  1.00  0.00    -0.141 NA 
HETATM   19  C   UNL     1      -9.556   7.571  66.287  1.00  0.00    -0.134 A  
ENDBRANCH   4   5
ENDBRANCH   2   4
TORSDOF 2
ENDMDL
MODEL      155
REMARK 921   NORMALIZED FREE ENERGY PREDICTED BY IDOCK:   -2.90 KCAL/MOL
REMARK 922        TOTAL FREE ENERGY PREDICTED BY IDOCK:   -3.40 KCAL/MOL
REMARK 923 INTER-LIGAND FREE ENERGY PREDICTED BY IDOCK:   -3.00 KCAL/MOL
REMARK 924 INTRA-LIGAND FREE ENERGY PREDICTED BY IDOCK:   -0.40 KCAL/MOL
REMARK 927      BINDING AFFINITY PREDICTED BY RF-SCORE:    0.00 PKD
ROOT
HETATM    1  C   UNL     1      -8.669   6.786  72.856  1.00  0.00    -0.120 C  
HETATM    2  N   UNL     1      -7.270   7.105  72.567  1.00  0.00    -0.071 NA 
HETATM    3  C   UNL     1      -6.643   5.984  71.859  1.00  0.00    -0.059 C  
ENDROOT
BRANCH   2   4
HETATM    4  C   UNL     1      -7.137   8.332  71.760  1.00  0.00    -0.085 C  
BRANCH   4   5
HETATM    5  C   UNL     1      -8.464   8.903  71.243  1.00  0.00    -0.239 C  
HETATM    6  C   UNL     1      -8.515   9.118  69.709  1.00  0.00    -0.140 C  
HETATM    7  C   UNL     1      -8.415   7.800  68.946  1.00  0.00    -0.129 A  
HETATM    8  C   UNL     1      -9.745   9.938  69.315  1.00  0.00    -0.208 A  
HETATM    9  C   UNL     1      -9.394   6.804  69.086  1.00  0.00    -0.135 A  
HETATM   10  C   UNL     1      -9.719  10.718  68.161  1.00  0.00    -0.169 A  
HETATM   11  C   UNL     1     -10.827  11.505  67.851  1.00  0.00    -0.257 A  
HETATM   12  C   UNL     1      -9.253   5.571  68.445  1.00  0.00    -0.124 A  
HETATM   13  C   UNL     1     -11.932  11.488  68.694  1.00  0.00    -0.312 A  
HETATM   14  C   UNL     1      -8.137   5.331  67.647  1.00  0.00    -0.100 A  
HETATM   15  C   UNL     1     -11.891  10.669  69.807  1.00  0.00    -0.304 A  
HETATM   16  C   UNL     1      -7.166   6.315  67.477  1.00  0.00    -0.079 A  
HETATM   17 BR   UNL     1      -7.930   3.651  66.806  1.00  0.00    -0.092 Br 
HETATM   18  N   UNL     1     -10.833   9.894  70.129  1.00  0.00    -0.281 NA 
HETATM   19  C   UNL     1      -7.304   7.544  68.126  1.00  0.00    -0.096 A  
ENDBRANCH   4   5
ENDBRANCH   2   4
TORSDOF 2
ENDMDL
MODEL      156
REMARK 921   NORMALIZED FREE ENERGY PREDICTED BY IDOCK:   -2.89 KCAL/MOL
REMARK 922        TOTAL FREE ENERGY PREDICTED BY IDOCK:   -3.38 KCAL/MOL
REMARK 923 INTER-LIGAND FREE ENERGY PREDICTED BY IDOCK:   -3.21 KCAL/MOL
REMARK 924 INTRA-LIGAND FREE ENERGY PREDICTED BY IDOCK:   -0.17 KCAL/MOL
REMARK 927      BINDING AFFINITY PREDICTED BY RF-SCORE:    0.00 PKD
ROOT
HETATM    1  C   UNL     1     -12.035  14.226  64.535  1.00  0.00    -0.462 C  
HETATM    2  N   UNL     1     -12.576  12.910  64.880  1.00  0.00    -0.635 NA 
HETATM    3  C   UNL     1     -12.673  12.083  63.674  1.00  0.00    -0.431 C  
ENDROOT
BRANCH   2   4
HETATM    4  C   UNL     1     -11.748  12.218  65.885  1.00  0.00    -0.389 C  
BRANCH   4   5
HETATM    5  C   UNL     1     -10.418  12.913  66.206  1.00  0.00    -0.282 C  
HETATM    6  C   UNL     1      -9.697  12.368  67.464  1.00  0.00    -0.191 C  
HETATM    7  C   UNL     1      -9.264  10.915  67.287  1.00  0.00    -0.160 A  
HETATM    8  C   UNL     1      -8.541  13.284  67.869  1.00  0.00    -0.188 A  
HETATM    9  C   UNL     1      -8.340  10.548  66.297  1.00  0.00    -0.152 A  
HETATM   10  C   UNL     1      -8.134  13.342  69.200  1.00  0.00     0.414 A  
HETATM   11  C   UNL     1      -7.120  14.228  69.560  1.00  0.00    -0.045 A  
HETATM   12  C   UNL     1      -8.010   9.206  66.093  1.00  0.00    -0.103 A  
HETATM   13  C   UNL     1      -6.534  15.024  68.585  1.00  0.00    -0.087 A  
HETATM   14  C   UNL     1      -8.593   8.222  66.886  1.00  0.00    -0.119 A  
HETATM   15  C   UNL     1      -6.975  14.891  67.281  1.00  0.00    -0.017 A  
HETATM   16  C   UNL     1      -9.496   8.568  67.889  1.00  0.00    -0.157 A  
HETATM   17 BR   UNL     1      -8.173   6.403  66.586  1.00  0.00    -0.113 Br 
HETATM   18  N   UNL     1      -7.953  14.039  66.904  1.00  0.00     0.070 NA 
HETATM   19  C   UNL     1      -9.831   9.909  68.087  1.00  0.00    -0.167 A  
ENDBRANCH   4   5
ENDBRANCH   2   4
TORSDOF 2
ENDMDL
MODEL      157
REMARK 921   NORMALIZED FREE ENERGY PREDICTED BY IDOCK:   -2.88 KCAL/MOL
REMARK 922        TOTAL FREE ENERGY PREDICTED BY IDOCK:   -3.38 KCAL/MOL
REMARK 923 INTER-LIGAND FREE ENERGY PREDICTED BY IDOCK:   -3.11 KCAL/MOL
REMARK 924 INTRA-LIGAND FREE ENERGY PREDICTED BY IDOCK:   -0.26 KCAL/MOL
REMARK 927      BINDING AFFINITY PREDICTED BY RF-SCORE:    0.00 PKD
ROOT
HETATM    1  C   UNL     1      -9.199   4.077  72.270  1.00  0.00    -0.121 C  
HETATM    2  N   UNL     1      -9.535   5.274  71.498  1.00  0.00    -0.147 NA 
HETATM    3  C   UNL     1      -8.311   6.019  71.183  1.00  0.00    -0.124 C  
ENDROOT
BRANCH   2   4
HETATM    4  C   UNL     1     -10.244   4.946  70.247  1.00  0.00    -0.229 C  
BRANCH   4   5
HETATM    5  C   UNL     1      -9.378   4.260  69.182  1.00  0.00    -0.229 C  
HETATM    6  C   UNL     1      -9.778   4.587  67.722  1.00  0.00    -0.199 C  
HETATM    7  C   UNL     1      -9.577   6.065  67.395  1.00  0.00    -0.118 A  
HETATM    8  C   UNL     1      -9.059   3.661  66.740  1.00  0.00    -0.164 A  
HETATM    9  C   UNL     1      -8.302   6.651  67.437  1.00  0.00    -0.121 A  
HETATM   10  C   UNL     1      -9.640   3.370  65.508  1.00  0.00    -0.087 A  
HETATM   11  C   UNL     1      -8.999   2.475  64.651  1.00  0.00    -0.119 A  
HETATM   12  C   UNL     1      -8.140   8.020  67.212  1.00  0.00    -0.121 A  
HETATM   13  C   UNL     1      -7.795   1.904  65.042  1.00  0.00    -0.073 A  
HETATM   14  C   UNL     1      -9.251   8.811  66.931  1.00  0.00    -0.156 A  
HETATM   15  C   UNL     1      -7.270   2.262  66.269  1.00  0.00    -0.061 A  
HETATM   16  C   UNL     1     -10.521   8.244  66.863  1.00  0.00    -0.365 A  
HETATM   17 BR   UNL     1      -9.035  10.669  66.661  1.00  0.00    -0.169 Br 
HETATM   18  N   UNL     1      -7.867   3.127  67.117  1.00  0.00    -0.078 NA 
HETATM   19  C   UNL     1     -10.683   6.876  67.095  1.00  0.00    -0.436 A  
ENDBRANCH   4   5
ENDBRANCH   2   4
TORSDOF 2
ENDMDL
MODEL      158
REMARK 921   NORMALIZED FREE ENERGY PREDICTED BY IDOCK:   -2.86 KCAL/MOL
REMARK 922        TOTAL FREE ENERGY PREDICTED BY IDOCK:   -3.35 KCAL/MOL
REMARK 923 INTER-LIGAND FREE ENERGY PREDICTED BY IDOCK:   -3.19 KCAL/MOL
REMARK 924 INTRA-LIGAND FREE ENERGY PREDICTED BY IDOCK:   -0.16 KCAL/MOL
REMARK 927      BINDING AFFINITY PREDICTED BY RF-SCORE:    0.00 PKD
ROOT
HETATM    1  C   UNL     1     -10.784   9.218  70.731  1.00  0.00    -0.284 C  
HETATM    2  N   UNL     1     -11.693   9.834  69.764  1.00  0.00    -0.037 NA 
HETATM    3  C   UNL     1     -12.635  10.715  70.461  1.00  0.00    -0.348 C  
ENDROOT
BRANCH   2   4
HETATM    4  C   UNL     1     -10.970  10.604  68.736  1.00  0.00    -0.246 C  
BRANCH   4   5
HETATM    5  C   UNL     1     -10.136   9.753  67.768  1.00  0.00    -0.223 C  
HETATM    6  C   UNL     1      -9.498  10.549  66.602  1.00  0.00    -0.199 C  
HETATM    7  C   UNL     1      -8.473  11.564  67.100  1.00  0.00    -0.158 A  
HETATM    8  C   UNL     1      -8.926   9.601  65.546  1.00  0.00    -0.183 A  
HETATM    9  C   UNL     1      -7.315  11.154  67.779  1.00  0.00    -0.093 A  
HETATM   10  C   UNL     1      -8.833  10.015  64.219  1.00  0.00    -0.245 A  
HETATM   11  C   UNL     1      -8.367   9.116  63.260  1.00  0.00    -0.193 A  
HETATM   12  C   UNL     1      -6.423  12.095  68.299  1.00  0.00    -0.055 A  
HETATM   13  C   UNL     1      -7.999   7.835  63.650  1.00  0.00    -0.103 A  
HETATM   14  C   UNL     1      -6.676  13.454  68.131  1.00  0.00    -0.117 A  
HETATM   15  C   UNL     1      -8.097   7.508  64.990  1.00  0.00    -0.127 A  
HETATM   16  C   UNL     1      -7.808  13.881  67.440  1.00  0.00    -0.177 A  
HETATM   17 BR   UNL     1      -5.487  14.728  68.864  1.00  0.00    -0.090 Br 
HETATM   18  N   UNL     1      -8.542   8.358  65.940  1.00  0.00    -0.150 NA 
HETATM   19  C   UNL     1      -8.703  12.939  66.928  1.00  0.00    -0.164 A  
ENDBRANCH   4   5
ENDBRANCH   2   4
TORSDOF 2
ENDMDL
MODEL      159
REMARK 921   NORMALIZED FREE ENERGY PREDICTED BY IDOCK:   -2.85 KCAL/MOL
REMARK 922        TOTAL FREE ENERGY PREDICTED BY IDOCK:   -3.34 KCAL/MOL
REMARK 923 INTER-LIGAND FREE ENERGY PREDICTED BY IDOCK:   -3.16 KCAL/MOL
REMARK 924 INTRA-LIGAND FREE ENERGY PREDICTED BY IDOCK:   -0.18 KCAL/MOL
REMARK 927      BINDING AFFINITY PREDICTED BY RF-SCORE:    0.00 PKD
ROOT
HETATM    1  C   UNL     1      -8.408   6.530  69.026  1.00  0.00    -0.116 C  
HETATM    2  N   UNL     1      -8.369   7.855  69.646  1.00  0.00    -0.129 NA 
HETATM    3  C   UNL     1      -6.996   8.169  70.055  1.00  0.00    -0.040 C  
ENDROOT
BRANCH   2   4
HETATM    4  C   UNL     1      -8.862   8.906  68.737  1.00  0.00    -0.137 C  
BRANCH   4   5
HETATM    5  C   UNL     1      -8.294  10.306  69.010  1.00  0.00    -0.148 C  
HETATM    6  C   UNL     1      -7.735  11.026  67.758  1.00  0.00    -0.108 C  
HETATM    7  C   UNL     1      -8.828  11.319  66.734  1.00  0.00    -0.170 A  
HETATM    8  C   UNL     1      -6.948  12.276  68.155  1.00  0.00    -0.087 A  
HETATM    9  C   UNL     1      -9.905  12.165  67.043  1.00  0.00    -0.212 A  
HETATM   10  C   UNL     1      -5.923  12.741  67.334  1.00  0.00    -0.110 A  
HETATM   11  C   UNL     1      -5.176  13.845  67.743  1.00  0.00    -0.013 A  
HETATM   12  C   UNL     1     -10.940  12.364  66.127  1.00  0.00    -0.321 A  
HETATM   13  C   UNL     1      -5.476  14.460  68.952  1.00  0.00    -0.087 A  
HETATM   14  C   UNL     1     -10.900  11.727  64.889  1.00  0.00    -0.298 A  
HETATM   15  C   UNL     1      -6.524  13.954  69.699  1.00  0.00    -0.108 A  
HETATM   16  C   UNL     1      -9.829  10.902  64.555  1.00  0.00    -0.356 A  
HETATM   17 BR   UNL     1     -12.318  11.969  63.662  1.00  0.00    -0.602 Br 
HETATM   18  N   UNL     1      -7.265  12.889  69.326  1.00  0.00     0.087 NA 
HETATM   19  C   UNL     1      -8.798  10.697  65.475  1.00  0.00    -0.202 A  
ENDBRANCH   4   5
ENDBRANCH   2   4
TORSDOF 2
ENDMDL
MODEL      160
REMARK 921   NORMALIZED FREE ENERGY PREDICTED BY IDOCK:   -2.83 KCAL/MOL
REMARK 922        TOTAL FREE ENERGY PREDICTED BY IDOCK:   -3.32 KCAL/MOL
REMARK 923 INTER-LIGAND FREE ENERGY PREDICTED BY IDOCK:   -3.29 KCAL/MOL
REMARK 924 INTRA-LIGAND FREE ENERGY PREDICTED BY IDOCK:   -0.03 KCAL/MOL
REMARK 927      BINDING AFFINITY PREDICTED BY RF-SCORE:    0.00 PKD
ROOT
HETATM    1  C   UNL     1     -10.042  11.872  68.198  1.00  0.00    -0.198 C  
HETATM    2  N   UNL     1      -9.305  10.676  67.787  1.00  0.00    -0.146 NA 
HETATM    3  C   UNL     1      -9.189  10.645  66.326  1.00  0.00    -0.170 C  
ENDROOT
BRANCH   2   4
HETATM    4  C   UNL     1      -7.960  10.620  68.388  1.00  0.00    -0.120 C  
BRANCH   4   5
HETATM    5  C   UNL     1      -7.903   9.946  69.766  1.00  0.00    -0.169 C  
HETATM    6  C   UNL     1      -9.000   8.878  70.003  1.00  0.00    -0.172 C  
HETATM    7  C   UNL     1      -8.849   7.688  69.059  1.00  0.00    -0.135 A  
HETATM    8  C   UNL     1      -9.046   8.462  71.475  1.00  0.00    -0.195 A  
HETATM    9  C   UNL     1      -7.705   6.876  69.091  1.00  0.00    -0.106 A  
HETATM   10  C   UNL     1     -10.236   7.995  72.027  1.00  0.00    -0.288 A  
HETATM   11  C   UNL     1     -10.274   7.679  73.385  1.00  0.00    -0.375 A  
HETATM   12  C   UNL     1      -7.542   5.838  68.170  1.00  0.00    -0.085 A  
HETATM   13  C   UNL     1      -9.126   7.830  74.151  1.00  0.00    -0.131 A  
HETATM   14  C   UNL     1      -8.530   5.597  67.218  1.00  0.00    -0.106 A  
HETATM   15  C   UNL     1      -7.977   8.276  73.524  1.00  0.00    -0.162 A  
HETATM   16  C   UNL     1      -9.683   6.378  67.185  1.00  0.00    -0.170 A  
HETATM   17 BR   UNL     1      -8.294   4.215  65.951  1.00  0.00    -0.109 Br 
HETATM   18  N   UNL     1      -7.911   8.586  72.212  1.00  0.00    -0.282 NA 
HETATM   19  C   UNL     1      -9.841   7.421  68.101  1.00  0.00    -0.174 A  
ENDBRANCH   4   5
ENDBRANCH   2   4
TORSDOF 2
ENDMDL
MODEL      161
REMARK 921   NORMALIZED FREE ENERGY PREDICTED BY IDOCK:   -2.80 KCAL/MOL
REMARK 922        TOTAL FREE ENERGY PREDICTED BY IDOCK:   -3.28 KCAL/MOL
REMARK 923 INTER-LIGAND FREE ENERGY PREDICTED BY IDOCK:   -3.13 KCAL/MOL
REMARK 924 INTRA-LIGAND FREE ENERGY PREDICTED BY IDOCK:   -0.15 KCAL/MOL
REMARK 927      BINDING AFFINITY PREDICTED BY RF-SCORE:    0.00 PKD
ROOT
HETATM    1  C   UNL     1     -12.519  11.514  69.780  1.00  0.00    -0.057 C  
HETATM    2  N   UNL     1     -11.171  11.127  70.201  1.00  0.00    -0.206 NA 
HETATM    3  C   UNL     1     -11.239   9.922  71.033  1.00  0.00    -0.364 C  
ENDROOT
BRANCH   2   4
HETATM    4  C   UNL     1     -10.282  10.881  69.051  1.00  0.00    -0.203 C  
BRANCH   4   5
HETATM    5  C   UNL     1      -9.857  12.143  68.289  1.00  0.00    -0.212 C  
HETATM    6  C   UNL     1      -8.325  12.369  68.227  1.00  0.00    -0.169 C  
HETATM    7  C   UNL     1      -7.619  11.268  67.441  1.00  0.00    -0.120 A  
HETATM    8  C   UNL     1      -8.003  13.770  67.702  1.00  0.00    -0.174 A  
HETATM    9  C   UNL     1      -7.890  11.058  66.080  1.00  0.00    -0.117 A  
HETATM   10  C   UNL     1      -6.816  14.395  68.077  1.00  0.00    -0.150 A  
HETATM   11  C   UNL     1      -6.568  15.696  67.639  1.00  0.00    -0.198 A  
HETATM   12  C   UNL     1      -7.296   9.999  65.390  1.00  0.00    -0.139 A  
HETATM   13  C   UNL     1      -7.504  16.332  66.834  1.00  0.00    -0.271 A  
HETATM   14  C   UNL     1      -6.416   9.148  66.055  1.00  0.00    -0.068 A  
HETATM   15  C   UNL     1      -8.646  15.636  66.484  1.00  0.00    -0.300 A  
HETATM   16  C   UNL     1      -6.117   9.354  67.399  1.00  0.00    -0.050 A  
HETATM   17 BR   UNL     1      -5.639   7.694  65.130  1.00  0.00    -0.033 Br 
HETATM   18  N   UNL     1      -8.911  14.376  66.892  1.00  0.00    -0.234 NA 
HETATM   19  C   UNL     1      -6.717  10.409  68.090  1.00  0.00    -0.061 A  
ENDBRANCH   4   5
ENDBRANCH   2   4
TORSDOF 2
ENDMDL
MODEL      162
REMARK 921   NORMALIZED FREE ENERGY PREDICTED BY IDOCK:   -2.77 KCAL/MOL
REMARK 922        TOTAL FREE ENERGY PREDICTED BY IDOCK:   -3.25 KCAL/MOL
REMARK 923 INTER-LIGAND FREE ENERGY PREDICTED BY IDOCK:   -3.03 KCAL/MOL
REMARK 924 INTRA-LIGAND FREE ENERGY PREDICTED BY IDOCK:   -0.22 KCAL/MOL
REMARK 927      BINDING AFFINITY PREDICTED BY RF-SCORE:    0.00 PKD
ROOT
HETATM    1  C   UNL     1      -8.164  16.255  68.866  1.00  0.00    -0.231 C  
HETATM    2  N   UNL     1      -8.160  14.977  68.153  1.00  0.00    -0.127 NA 
HETATM    3  C   UNL     1      -6.945  14.869  67.338  1.00  0.00    -0.130 C  
ENDROOT
BRANCH   2   4
HETATM    4  C   UNL     1      -8.236  13.828  69.074  1.00  0.00     0.199 C  
BRANCH   4   5
HETATM    5  C   UNL     1      -8.159  12.456  68.392  1.00  0.00    -0.143 C  
HETATM    6  C   UNL     1      -9.535  11.826  68.060  1.00  0.00    -0.188 C  
HETATM    7  C   UNL     1     -10.305  12.651  67.033  1.00  0.00    -0.241 A  
HETATM    8  C   UNL     1      -9.377  10.362  67.644  1.00  0.00    -0.148 A  
HETATM    9  C   UNL     1      -9.806  12.846  65.735  1.00  0.00    -0.216 A  
HETATM   10  C   UNL     1     -10.423   9.466  67.850  1.00  0.00    -0.296 A  
HETATM   11  C   UNL     1     -10.239   8.123  67.522  1.00  0.00    -0.309 A  
HETATM   12  C   UNL     1     -10.480  13.666  64.828  1.00  0.00    -0.436 A  
HETATM   13  C   UNL     1      -9.023   7.713  66.991  1.00  0.00    -0.148 A  
HETATM   14  C   UNL     1     -11.666  14.289  65.208  1.00  0.00    -0.357 A  
HETATM   15  C   UNL     1      -8.042   8.667  66.794  1.00  0.00    -0.101 A  
HETATM   16  C   UNL     1     -12.190  14.090  66.484  1.00  0.00    -0.485 A  
HETATM   17 BR   UNL     1     -12.560  15.426  63.992  1.00  0.00     0.812 Br 
HETATM   18  N   UNL     1      -8.194   9.974  67.100  1.00  0.00    -0.117 NA 
HETATM   19  C   UNL     1     -11.510  13.275  67.392  1.00  0.00    -0.371 A  
ENDBRANCH   4   5
ENDBRANCH   2   4
TORSDOF 2
ENDMDL
MODEL      163
REMARK 921   NORMALIZED FREE ENERGY PREDICTED BY IDOCK:   -2.74 KCAL/MOL
REMARK 922        TOTAL FREE ENERGY PREDICTED BY IDOCK:   -3.22 KCAL/MOL
REMARK 923 INTER-LIGAND FREE ENERGY PREDICTED BY IDOCK:   -3.26 KCAL/MOL
REMARK 924 INTRA-LIGAND FREE ENERGY PREDICTED BY IDOCK:    0.04 KCAL/MOL
REMARK 927      BINDING AFFINITY PREDICTED BY RF-SCORE:    0.00 PKD
ROOT
HETATM    1  C   UNL     1      -6.971   9.998  65.055  1.00  0.00    -0.135 C  
HETATM    2  N   UNL     1      -7.258   9.694  66.458  1.00  0.00    -0.089 NA 
HETATM    3  C   UNL     1      -6.536   8.482  66.859  1.00  0.00    -0.058 C  
ENDROOT
BRANCH   2   4
HETATM    4  C   UNL     1      -6.888  10.805  67.353  1.00  0.00    -0.078 C  
BRANCH   4   5
HETATM    5  C   UNL     1      -7.585  12.137  67.042  1.00  0.00    -0.093 C  
HETATM    6  C   UNL     1      -9.067  11.999  66.613  1.00  0.00    -0.205 C  
HETATM    7  C   UNL     1      -9.935  11.439  67.737  1.00  0.00    -0.192 A  
HETATM    8  C   UNL     1      -9.598  13.323  66.060  1.00  0.00    -0.160 A  
HETATM    9  C   UNL     1     -10.093  12.133  68.947  1.00  0.00    -0.012 A  
HETATM   10  C   UNL     1     -10.635  13.320  65.129  1.00  0.00    -0.342 A  
HETATM   11  C   UNL     1     -11.065  14.532  64.591  1.00  0.00    -0.356 A  
HETATM   12  C   UNL     1     -10.825  11.575  69.998  1.00  0.00     0.325 A  
HETATM   13  C   UNL     1     -10.456  15.712  64.999  1.00  0.00    -0.364 A  
HETATM   14  C   UNL     1     -11.416  10.324  69.841  1.00  0.00    -0.273 A  
HETATM   15  C   UNL     1      -9.451  15.635  65.944  1.00  0.00    -0.341 A  
HETATM   16  C   UNL     1     -11.289   9.630  68.640  1.00  0.00     0.099 A  
HETATM   17 BR   UNL     1     -12.377   9.554  71.274  1.00  0.00    -0.451 Br 
HETATM   18  N   UNL     1      -9.017  14.475  66.485  1.00  0.00    -0.222 NA 
HETATM   19  C   UNL     1     -10.550  10.185  67.593  1.00  0.00    -0.316 A  
ENDBRANCH   4   5
ENDBRANCH   2   4
TORSDOF 2
ENDMDL
MODEL      164
REMARK 921   NORMALIZED FREE ENERGY PREDICTED BY IDOCK:   -2.74 KCAL/MOL
REMARK 922        TOTAL FREE ENERGY PREDICTED BY IDOCK:   -3.22 KCAL/MOL
REMARK 923 INTER-LIGAND FREE ENERGY PREDICTED BY IDOCK:   -3.15 KCAL/MOL
REMARK 924 INTRA-LIGAND FREE ENERGY PREDICTED BY IDOCK:   -0.06 KCAL/MOL
REMARK 927      BINDING AFFINITY PREDICTED BY RF-SCORE:    0.00 PKD
ROOT
HETATM    1  C   UNL     1     -10.669   5.719  66.597  1.00  0.00    -0.262 C  
HETATM    2  N   UNL     1     -10.297   6.570  67.728  1.00  0.00    -0.168 NA 
HETATM    3  C   UNL     1     -10.330   7.978  67.320  1.00  0.00    -0.301 C  
ENDROOT
BRANCH   2   4
HETATM    4  C   UNL     1     -11.188   6.373  68.886  1.00  0.00    -0.307 C  
BRANCH   4   5
HETATM    5  C   UNL     1     -10.463   6.101  70.212  1.00  0.00    -0.288 C  
HETATM    6  C   UNL     1     -10.108   4.612  70.453  1.00  0.00    -0.275 C  
HETATM    7  C   UNL     1      -9.104   4.093  69.428  1.00  0.00    -0.189 A  
HETATM    8  C   UNL     1      -9.647   4.391  71.895  1.00  0.00    -0.151 A  
HETATM    9  C   UNL     1      -7.815   4.641  69.331  1.00  0.00    -0.062 A  
HETATM   10  C   UNL     1      -9.821   3.146  72.496  1.00  0.00    -0.218 A  
HETATM   11  C   UNL     1      -9.451   2.980  73.830  1.00  0.00    -0.112 A  
HETATM   12  C   UNL     1      -6.932   4.212  68.337  1.00  0.00    -0.051 A  
HETATM   13  C   UNL     1      -8.912   4.055  74.525  1.00  0.00    -0.107 A  
HETATM   14  C   UNL     1      -7.327   3.223  67.440  1.00  0.00    -0.059 A  
HETATM   15  C   UNL     1      -8.748   5.251  73.852  1.00  0.00    -0.118 A  
HETATM   16  C   UNL     1      -8.594   2.652  67.534  1.00  0.00    -0.121 A  
HETATM   17 BR   UNL     1      -6.144   2.668  66.074  1.00  0.00    -0.024 Br 
HETATM   18  N   UNL     1      -9.094   5.439  72.561  1.00  0.00    -0.136 NA 
HETATM   19  C   UNL     1      -9.479   3.087  68.523  1.00  0.00    -0.204 A  
ENDBRANCH   4   5
ENDBRANCH   2   4
TORSDOF 2
ENDMDL
MODEL      165
REMARK 921   NORMALIZED FREE ENERGY PREDICTED BY IDOCK:   -2.71 KCAL/MOL
REMARK 922        TOTAL FREE ENERGY PREDICTED BY IDOCK:   -3.18 KCAL/MOL
REMARK 923 INTER-LIGAND FREE ENERGY PREDICTED BY IDOCK:   -2.99 KCAL/MOL
REMARK 924 INTRA-LIGAND FREE ENERGY PREDICTED BY IDOCK:   -0.19 KCAL/MOL
REMARK 927      BINDING AFFINITY PREDICTED BY RF-SCORE:    0.00 PKD
ROOT
HETATM    1  C   UNL     1      -8.811   2.174  64.553  1.00  0.00    -0.109 C  
HETATM    2  N   UNL     1      -9.075   3.592  64.304  1.00  0.00    -0.120 NA 
HETATM    3  C   UNL     1     -10.511   3.858  64.432  1.00  0.00    -0.224 C  
ENDROOT
BRANCH   2   4
HETATM    4  C   UNL     1      -8.329   4.465  65.229  1.00  0.00    -0.112 C  
BRANCH   4   5
HETATM    5  C   UNL     1      -8.821   4.424  66.683  1.00  0.00    -0.114 C  
HETATM    6  C   UNL     1      -8.279   5.569  67.575  1.00  0.00    -0.101 C  
HETATM    7  C   UNL     1      -8.773   6.936  67.108  1.00  0.00    -0.120 A  
HETATM    8  C   UNL     1      -8.586   5.301  69.049  1.00  0.00    -0.094 A  
HETATM    9  C   UNL     1     -10.140   7.253  67.107  1.00  0.00    -0.306 A  
HETATM   10  C   UNL     1      -7.760   5.831  70.038  1.00  0.00    -0.087 A  
HETATM   11  C   UNL     1      -8.020   5.526  71.373  1.00  0.00    -0.112 A  
HETATM   12  C   UNL     1     -10.587   8.477  66.605  1.00  0.00    -0.118 A  
HETATM   13  C   UNL     1      -9.098   4.709  71.687  1.00  0.00    -0.172 A  
HETATM   14  C   UNL     1      -9.668   9.399  66.112  1.00  0.00    -0.265 A  
HETATM   15  C   UNL     1      -9.886   4.242  70.651  1.00  0.00    -0.195 A  
HETATM   16  C   UNL     1      -8.305   9.113  66.126  1.00  0.00    -0.123 A  
HETATM   17 BR   UNL     1     -10.276  11.042  65.401  1.00  0.00    -0.339 Br 
HETATM   18  N   UNL     1      -9.660   4.524  69.350  1.00  0.00    -0.178 NA 
HETATM   19  C   UNL     1      -7.860   7.885  66.621  1.00  0.00    -0.102 A  
ENDBRANCH   4   5
ENDBRANCH   2   4
TORSDOF 2
ENDMDL
MODEL      166
REMARK 921   NORMALIZED FREE ENERGY PREDICTED BY IDOCK:   -2.69 KCAL/MOL
REMARK 922        TOTAL FREE ENERGY PREDICTED BY IDOCK:   -3.16 KCAL/MOL
REMARK 923 INTER-LIGAND FREE ENERGY PREDICTED BY IDOCK:   -2.94 KCAL/MOL
REMARK 924 INTRA-LIGAND FREE ENERGY PREDICTED BY IDOCK:   -0.23 KCAL/MOL
REMARK 927      BINDING AFFINITY PREDICTED BY RF-SCORE:    0.00 PKD
ROOT
HETATM    1  C   UNL     1      -9.762   4.622  68.958  1.00  0.00    -0.172 C  
HETATM    2  N   UNL     1     -10.259   5.991  68.816  1.00  0.00    -0.171 NA 
HETATM    3  C   UNL     1     -11.349   6.224  69.770  1.00  0.00    -0.436 C  
ENDROOT
BRANCH   2   4
HETATM    4  C   UNL     1      -9.196   6.991  69.033  1.00  0.00    -0.137 C  
BRANCH   4   5
HETATM    5  C   UNL     1      -8.112   7.017  67.947  1.00  0.00    -0.115 C  
HETATM    6  C   UNL     1      -8.577   7.606  66.592  1.00  0.00    -0.134 C  
HETATM    7  C   UNL     1      -8.946   9.082  66.710  1.00  0.00    -0.160 A  
HETATM    8  C   UNL     1      -7.538   7.343  65.500  1.00  0.00    -0.094 A  
HETATM    9  C   UNL     1      -7.992  10.042  67.081  1.00  0.00    -0.109 A  
HETATM   10  C   UNL     1      -7.939   7.251  64.168  1.00  0.00    -0.084 A  
HETATM   11  C   UNL     1      -6.988   6.949  63.194  1.00  0.00    -0.053 A  
HETATM   12  C   UNL     1      -8.358  11.378  67.262  1.00  0.00    -0.149 A  
HETATM   13  C   UNL     1      -5.666   6.756  63.571  1.00  0.00    -0.035 A  
HETATM   14  C   UNL     1      -9.681  11.765  67.061  1.00  0.00    -0.185 A  
HETATM   15  C   UNL     1      -5.342   6.888  64.909  1.00  0.00    -0.027 A  
HETATM   16  C   UNL     1     -10.638  10.832  66.671  1.00  0.00    -0.291 A  
HETATM   17 BR   UNL     1     -10.184  13.566  67.340  1.00  0.00    -0.238 Br 
HETATM   18  N   UNL     1      -6.241   7.182  65.873  1.00  0.00    -0.036 NA 
HETATM   19  C   UNL     1     -10.272   9.495  66.498  1.00  0.00    -0.307 A  
ENDBRANCH   4   5
ENDBRANCH   2   4
TORSDOF 2
ENDMDL
MODEL      167
REMARK 921   NORMALIZED FREE ENERGY PREDICTED BY IDOCK:   -2.67 KCAL/MOL
REMARK 922        TOTAL FREE ENERGY PREDICTED BY IDOCK:   -3.14 KCAL/MOL
REMARK 923 INTER-LIGAND FREE ENERGY PREDICTED BY IDOCK:   -3.07 KCAL/MOL
REMARK 924 INTRA-LIGAND FREE ENERGY PREDICTED BY IDOCK:   -0.08 KCAL/MOL
REMARK 927      BINDING AFFINITY PREDICTED BY RF-SCORE:    0.00 PKD
ROOT
HETATM    1  C   UNL     1      -9.139   9.876  66.615  1.00  0.00    -0.147 C  
HETATM    2  N   UNL     1      -9.243   9.469  68.017  1.00  0.00    -0.130 NA 
HETATM    3  C   UNL     1     -10.654   9.390  68.407  1.00  0.00    -0.204 C  
ENDROOT
BRANCH   2   4
HETATM    4  C   UNL     1      -8.591   8.170  68.266  1.00  0.00    -0.130 C  
BRANCH   4   5
HETATM    5  C   UNL     1      -8.681   7.677  69.717  1.00  0.00    -0.140 C  
HETATM    6  C   UNL     1      -9.618   6.462  69.924  1.00  0.00    -0.166 C  
HETATM    7  C   UNL     1      -9.109   5.220  69.196  1.00  0.00    -0.136 A  
HETATM    8  C   UNL     1      -9.866   6.213  71.413  1.00  0.00    -0.175 A  
HETATM    9  C   UNL     1      -7.876   4.638  69.527  1.00  0.00    -0.062 A  
HETATM   10  C   UNL     1     -11.048   5.602  71.827  1.00  0.00    -0.265 A  
HETATM   11  C   UNL     1     -11.283   5.439  73.192  1.00  0.00    -0.355 A  
HETATM   12  C   UNL     1      -7.384   3.550  68.803  1.00  0.00    -0.050 A  
HETATM   13  C   UNL     1     -10.334   5.882  74.104  1.00  0.00    -0.295 A  
HETATM   14  C   UNL     1      -8.129   3.028  67.748  1.00  0.00    -0.078 A  
HETATM   15  C   UNL     1      -9.176   6.456  73.614  1.00  0.00    -0.131 A  
HETATM   16  C   UNL     1      -9.365   3.578  67.418  1.00  0.00    -0.246 A  
HETATM   17 BR   UNL     1      -7.447   1.578  66.746  1.00  0.00    -0.056 Br 
HETATM   18  N   UNL     1      -8.920   6.623  72.298  1.00  0.00    -0.134 NA 
HETATM   19  C   UNL     1      -9.853   4.671  68.139  1.00  0.00    -0.170 A  
ENDBRANCH   4   5
ENDBRANCH   2   4
TORSDOF 2
ENDMDL
MODEL      168
REMARK 921   NORMALIZED FREE ENERGY PREDICTED BY IDOCK:   -2.61 KCAL/MOL
REMARK 922        TOTAL FREE ENERGY PREDICTED BY IDOCK:   -3.07 KCAL/MOL
REMARK 923 INTER-LIGAND FREE ENERGY PREDICTED BY IDOCK:   -2.85 KCAL/MOL
REMARK 924 INTRA-LIGAND FREE ENERGY PREDICTED BY IDOCK:   -0.22 KCAL/MOL
REMARK 927      BINDING AFFINITY PREDICTED BY RF-SCORE:    0.00 PKD
ROOT
HETATM    1  C   UNL     1      -9.256   3.077  65.265  1.00  0.00    -0.146 C  
HETATM    2  N   UNL     1      -9.458   4.498  64.978  1.00  0.00    -0.161 NA 
HETATM    3  C   UNL     1     -10.711   4.953  65.589  1.00  0.00    -0.090 C  
ENDROOT
BRANCH   2   4
HETATM    4  C   UNL     1      -8.343   5.327  65.472  1.00  0.00    -0.130 C  
BRANCH   4   5
HETATM    5  C   UNL     1      -8.580   5.964  66.848  1.00  0.00    -0.111 C  
HETATM    6  C   UNL     1      -7.805   7.285  67.085  1.00  0.00    -0.110 C  
HETATM    7  C   UNL     1      -8.263   8.390  66.137  1.00  0.00    -0.113 A  
HETATM    8  C   UNL     1      -7.876   7.700  68.555  1.00  0.00    -0.121 A  
HETATM    9  C   UNL     1      -9.581   8.871  66.165  1.00  0.00    -0.335 A  
HETATM   10  C   UNL     1      -6.853   8.467  69.109  1.00  0.00    -0.058 A  
HETATM   11  C   UNL     1      -6.904   8.784  70.466  1.00  0.00    -0.046 A  
HETATM   12  C   UNL     1     -10.010   9.828  65.241  1.00  0.00    -0.251 A  
HETATM   13  C   UNL     1      -7.974   8.336  71.230  1.00  0.00    -0.125 A  
HETATM   14  C   UNL     1      -9.119  10.319  64.291  1.00  0.00    -0.243 A  
HETATM   15  C   UNL     1      -8.962   7.601  70.602  1.00  0.00    -0.153 A  
HETATM   16  C   UNL     1      -7.801   9.871  64.262  1.00  0.00    -0.139 A  
HETATM   17 BR   UNL     1      -9.709  11.588  63.020  1.00  0.00    -0.293 Br 
HETATM   18  N   UNL     1      -8.940   7.282  69.290  1.00  0.00    -0.136 NA 
HETATM   19  C   UNL     1      -7.375   8.909  65.181  1.00  0.00    -0.092 A  
ENDBRANCH   4   5
ENDBRANCH   2   4
TORSDOF 2
ENDMDL
MODEL      169
REMARK 921   NORMALIZED FREE ENERGY PREDICTED BY IDOCK:   -2.57 KCAL/MOL
REMARK 922        TOTAL FREE ENERGY PREDICTED BY IDOCK:   -3.03 KCAL/MOL
REMARK 923 INTER-LIGAND FREE ENERGY PREDICTED BY IDOCK:   -2.75 KCAL/MOL
REMARK 924 INTRA-LIGAND FREE ENERGY PREDICTED BY IDOCK:   -0.28 KCAL/MOL
REMARK 927      BINDING AFFINITY PREDICTED BY RF-SCORE:    0.00 PKD
ROOT
HETATM    1  C   UNL     1     -10.093   5.418  71.607  1.00  0.00    -0.203 C  
HETATM    2  N   UNL     1     -10.134   6.141  70.336  1.00  0.00    -0.183 NA 
HETATM    3  C   UNL     1     -11.215   7.132  70.364  1.00  0.00    -0.287 C  
ENDROOT
BRANCH   2   4
HETATM    4  C   UNL     1      -8.857   6.817  70.041  1.00  0.00    -0.142 C  
BRANCH   4   5
HETATM    5  C   UNL     1      -8.096   6.248  68.836  1.00  0.00    -0.110 C  
HETATM    6  C   UNL     1      -8.905   6.233  67.515  1.00  0.00    -0.103 C  
HETATM    7  C   UNL     1      -9.247   7.643  67.041  1.00  0.00    -0.168 A  
HETATM    8  C   UNL     1      -8.187   5.408  66.446  1.00  0.00    -0.109 A  
HETATM    9  C   UNL     1      -8.239   8.559  66.701  1.00  0.00    -0.108 A  
HETATM   10  C   UNL     1      -8.921   4.788  65.437  1.00  0.00    -0.149 A  
HETATM   11  C   UNL     1      -8.256   3.990  64.508  1.00  0.00    -0.094 A  
HETATM   12  C   UNL     1      -8.559   9.871  66.343  1.00  0.00    -0.136 A  
HETATM   13  C   UNL     1      -6.879   3.838  64.604  1.00  0.00    -0.049 A  
HETATM   14  C   UNL     1      -9.892  10.273  66.312  1.00  0.00    -0.219 A  
HETATM   15  C   UNL     1      -6.217   4.505  65.618  1.00  0.00    -0.031 A  
HETATM   16  C   UNL     1     -10.908   9.373  66.625  1.00  0.00     0.050 A  
HETATM   17 BR   UNL     1     -10.323  12.057  65.862  1.00  0.00    -0.289 Br 
HETATM   18  N   UNL     1      -6.836   5.286  66.530  1.00  0.00    -0.061 NA 
HETATM   19  C   UNL     1     -10.586   8.063  66.989  1.00  0.00    -0.364 A  
ENDBRANCH   4   5
ENDBRANCH   2   4
TORSDOF 2
ENDMDL
MODEL      170
REMARK 921   NORMALIZED FREE ENERGY PREDICTED BY IDOCK:   -2.57 KCAL/MOL
REMARK 922        TOTAL FREE ENERGY PREDICTED BY IDOCK:   -3.03 KCAL/MOL
REMARK 923 INTER-LIGAND FREE ENERGY PREDICTED BY IDOCK:   -2.86 KCAL/MOL
REMARK 924 INTRA-LIGAND FREE ENERGY PREDICTED BY IDOCK:   -0.17 KCAL/MOL
REMARK 927      BINDING AFFINITY PREDICTED BY RF-SCORE:    0.00 PKD
ROOT
HETATM    1  C   UNL     1     -10.369  13.247  65.961  1.00  0.00    -0.289 C  
HETATM    2  N   UNL     1     -10.475  12.296  67.068  1.00  0.00    -0.215 NA 
HETATM    3  C   UNL     1     -11.885  12.104  67.422  1.00  0.00    -0.227 C  
ENDROOT
BRANCH   2   4
HETATM    4  C   UNL     1      -9.870  10.992  66.738  1.00  0.00    -0.197 C  
BRANCH   4   5
HETATM    5  C   UNL     1      -9.628  10.076  67.945  1.00  0.00    -0.163 C  
HETATM    6  C   UNL     1      -9.707   8.562  67.626  1.00  0.00    -0.201 C  
HETATM    7  C   UNL     1      -8.603   8.125  66.667  1.00  0.00    -0.140 A  
HETATM    8  C   UNL     1      -9.731   7.736  68.914  1.00  0.00    -0.160 A  
HETATM    9  C   UNL     1      -7.249   8.231  67.020  1.00  0.00    -0.083 A  
HETATM   10  C   UNL     1     -10.348   6.486  68.924  1.00  0.00    -0.225 A  
HETATM   11  C   UNL     1     -10.415   5.775  70.122  1.00  0.00    -0.348 A  
HETATM   12  C   UNL     1      -6.246   7.902  66.105  1.00  0.00    -0.045 A  
HETATM   13  C   UNL     1      -9.860   6.323  71.271  1.00  0.00    -0.197 A  
HETATM   14  C   UNL     1      -6.591   7.451  64.833  1.00  0.00    -0.043 A  
HETATM   15  C   UNL     1      -9.243   7.556  71.174  1.00  0.00    -0.147 A  
HETATM   16  C   UNL     1      -7.930   7.317  64.471  1.00  0.00    -0.112 A  
HETATM   17 BR   UNL     1      -5.234   7.039  63.584  1.00  0.00    -0.029 Br 
HETATM   18  N   UNL     1      -9.161   8.266  70.028  1.00  0.00    -0.151 NA 
HETATM   19  C   UNL     1      -8.931   7.654  65.385  1.00  0.00     0.118 A  
ENDBRANCH   4   5
ENDBRANCH   2   4
TORSDOF 2
ENDMDL
MODEL      171
REMARK 921   NORMALIZED FREE ENERGY PREDICTED BY IDOCK:   -2.52 KCAL/MOL
REMARK 922        TOTAL FREE ENERGY PREDICTED BY IDOCK:   -2.97 KCAL/MOL
REMARK 923 INTER-LIGAND FREE ENERGY PREDICTED BY IDOCK:   -2.69 KCAL/MOL
REMARK 924 INTRA-LIGAND FREE ENERGY PREDICTED BY IDOCK:   -0.28 KCAL/MOL
REMARK 927      BINDING AFFINITY PREDICTED BY RF-SCORE:    0.00 PKD
ROOT
HETATM    1  C   UNL     1      -5.556  10.881  71.232  1.00  0.00     0.067 C  
HETATM    2  N   UNL     1      -6.492  10.193  70.341  1.00  0.00    -0.121 NA 
HETATM    3  C   UNL     1      -6.336  10.700  68.973  1.00  0.00    -0.046 C  
ENDROOT
BRANCH   2   4
HETATM    4  C   UNL     1      -6.292   8.732  70.348  1.00  0.00    -0.040 C  
BRANCH   4   5
HETATM    5  C   UNL     1      -7.486   7.927  70.879  1.00  0.00    -0.073 C  
HETATM    6  C   UNL     1      -8.785   8.084  70.049  1.00  0.00    -0.135 C  
HETATM    7  C   UNL     1      -8.627   7.528  68.636  1.00  0.00    -0.129 A  
HETATM    8  C   UNL     1      -9.980   7.482  70.790  1.00  0.00    -0.182 A  
HETATM    9  C   UNL     1      -8.358   6.168  68.416  1.00  0.00    -0.114 A  
HETATM   10  C   UNL     1     -11.262   7.975  70.555  1.00  0.00    -0.252 A  
HETATM   11  C   UNL     1     -12.331   7.457  71.285  1.00  0.00    -0.380 A  
HETATM   12  C   UNL     1      -8.138   5.685  67.124  1.00  0.00    -0.102 A  
HETATM   13  C   UNL     1     -12.095   6.458  72.221  1.00  0.00    -0.252 A  
HETATM   14  C   UNL     1      -8.198   6.557  66.040  1.00  0.00    -0.127 A  
HETATM   15  C   UNL     1     -10.799   6.004  72.379  1.00  0.00    -0.247 A  
HETATM   16  C   UNL     1      -8.486   7.906  66.236  1.00  0.00    -0.139 A  
HETATM   17 BR   UNL     1      -7.866   5.910  64.296  1.00  0.00    -0.119 Br 
HETATM   18  N   UNL     1      -9.746   6.486  71.684  1.00  0.00    -0.164 NA 
HETATM   19  C   UNL     1      -8.698   8.389  67.529  1.00  0.00    -0.136 A  
ENDBRANCH   4   5
ENDBRANCH   2   4
TORSDOF 2
ENDMDL
MODEL      172
REMARK 921   NORMALIZED FREE ENERGY PREDICTED BY IDOCK:   -2.41 KCAL/MOL
REMARK 922        TOTAL FREE ENERGY PREDICTED BY IDOCK:   -2.85 KCAL/MOL
REMARK 923 INTER-LIGAND FREE ENERGY PREDICTED BY IDOCK:   -2.67 KCAL/MOL
REMARK 924 INTRA-LIGAND FREE ENERGY PREDICTED BY IDOCK:   -0.18 KCAL/MOL
REMARK 927      BINDING AFFINITY PREDICTED BY RF-SCORE:    0.00 PKD
ROOT
HETATM    1  C   UNL     1      -5.380  12.954  69.583  1.00  0.00    -0.083 C  
HETATM    2  N   UNL     1      -6.304  12.796  68.459  1.00  0.00    -0.069 NA 
HETATM    3  C   UNL     1      -5.568  12.340  67.275  1.00  0.00    -0.122 C  
ENDROOT
BRANCH   2   4
HETATM    4  C   UNL     1      -7.386  11.842  68.761  1.00  0.00    -0.114 C  
BRANCH   4   5
HETATM    5  C   UNL     1      -7.659  10.812  67.656  1.00  0.00    -0.096 C  
HETATM    6  C   UNL     1      -7.530   9.336  68.109  1.00  0.00    -0.083 C  
HETATM    7  C   UNL     1      -8.580   8.969  69.154  1.00  0.00    -0.133 A  
HETATM    8  C   UNL     1      -7.541   8.395  66.904  1.00  0.00    -0.091 A  
HETATM    9  C   UNL     1      -9.951   9.015  68.855  1.00  0.00    -0.197 A  
HETATM   10  C   UNL     1      -6.896   7.162  66.980  1.00  0.00    -0.072 A  
HETATM   11  C   UNL     1      -6.864   6.344  65.852  1.00  0.00    -0.056 A  
HETATM   12  C   UNL     1     -10.905   8.752  69.841  1.00  0.00    -0.211 A  
HETATM   13  C   UNL     1      -7.482   6.771  64.683  1.00  0.00    -0.097 A  
HETATM   14  C   UNL     1     -10.494   8.429  71.131  1.00  0.00    -0.212 A  
HETATM   15  C   UNL     1      -8.123   7.996  64.694  1.00  0.00    -0.140 A  
HETATM   16  C   UNL     1      -9.138   8.356  71.443  1.00  0.00    -0.240 A  
HETATM   17 BR   UNL     1     -11.785   8.108  72.474  1.00  0.00    -0.415 Br 
HETATM   18  N   UNL     1      -8.172   8.807  65.773  1.00  0.00    -0.115 NA 
HETATM   19  C   UNL     1      -8.185   8.627  70.458  1.00  0.00    -0.127 A  
ENDBRANCH   4   5
ENDBRANCH   2   4
TORSDOF 2
ENDMDL
MODEL      173
REMARK 921   NORMALIZED FREE ENERGY PREDICTED BY IDOCK:   -2.32 KCAL/MOL
REMARK 922        TOTAL FREE ENERGY PREDICTED BY IDOCK:   -2.76 KCAL/MOL
REMARK 923 INTER-LIGAND FREE ENERGY PREDICTED BY IDOCK:   -2.59 KCAL/MOL
REMARK 924 INTRA-LIGAND FREE ENERGY PREDICTED BY IDOCK:   -0.16 KCAL/MOL
REMARK 927      BINDING AFFINITY PREDICTED BY RF-SCORE:    0.00 PKD
ROOT
HETATM    1  C   UNL     1      -9.272   5.291  66.736  1.00  0.00    -0.126 C  
HETATM    2  N   UNL     1      -9.326   6.310  67.785  1.00  0.00    -0.115 NA 
HETATM    3  C   UNL     1     -10.484   7.184  67.566  1.00  0.00    -0.260 C  
ENDROOT
BRANCH   2   4
HETATM    4  C   UNL     1      -9.409   5.715  69.132  1.00  0.00    -0.124 C  
BRANCH   4   5
HETATM    5  C   UNL     1      -8.288   6.141  70.089  1.00  0.00    -0.128 C  
HETATM    6  C   UNL     1      -8.767   6.498  71.518  1.00  0.00    -0.132 C  
HETATM    7  C   UNL     1      -9.359   5.289  72.238  1.00  0.00    -0.160 A  
HETATM    8  C   UNL     1      -7.647   7.169  72.315  1.00  0.00    -0.089 A  
HETATM    9  C   UNL     1      -8.581   4.155  72.516  1.00  0.00    -0.108 A  
HETATM   10  C   UNL     1      -7.962   8.056  73.343  1.00  0.00    -0.236 A  
HETATM   11  C   UNL     1      -6.929   8.705  74.018  1.00  0.00    -0.066 A  
HETATM   12  C   UNL     1      -9.152   3.025  73.105  1.00  0.00    -0.102 A  
HETATM   13  C   UNL     1      -5.613   8.448  73.656  1.00  0.00    -0.079 A  
HETATM   14  C   UNL     1     -10.506   3.025  73.431  1.00  0.00    -0.162 A  
HETATM   15  C   UNL     1      -5.381   7.537  72.642  1.00  0.00    -0.037 A  
HETATM   16  C   UNL     1     -11.291   4.149  73.183  1.00  0.00    -0.208 A  
HETATM   17 BR   UNL     1     -11.287   1.483  74.195  1.00  0.00    -0.128 Br 
HETATM   18  N   UNL     1      -6.361   6.892  71.975  1.00  0.00    -0.045 NA 
HETATM   19  C   UNL     1     -10.720   5.276  72.587  1.00  0.00    -0.290 A  
ENDBRANCH   4   5
ENDBRANCH   2   4
TORSDOF 2
ENDMDL
MODEL      174
REMARK 921   NORMALIZED FREE ENERGY PREDICTED BY IDOCK:   -2.31 KCAL/MOL
REMARK 922        TOTAL FREE ENERGY PREDICTED BY IDOCK:   -2.74 KCAL/MOL
REMARK 923 INTER-LIGAND FREE ENERGY PREDICTED BY IDOCK:   -2.57 KCAL/MOL
REMARK 924 INTRA-LIGAND FREE ENERGY PREDICTED BY IDOCK:   -0.18 KCAL/MOL
REMARK 927      BINDING AFFINITY PREDICTED BY RF-SCORE:    0.00 PKD
ROOT
HETATM    1  C   UNL     1      -6.213   3.213  64.483  1.00  0.00    -0.023 C  
HETATM    2  N   UNL     1      -6.277   4.525  65.130  1.00  0.00    -0.033 NA 
HETATM    3  C   UNL     1      -5.470   5.489  64.374  1.00  0.00    -0.013 C  
ENDROOT
BRANCH   2   4
HETATM    4  C   UNL     1      -7.661   5.022  65.239  1.00  0.00    -0.081 C  
BRANCH   4   5
HETATM    5  C   UNL     1      -7.781   6.481  65.699  1.00  0.00    -0.094 C  
HETATM    6  C   UNL     1      -8.970   6.757  66.653  1.00  0.00    -0.154 C  
HETATM    7  C   UNL     1      -8.820   6.015  67.978  1.00  0.00    -0.110 A  
HETATM    8  C   UNL     1      -9.182   8.260  66.838  1.00  0.00    -0.158 A  
HETATM    9  C   UNL     1      -7.747   6.281  68.842  1.00  0.00    -0.097 A  
HETATM   10  C   UNL     1     -10.450   8.750  67.146  1.00  0.00    -0.354 A  
HETATM   11  C   UNL     1     -10.636  10.128  67.250  1.00  0.00    -0.321 A  
HETATM   12  C   UNL     1      -7.576   5.542  70.015  1.00  0.00    -0.077 A  
HETATM   13  C   UNL     1      -9.556  10.978  67.053  1.00  0.00    -0.199 A  
HETATM   14  C   UNL     1      -8.486   4.539  70.339  1.00  0.00    -0.078 A  
HETATM   15  C   UNL     1      -8.324  10.414  66.775  1.00  0.00    -0.126 A  
HETATM   16  C   UNL     1      -9.570   4.275  69.506  1.00  0.00    -0.274 A  
HETATM   17 BR   UNL     1      -8.235   3.516  71.908  1.00  0.00    -0.068 Br 
HETATM   18  N   UNL     1      -8.114   9.084  66.671  1.00  0.00    -0.106 NA 
HETATM   19  C   UNL     1      -9.736   5.009  68.329  1.00  0.00    -0.200 A  
ENDBRANCH   4   5
ENDBRANCH   2   4
TORSDOF 2
ENDMDL
MODEL      175
REMARK 921   NORMALIZED FREE ENERGY PREDICTED BY IDOCK:   -2.22 KCAL/MOL
REMARK 922        TOTAL FREE ENERGY PREDICTED BY IDOCK:   -2.63 KCAL/MOL
REMARK 923 INTER-LIGAND FREE ENERGY PREDICTED BY IDOCK:   -2.41 KCAL/MOL
REMARK 924 INTRA-LIGAND FREE ENERGY PREDICTED BY IDOCK:   -0.22 KCAL/MOL
REMARK 927      BINDING AFFINITY PREDICTED BY RF-SCORE:    0.00 PKD
ROOT
HETATM    1  C   UNL     1     -10.741   4.768  66.027  1.00  0.00    -0.158 C  
HETATM    2  N   UNL     1      -9.566   5.444  66.579  1.00  0.00    -0.147 NA 
HETATM    3  C   UNL     1      -8.569   5.647  65.522  1.00  0.00    -0.151 C  
ENDROOT
BRANCH   2   4
HETATM    4  C   UNL     1      -9.909   6.744  67.186  1.00  0.00    -0.161 C  
BRANCH   4   5
HETATM    5  C   UNL     1     -10.014   6.726  68.717  1.00  0.00    -0.149 C  
HETATM    6  C   UNL     1      -8.655   6.813  69.454  1.00  0.00    -0.132 C  
HETATM    7  C   UNL     1      -7.952   8.144  69.197  1.00  0.00    -0.113 A  
HETATM    8  C   UNL     1      -8.824   6.513  70.944  1.00  0.00    -0.147 A  
HETATM    9  C   UNL     1      -8.528   9.359  69.600  1.00  0.00    -0.166 A  
HETATM   10  C   UNL     1      -7.759   5.983  71.670  1.00  0.00    -0.101 A  
HETATM   11  C   UNL     1      -7.951   5.658  73.013  1.00  0.00    -0.104 A  
HETATM   12  C   UNL     1      -7.915  10.575  69.290  1.00  0.00    -0.156 A  
HETATM   13  C   UNL     1      -9.192   5.877  73.596  1.00  0.00    -0.130 A  
HETATM   14  C   UNL     1      -6.714  10.584  68.586  1.00  0.00    -0.053 A  
HETATM   15  C   UNL     1     -10.191   6.429  72.816  1.00  0.00    -0.186 A  
HETATM   16  C   UNL     1      -6.115   9.389  68.197  1.00  0.00    -0.052 A  
HETATM   17 BR   UNL     1      -5.902  12.231  68.137  1.00  0.00    -0.066 Br 
HETATM   18  N   UNL     1     -10.033   6.756  71.515  1.00  0.00    -0.178 NA 
HETATM   19  C   UNL     1      -6.733   8.173  68.500  1.00  0.00    -0.063 A  
ENDBRANCH   4   5
ENDBRANCH   2   4
TORSDOF 2
ENDMDL
MODEL      176
REMARK 921   NORMALIZED FREE ENERGY PREDICTED BY IDOCK:   -2.20 KCAL/MOL
REMARK 922        TOTAL FREE ENERGY PREDICTED BY IDOCK:   -2.62 KCAL/MOL
REMARK 923 INTER-LIGAND FREE ENERGY PREDICTED BY IDOCK:   -2.33 KCAL/MOL
REMARK 924 INTRA-LIGAND FREE ENERGY PREDICTED BY IDOCK:   -0.29 KCAL/MOL
REMARK 927      BINDING AFFINITY PREDICTED BY RF-SCORE:    0.00 PKD
ROOT
HETATM    1  C   UNL     1     -11.091   5.980  66.803  1.00  0.00    -0.118 C  
HETATM    2  N   UNL     1      -9.954   6.652  67.433  1.00  0.00    -0.135 NA 
HETATM    3  C   UNL     1      -8.728   6.359  66.683  1.00  0.00    -0.127 C  
ENDROOT
BRANCH   2   4
HETATM    4  C   UNL     1     -10.146   8.112  67.508  1.00  0.00    -0.224 C  
BRANCH   4   5
HETATM    5  C   UNL     1      -8.856   8.934  67.375  1.00  0.00    -0.136 C  
HETATM    6  C   UNL     1      -8.530   9.819  68.604  1.00  0.00    -0.116 C  
HETATM    7  C   UNL     1      -8.249   8.982  69.849  1.00  0.00    -0.124 A  
HETATM    8  C   UNL     1      -7.401  10.800  68.283  1.00  0.00    -0.086 A  
HETATM    9  C   UNL     1      -7.166   8.090  69.895  1.00  0.00    -0.061 A  
HETATM   10  C   UNL     1      -7.321  12.012  68.965  1.00  0.00    -0.018 A  
HETATM   11  C   UNL     1      -6.321  12.920  68.616  1.00  0.00    -0.075 A  
HETATM   12  C   UNL     1      -6.964   7.272  71.009  1.00  0.00    -0.060 A  
HETATM   13  C   UNL     1      -5.425  12.591  67.607  1.00  0.00    -0.123 A  
HETATM   14  C   UNL     1      -7.837   7.350  72.092  1.00  0.00    -0.089 A  
HETATM   15  C   UNL     1      -5.555  11.358  66.995  1.00  0.00    -0.101 A  
HETATM   16  C   UNL     1      -8.904   8.245  72.074  1.00  0.00    -0.256 A  
HETATM   17 BR   UNL     1      -7.584   6.219  73.585  1.00  0.00    -0.093 Br 
HETATM   18  N   UNL     1      -6.511  10.459  67.314  1.00  0.00    -0.066 NA 
HETATM   19  C   UNL     1      -9.110   9.057  70.956  1.00  0.00    -0.322 A  
ENDBRANCH   4   5
ENDBRANCH   2   4
TORSDOF 2
ENDMDL
MODEL      177
REMARK 921   NORMALIZED FREE ENERGY PREDICTED BY IDOCK:   -2.17 KCAL/MOL
REMARK 922        TOTAL FREE ENERGY PREDICTED BY IDOCK:   -2.59 KCAL/MOL
REMARK 923 INTER-LIGAND FREE ENERGY PREDICTED BY IDOCK:   -2.69 KCAL/MOL
REMARK 924 INTRA-LIGAND FREE ENERGY PREDICTED BY IDOCK:    0.10 KCAL/MOL
REMARK 927      BINDING AFFINITY PREDICTED BY RF-SCORE:    0.00 PKD
ROOT
HETATM    1  C   UNL     1      -9.527  11.587  68.496  1.00  0.00    -0.174 C  
HETATM    2  N   UNL     1      -8.580  10.512  68.796  1.00  0.00    -0.138 NA 
HETATM    3  C   UNL     1      -7.302  11.085  69.231  1.00  0.00    -0.113 C  
ENDROOT
BRANCH   2   4
HETATM    4  C   UNL     1      -9.089   9.601  69.838  1.00  0.00    -0.225 C  
BRANCH   4   5
HETATM    5  C   UNL     1      -8.594   8.153  69.719  1.00  0.00    -0.133 C  
HETATM    6  C   UNL     1      -9.212   7.359  68.542  1.00  0.00    -0.142 C  
HETATM    7  C   UNL     1      -8.815   7.945  67.190  1.00  0.00    -0.137 A  
HETATM    8  C   UNL     1      -8.885   5.869  68.659  1.00  0.00    -0.111 A  
HETATM    9  C   UNL     1      -7.473   7.984  66.781  1.00  0.00    -0.090 A  
HETATM   10  C   UNL     1      -9.744   4.924  68.104  1.00  0.00    -0.202 A  
HETATM   11  C   UNL     1      -9.462   3.569  68.274  1.00  0.00    -0.210 A  
HETATM   12  C   UNL     1      -7.113   8.593  65.576  1.00  0.00    -0.083 A  
HETATM   13  C   UNL     1      -8.328   3.194  68.984  1.00  0.00    -0.084 A  
HETATM   14  C   UNL     1      -8.095   9.157  64.766  1.00  0.00    -0.140 A  
HETATM   15  C   UNL     1      -7.511   4.192  69.483  1.00  0.00    -0.054 A  
HETATM   16  C   UNL     1      -9.434   9.108  65.143  1.00  0.00    -0.097 A  
HETATM   17 BR   UNL     1      -7.603  10.011  63.153  1.00  0.00    -0.144 Br 
HETATM   18  N   UNL     1      -7.759   5.511  69.331  1.00  0.00    -0.085 NA 
HETATM   19  C   UNL     1      -9.793   8.506  66.351  1.00  0.00    -0.327 A  
ENDBRANCH   4   5
ENDBRANCH   2   4
TORSDOF 2
ENDMDL
MODEL      178
REMARK 921   NORMALIZED FREE ENERGY PREDICTED BY IDOCK:   -2.08 KCAL/MOL
REMARK 922        TOTAL FREE ENERGY PREDICTED BY IDOCK:   -2.48 KCAL/MOL
REMARK 923 INTER-LIGAND FREE ENERGY PREDICTED BY IDOCK:   -3.05 KCAL/MOL
REMARK 924 INTRA-LIGAND FREE ENERGY PREDICTED BY IDOCK:    0.57 KCAL/MOL
REMARK 927      BINDING AFFINITY PREDICTED BY RF-SCORE:    0.00 PKD
ROOT
HETATM    1  C   UNL     1      -8.730  19.668  69.653  1.00  0.00     0.527 C  
HETATM    2  N   UNL     1      -8.345  18.379  69.075  1.00  0.00    -0.136 NA 
HETATM    3  C   UNL     1      -7.010  18.003  69.550  1.00  0.00     0.027 C  
ENDROOT
BRANCH   2   4
HETATM    4  C   UNL     1      -9.305  17.312  69.413  1.00  0.00     0.236 C  
BRANCH   4   5
HETATM    5  C   UNL     1      -9.443  16.215  68.348  1.00  0.00    -0.210 C  
HETATM    6  C   UNL     1      -9.823  16.735  66.939  1.00  0.00    -0.269 C  
HETATM    7  C   UNL     1      -8.731  17.621  66.346  1.00  0.00    -0.263 A  
HETATM    8  C   UNL     1     -10.208  15.576  66.018  1.00  0.00    -0.330 A  
HETATM    9  C   UNL     1      -7.448  17.117  66.083  1.00  0.00    -0.295 A  
HETATM   10  C   UNL     1     -11.090  15.792  64.961  1.00  0.00    -0.380 A  
HETATM   11  C   UNL     1     -11.477  14.711  64.170  1.00  0.00    -0.040 A  
HETATM   12  C   UNL     1      -6.435  17.956  65.614  1.00  0.00    -0.209 A  
HETATM   13  C   UNL     1     -10.969  13.449  64.448  1.00  0.00    -0.413 A  
HETATM   14  C   UNL     1      -6.701  19.304  65.392  1.00  0.00    -0.258 A  
HETATM   15  C   UNL     1     -10.080  13.319  65.497  1.00  0.00    -0.263 A  
HETATM   16  C   UNL     1      -7.974  19.819  65.625  1.00  0.00    -0.048 A  
HETATM   17 BR   UNL     1      -5.321  20.447  64.790  1.00  0.00    -0.225 Br 
HETATM   18  N   UNL     1      -9.685  14.348  66.278  1.00  0.00    -0.299 NA 
HETATM   19  C   UNL     1      -8.984  18.981  66.102  1.00  0.00    -0.202 A  
ENDBRANCH   4   5
ENDBRANCH   2   4
TORSDOF 2
ENDMDL
MODEL      179
REMARK 921   NORMALIZED FREE ENERGY PREDICTED BY IDOCK:   -1.97 KCAL/MOL
REMARK 922        TOTAL FREE ENERGY PREDICTED BY IDOCK:   -2.36 KCAL/MOL
REMARK 923 INTER-LIGAND FREE ENERGY PREDICTED BY IDOCK:   -2.19 KCAL/MOL
REMARK 924 INTRA-LIGAND FREE ENERGY PREDICTED BY IDOCK:   -0.18 KCAL/MOL
REMARK 927      BINDING AFFINITY PREDICTED BY RF-SCORE:    0.00 PKD
ROOT
HETATM    1  C   UNL     1     -11.158   6.232  68.798  1.00  0.00    -0.346 C  
HETATM    2  N   UNL     1     -10.305   7.419  68.735  1.00  0.00    -0.196 NA 
HETATM    3  C   UNL     1      -9.325   7.383  69.826  1.00  0.00    -0.146 C  
ENDROOT
BRANCH   2   4
HETATM    4  C   UNL     1      -9.599   7.525  67.445  1.00  0.00    -0.149 C  
BRANCH   4   5
HETATM    5  C   UNL     1      -8.848   6.256  67.020  1.00  0.00    -0.108 C  
HETATM    6  C   UNL     1      -8.648   6.111  65.490  1.00  0.00    -0.133 C  
HETATM    7  C   UNL     1      -7.757   7.214  64.926  1.00  0.00    -0.117 A  
HETATM    8  C   UNL     1      -8.149   4.709  65.138  1.00  0.00    -0.104 A  
HETATM    9  C   UNL     1      -6.421   7.349  65.336  1.00  0.00    -0.044 A  
HETATM   10  C   UNL     1      -8.432   4.166  63.886  1.00  0.00    -0.100 A  
HETATM   11  C   UNL     1      -8.021   2.864  63.605  1.00  0.00    -0.081 A  
HETATM   12  C   UNL     1      -5.637   8.409  64.873  1.00  0.00    -0.044 A  
HETATM   13  C   UNL     1      -7.335   2.142  64.573  1.00  0.00    -0.058 A  
HETATM   14  C   UNL     1      -6.181   9.334  63.986  1.00  0.00    -0.089 A  
HETATM   15  C   UNL     1      -7.071   2.759  65.782  1.00  0.00    -0.065 A  
HETATM   16  C   UNL     1      -7.497   9.204  63.550  1.00  0.00    -0.102 A  
HETATM   17 BR   UNL     1      -5.131  10.787  63.386  1.00  0.00    -0.142 Br 
HETATM   18  N   UNL     1      -7.454   4.019  66.080  1.00  0.00    -0.086 NA 
HETATM   19  C   UNL     1      -8.282   8.149  64.020  1.00  0.00    -0.077 A  
ENDBRANCH   4   5
ENDBRANCH   2   4
TORSDOF 2
ENDMDL
MODEL      180
REMARK 921   NORMALIZED FREE ENERGY PREDICTED BY IDOCK:   -1.78 KCAL/MOL
REMARK 922        TOTAL FREE ENERGY PREDICTED BY IDOCK:   -2.15 KCAL/MOL
REMARK 923 INTER-LIGAND FREE ENERGY PREDICTED BY IDOCK:   -2.36 KCAL/MOL
REMARK 924 INTRA-LIGAND FREE ENERGY PREDICTED BY IDOCK:    0.21 KCAL/MOL
REMARK 927      BINDING AFFINITY PREDICTED BY RF-SCORE:    0.00 PKD
ROOT
HETATM    1  C   UNL     1      -8.783  10.777  65.954  1.00  0.00    -0.181 C  
HETATM    2  N   UNL     1     -10.083  11.138  66.521  1.00  0.00    -0.216 NA 
HETATM    3  C   UNL     1     -10.676  12.231  65.744  1.00  0.00    -0.263 C  
ENDROOT
BRANCH   2   4
HETATM    4  C   UNL     1     -11.013   9.994  66.547  1.00  0.00     0.180 C  
BRANCH   4   5
HETATM    5  C   UNL     1     -10.808   9.030  67.723  1.00  0.00    -0.125 C  
HETATM    6  C   UNL     1     -10.075   9.649  68.939  1.00  0.00    -0.198 C  
HETATM    7  C   UNL     1     -10.886  10.770  69.583  1.00  0.00    -0.294 A  
HETATM    8  C   UNL     1      -9.669   8.565  69.939  1.00  0.00    -0.179 A  
HETATM    9  C   UNL     1     -12.143  10.521  70.155  1.00  0.00    -0.380 A  
HETATM   10  C   UNL     1      -8.564   8.761  70.766  1.00  0.00    -0.218 A  
HETATM   11  C   UNL     1      -8.172   7.737  71.627  1.00  0.00    -0.121 A  
HETATM   12  C   UNL     1     -12.912  11.567  70.671  1.00  0.00    -0.025 A  
HETATM   13  C   UNL     1      -8.895   6.551  71.647  1.00  0.00    -0.135 A  
HETATM   14  C   UNL     1     -12.422  12.870  70.629  1.00  0.00    -0.252 A  
HETATM   15  C   UNL     1      -9.994   6.442  70.816  1.00  0.00    -0.185 A  
HETATM   16  C   UNL     1     -11.168  13.135  70.085  1.00  0.00     0.311 A  
HETATM   17 BR   UNL     1     -13.477  14.290  71.296  1.00  0.00    -0.344 Br 
HETATM   18  N   UNL     1     -10.397   7.418  69.974  1.00  0.00    -0.214 NA 
HETATM   19  C   UNL     1     -10.404  12.089  69.563  1.00  0.00     0.483 A  
ENDBRANCH   4   5
ENDBRANCH   2   4
TORSDOF 2
ENDMDL
MODEL      181
REMARK 921   NORMALIZED FREE ENERGY PREDICTED BY IDOCK:   -1.54 KCAL/MOL
REMARK 922        TOTAL FREE ENERGY PREDICTED BY IDOCK:   -1.88 KCAL/MOL
REMARK 923 INTER-LIGAND FREE ENERGY PREDICTED BY IDOCK:   -1.70 KCAL/MOL
REMARK 924 INTRA-LIGAND FREE ENERGY PREDICTED BY IDOCK:   -0.18 KCAL/MOL
REMARK 927      BINDING AFFINITY PREDICTED BY RF-SCORE:    0.00 PKD
ROOT
HETATM    1  C   UNL     1     -11.614   9.181  70.627  1.00  0.00    -0.235 C  
HETATM    2  N   UNL     1     -12.239  10.277  69.885  1.00  0.00    -0.129 NA 
HETATM    3  C   UNL     1     -12.099  11.527  70.638  1.00  0.00    -0.353 C  
ENDROOT
BRANCH   2   4
HETATM    4  C   UNL     1     -11.651  10.444  68.543  1.00  0.00    -0.078 C  
BRANCH   4   5
HETATM    5  C   UNL     1     -10.371  11.292  68.507  1.00  0.00    -0.217 C  
HETATM    6  C   UNL     1      -9.058  10.470  68.523  1.00  0.00    -0.154 C  
HETATM    7  C   UNL     1      -8.909   9.612  67.269  1.00  0.00    -0.139 A  
HETATM    8  C   UNL     1      -7.851  11.379  68.764  1.00  0.00    -0.128 A  
HETATM    9  C   UNL     1      -8.818  10.196  65.996  1.00  0.00    -0.160 A  
HETATM   10  C   UNL     1      -6.705  10.865  69.367  1.00  0.00    -0.107 A  
HETATM   11  C   UNL     1      -5.639  11.723  69.635  1.00  0.00    -0.078 A  
HETATM   12  C   UNL     1      -8.761   9.399  64.850  1.00  0.00    -0.220 A  
HETATM   13  C   UNL     1      -5.740  13.063  69.287  1.00  0.00    -0.084 A  
HETATM   14  C   UNL     1      -8.781   8.012  64.970  1.00  0.00     0.070 A  
HETATM   15  C   UNL     1      -6.900  13.492  68.669  1.00  0.00    -0.098 A  
HETATM   16  C   UNL     1      -8.848   7.414  66.226  1.00  0.00    -0.182 A  
HETATM   17 BR   UNL     1      -8.738   6.935  63.417  1.00  0.00     0.881 Br 
HETATM   18  N   UNL     1      -7.947  12.684  68.395  1.00  0.00    -0.145 NA 
HETATM   19  C   UNL     1      -8.913   8.211  67.371  1.00  0.00    -0.145 A  
ENDBRANCH   4   5
ENDBRANCH   2   4
TORSDOF 2
ENDMDL
MODEL      182
REMARK 921   NORMALIZED FREE ENERGY PREDICTED BY IDOCK:    3.52 KCAL/MOL
REMARK 922        TOTAL FREE ENERGY PREDICTED BY IDOCK:    3.77 KCAL/MOL
REMARK 923 INTER-LIGAND FREE ENERGY PREDICTED BY IDOCK:    3.94 KCAL/MOL
REMARK 924 INTRA-LIGAND FREE ENERGY PREDICTED BY IDOCK:   -0.17 KCAL/MOL
REMARK 927      BINDING AFFINITY PREDICTED BY RF-SCORE:    0.00 PKD
ROOT
HETATM    1  C   UNL     1      -9.881  16.606  69.502  1.00  0.00    -0.038 C  
HETATM    2  N   UNL     1     -10.161  15.336  70.173  1.00  0.00    -0.213 NA 
HETATM    3  C   UNL     1     -11.010  15.572  71.345  1.00  0.00    -0.126 C  
ENDROOT
BRANCH   2   4
HETATM    4  C   UNL     1     -10.821  14.370  69.276  1.00  0.00    -0.239 C  
BRANCH   4   5
HETATM    5  C   UNL     1     -10.925  12.945  69.837  1.00  0.00     0.414 C  
HETATM    6  C   UNL     1     -10.851  11.827  68.767  1.00  0.00    -0.268 C  
HETATM    7  C   UNL     1      -9.495  11.797  68.069  1.00  0.00    -0.188 A  
HETATM    8  C   UNL     1     -11.238  10.474  69.366  1.00  0.00    -0.269 A  
HETATM    9  C   UNL     1      -8.316  11.531  68.782  1.00  0.00    -0.069 A  
HETATM   10  C   UNL     1     -11.785   9.485  68.551  1.00  0.00     0.845 A  
HETATM   11  C   UNL     1     -12.188   8.280  69.127  1.00  0.00     2.632 A  
HETATM   12  C   UNL     1      -7.072  11.583  68.149  1.00  0.00    -0.076 A  
HETATM   13  C   UNL     1     -12.027   8.091  70.493  1.00  0.00     0.051 A  
HETATM   14  C   UNL     1      -6.999  11.890  66.793  1.00  0.00    -0.003 A  
HETATM   15  C   UNL     1     -11.453   9.110  71.230  1.00  0.00    -0.335 A  
HETATM   16  C   UNL     1      -8.159  12.135  66.062  1.00  0.00     0.634 A  
HETATM   17 BR   UNL     1      -5.314  11.994  65.944  1.00  0.00     1.727 Br 
HETATM   18  N   UNL     1     -11.051  10.285  70.699  1.00  0.00    -0.319 NA 
HETATM   19  C   UNL     1      -9.402  12.090  66.698  1.00  0.00    -0.221 A  
ENDBRANCH   4   5
ENDBRANCH   2   4
TORSDOF 2
ENDMDL
MODEL      183
REMARK 921   NORMALIZED FREE ENERGY PREDICTED BY IDOCK:    3.52 KCAL/MOL
REMARK 922        TOTAL FREE ENERGY PREDICTED BY IDOCK:    3.77 KCAL/MOL
REMARK 923 INTER-LIGAND FREE ENERGY PREDICTED BY IDOCK:    2.76 KCAL/MOL
REMARK 924 INTRA-LIGAND FREE ENERGY PREDICTED BY IDOCK:    1.02 KCAL/MOL
REMARK 927      BINDING AFFINITY PREDICTED BY RF-SCORE:    0.00 PKD
ROOT
HETATM    1  C   UNL     1      -8.232  12.712  64.995  1.00  0.00     3.227 C  
HETATM    2  N   UNL     1      -8.757  12.447  66.335  1.00  0.00    -0.059 NA 
HETATM    3  C   UNL     1      -8.248  13.451  67.274  1.00  0.00    -0.154 C  
ENDROOT
BRANCH   2   4
HETATM    4  C   UNL     1     -10.231  12.452  66.364  1.00  0.00    -0.234 C  
BRANCH   4   5
HETATM    5  C   UNL     1     -10.843  12.840  67.716  1.00  0.00    -0.248 C  
HETATM    6  C   UNL     1     -10.921  11.682  68.742  1.00  0.00    -0.274 C  
HETATM    7  C   UNL     1      -9.535  11.188  69.148  1.00  0.00    -0.000 A  
HETATM    8  C   UNL     1     -11.783  12.075  69.942  1.00  0.00    -0.299 A  
HETATM    9  C   UNL     1      -8.625  12.033  69.802  1.00  0.00     2.041 A  
HETATM   10  C   UNL     1     -12.451  11.091  70.669  1.00  0.00    -0.465 A  
HETATM   11  C   UNL     1     -13.281  11.473  71.722  1.00  0.00    -0.456 A  
HETATM   12  C   UNL     1      -7.332  11.596  70.099  1.00  0.00     1.268 A  
HETATM   13  C   UNL     1     -13.417  12.821  72.026  1.00  0.00    -0.540 A  
HETATM   14  C   UNL     1      -6.944  10.304  69.755  1.00  0.00    -0.129 A  
HETATM   15  C   UNL     1     -12.702  13.735  71.275  1.00  0.00    -0.371 A  
HETATM   16  C   UNL     1      -7.839   9.442  69.126  1.00  0.00    -0.080 A  
HETATM   17 BR   UNL     1      -5.184   9.723  70.126  1.00  0.00    -0.037 Br 
HETATM   18  N   UNL     1     -11.889  13.394  70.252  1.00  0.00    -0.287 NA 
HETATM   19  C   UNL     1      -9.129   9.883  68.822  1.00  0.00    -0.147 A  
ENDBRANCH   4   5
ENDBRANCH   2   4
TORSDOF 2
ENDMDL
MODEL      184
REMARK 921   NORMALIZED FREE ENERGY PREDICTED BY IDOCK:    4.13 KCAL/MOL
REMARK 922        TOTAL FREE ENERGY PREDICTED BY IDOCK:    4.46 KCAL/MOL
REMARK 923 INTER-LIGAND FREE ENERGY PREDICTED BY IDOCK:    2.50 KCAL/MOL
REMARK 924 INTRA-LIGAND FREE ENERGY PREDICTED BY IDOCK:    1.96 KCAL/MOL
REMARK 927      BINDING AFFINITY PREDICTED BY RF-SCORE:    0.00 PKD
ROOT
HETATM    1  C   UNL     1      -6.185  12.672  68.330  1.00  0.00    -0.071 C  
HETATM    2  N   UNL     1      -6.250  13.792  69.270  1.00  0.00    -0.099 NA 
HETATM    3  C   UNL     1      -5.669  13.393  70.556  1.00  0.00    -0.175 C  
ENDROOT
BRANCH   2   4
HETATM    4  C   UNL     1      -5.547  14.984  68.762  1.00  0.00    -0.087 C  
BRANCH   4   5
HETATM    5  C   UNL     1      -6.465  16.146  68.361  1.00  0.00    -0.119 C  
HETATM    6  C   UNL     1      -7.439  15.823  67.201  1.00  0.00    -0.259 C  
HETATM    7  C   UNL     1      -8.443  14.740  67.586  1.00  0.00    -0.185 A  
HETATM    8  C   UNL     1      -8.112  17.096  66.685  1.00  0.00    -0.257 A  
HETATM    9  C   UNL     1      -9.362  14.938  68.629  1.00  0.00    -0.194 A  
HETATM   10  C   UNL     1      -8.548  17.163  65.363  1.00  0.00     1.375 A  
HETATM   11  C   UNL     1      -9.104  18.353  64.894  1.00  0.00     3.868 A  
HETATM   12  C   UNL     1     -10.223  13.912  69.025  1.00  0.00    -0.071 A  
HETATM   13  C   UNL     1      -9.216  19.438  65.754  1.00  0.00     0.165 A  
HETATM   14  C   UNL     1     -10.181  12.683  68.372  1.00  0.00    -0.232 A  
HETATM   15  C   UNL     1      -8.784  19.284  67.058  1.00  0.00    -0.292 A  
HETATM   16  C   UNL     1      -9.292  12.474  67.320  1.00  0.00    -0.190 A  
HETATM   17 BR   UNL     1     -11.322  11.284  68.930  1.00  0.00    -0.379 Br 
HETATM   18  N   UNL     1      -8.245  18.144  67.540  1.00  0.00    -0.235 NA 
HETATM   19  C   UNL     1      -8.426  13.498  66.930  1.00  0.00    -0.066 A  
ENDBRANCH   4   5
ENDBRANCH   2   4
TORSDOF 2
ENDMDL
MODEL      185
REMARK 921   NORMALIZED FREE ENERGY PREDICTED BY IDOCK:    6.16 KCAL/MOL
REMARK 922        TOTAL FREE ENERGY PREDICTED BY IDOCK:    6.72 KCAL/MOL
REMARK 923 INTER-LIGAND FREE ENERGY PREDICTED BY IDOCK:    6.02 KCAL/MOL
REMARK 924 INTRA-LIGAND FREE ENERGY PREDICTED BY IDOCK:    0.70 KCAL/MOL
REMARK 927      BINDING AFFINITY PREDICTED BY RF-SCORE:    0.00 PKD
ROOT
HETATM    1  C   UNL     1      -6.114  12.532  66.195  1.00  0.00     2.420 C  
HETATM    2  N   UNL     1      -6.423  12.308  67.608  1.00  0.00    -0.104 NA 
HETATM    3  C   UNL     1      -5.197  11.958  68.332  1.00  0.00    -0.046 C  
ENDROOT
BRANCH   2   4
HETATM    4  C   UNL     1      -7.041  13.491  68.234  1.00  0.00    -0.110 C  
BRANCH   4   5
HETATM    5  C   UNL     1      -8.431  13.243  68.836  1.00  0.00     0.247 C  
HETATM    6  C   UNL     1      -9.560  13.069  67.791  1.00  0.00    -0.208 C  
HETATM    7  C   UNL     1      -9.355  11.822  66.935  1.00  0.00    -0.197 A  
HETATM    8  C   UNL     1     -10.934  13.104  68.463  1.00  0.00    -0.263 A  
HETATM    9  C   UNL     1      -9.351  10.540  67.507  1.00  0.00    -0.162 A  
HETATM   10  C   UNL     1     -12.048  13.531  67.744  1.00  0.00    -0.316 A  
HETATM   11  C   UNL     1     -13.280  13.616  68.391  1.00  0.00     3.307 A  
HETATM   12  C   UNL     1      -9.085   9.412  66.727  1.00  0.00    -0.168 A  
HETATM   13  C   UNL     1     -13.370  13.266  69.732  1.00  0.00     1.804 A  
HETATM   14  C   UNL     1      -8.833   9.557  65.365  1.00  0.00    -0.178 A  
HETATM   15  C   UNL     1     -12.224  12.828  70.370  1.00  0.00    -0.293 A  
HETATM   16  C   UNL     1      -8.856  10.818  64.774  1.00  0.00    -0.162 A  
HETATM   17 BR   UNL     1      -8.439   8.035  64.317  1.00  0.00     0.178 Br 
HETATM   18  N   UNL     1     -11.019  12.734  69.768  1.00  0.00     0.198 NA 
HETATM   19  C   UNL     1      -9.114  11.946  65.557  1.00  0.00     0.073 A  
ENDBRANCH   4   5
ENDBRANCH   2   4
TORSDOF 2
ENDMDL
MODEL      186
REMARK 921   NORMALIZED FREE ENERGY PREDICTED BY IDOCK:    6.49 KCAL/MOL
REMARK 922        TOTAL FREE ENERGY PREDICTED BY IDOCK:    7.09 KCAL/MOL
REMARK 923 INTER-LIGAND FREE ENERGY PREDICTED BY IDOCK:    7.25 KCAL/MOL
REMARK 924 INTRA-LIGAND FREE ENERGY PREDICTED BY IDOCK:   -0.16 KCAL/MOL
REMARK 927      BINDING AFFINITY PREDICTED BY RF-SCORE:    0.00 PKD
ROOT
HETATM    1  C   UNL     1      -6.529  13.591  72.035  1.00  0.00     2.234 C  
HETATM    2  N   UNL     1      -6.114  12.225  71.714  1.00  0.00     0.959 NA 
HETATM    3  C   UNL     1      -5.132  11.762  72.699  1.00  0.00     0.399 C  
ENDROOT
BRANCH   2   4
HETATM    4  C   UNL     1      -7.255  11.292  71.683  1.00  0.00     5.688 C  
BRANCH   4   5
HETATM    5  C   UNL     1      -7.031  10.036  70.830  1.00  0.00     0.058 C  
HETATM    6  C   UNL     1      -8.308   9.493  70.141  1.00  0.00    -0.212 C  
HETATM    7  C   UNL     1      -8.866  10.478  69.118  1.00  0.00    -0.161 A  
HETATM    8  C   UNL     1      -8.057   8.105  69.549  1.00  0.00    -0.119 A  
HETATM    9  C   UNL     1      -8.120  10.855  67.990  1.00  0.00    -0.119 A  
HETATM   10  C   UNL     1      -9.116   7.210  69.406  1.00  0.00    -0.145 A  
HETATM   11  C   UNL     1      -8.858   5.928  68.921  1.00  0.00    -0.115 A  
HETATM   12  C   UNL     1      -8.608  11.816  67.102  1.00  0.00    -0.168 A  
HETATM   13  C   UNL     1      -7.557   5.577  68.586  1.00  0.00    -0.080 A  
HETATM   14  C   UNL     1      -9.852  12.400  67.330  1.00  0.00    -0.207 A  
HETATM   15  C   UNL     1      -6.565   6.528  68.733  1.00  0.00    -0.051 A  
HETATM   16  C   UNL     1     -10.617  12.023  68.431  1.00  0.00    -0.236 A  
HETATM   17 BR   UNL     1     -10.496  13.726  66.147  1.00  0.00    -0.304 Br 
HETATM   18  N   UNL     1      -6.786   7.777  69.197  1.00  0.00    -0.048 NA 
HETATM   19  C   UNL     1     -10.124  11.067  69.323  1.00  0.00    -0.121 A  
ENDBRANCH   4   5
ENDBRANCH   2   4
TORSDOF 2
ENDMDL
MODEL      187
REMARK 921   NORMALIZED FREE ENERGY PREDICTED BY IDOCK:    7.60 KCAL/MOL
REMARK 922        TOTAL FREE ENERGY PREDICTED BY IDOCK:    8.33 KCAL/MOL
REMARK 923 INTER-LIGAND FREE ENERGY PREDICTED BY IDOCK:    3.41 KCAL/MOL
REMARK 924 INTRA-LIGAND FREE ENERGY PREDICTED BY IDOCK:    4.92 KCAL/MOL
REMARK 927      BINDING AFFINITY PREDICTED BY RF-SCORE:    0.00 PKD
ROOT
HETATM    1  C   UNL     1     -12.002  16.227  67.366  1.00  0.00     0.969 C  
HETATM    2  N   UNL     1     -10.979  16.599  68.345  1.00  0.00    -0.357 NA 
HETATM    3  C   UNL     1     -10.662  15.445  69.193  1.00  0.00    -0.246 C  
ENDROOT
BRANCH   2   4
HETATM    4  C   UNL     1      -9.746  17.087  67.700  1.00  0.00    -0.257 C  
BRANCH   4   5
HETATM    5  C   UNL     1      -8.467  16.874  68.521  1.00  0.00    -0.258 C  
HETATM    6  C   UNL     1      -8.450  15.567  69.353  1.00  0.00    -0.256 C  
HETATM    7  C   UNL     1      -8.470  14.326  68.464  1.00  0.00    -0.164 A  
HETATM    8  C   UNL     1      -7.283  15.567  70.342  1.00  0.00     0.597 A  
HETATM    9  C   UNL     1      -7.425  14.058  67.567  1.00  0.00    -0.186 A  
HETATM   10  C   UNL     1      -7.376  14.837  71.525  1.00  0.00     2.482 A  
HETATM   11  C   UNL     1      -6.327  14.898  72.442  1.00  0.00     1.192 A  
HETATM   12  C   UNL     1      -7.491  12.963  66.703  1.00  0.00     0.698 A  
HETATM   13  C   UNL     1      -5.214  15.677  72.152  1.00  0.00     0.203 A  
HETATM   14  C   UNL     1      -8.598  12.119  66.740  1.00  0.00    -0.163 A  
HETATM   15  C   UNL     1      -5.186  16.351  70.945  1.00  0.00    -0.143 A  
HETATM   16  C   UNL     1      -9.635  12.355  67.639  1.00  0.00    -0.193 A  
HETATM   17 BR   UNL     1      -8.703  10.656  65.547  1.00  0.00    -0.202 Br 
HETATM   18  N   UNL     1      -6.185  16.308  70.038  1.00  0.00    -0.161 NA 
HETATM   19  C   UNL     1      -9.572  13.455  68.497  1.00  0.00    -0.141 A  
ENDBRANCH   4   5
ENDBRANCH   2   4
TORSDOF 2
ENDMDL
MODEL      188
REMARK 921   NORMALIZED FREE ENERGY PREDICTED BY IDOCK:    8.30 KCAL/MOL
REMARK 922        TOTAL FREE ENERGY PREDICTED BY IDOCK:    9.11 KCAL/MOL
REMARK 923 INTER-LIGAND FREE ENERGY PREDICTED BY IDOCK:    8.90 KCAL/MOL
REMARK 924 INTRA-LIGAND FREE ENERGY PREDICTED BY IDOCK:    0.22 KCAL/MOL
REMARK 927      BINDING AFFINITY PREDICTED BY RF-SCORE:    0.00 PKD
ROOT
HETATM    1  C   UNL     1      -6.287  12.835  66.228  1.00  0.00     2.570 C  
HETATM    2  N   UNL     1      -6.434  13.306  67.605  1.00  0.00    -0.158 NA 
HETATM    3  C   UNL     1      -5.349  12.766  68.431  1.00  0.00    -0.061 C  
ENDROOT
BRANCH   2   4
HETATM    4  C   UNL     1      -6.429  14.778  67.690  1.00  0.00    -0.139 C  
BRANCH   4   5
HETATM    5  C   UNL     1      -7.521  15.370  68.592  1.00  0.00    -0.130 C  
HETATM    6  C   UNL     1      -8.949  15.308  67.994  1.00  0.00    -0.171 C  
HETATM    7  C   UNL     1      -9.428  13.870  67.813  1.00  0.00    -0.214 A  
HETATM    8  C   UNL     1      -9.921  16.155  68.817  1.00  0.00    -0.231 A  
HETATM    9  C   UNL     1      -9.585  13.013  68.913  1.00  0.00     0.215 A  
HETATM   10  C   UNL     1     -11.047  16.707  68.209  1.00  0.00    -0.295 A  
HETATM   11  C   UNL     1     -11.888  17.526  68.961  1.00  0.00     2.519 A  
HETATM   12  C   UNL     1      -9.948  11.676  68.729  1.00  0.00    -0.147 A  
HETATM   13  C   UNL     1     -11.590  17.767  70.296  1.00  0.00     3.702 A  
HETATM   14  C   UNL     1     -10.169  11.191  67.443  1.00  0.00    -0.190 A  
HETATM   15  C   UNL     1     -10.468  17.163  70.833  1.00  0.00     1.734 A  
HETATM   16  C   UNL     1     -10.040  12.031  66.340  1.00  0.00    -0.242 A  
HETATM   17 BR   UNL     1     -10.627   9.374  67.192  1.00  0.00    -0.241 Br 
HETATM   18  N   UNL     1      -9.638  16.363  70.130  1.00  0.00     0.659 NA 
HETATM   19  C   UNL     1      -9.669  13.365  66.524  1.00  0.00    -0.284 A  
ENDBRANCH   4   5
ENDBRANCH   2   4
TORSDOF 2
ENDMDL
MODEL      189
REMARK 921   NORMALIZED FREE ENERGY PREDICTED BY IDOCK:   15.72 KCAL/MOL
REMARK 922        TOTAL FREE ENERGY PREDICTED BY IDOCK:   17.40 KCAL/MOL
REMARK 923 INTER-LIGAND FREE ENERGY PREDICTED BY IDOCK:   17.57 KCAL/MOL
REMARK 924 INTRA-LIGAND FREE ENERGY PREDICTED BY IDOCK:   -0.17 KCAL/MOL
REMARK 927      BINDING AFFINITY PREDICTED BY RF-SCORE:    0.00 PKD
ROOT
HETATM    1  C   UNL     1     -12.852   4.857  68.498  1.00  0.00    17.079 C  
HETATM    2  N   UNL     1     -12.102   6.023  68.968  1.00  0.00     1.696 NA 
HETATM    3  C   UNL     1     -11.581   5.766  70.314  1.00  0.00     0.407 C  
ENDROOT
BRANCH   2   4
HETATM    4  C   UNL     1     -10.987   6.364  68.066  1.00  0.00    -0.311 C  
BRANCH   4   5
HETATM    5  C   UNL     1     -10.044   5.196  67.745  1.00  0.00    -0.197 C  
HETATM    6  C   UNL     1      -9.028   5.486  66.612  1.00  0.00    -0.118 C  
HETATM    7  C   UNL     1      -8.048   6.592  66.994  1.00  0.00    -0.113 A  
HETATM    8  C   UNL     1      -8.326   4.201  66.170  1.00  0.00    -0.109 A  
HETATM    9  C   UNL     1      -7.170   6.441  68.078  1.00  0.00    -0.087 A  
HETATM   10  C   UNL     1      -7.838   4.088  64.870  1.00  0.00    -0.089 A  
HETATM   11  C   UNL     1      -7.256   2.887  64.467  1.00  0.00    -0.058 A  
HETATM   12  C   UNL     1      -6.332   7.489  68.468  1.00  0.00    -0.044 A  
HETATM   13  C   UNL     1      -7.168   1.836  65.371  1.00  0.00    -0.052 A  
HETATM   14  C   UNL     1      -6.359   8.692  67.768  1.00  0.00    -0.057 A  
HETATM   15  C   UNL     1      -7.652   2.034  66.651  1.00  0.00    -0.066 A  
HETATM   16  C   UNL     1      -7.208   8.854  66.675  1.00  0.00    -0.085 A  
HETATM   17 BR   UNL     1      -5.251  10.122  68.317  1.00  0.00    -0.034 Br 
HETATM   18  N   UNL     1      -8.218   3.187  67.069  1.00  0.00    -0.083 NA 
HETATM   19  C   UNL     1      -8.050   7.808  66.291  1.00  0.00    -0.114 A  
ENDBRANCH   4   5
ENDBRANCH   2   4
TORSDOF 2
ENDMDL
MODEL      190
REMARK 921   NORMALIZED FREE ENERGY PREDICTED BY IDOCK:   21.42 KCAL/MOL
REMARK 922        TOTAL FREE ENERGY PREDICTED BY IDOCK:   23.76 KCAL/MOL
REMARK 923 INTER-LIGAND FREE ENERGY PREDICTED BY IDOCK:   19.38 KCAL/MOL
REMARK 924 INTRA-LIGAND FREE ENERGY PREDICTED BY IDOCK:    4.38 KCAL/MOL
REMARK 927      BINDING AFFINITY PREDICTED BY RF-SCORE:    0.00 PKD
ROOT
HETATM    1  C   UNL     1     -11.450  17.082  67.314  1.00  0.00     0.648 C  
HETATM    2  N   UNL     1     -10.618  17.727  68.331  1.00  0.00    -0.334 NA 
HETATM    3  C   UNL     1     -10.080  16.714  69.245  1.00  0.00    -0.257 C  
ENDROOT
BRANCH   2   4
HETATM    4  C   UNL     1      -9.507  18.491  67.735  1.00  0.00    -0.289 C  
BRANCH   4   5
HETATM    5  C   UNL     1      -8.314  18.721  68.673  1.00  0.00    -0.360 C  
HETATM    6  C   UNL     1      -7.972  17.514  69.583  1.00  0.00     0.818 C  
HETATM    7  C   UNL     1      -7.514  16.304  68.773  1.00  0.00    -0.195 A  
HETATM    8  C   UNL     1      -6.968  17.916  70.665  1.00  0.00     2.335 A  
HETATM    9  C   UNL     1      -6.353  16.354  67.985  1.00  0.00    -0.137 A  
HETATM   10  C   UNL     1      -6.945  17.233  71.878  1.00  0.00     6.680 A  
HETATM   11  C   UNL     1      -6.065  17.653  72.875  1.00  0.00     4.123 A  
HETATM   12  C   UNL     1      -5.986  15.268  67.188  1.00  0.00     0.454 A  
HETATM   13  C   UNL     1      -5.229  18.735  72.633  1.00  0.00     2.294 A  
HETATM   14  C   UNL     1      -6.771  14.117  67.183  1.00  0.00     0.534 A  
HETATM   15  C   UNL     1      -5.293  19.345  71.394  1.00  0.00    -0.329 A  
HETATM   16  C   UNL     1      -7.914  14.040  67.975  1.00  0.00    -0.152 A  
HETATM   17 BR   UNL     1      -6.292  12.660  66.078  1.00  0.00     3.819 Br 
HETATM   18  N   UNL     1      -6.133  18.958  70.410  1.00  0.00    -0.100 NA 
HETATM   19  C   UNL     1      -8.284  15.130  68.766  1.00  0.00    -0.169 A  
ENDBRANCH   4   5
ENDBRANCH   2   4
TORSDOF 2
ENDMDL
MODEL      191
REMARK 921   NORMALIZED FREE ENERGY PREDICTED BY IDOCK:   23.97 KCAL/MOL
REMARK 922        TOTAL FREE ENERGY PREDICTED BY IDOCK:   26.62 KCAL/MOL
REMARK 923 INTER-LIGAND FREE ENERGY PREDICTED BY IDOCK:   26.79 KCAL/MOL
REMARK 924 INTRA-LIGAND FREE ENERGY PREDICTED BY IDOCK:   -0.17 KCAL/MOL
REMARK 927      BINDING AFFINITY PREDICTED BY RF-SCORE:    0.00 PKD
ROOT
HETATM    1  C   UNL     1     -13.121   4.676  68.483  1.00  0.00    22.229 C  
HETATM    2  N   UNL     1     -12.438   5.862  69.001  1.00  0.00     4.147 NA 
HETATM    3  C   UNL     1     -11.981   5.611  70.372  1.00  0.00     1.634 C  
ENDROOT
BRANCH   2   4
HETATM    4  C   UNL     1     -11.288   6.249  68.163  1.00  0.00     0.075 C  
BRANCH   4   5
HETATM    5  C   UNL     1      -9.990   6.510  68.940  1.00  0.00    -0.165 C  
HETATM    6  C   UNL     1      -8.731   6.666  68.051  1.00  0.00    -0.117 C  
HETATM    7  C   UNL     1      -8.819   7.896  67.152  1.00  0.00    -0.137 A  
HETATM    8  C   UNL     1      -7.459   6.644  68.900  1.00  0.00    -0.096 A  
HETATM    9  C   UNL     1      -8.897   9.188  67.694  1.00  0.00    -0.123 A  
HETATM   10  C   UNL     1      -6.260   6.204  68.343  1.00  0.00    -0.028 A  
HETATM   11  C   UNL     1      -5.125   6.133  69.150  1.00  0.00    -0.004 A  
HETATM   12  C   UNL     1      -9.056  10.301  66.864  1.00  0.00    -0.159 A  
HETATM   13  C   UNL     1      -5.214   6.509  70.484  1.00  0.00    -0.018 A  
HETATM   14  C   UNL     1      -9.124  10.130  65.484  1.00  0.00    -0.178 A  
HETATM   15  C   UNL     1      -6.433   6.958  70.956  1.00  0.00    -0.044 A  
HETATM   16  C   UNL     1      -9.026   8.858  64.925  1.00  0.00    -0.128 A  
HETATM   17 BR   UNL     1      -9.373  11.632  64.364  1.00  0.00     0.133 Br 
HETATM   18  N   UNL     1      -7.547   7.040  70.197  1.00  0.00    -0.093 NA 
HETATM   19  C   UNL     1      -8.875   7.745  65.756  1.00  0.00    -0.141 A  
ENDBRANCH   4   5
ENDBRANCH   2   4
TORSDOF 2
ENDMDL
MODEL      192
REMARK 921   NORMALIZED FREE ENERGY PREDICTED BY IDOCK:   36.49 KCAL/MOL
REMARK 922        TOTAL FREE ENERGY PREDICTED BY IDOCK:   40.59 KCAL/MOL
REMARK 923 INTER-LIGAND FREE ENERGY PREDICTED BY IDOCK:   40.82 KCAL/MOL
REMARK 924 INTRA-LIGAND FREE ENERGY PREDICTED BY IDOCK:   -0.22 KCAL/MOL
REMARK 927      BINDING AFFINITY PREDICTED BY RF-SCORE:    0.00 PKD
ROOT
HETATM    1  C   UNL     1     -13.415   4.406  68.393  1.00  0.00    28.528 C  
HETATM    2  N   UNL     1     -12.782   5.516  69.106  1.00  0.00     7.687 NA 
HETATM    3  C   UNL     1     -12.470   5.109  70.480  1.00  0.00     6.101 C  
ENDROOT
BRANCH   2   4
HETATM    4  C   UNL     1     -11.550   5.972  68.437  1.00  0.00     0.906 C  
BRANCH   4   5
HETATM    5  C   UNL     1     -10.331   6.102  69.361  1.00  0.00    -0.283 C  
HETATM    6  C   UNL     1      -9.449   7.346  69.089  1.00  0.00    -0.149 C  
HETATM    7  C   UNL     1     -10.199   8.646  69.364  1.00  0.00    -0.211 A  
HETATM    8  C   UNL     1      -8.127   7.253  69.853  1.00  0.00    -0.127 A  
HETATM    9  C   UNL     1     -10.669   8.956  70.650  1.00  0.00    -0.282 A  
HETATM   10  C   UNL     1      -6.995   7.899  69.361  1.00  0.00    -0.059 A  
HETATM   11  C   UNL     1      -5.784   7.752  70.037  1.00  0.00    -0.023 A  
HETATM   12  C   UNL     1     -11.421  10.111  70.875  1.00  0.00    -0.444 A  
HETATM   13  C   UNL     1      -5.737   6.975  71.187  1.00  0.00    -0.031 A  
HETATM   14  C   UNL     1     -11.699  10.972  69.816  1.00  0.00    -0.335 A  
HETATM   15  C   UNL     1      -6.909   6.386  71.626  1.00  0.00    -0.067 A  
HETATM   16  C   UNL     1     -11.223  10.694  68.537  1.00  0.00    -0.342 A  
HETATM   17 BR   UNL     1     -12.747  12.517  70.114  1.00  0.00     0.332 Br 
HETATM   18  N   UNL     1      -8.095   6.513  70.992  1.00  0.00    -0.118 NA 
HETATM   19  C   UNL     1     -10.477   9.534  68.312  1.00  0.00    -0.265 A  
ENDBRANCH   4   5
ENDBRANCH   2   4
TORSDOF 2
ENDMDL
MODEL      193
REMARK 921   NORMALIZED FREE ENERGY PREDICTED BY IDOCK:   38.31 KCAL/MOL
REMARK 922        TOTAL FREE ENERGY PREDICTED BY IDOCK:   42.63 KCAL/MOL
REMARK 923 INTER-LIGAND FREE ENERGY PREDICTED BY IDOCK:   29.26 KCAL/MOL
REMARK 924 INTRA-LIGAND FREE ENERGY PREDICTED BY IDOCK:   13.37 KCAL/MOL
REMARK 927      BINDING AFFINITY PREDICTED BY RF-SCORE:    0.00 PKD
ROOT
HETATM    1  C   UNL     1     -11.450  17.082  67.314  1.00  0.00     0.648 C  
HETATM    2  N   UNL     1     -10.618  17.727  68.331  1.00  0.00    -0.334 NA 
HETATM    3  C   UNL     1     -10.080  16.714  69.245  1.00  0.00    -0.257 C  
ENDROOT
BRANCH   2   4
HETATM    4  C   UNL     1      -9.507  18.491  67.735  1.00  0.00    -0.289 C  
BRANCH   4   5
HETATM    5  C   UNL     1      -8.314  18.721  68.673  1.00  0.00    -0.360 C  
HETATM    6  C   UNL     1      -8.684  18.784  70.176  1.00  0.00     1.878 C  
HETATM    7  C   UNL     1      -9.237  17.455  70.683  1.00  0.00     4.218 A  
HETATM    8  C   UNL     1      -7.501  19.287  71.006  1.00  0.00     2.389 A  
HETATM    9  C   UNL     1      -8.453  16.291  70.672  1.00  0.00     3.148 A  
HETATM   10  C   UNL     1      -7.730  19.949  72.210  1.00  0.00     2.542 A  
HETATM   11  C   UNL     1      -6.643  20.454  72.923  1.00  0.00     3.365 A  
HETATM   12  C   UNL     1      -8.994  15.064  71.064  1.00  0.00     2.675 A  
HETATM   13  C   UNL     1      -5.360  20.278  72.421  1.00  0.00     0.431 A  
HETATM   14  C   UNL     1     -10.321  14.996  71.482  1.00  0.00     1.320 A  
HETATM   15  C   UNL     1      -5.213  19.588  71.232  1.00  0.00    -0.312 A  
HETATM   16  C   UNL     1     -11.108  16.144  71.521  1.00  0.00     0.081 A  
HETATM   17 BR   UNL     1     -11.063  13.330  71.980  1.00  0.00     5.992 Br 
HETATM   18  N   UNL     1      -6.247  19.086  70.523  1.00  0.00     0.007 NA 
HETATM   19  C   UNL     1     -10.568  17.368  71.121  1.00  0.00     2.115 A  
ENDBRANCH   4   5
ENDBRANCH   2   4
TORSDOF 2
ENDMDL
MODEL      194
REMARK 921   NORMALIZED FREE ENERGY PREDICTED BY IDOCK:   39.17 KCAL/MOL
REMARK 922        TOTAL FREE ENERGY PREDICTED BY IDOCK:   43.59 KCAL/MOL
REMARK 923 INTER-LIGAND FREE ENERGY PREDICTED BY IDOCK:   41.04 KCAL/MOL
REMARK 924 INTRA-LIGAND FREE ENERGY PREDICTED BY IDOCK:    2.55 KCAL/MOL
REMARK 927      BINDING AFFINITY PREDICTED BY RF-SCORE:    0.00 PKD
ROOT
HETATM    1  C   UNL     1      -6.378  13.673  64.195  1.00  0.00    20.706 C  
HETATM    2  N   UNL     1      -6.993  14.015  65.478  1.00  0.00     7.604 NA 
HETATM    3  C   UNL     1      -6.003  13.883  66.553  1.00  0.00     3.358 C  
ENDROOT
BRANCH   2   4
HETATM    4  C   UNL     1      -7.542  15.383  65.482  1.00  0.00     4.960 C  
BRANCH   4   5
HETATM    5  C   UNL     1      -6.913  16.321  66.522  1.00  0.00     0.105 C  
HETATM    6  C   UNL     1      -7.656  16.362  67.881  1.00  0.00    -0.158 C  
HETATM    7  C   UNL     1      -7.608  15.015  68.596  1.00  0.00    -0.128 A  
HETATM    8  C   UNL     1      -7.139  17.511  68.749  1.00  0.00    -0.248 A  
HETATM    9  C   UNL     1      -6.389  14.450  69.000  1.00  0.00    -0.097 A  
HETATM   10  C   UNL     1      -7.974  18.093  69.699  1.00  0.00     0.767 A  
HETATM   11  C   UNL     1      -7.506  19.179  70.438  1.00  0.00     1.227 A  
HETATM   12  C   UNL     1      -6.350  13.181  69.583  1.00  0.00    -0.086 A  
HETATM   13  C   UNL     1      -6.217  19.648  70.216  1.00  0.00    -0.274 A  
HETATM   14  C   UNL     1      -7.533  12.473  69.778  1.00  0.00     1.034 A  
HETATM   15  C   UNL     1      -5.441  19.001  69.273  1.00  0.00    -0.202 A  
HETATM   16  C   UNL     1      -8.756  13.026  69.404  1.00  0.00     1.207 A  
HETATM   17 BR   UNL     1      -7.477  10.742  70.536  1.00  0.00     1.538 Br 
HETATM   18  N   UNL     1      -5.867  17.946  68.545  1.00  0.00    -0.175 NA 
HETATM   19  C   UNL     1      -8.792  14.292  68.814  1.00  0.00    -0.094 A  
ENDBRANCH   4   5
ENDBRANCH   2   4
TORSDOF 2
ENDMDL
