MODEL        1
REMARK 921   NORMALIZED FREE ENERGY PREDICTED BY IDOCK:   -7.23 KCAL/MOL
REMARK 922        TOTAL FREE ENERGY PREDICTED BY IDOCK:   -8.76 KCAL/MOL
REMARK 923 INTER-LIGAND FREE ENERGY PREDICTED BY IDOCK:   -8.07 KCAL/MOL
REMARK 924 INTRA-LIGAND FREE ENERGY PREDICTED BY IDOCK:   -0.68 KCAL/MOL
REMARK 927      BINDING AFFINITY PREDICTED BY RF-SCORE:    0.00 PKD
ROOT
HETATM    1  O   UNL     1      -7.966  16.964  69.330  1.00  0.00    -0.161 OA 
HETATM    2  C   UNL     1      -6.963  17.684  68.814  1.00  0.00    -0.245 C  
HETATM    3  C   UNL     2      -6.706  11.743  67.054  1.00  0.00    -0.139 C  
HETATM    4  N   UNL     2      -7.439  12.060  68.277  1.00  0.00    -0.098 NA 
HETATM    5  O   UNL     1      -6.043  18.108  69.498  1.00  0.00    -0.235 OA 
HETATM    6  C   UNL     1      -6.918  17.857  67.347  1.00  0.00    -0.200 C  
HETATM    7  C   UNL     1      -7.795  17.643  66.355  1.00  0.00    -0.318 C  
HETATM    8  O   UNL     1      -9.760  17.199  67.599  1.00  0.00    -0.254 OA 
HETATM    9  C   UNL     2      -6.578  11.839  69.444  1.00  0.00    -0.113 C  
HETATM   10  O   UNL     1      -9.721  16.717  65.396  1.00  0.00    -0.510 OA 
HETATM   11  C   UNL     1      -9.178  17.196  66.526  1.00  0.00    -0.266 C  
ENDROOT
BRANCH   4  12
HETATM   12  C   UNL     2      -7.966  13.432  68.292  1.00  0.00    -0.147 C  
BRANCH  12  13
HETATM   13  C   UNL     2      -8.969  13.732  67.164  1.00  0.00    -0.241 C  
HETATM   14  C   UNL     2     -10.167  12.760  67.093  1.00  0.00    -0.235 C  
HETATM   15  C   UNL     2     -10.963  12.915  65.796  1.00  0.00    -0.278 A  
HETATM   16  C   UNL     2     -11.037  12.828  68.349  1.00  0.00    -0.293 A  
HETATM   17  C   UNL     2     -11.528  14.130  65.406  1.00  0.00    -0.325 A  
HETATM   18  C   UNL     2     -11.641  14.021  68.783  1.00  0.00    -0.366 A  
HETATM   19  C   UNL     2     -12.387  14.058  69.963  1.00  0.00    -0.397 A  
HETATM   20  C   UNL     2     -12.275  14.194  64.232  1.00  0.00    -0.449 A  
HETATM   21  C   UNL     2     -12.527  12.904  70.728  1.00  0.00    -0.286 A  
HETATM   22  C   UNL     2     -12.430  13.053  63.461  1.00  0.00    -0.388 A  
HETATM   23  C   UNL     2     -11.821  11.890  63.894  1.00  0.00    -0.411 A  
HETATM   24 CL   UNL     2     -13.420  12.959  72.198  1.00  0.00    -0.642 Cl 
HETATM   25  C   UNL     2     -11.938  11.712  70.319  1.00  0.00    -0.445 A  
HETATM   26  N   UNL     2     -11.093  11.799  65.030  1.00  0.00    -0.303 NA 
HETATM   27  C   UNL     2     -11.201  11.673  69.132  1.00  0.00    -0.325 A  
ENDBRANCH  12  13
ENDBRANCH   4  12
TORSDOF 2
ENDMDL
MODEL        2
REMARK 921   NORMALIZED FREE ENERGY PREDICTED BY IDOCK:   -6.88 KCAL/MOL
REMARK 922        TOTAL FREE ENERGY PREDICTED BY IDOCK:   -8.37 KCAL/MOL
REMARK 923 INTER-LIGAND FREE ENERGY PREDICTED BY IDOCK:   -7.48 KCAL/MOL
REMARK 924 INTRA-LIGAND FREE ENERGY PREDICTED BY IDOCK:   -0.90 KCAL/MOL
REMARK 927      BINDING AFFINITY PREDICTED BY RF-SCORE:    0.00 PKD
ROOT
HETATM    1  O   UNL     1      -7.216  17.372  66.915  1.00  0.00    -0.166 OA 
HETATM    2  C   UNL     1      -6.847  18.295  66.019  1.00  0.00    -0.276 C  
HETATM    3  C   UNL     2     -12.146  15.494  64.426  1.00  0.00    -0.139 C  
HETATM    4  N   UNL     2     -11.248  14.787  65.336  1.00  0.00    -0.336 NA 
HETATM    5  O   UNL     1      -5.887  18.143  65.280  1.00  0.00    -0.187 OA 
HETATM    6  C   UNL     1      -7.717  19.478  65.848  1.00  0.00    -0.288 C  
HETATM    7  C   UNL     1      -8.732  20.001  66.552  1.00  0.00    -0.384 C  
HETATM    8  O   UNL     1      -8.619  18.686  68.519  1.00  0.00    -0.330 OA 
HETATM    9  C   UNL     2     -10.422  13.839  64.582  1.00  0.00    -0.412 C  
HETATM   10  O   UNL     1     -10.448  19.951  68.145  1.00  0.00    -0.424 OA 
HETATM   11  C   UNL     1      -9.227  19.493  67.833  1.00  0.00    -0.328 C  
ENDROOT
BRANCH   4  12
HETATM   12  C   UNL     2     -10.392  15.691  66.117  1.00  0.00    -0.316 C  
BRANCH  12  13
HETATM   13  C   UNL     2     -10.890  15.945  67.552  1.00  0.00    -0.305 C  
HETATM   14  C   UNL     2     -10.837  14.711  68.478  1.00  0.00    -0.256 C  
HETATM   15  C   UNL     2     -11.607  14.931  69.781  1.00  0.00    -0.303 A  
HETATM   16  C   UNL     2      -9.406  14.217  68.697  1.00  0.00    -0.172 A  
HETATM   17  C   UNL     2     -11.319  15.984  70.651  1.00  0.00    -0.424 A  
HETATM   18  C   UNL     2      -8.399  15.040  69.232  1.00  0.00    -0.169 A  
HETATM   19  C   UNL     2      -7.091  14.573  69.370  1.00  0.00    -0.140 A  
HETATM   20  C   UNL     2     -12.032  16.105  71.841  1.00  0.00    -0.583 A  
HETATM   21  C   UNL     2      -6.772  13.281  68.963  1.00  0.00    -0.107 A  
HETATM   22  C   UNL     2     -13.030  15.188  72.134  1.00  0.00    -0.440 A  
HETATM   23  C   UNL     2     -13.279  14.187  71.214  1.00  0.00    -0.329 A  
HETATM   24 CL   UNL     2      -5.152  12.718  69.105  1.00  0.00    -0.068 Cl 
HETATM   25  C   UNL     2      -7.751  12.449  68.431  1.00  0.00    -0.144 A  
HETATM   26  N   UNL     2     -12.601  14.044  70.053  1.00  0.00    -0.273 NA 
HETATM   27  C   UNL     2      -9.063  12.913  68.304  1.00  0.00    -0.180 A  
ENDBRANCH  12  13
ENDBRANCH   4  12
TORSDOF 2
ENDMDL
MODEL        3
REMARK 921   NORMALIZED FREE ENERGY PREDICTED BY IDOCK:   -6.85 KCAL/MOL
REMARK 922        TOTAL FREE ENERGY PREDICTED BY IDOCK:   -8.34 KCAL/MOL
REMARK 923 INTER-LIGAND FREE ENERGY PREDICTED BY IDOCK:   -7.38 KCAL/MOL
REMARK 924 INTRA-LIGAND FREE ENERGY PREDICTED BY IDOCK:   -0.95 KCAL/MOL
REMARK 927      BINDING AFFINITY PREDICTED BY RF-SCORE:    0.00 PKD
ROOT
HETATM    1  O   UNL     1     -13.657  14.323  70.953  1.00  0.00    -0.261 OA 
HETATM    2  C   UNL     1     -13.293  14.901  72.103  1.00  0.00    -0.375 C  
HETATM    3  C   UNL     2     -10.173   9.646  71.052  1.00  0.00    -0.182 C  
HETATM    4  N   UNL     2     -11.461   9.819  70.383  1.00  0.00    -0.269 NA 
HETATM    5  O   UNL     1     -14.026  14.934  73.080  1.00  0.00    -0.454 OA 
HETATM    6  C   UNL     1     -11.907  15.403  72.217  1.00  0.00    -0.551 C  
HETATM    7  C   UNL     1     -10.922  15.633  71.336  1.00  0.00    -0.150 C  
HETATM    8  O   UNL     1     -12.091  15.357  69.295  1.00  0.00    -0.315 OA 
HETATM    9  C   UNL     2     -12.513   9.141  71.147  1.00  0.00    -0.254 C  
HETATM   10  O   UNL     1      -9.837  15.416  69.272  1.00  0.00    -0.230 OA 
HETATM   11  C   UNL     1     -11.029  15.479  69.884  1.00  0.00    -0.307 C  
ENDROOT
BRANCH   4  12
HETATM   12  C   UNL     2     -11.816  11.230  70.179  1.00  0.00    -0.364 C  
BRANCH  12  13
HETATM   13  C   UNL     2     -12.119  11.597  68.715  1.00  0.00    -0.221 C  
HETATM   14  C   UNL     2     -10.943  12.254  67.961  1.00  0.00    -0.265 C  
HETATM   15  C   UNL     2     -11.377  12.863  66.626  1.00  0.00    -0.317 A  
HETATM   16  C   UNL     2      -9.743  11.314  67.835  1.00  0.00    -0.185 A  
HETATM   17  C   UNL     2     -12.002  12.111  65.630  1.00  0.00    -0.280 A  
HETATM   18  C   UNL     2      -9.834  10.056  67.214  1.00  0.00    -0.225 A  
HETATM   19  C   UNL     2      -8.732   9.201  67.162  1.00  0.00    -0.130 A  
HETATM   20  C   UNL     2     -12.337  12.717  64.422  1.00  0.00    -0.523 A  
HETATM   21  C   UNL     2      -7.528   9.590  67.742  1.00  0.00    -0.084 A  
HETATM   22  C   UNL     2     -12.061  14.063  64.235  1.00  0.00    -0.476 A  
HETATM   23  C   UNL     2     -11.465  14.752  65.275  1.00  0.00    -0.352 A  
HETATM   24 CL   UNL     2      -6.180   8.523  67.705  1.00  0.00    -0.051 Cl 
HETATM   25  C   UNL     2      -7.414  10.830  68.362  1.00  0.00    -0.095 A  
HETATM   26  N   UNL     2     -11.127  14.188  66.456  1.00  0.00    -0.312 NA 
HETATM   27  C   UNL     2      -8.515  11.690  68.403  1.00  0.00    -0.157 A  
ENDBRANCH  12  13
ENDBRANCH   4  12
TORSDOF 2
ENDMDL
MODEL        4
REMARK 921   NORMALIZED FREE ENERGY PREDICTED BY IDOCK:   -6.82 KCAL/MOL
REMARK 922        TOTAL FREE ENERGY PREDICTED BY IDOCK:   -8.30 KCAL/MOL
REMARK 923 INTER-LIGAND FREE ENERGY PREDICTED BY IDOCK:   -7.57 KCAL/MOL
REMARK 924 INTRA-LIGAND FREE ENERGY PREDICTED BY IDOCK:   -0.73 KCAL/MOL
REMARK 927      BINDING AFFINITY PREDICTED BY RF-SCORE:    0.00 PKD
ROOT
HETATM    1  O   UNL     1     -10.336  17.077  66.327  1.00  0.00    -0.318 OA 
HETATM    2  C   UNL     1     -10.021  18.361  66.537  1.00  0.00    -0.379 C  
HETATM    3  C   UNL     2     -11.175  15.351  71.835  1.00  0.00    -0.295 C  
HETATM    4  N   UNL     2     -11.742  14.805  70.604  1.00  0.00    -0.287 NA 
HETATM    5  O   UNL     1     -10.772  19.276  66.236  1.00  0.00    -0.425 OA 
HETATM    6  C   UNL     1      -8.774  18.656  67.272  1.00  0.00    -0.280 C  
HETATM    7  C   UNL     1      -7.701  17.929  67.620  1.00  0.00    -0.216 C  
HETATM    8  O   UNL     1      -8.104  15.943  66.394  1.00  0.00    -0.265 OA 
HETATM    9  C   UNL     2     -13.131  15.250  70.456  1.00  0.00    -0.289 C  
HETATM   10  O   UNL     1      -6.529  15.938  68.008  1.00  0.00    -0.114 OA 
HETATM   11  C   UNL     1      -7.468  16.531  67.254  1.00  0.00    -0.164 C  
ENDROOT
BRANCH   4  12
HETATM   12  C   UNL     2     -10.968  15.163  69.407  1.00  0.00    -0.264 C  
BRANCH  12  13
HETATM   13  C   UNL     2     -11.566  14.634  68.090  1.00  0.00    -0.362 C  
HETATM   14  C   UNL     2     -10.741  13.516  67.415  1.00  0.00    -0.269 C  
HETATM   15  C   UNL     2     -11.207  13.237  65.985  1.00  0.00    -0.297 A  
HETATM   16  C   UNL     2     -10.660  12.258  68.281  1.00  0.00    -0.243 A  
HETATM   17  C   UNL     2     -12.522  12.878  65.683  1.00  0.00    -0.400 A  
HETATM   18  C   UNL     2     -11.805  11.568  68.717  1.00  0.00    -0.394 A  
HETATM   19  C   UNL     2     -11.695  10.453  69.549  1.00  0.00    -0.259 A  
HETATM   20  C   UNL     2     -12.871  12.599  64.364  1.00  0.00    -0.344 A  
HETATM   21  C   UNL     2     -10.439  10.022  69.966  1.00  0.00    -0.287 A  
HETATM   22  C   UNL     2     -11.911  12.700  63.369  1.00  0.00    -0.594 A  
HETATM   23  C   UNL     2     -10.636  13.086  63.737  1.00  0.00    -0.143 A  
HETATM   24 CL   UNL     2     -10.308   8.667  71.017  1.00  0.00    -0.255 Cl 
HETATM   25  C   UNL     2      -9.293  10.689  69.547  1.00  0.00    -0.008 A  
HETATM   26  N   UNL     2     -10.268  13.360  65.009  1.00  0.00    -0.326 NA 
HETATM   27  C   UNL     2      -9.402  11.799  68.705  1.00  0.00    -0.096 A  
ENDBRANCH  12  13
ENDBRANCH   4  12
TORSDOF 2
ENDMDL
MODEL        5
REMARK 921   NORMALIZED FREE ENERGY PREDICTED BY IDOCK:   -6.76 KCAL/MOL
REMARK 922        TOTAL FREE ENERGY PREDICTED BY IDOCK:   -8.24 KCAL/MOL
REMARK 923 INTER-LIGAND FREE ENERGY PREDICTED BY IDOCK:   -7.41 KCAL/MOL
REMARK 924 INTRA-LIGAND FREE ENERGY PREDICTED BY IDOCK:   -0.82 KCAL/MOL
REMARK 927      BINDING AFFINITY PREDICTED BY RF-SCORE:    0.00 PKD
ROOT
HETATM    1  O   UNL     1      -9.713  13.004  64.131  1.00  0.00    -0.115 OA 
HETATM    2  C   UNL     1     -10.256  11.998  63.434  1.00  0.00    -0.426 C  
HETATM    3  C   UNL     2     -10.422  10.950  69.544  1.00  0.00    -0.138 C  
HETATM    4  N   UNL     2      -9.425  11.892  69.041  1.00  0.00     0.130 NA 
HETATM    5  O   UNL     1      -9.585  11.239  62.751  1.00  0.00    -0.342 OA 
HETATM    6  C   UNL     1     -11.700  11.738  63.606  1.00  0.00    -0.517 C  
HETATM    7  C   UNL     1     -12.714  12.425  64.153  1.00  0.00    -0.446 C  
HETATM    8  O   UNL     1     -11.669  14.516  64.532  1.00  0.00    -0.411 OA 
HETATM    9  C   UNL     2      -8.137  11.210  68.874  1.00  0.00    -0.115 C  
HETATM   10  O   UNL     1     -13.656  14.088  65.509  1.00  0.00    -0.596 OA 
HETATM   11  C   UNL     1     -12.620  13.774  64.715  1.00  0.00    -0.290 C  
ENDROOT
BRANCH   4  12
HETATM   12  C   UNL     2      -9.823  12.531  67.780  1.00  0.00    -0.204 C  
BRANCH  12  13
HETATM   13  C   UNL     2      -9.361  13.994  67.643  1.00  0.00    -0.203 C  
HETATM   14  C   UNL     2     -10.493  15.038  67.760  1.00  0.00    -0.249 C  
HETATM   15  C   UNL     2     -10.040  16.434  67.327  1.00  0.00    -0.270 A  
HETATM   16  C   UNL     2     -11.154  15.018  69.139  1.00  0.00    -0.278 A  
HETATM   17  C   UNL     2      -8.956  17.085  67.917  1.00  0.00    -0.228 A  
HETATM   18  C   UNL     2     -10.429  15.225  70.326  1.00  0.00    -0.217 A  
HETATM   19  C   UNL     2     -11.055  15.148  71.571  1.00  0.00    -0.218 A  
HETATM   20  C   UNL     2      -8.620  18.372  67.503  1.00  0.00    -0.264 A  
HETATM   21  C   UNL     2     -12.413  14.851  71.644  1.00  0.00    -0.331 A  
HETATM   22  C   UNL     2      -9.358  18.978  66.497  1.00  0.00    -0.365 A  
HETATM   23  C   UNL     2     -10.402  18.264  65.940  1.00  0.00    -0.284 A  
HETATM   24 CL   UNL     2     -13.176  14.726  73.181  1.00  0.00    -0.580 Cl 
HETATM   25  C   UNL     2     -13.151  14.643  70.484  1.00  0.00    -0.252 A  
HETATM   26  N   UNL     2     -10.751  17.016  66.324  1.00  0.00    -0.162 NA 
HETATM   27  C   UNL     2     -12.526  14.731  69.237  1.00  0.00    -0.045 A  
ENDBRANCH  12  13
ENDBRANCH   4  12
TORSDOF 2
ENDMDL
MODEL        6
REMARK 921   NORMALIZED FREE ENERGY PREDICTED BY IDOCK:   -6.76 KCAL/MOL
REMARK 922        TOTAL FREE ENERGY PREDICTED BY IDOCK:   -8.24 KCAL/MOL
REMARK 923 INTER-LIGAND FREE ENERGY PREDICTED BY IDOCK:   -7.48 KCAL/MOL
REMARK 924 INTRA-LIGAND FREE ENERGY PREDICTED BY IDOCK:   -0.76 KCAL/MOL
REMARK 927      BINDING AFFINITY PREDICTED BY RF-SCORE:    0.00 PKD
ROOT
HETATM    1  O   UNL     1     -10.369   9.805  68.108  1.00  0.00    -0.181 OA 
HETATM    2  C   UNL     1     -10.165   8.940  69.108  1.00  0.00    -0.206 C  
HETATM    3  C   UNL     2      -6.782  14.096  69.767  1.00  0.00    -0.065 C  
HETATM    4  N   UNL     2      -7.242  13.750  68.424  1.00  0.00    -0.098 NA 
HETATM    5  O   UNL     1      -9.563   7.889  68.951  1.00  0.00    -0.153 OA 
HETATM    6  C   UNL     1     -10.582   9.344  70.467  1.00  0.00    -0.331 C  
HETATM    7  C   UNL     1     -11.352  10.329  70.954  1.00  0.00    -0.376 C  
HETATM    8  O   UNL     1     -12.282  11.184  68.950  1.00  0.00    -0.522 OA 
HETATM    9  C   UNL     2      -6.180  13.044  67.701  1.00  0.00    -0.157 C  
HETATM   10  O   UNL     1     -12.479  12.380  70.853  1.00  0.00    -0.371 OA 
HETATM   11  C   UNL     1     -12.091  11.305  70.150  1.00  0.00    -0.366 C  
ENDROOT
BRANCH   4  12
HETATM   12  C   UNL     2      -8.471  12.943  68.428  1.00  0.00    -0.115 C  
BRANCH  12  13
HETATM   13  C   UNL     2      -9.116  12.774  67.040  1.00  0.00    -0.220 C  
HETATM   14  C   UNL     2     -10.454  13.524  66.858  1.00  0.00    -0.271 C  
HETATM   15  C   UNL     2     -11.193  13.091  65.591  1.00  0.00    -0.283 A  
HETATM   16  C   UNL     2     -10.284  15.039  66.972  1.00  0.00    -0.257 A  
HETATM   17  C   UNL     2     -10.616  13.176  64.323  1.00  0.00    -0.432 A  
HETATM   18  C   UNL     2      -9.416  15.764  66.137  1.00  0.00    -0.375 A  
HETATM   19  C   UNL     2      -9.246  17.140  66.302  1.00  0.00    -0.260 A  
HETATM   20  C   UNL     2     -11.358  12.801  63.205  1.00  0.00    -0.242 A  
HETATM   21  C   UNL     2      -9.934  17.805  67.313  1.00  0.00    -0.324 A  
HETATM   22  C   UNL     2     -12.652  12.333  63.372  1.00  0.00    -0.545 A  
HETATM   23  C   UNL     2     -13.150  12.251  64.659  1.00  0.00     0.325 A  
HETATM   24 CL   UNL     2      -9.700  19.494  67.535  1.00  0.00    -0.427 Cl 
HETATM   25  C   UNL     2     -10.798  17.108  68.151  1.00  0.00    -0.316 A  
HETATM   26  N   UNL     2     -12.454  12.610  65.761  1.00  0.00    -0.579 NA 
HETATM   27  C   UNL     2     -10.977  15.733  67.978  1.00  0.00    -0.330 A  
ENDBRANCH  12  13
ENDBRANCH   4  12
TORSDOF 2
ENDMDL
MODEL        7
REMARK 921   NORMALIZED FREE ENERGY PREDICTED BY IDOCK:   -6.74 KCAL/MOL
REMARK 922        TOTAL FREE ENERGY PREDICTED BY IDOCK:   -8.21 KCAL/MOL
REMARK 923 INTER-LIGAND FREE ENERGY PREDICTED BY IDOCK:   -7.45 KCAL/MOL
REMARK 924 INTRA-LIGAND FREE ENERGY PREDICTED BY IDOCK:   -0.76 KCAL/MOL
REMARK 927      BINDING AFFINITY PREDICTED BY RF-SCORE:    0.00 PKD
ROOT
HETATM    1  O   UNL     1     -12.141  12.558  69.110  1.00  0.00    -0.247 OA 
HETATM    2  C   UNL     1     -12.372  12.007  70.308  1.00  0.00    -0.195 C  
HETATM    3  C   UNL     2      -6.553  14.088  69.788  1.00  0.00    -0.081 C  
HETATM    4  N   UNL     2      -7.281  13.784  68.558  1.00  0.00    -0.101 NA 
HETATM    5  O   UNL     1     -12.528  10.805  70.456  1.00  0.00    -0.320 OA 
HETATM    6  C   UNL     1     -12.311  12.884  71.496  1.00  0.00     0.017 C  
HETATM    7  C   UNL     1     -12.290  14.213  71.675  1.00  0.00    -0.349 C  
HETATM    8  O   UNL     1     -12.761  14.957  69.476  1.00  0.00    -0.067 OA 
HETATM    9  C   UNL     2      -6.931  12.438  68.093  1.00  0.00    -0.087 C  
HETATM   10  O   UNL     1     -11.994  16.436  70.996  1.00  0.00    -0.241 OA 
HETATM   11  C   UNL     1     -12.399  15.215  70.613  1.00  0.00    -0.368 C  
ENDROOT
BRANCH   4  12
HETATM   12  C   UNL     2      -8.738  13.901  68.708  1.00  0.00     0.006 C  
BRANCH  12  13
HETATM   13  C   UNL     2      -9.276  15.331  68.515  1.00  0.00    -0.200 C  
HETATM   14  C   UNL     2      -9.335  15.802  67.045  1.00  0.00    -0.235 C  
HETATM   15  C   UNL     2      -9.588  17.306  66.929  1.00  0.00    -0.268 A  
HETATM   16  C   UNL     2     -10.299  14.960  66.210  1.00  0.00    -0.302 A  
HETATM   17  C   UNL     2     -10.705  17.923  67.496  1.00  0.00    -0.333 A  
HETATM   18  C   UNL     2     -11.660  14.824  66.538  1.00  0.00    -0.306 A  
HETATM   19  C   UNL     2     -12.501  14.006  65.783  1.00  0.00    -0.523 A  
HETATM   20  C   UNL     2     -10.896  19.291  67.320  1.00  0.00    -0.554 A  
HETATM   21  C   UNL     2     -11.988  13.303  64.696  1.00  0.00    -0.394 A  
HETATM   22  C   UNL     2      -9.965  20.022  66.598  1.00  0.00    -0.598 A  
HETATM   23  C   UNL     2      -8.870  19.351  66.087  1.00  0.00    -0.283 A  
HETATM   24 CL   UNL     2     -13.020  12.270  63.786  1.00  0.00    -0.414 Cl 
HETATM   25  C   UNL     2     -10.646  13.421  64.353  1.00  0.00    -0.423 A  
HETATM   26  N   UNL     2      -8.660  18.024  66.240  1.00  0.00    -0.447 NA 
HETATM   27  C   UNL     2      -9.807  14.250  65.102  1.00  0.00    -0.141 A  
ENDBRANCH  12  13
ENDBRANCH   4  12
TORSDOF 2
ENDMDL
MODEL        8
REMARK 921   NORMALIZED FREE ENERGY PREDICTED BY IDOCK:   -6.72 KCAL/MOL
REMARK 922        TOTAL FREE ENERGY PREDICTED BY IDOCK:   -8.19 KCAL/MOL
REMARK 923 INTER-LIGAND FREE ENERGY PREDICTED BY IDOCK:   -7.68 KCAL/MOL
REMARK 924 INTRA-LIGAND FREE ENERGY PREDICTED BY IDOCK:   -0.51 KCAL/MOL
REMARK 927      BINDING AFFINITY PREDICTED BY RF-SCORE:    0.00 PKD
ROOT
HETATM    1  O   UNL     1     -10.432  13.187  64.804  1.00  0.00    -0.335 OA 
HETATM    2  C   UNL     1      -9.942  12.077  64.239  1.00  0.00    -0.240 C  
HETATM    3  C   UNL     2      -6.656  13.801  69.208  1.00  0.00    -0.113 C  
HETATM    4  N   UNL     2      -7.450  14.822  68.528  1.00  0.00    -0.111 NA 
HETATM    5  O   UNL     1      -9.374  12.090  63.157  1.00  0.00    -0.268 OA 
HETATM    6  C   UNL     1      -9.990  10.823  65.020  1.00  0.00    -0.361 C  
HETATM    7  C   UNL     1     -10.629  10.443  66.137  1.00  0.00    -0.160 C  
HETATM    8  O   UNL     1     -12.087  12.283  66.452  1.00  0.00    -0.623 OA 
HETATM    9  C   UNL     2      -6.601  15.576  67.600  1.00  0.00    -0.169 C  
HETATM   10  O   UNL     1     -11.801  10.807  68.133  1.00  0.00    -0.533 OA 
HETATM   11  C   UNL     1     -11.584  11.260  66.888  1.00  0.00     0.090 C  
ENDROOT
BRANCH   4  12
HETATM   12  C   UNL     2      -8.609  14.268  67.814  1.00  0.00    -0.177 C  
BRANCH  12  13
HETATM   13  C   UNL     2      -9.932  14.356  68.597  1.00  0.00    -0.241 C  
HETATM   14  C   UNL     2     -10.018  15.544  69.580  1.00  0.00    -0.280 C  
HETATM   15  C   UNL     2     -11.207  15.421  70.535  1.00  0.00    -0.333 A  
HETATM   16  C   UNL     2      -9.958  16.892  68.860  1.00  0.00    -0.279 A  
HETATM   17  C   UNL     2     -12.521  15.299  70.081  1.00  0.00    -0.374 A  
HETATM   18  C   UNL     2     -10.882  17.256  67.864  1.00  0.00    -0.283 A  
HETATM   19  C   UNL     2     -10.767  18.473  67.191  1.00  0.00    -0.396 A  
HETATM   20  C   UNL     2     -13.562  15.230  71.004  1.00  0.00    -0.486 A  
HETATM   21  C   UNL     2      -9.718  19.336  67.497  1.00  0.00    -0.323 A  
HETATM   22  C   UNL     2     -13.274  15.266  72.359  1.00  0.00    -0.505 A  
HETATM   23  C   UNL     2     -11.947  15.361  72.737  1.00  0.00    -0.446 A  
HETATM   24 CL   UNL     2      -9.560  20.821  66.644  1.00  0.00    -0.278 Cl 
HETATM   25  C   UNL     2      -8.792  18.997  68.478  1.00  0.00    -0.398 A  
HETATM   26  N   UNL     2     -10.918  15.432  71.863  1.00  0.00    -0.165 NA 
HETATM   27  C   UNL     2      -8.915  17.783  69.160  1.00  0.00     0.110 A  
ENDBRANCH  12  13
ENDBRANCH   4  12
TORSDOF 2
ENDMDL
MODEL        9
REMARK 921   NORMALIZED FREE ENERGY PREDICTED BY IDOCK:   -6.63 KCAL/MOL
REMARK 922        TOTAL FREE ENERGY PREDICTED BY IDOCK:   -8.09 KCAL/MOL
REMARK 923 INTER-LIGAND FREE ENERGY PREDICTED BY IDOCK:   -7.45 KCAL/MOL
REMARK 924 INTRA-LIGAND FREE ENERGY PREDICTED BY IDOCK:   -0.64 KCAL/MOL
REMARK 927      BINDING AFFINITY PREDICTED BY RF-SCORE:    0.00 PKD
ROOT
HETATM    1  O   UNL     1      -8.475  11.200  66.760  1.00  0.00    -0.141 OA 
HETATM    2  C   UNL     1      -7.318  10.820  66.206  1.00  0.00    -0.138 C  
HETATM    3  C   UNL     2      -7.261  16.801  67.844  1.00  0.00    -0.148 C  
HETATM    4  N   UNL     2      -8.559  16.168  67.619  1.00  0.00    -0.171 NA 
HETATM    5  O   UNL     1      -7.215  10.562  65.017  1.00  0.00    -0.100 OA 
HETATM    6  C   UNL     1      -6.107  10.838  67.053  1.00  0.00    -0.068 C  
HETATM    7  C   UNL     1      -5.893  10.942  68.374  1.00  0.00    -0.043 C  
HETATM    8  O   UNL     1      -8.105  10.730  69.192  1.00  0.00    -0.152 OA 
HETATM    9  C   UNL     2      -9.025  16.458  66.259  1.00  0.00    -0.333 C  
HETATM   10  O   UNL     1      -6.485  11.463  70.579  1.00  0.00    -0.270 OA 
HETATM   11  C   UNL     1      -6.934  11.005  69.401  1.00  0.00    -0.126 C  
ENDROOT
BRANCH   4  12
HETATM   12  C   UNL     2      -8.537  14.717  67.846  1.00  0.00    -0.165 C  
BRANCH  12  13
HETATM   13  C   UNL     2      -9.545  14.230  68.903  1.00  0.00    -0.086 C  
HETATM   14  C   UNL     2     -11.019  14.566  68.589  1.00  0.00    -0.263 C  
HETATM   15  C   UNL     2     -11.936  14.332  69.790  1.00  0.00    -0.339 A  
HETATM   16  C   UNL     2     -11.506  13.879  67.313  1.00  0.00    -0.369 A  
HETATM   17  C   UNL     2     -12.030  13.094  70.429  1.00  0.00    -0.343 A  
HETATM   18  C   UNL     2     -11.474  12.482  67.150  1.00  0.00    -0.414 A  
HETATM   19  C   UNL     2     -11.878  11.891  65.952  1.00  0.00    -0.101 A  
HETATM   20  C   UNL     2     -12.914  12.936  71.493  1.00  0.00    -0.388 A  
HETATM   21  C   UNL     2     -12.308  12.691  64.897  1.00  0.00    -0.498 A  
HETATM   22  C   UNL     2     -13.673  14.018  71.914  1.00  0.00    -0.532 A  
HETATM   23  C   UNL     2     -13.509  15.221  71.253  1.00  0.00    -0.514 A  
HETATM   24 CL   UNL     2     -12.776  11.962  63.411  1.00  0.00    -0.655 Cl 
HETATM   25  C   UNL     2     -12.349  14.074  65.035  1.00  0.00    -0.458 A  
HETATM   26  N   UNL     2     -12.661  15.401  70.215  1.00  0.00    -0.371 NA 
HETATM   27  C   UNL     2     -11.954  14.665  66.239  1.00  0.00    -0.262 A  
ENDBRANCH  12  13
ENDBRANCH   4  12
TORSDOF 2
ENDMDL
MODEL       10
REMARK 921   NORMALIZED FREE ENERGY PREDICTED BY IDOCK:   -6.61 KCAL/MOL
REMARK 922        TOTAL FREE ENERGY PREDICTED BY IDOCK:   -8.07 KCAL/MOL
REMARK 923 INTER-LIGAND FREE ENERGY PREDICTED BY IDOCK:   -7.29 KCAL/MOL
REMARK 924 INTRA-LIGAND FREE ENERGY PREDICTED BY IDOCK:   -0.78 KCAL/MOL
REMARK 927      BINDING AFFINITY PREDICTED BY RF-SCORE:    0.00 PKD
ROOT
HETATM    1  O   UNL     1      -9.547  11.990  64.880  1.00  0.00    -0.155 OA 
HETATM    2  C   UNL     1     -10.183  11.122  64.085  1.00  0.00    -0.347 C  
HETATM    3  C   UNL     2     -12.397  11.029  69.877  1.00  0.00    -0.288 C  
HETATM    4  N   UNL     2     -11.039  11.529  69.675  1.00  0.00    -0.193 NA 
HETATM    5  O   UNL     1      -9.651  10.103  63.670  1.00  0.00    -0.294 OA 
HETATM    6  C   UNL     1     -11.616  11.356  63.811  1.00  0.00    -0.167 C  
HETATM    7  C   UNL     1     -12.444  12.397  63.994  1.00  0.00    -0.554 C  
HETATM    8  O   UNL     1     -10.895  14.082  64.604  1.00  0.00    -0.401 OA 
HETATM    9  C   UNL     2     -10.071  10.460  69.938  1.00  0.00    -0.095 C  
HETATM   10  O   UNL     1     -13.097  14.441  64.933  1.00  0.00    -0.593 OA 
HETATM   11  C   UNL     1     -12.054  13.711  64.510  1.00  0.00    -0.419 C  
ENDROOT
BRANCH   4  12
HETATM   12  C   UNL     2     -10.825  12.082  68.330  1.00  0.00    -0.233 C  
BRANCH  12  13
HETATM   13  C   UNL     2      -9.764  13.197  68.270  1.00  0.00    -0.223 C  
HETATM   14  C   UNL     2     -10.340  14.628  68.204  1.00  0.00    -0.230 C  
HETATM   15  C   UNL     2      -9.272  15.666  67.850  1.00  0.00    -0.190 A  
HETATM   16  C   UNL     2     -11.137  14.986  69.459  1.00  0.00    -0.292 A  
HETATM   17  C   UNL     2      -8.111  15.833  68.606  1.00  0.00    -0.161 A  
HETATM   18  C   UNL     2     -10.574  14.946  70.747  1.00  0.00     0.191 A  
HETATM   19  C   UNL     2     -11.345  15.228  71.875  1.00  0.00    -0.447 A  
HETATM   20  C   UNL     2      -7.198  16.823  68.252  1.00  0.00    -0.173 A  
HETATM   21  C   UNL     2     -12.693  15.543  71.730  1.00  0.00    -0.424 A  
HETATM   22  C   UNL     2      -7.449  17.614  67.141  1.00  0.00    -0.217 A  
HETATM   23  C   UNL     2      -8.605  17.375  66.423  1.00  0.00    -0.247 A  
HETATM   24 CL   UNL     2     -13.650  15.860  73.124  1.00  0.00    -0.649 Cl 
HETATM   25  C   UNL     2     -13.272  15.589  70.466  1.00  0.00    -0.183 A  
HETATM   26  N   UNL     2      -9.510  16.424  66.746  1.00  0.00    -0.236 NA 
HETATM   27  C   UNL     2     -12.497  15.317  69.336  1.00  0.00    -0.072 A  
ENDBRANCH  12  13
ENDBRANCH   4  12
TORSDOF 2
ENDMDL
MODEL       11
REMARK 921   NORMALIZED FREE ENERGY PREDICTED BY IDOCK:   -6.58 KCAL/MOL
REMARK 922        TOTAL FREE ENERGY PREDICTED BY IDOCK:   -8.03 KCAL/MOL
REMARK 923 INTER-LIGAND FREE ENERGY PREDICTED BY IDOCK:   -7.34 KCAL/MOL
REMARK 924 INTRA-LIGAND FREE ENERGY PREDICTED BY IDOCK:   -0.69 KCAL/MOL
REMARK 927      BINDING AFFINITY PREDICTED BY RF-SCORE:    0.00 PKD
ROOT
HETATM    1  O   UNL     1     -10.706  16.256  68.815  1.00  0.00    -0.270 OA 
HETATM    2  C   UNL     1     -10.384  17.465  68.342  1.00  0.00    -0.379 C  
HETATM    3  C   UNL     2      -5.644  13.483  67.972  1.00  0.00    -0.121 C  
HETATM    4  N   UNL     2      -6.693  13.205  68.950  1.00  0.00    -0.096 NA 
HETATM    5  O   UNL     1     -10.246  18.437  69.069  1.00  0.00    -0.367 OA 
HETATM    6  C   UNL     1     -10.066  17.583  66.903  1.00  0.00    -0.324 C  
HETATM    7  C   UNL     1     -10.235  16.781  65.841  1.00  0.00    -0.345 C  
HETATM    8  O   UNL     1     -11.595  15.088  66.786  1.00  0.00    -0.312 OA 
HETATM    9  C   UNL     2      -6.285  13.698  70.269  1.00  0.00    -0.071 C  
HETATM   10  O   UNL     1     -10.628  14.730  64.780  1.00  0.00    -0.413 OA 
HETATM   11  C   UNL     1     -10.904  15.479  65.858  1.00  0.00    -0.313 C  
ENDROOT
BRANCH   4  12
HETATM   12  C   UNL     2      -7.993  13.779  68.577  1.00  0.00    -0.131 C  
BRANCH  12  13
HETATM   13  C   UNL     2      -8.563  13.238  67.253  1.00  0.00    -0.211 C  
HETATM   14  C   UNL     2      -8.752  11.706  67.213  1.00  0.00    -0.159 C  
HETATM   15  C   UNL     2      -9.032  11.193  65.799  1.00  0.00    -0.196 A  
HETATM   16  C   UNL     2      -9.775  11.226  68.244  1.00  0.00    -0.199 A  
HETATM   17  C   UNL     2     -10.104  11.658  65.034  1.00  0.00    -0.305 A  
HETATM   18  C   UNL     2     -11.101  11.694  68.264  1.00  0.00    -0.287 A  
HETATM   19  C   UNL     2     -11.994  11.274  69.251  1.00  0.00    -0.411 A  
HETATM   20  C   UNL     2     -10.326  11.121  63.768  1.00  0.00    -0.447 A  
HETATM   21  C   UNL     2     -11.567  10.389  70.238  1.00  0.00    -0.327 A  
HETATM   22  C   UNL     2      -9.468  10.146  63.281  1.00  0.00    -0.302 A  
HETATM   23  C   UNL     2      -8.413   9.753  64.083  1.00  0.00    -0.177 A  
HETATM   24 CL   UNL     2     -12.660   9.897  71.472  1.00  0.00    -0.477 Cl 
HETATM   25  C   UNL     2     -10.260   9.913  70.238  1.00  0.00    -0.322 A  
HETATM   26  N   UNL     2      -8.175  10.255  65.316  1.00  0.00    -0.157 NA 
HETATM   27  C   UNL     2      -9.370  10.325  69.243  1.00  0.00    -0.221 A  
ENDBRANCH  12  13
ENDBRANCH   4  12
TORSDOF 2
ENDMDL
MODEL       12
REMARK 921   NORMALIZED FREE ENERGY PREDICTED BY IDOCK:   -6.56 KCAL/MOL
REMARK 922        TOTAL FREE ENERGY PREDICTED BY IDOCK:   -8.02 KCAL/MOL
REMARK 923 INTER-LIGAND FREE ENERGY PREDICTED BY IDOCK:   -7.21 KCAL/MOL
REMARK 924 INTRA-LIGAND FREE ENERGY PREDICTED BY IDOCK:   -0.81 KCAL/MOL
REMARK 927      BINDING AFFINITY PREDICTED BY RF-SCORE:    0.00 PKD
ROOT
HETATM    1  O   UNL     1      -6.604  15.291  69.510  1.00  0.00    -0.139 OA 
HETATM    2  C   UNL     1      -5.987  14.474  70.371  1.00  0.00    -0.165 C  
HETATM    3  C   UNL     2     -12.158  13.950  70.679  1.00  0.00    -0.347 C  
HETATM    4  N   UNL     2     -11.606  15.190  70.140  1.00  0.00    -0.270 NA 
HETATM    5  O   UNL     1      -5.407  14.887  71.364  1.00  0.00    -0.136 OA 
HETATM    6  C   UNL     1      -6.127  13.017  70.165  1.00  0.00    -0.097 C  
HETATM    7  C   UNL     1      -6.565  12.256  69.150  1.00  0.00    -0.105 C  
HETATM    8  O   UNL     1      -6.780  13.885  67.445  1.00  0.00    -0.233 OA 
HETATM    9  C   UNL     2     -11.556  16.210  71.192  1.00  0.00    -0.404 C  
HETATM   10  O   UNL     1      -7.716  11.855  67.150  1.00  0.00    -0.151 OA 
HETATM   11  C   UNL     1      -6.997  12.751  67.842  1.00  0.00    -0.116 C  
ENDROOT
BRANCH   4  12
HETATM   12  C   UNL     2     -10.274  15.015  69.544  1.00  0.00    -0.188 C  
BRANCH  12  13
HETATM   13  C   UNL     2     -10.284  14.296  68.183  1.00  0.00    -0.231 C  
HETATM   14  C   UNL     2     -10.829  15.143  67.013  1.00  0.00    -0.314 C  
HETATM   15  C   UNL     2     -11.095  14.302  65.763  1.00  0.00    -0.310 A  
HETATM   16  C   UNL     2      -9.963  16.373  66.741  1.00  0.00    -0.277 A  
HETATM   17  C   UNL     2     -10.101  13.535  65.152  1.00  0.00    -0.278 A  
HETATM   18  C   UNL     2      -8.595  16.278  66.432  1.00  0.00    -0.361 A  
HETATM   19  C   UNL     2      -7.822  17.424  66.241  1.00  0.00    -0.330 A  
HETATM   20  C   UNL     2     -10.399  12.822  63.994  1.00  0.00    -0.392 A  
HETATM   21  C   UNL     2      -8.407  18.681  66.368  1.00  0.00    -0.276 A  
HETATM   22  C   UNL     2     -11.683  12.872  63.475  1.00  0.00    -0.576 A  
HETATM   23  C   UNL     2     -12.624  13.631  64.146  1.00  0.00    -0.108 A  
HETATM   24 CL   UNL     2      -7.446  20.093  66.162  1.00  0.00    -0.315 Cl 
HETATM   25  C   UNL     2      -9.759  18.800  66.672  1.00  0.00    -0.370 A  
HETATM   26  N   UNL     2     -12.362  14.334  65.270  1.00  0.00    -0.429 NA 
HETATM   27  C   UNL     2     -10.534  17.652  66.853  1.00  0.00    -0.290 A  
ENDBRANCH  12  13
ENDBRANCH   4  12
TORSDOF 2
ENDMDL
MODEL       13
REMARK 921   NORMALIZED FREE ENERGY PREDICTED BY IDOCK:   -6.54 KCAL/MOL
REMARK 922        TOTAL FREE ENERGY PREDICTED BY IDOCK:   -7.99 KCAL/MOL
REMARK 923 INTER-LIGAND FREE ENERGY PREDICTED BY IDOCK:   -7.07 KCAL/MOL
REMARK 924 INTRA-LIGAND FREE ENERGY PREDICTED BY IDOCK:   -0.91 KCAL/MOL
REMARK 927      BINDING AFFINITY PREDICTED BY RF-SCORE:    0.00 PKD
ROOT
HETATM    1  O   UNL     1      -9.240   8.974  65.065  1.00  0.00    -0.178 OA 
HETATM    2  C   UNL     1      -8.140   8.998  64.303  1.00  0.00    -0.151 C  
HETATM    3  C   UNL     2     -10.785  14.590  64.747  1.00  0.00    -0.393 C  
HETATM    4  N   UNL     2     -11.623  13.418  64.995  1.00  0.00    -0.309 NA 
HETATM    5  O   UNL     1      -8.100   8.482  63.197  1.00  0.00    -0.158 OA 
HETATM    6  C   UNL     1      -6.985   9.787  64.780  1.00  0.00    -0.122 C  
HETATM    7  C   UNL     1      -6.659  10.347  65.955  1.00  0.00    -0.123 C  
HETATM    8  O   UNL     1      -8.336   9.433  67.355  1.00  0.00    -0.123 OA 
HETATM    9  C   UNL     2     -12.364  13.071  63.778  1.00  0.00    -0.397 C  
HETATM   10  O   UNL     1      -7.101  11.165  68.105  1.00  0.00    -0.067 OA 
HETATM   11  C   UNL     1      -7.434  10.240  67.192  1.00  0.00    -0.092 C  
ENDROOT
BRANCH   4  12
HETATM   12  C   UNL     2     -10.859  12.256  65.468  1.00  0.00    -0.282 C  
BRANCH  12  13
HETATM   13  C   UNL     2     -11.396  11.639  66.773  1.00  0.00    -0.354 C  
HETATM   14  C   UNL     2     -10.553  11.955  68.028  1.00  0.00    -0.234 C  
HETATM   15  C   UNL     2     -10.950  11.090  69.225  1.00  0.00    -0.252 A  
HETATM   16  C   UNL     2     -10.531  13.451  68.343  1.00  0.00    -0.257 A  
HETATM   17  C   UNL     2     -12.253  11.059  69.727  1.00  0.00    -0.388 A  
HETATM   18  C   UNL     2     -11.705  14.190  68.573  1.00  0.00    -0.380 A  
HETATM   19  C   UNL     2     -11.652  15.565  68.808  1.00  0.00    -0.390 A  
HETATM   20  C   UNL     2     -12.539  10.280  70.845  1.00  0.00    -0.465 A  
HETATM   21  C   UNL     2     -10.423  16.220  68.802  1.00  0.00    -0.282 A  
HETATM   22  C   UNL     2     -11.529   9.533  71.431  1.00  0.00    -0.462 A  
HETATM   23  C   UNL     2     -10.269   9.591  70.865  1.00  0.00    -0.286 A  
HETATM   24 CL   UNL     2     -10.362  17.920  69.059  1.00  0.00    -0.308 Cl 
HETATM   25  C   UNL     2      -9.249  15.510  68.576  1.00  0.00    -0.197 A  
HETATM   26  N   UNL     2      -9.962  10.340  69.783  1.00  0.00    -0.215 NA 
HETATM   27  C   UNL     2      -9.302  14.132  68.353  1.00  0.00    -0.208 A  
ENDBRANCH  12  13
ENDBRANCH   4  12
TORSDOF 2
ENDMDL
MODEL       14
REMARK 921   NORMALIZED FREE ENERGY PREDICTED BY IDOCK:   -6.49 KCAL/MOL
REMARK 922        TOTAL FREE ENERGY PREDICTED BY IDOCK:   -7.93 KCAL/MOL
REMARK 923 INTER-LIGAND FREE ENERGY PREDICTED BY IDOCK:   -7.21 KCAL/MOL
REMARK 924 INTRA-LIGAND FREE ENERGY PREDICTED BY IDOCK:   -0.72 KCAL/MOL
REMARK 927      BINDING AFFINITY PREDICTED BY RF-SCORE:    0.00 PKD
ROOT
HETATM    1  O   UNL     1      -9.860  17.980  66.003  1.00  0.00    -0.505 OA 
HETATM    2  C   UNL     1     -10.325  19.234  66.050  1.00  0.00    -0.475 C  
HETATM    3  C   UNL     2     -11.480  16.123  71.289  1.00  0.00    -0.375 C  
HETATM    4  N   UNL     2     -11.250  15.347  70.073  1.00  0.00    -0.274 NA 
HETATM    5  O   UNL     1     -11.286  19.600  65.391  1.00  0.00    -0.332 OA 
HETATM    6  C   UNL     1      -9.721  20.159  67.032  1.00  0.00    -0.574 C  
HETATM    7  C   UNL     1      -8.614  20.125  67.788  1.00  0.00    -0.318 C  
HETATM    8  O   UNL     1      -7.529  18.222  66.887  1.00  0.00    -0.204 OA 
HETATM    9  C   UNL     2     -12.534  14.976  69.470  1.00  0.00    -0.087 C  
HETATM   10  O   UNL     1      -6.803  19.077  68.843  1.00  0.00    -0.290 OA 
HETATM   11  C   UNL     1      -7.602  19.067  67.765  1.00  0.00    -0.245 C  
ENDROOT
BRANCH   4  12
HETATM   12  C   UNL     2     -10.417  16.054  69.089  1.00  0.00    -0.251 C  
BRANCH  12  13
HETATM   13  C   UNL     2      -9.081  15.355  68.779  1.00  0.00    -0.207 C  
HETATM   14  C   UNL     2      -9.211  13.871  68.372  1.00  0.00    -0.194 C  
HETATM   15  C   UNL     2      -7.861  13.152  68.366  1.00  0.00    -0.135 A  
HETATM   16  C   UNL     2      -9.995  13.698  67.071  1.00  0.00    -0.248 A  
HETATM   17  C   UNL     2      -6.783  13.591  67.594  1.00  0.00    -0.176 A  
HETATM   18  C   UNL     2      -9.600  14.308  65.867  1.00  0.00    -0.227 A  
HETATM   19  C   UNL     2     -10.368  14.171  64.709  1.00  0.00    -0.387 A  
HETATM   20  C   UNL     2      -5.593  12.867  67.603  1.00  0.00    -0.120 A  
HETATM   21  C   UNL     2     -11.547  13.432  64.745  1.00  0.00    -0.339 A  
HETATM   22  C   UNL     2      -5.492  11.732  68.393  1.00  0.00    -0.045 A  
HETATM   23  C   UNL     2      -6.590  11.371  69.151  1.00  0.00    -0.095 A  
HETATM   24 CL   UNL     2     -12.508  13.291  63.325  1.00  0.00    -0.378 Cl 
HETATM   25  C   UNL     2     -11.957  12.820  65.925  1.00  0.00    -0.506 A  
HETATM   26  N   UNL     2      -7.758  12.052  69.160  1.00  0.00     0.110 NA 
HETATM   27  C   UNL     2     -11.182  12.948  67.081  1.00  0.00    -0.329 A  
ENDBRANCH  12  13
ENDBRANCH   4  12
TORSDOF 2
ENDMDL
MODEL       15
REMARK 921   NORMALIZED FREE ENERGY PREDICTED BY IDOCK:   -6.35 KCAL/MOL
REMARK 922        TOTAL FREE ENERGY PREDICTED BY IDOCK:   -7.78 KCAL/MOL
REMARK 923 INTER-LIGAND FREE ENERGY PREDICTED BY IDOCK:   -6.98 KCAL/MOL
REMARK 924 INTRA-LIGAND FREE ENERGY PREDICTED BY IDOCK:   -0.80 KCAL/MOL
REMARK 927      BINDING AFFINITY PREDICTED BY RF-SCORE:    0.00 PKD
ROOT
HETATM    1  O   UNL     1     -10.463   9.039  68.671  1.00  0.00    -0.213 OA 
HETATM    2  C   UNL     1     -10.612   8.525  69.897  1.00  0.00    -0.228 C  
HETATM    3  C   UNL     2      -6.292  12.972  69.747  1.00  0.00    -0.063 C  
HETATM    4  N   UNL     2      -6.613  12.291  68.495  1.00  0.00    -0.066 NA 
HETATM    5  O   UNL     1     -10.245   7.394  70.181  1.00  0.00    -0.199 OA 
HETATM    6  C   UNL     1     -11.125   9.412  70.962  1.00  0.00    -0.414 C  
HETATM    7  C   UNL     1     -11.718  10.615  70.970  1.00  0.00    -0.329 C  
HETATM    8  O   UNL     1     -12.121  10.917  68.655  1.00  0.00    -0.527 OA 
HETATM    9  C   UNL     2      -5.640  11.221  68.248  1.00  0.00    -0.045 C  
HETATM   10  O   UNL     1     -12.326  12.680  70.046  1.00  0.00    -0.208 OA 
HETATM   11  C   UNL     1     -12.089  11.386  69.782  1.00  0.00    -0.320 C  
ENDROOT
BRANCH   4  12
HETATM   12  C   UNL     2      -7.977  11.747  68.470  1.00  0.00    -0.145 C  
BRANCH  12  13
HETATM   13  C   UNL     2      -8.691  11.902  67.114  1.00  0.00    -0.176 C  
HETATM   14  C   UNL     2      -9.866  12.905  67.118  1.00  0.00    -0.225 C  
HETATM   15  C   UNL     2     -10.718  12.803  65.852  1.00  0.00    -0.270 A  
HETATM   16  C   UNL     2      -9.404  14.330  67.425  1.00  0.00    -0.203 A  
HETATM   17  C   UNL     2     -10.180  12.962  64.574  1.00  0.00    -0.334 A  
HETATM   18  C   UNL     2      -8.442  14.994  66.643  1.00  0.00    -0.192 A  
HETATM   19  C   UNL     2      -8.006  16.276  66.982  1.00  0.00    -0.248 A  
HETATM   20  C   UNL     2     -11.018  12.897  63.464  1.00  0.00    -0.226 A  
HETATM   21  C   UNL     2      -8.518  16.904  68.113  1.00  0.00    -0.217 A  
HETATM   22  C   UNL     2     -12.372  12.658  63.646  1.00  0.00    -0.584 A  
HETATM   23  C   UNL     2     -12.831  12.484  64.938  1.00  0.00    -0.128 A  
HETATM   24 CL   UNL     2      -7.955  18.471  68.547  1.00  0.00    -0.337 Cl 
HETATM   25  C   UNL     2      -9.470  16.266  68.901  1.00  0.00    -0.252 A  
HETATM   26  N   UNL     2     -12.041  12.545  66.033  1.00  0.00    -0.612 NA 
HETATM   27  C   UNL     2      -9.915  14.988  68.556  1.00  0.00    -0.219 A  
ENDBRANCH  12  13
ENDBRANCH   4  12
TORSDOF 2
ENDMDL
MODEL       16
REMARK 921   NORMALIZED FREE ENERGY PREDICTED BY IDOCK:   -6.32 KCAL/MOL
REMARK 922        TOTAL FREE ENERGY PREDICTED BY IDOCK:   -7.74 KCAL/MOL
REMARK 923 INTER-LIGAND FREE ENERGY PREDICTED BY IDOCK:   -6.88 KCAL/MOL
REMARK 924 INTRA-LIGAND FREE ENERGY PREDICTED BY IDOCK:   -0.86 KCAL/MOL
REMARK 927      BINDING AFFINITY PREDICTED BY RF-SCORE:    0.00 PKD
ROOT
HETATM    1  O   UNL     1     -10.979  14.745  69.342  1.00  0.00    -0.250 OA 
HETATM    2  C   UNL     1     -10.970  15.950  69.924  1.00  0.00    -0.343 C  
HETATM    3  C   UNL     2      -5.256  14.013  68.490  1.00  0.00    -0.098 C  
HETATM    4  N   UNL     2      -6.299  13.002  68.646  1.00  0.00    -0.077 NA 
HETATM    5  O   UNL     1     -11.230  16.107  71.107  1.00  0.00    -0.337 OA 
HETATM    6  C   UNL     1     -10.507  17.102  69.122  1.00  0.00    -0.296 C  
HETATM    7  C   UNL     1     -10.280  17.298  67.815  1.00  0.00    -0.332 C  
HETATM    8  O   UNL     1     -11.190  15.308  66.911  1.00  0.00    -0.322 OA 
HETATM    9  C   UNL     2      -6.243  12.435  69.997  1.00  0.00    -0.075 C  
HETATM   10  O   UNL     1      -9.894  16.614  65.608  1.00  0.00    -0.528 OA 
HETATM   11  C   UNL     1     -10.527  16.320  66.754  1.00  0.00    -0.287 C  
ENDROOT
BRANCH   4  12
HETATM   12  C   UNL     2      -7.646  13.520  68.372  1.00  0.00    -0.133 C  
BRANCH  12  13
HETATM   13  C   UNL     2      -8.245  13.040  67.038  1.00  0.00    -0.071 C  
HETATM   14  C   UNL     2      -8.534  11.524  66.971  1.00  0.00    -0.164 C  
HETATM   15  C   UNL     2      -8.841  11.055  65.548  1.00  0.00    -0.169 A  
HETATM   16  C   UNL     2      -9.589  11.095  67.991  1.00  0.00    -0.181 A  
HETATM   17  C   UNL     2      -9.877  11.601  64.788  1.00  0.00    -0.261 A  
HETATM   18  C   UNL     2     -10.881  11.647  68.016  1.00  0.00    -0.259 A  
HETATM   19  C   UNL     2     -11.803  11.269  68.994  1.00  0.00    -0.421 A  
HETATM   20  C   UNL     2     -10.130  11.102  63.513  1.00  0.00    -0.437 A  
HETATM   21  C   UNL     2     -11.438  10.342  69.966  1.00  0.00    -0.308 A  
HETATM   22  C   UNL     2      -9.336  10.081  63.012  1.00  0.00    -0.297 A  
HETATM   23  C   UNL     2      -8.311   9.607  63.809  1.00  0.00    -0.173 A  
HETATM   24 CL   UNL     2     -12.565   9.901  71.188  1.00  0.00    -0.433 Cl 
HETATM   25  C   UNL     2     -10.165   9.782  69.961  1.00  0.00    -0.308 A  
HETATM   26  N   UNL     2      -8.045  10.071  65.051  1.00  0.00    -0.139 NA 
HETATM   27  C   UNL     2      -9.247  10.153  68.975  1.00  0.00    -0.188 A  
ENDBRANCH  12  13
ENDBRANCH   4  12
TORSDOF 2
ENDMDL
MODEL       17
REMARK 921   NORMALIZED FREE ENERGY PREDICTED BY IDOCK:   -6.23 KCAL/MOL
REMARK 922        TOTAL FREE ENERGY PREDICTED BY IDOCK:   -7.64 KCAL/MOL
REMARK 923 INTER-LIGAND FREE ENERGY PREDICTED BY IDOCK:   -6.78 KCAL/MOL
REMARK 924 INTRA-LIGAND FREE ENERGY PREDICTED BY IDOCK:   -0.86 KCAL/MOL
REMARK 927      BINDING AFFINITY PREDICTED BY RF-SCORE:    0.00 PKD
ROOT
HETATM    1  O   UNL     1      -7.518  10.469  69.692  1.00  0.00    -0.143 OA 
HETATM    2  C   UNL     1      -7.052   9.661  70.652  1.00  0.00    -0.109 C  
HETATM    3  C   UNL     2     -13.239  10.082  70.764  1.00  0.00    -0.208 C  
HETATM    4  N   UNL     2     -12.493  11.167  70.130  1.00  0.00    -0.269 NA 
HETATM    5  O   UNL     1      -6.443  10.084  71.623  1.00  0.00    -0.291 OA 
HETATM    6  C   UNL     1      -7.404   8.228  70.582  1.00  0.00    -0.057 C  
HETATM    7  C   UNL     1      -7.926   7.441  69.629  1.00  0.00    -0.126 C  
HETATM    8  O   UNL     1      -7.852   8.902  67.767  1.00  0.00    -0.100 OA 
HETATM    9  C   UNL     2     -12.317  12.270  71.080  1.00  0.00    -0.220 C  
HETATM   10  O   UNL     1      -9.074   7.012  67.632  1.00  0.00    -0.124 OA 
HETATM   11  C   UNL     1      -8.246   7.859  68.263  1.00  0.00    -0.124 C  
ENDROOT
BRANCH   4  12
HETATM   12  C   UNL     2     -11.188  10.739  69.607  1.00  0.00    -0.291 C  
BRANCH  12  13
HETATM   13  C   UNL     2     -11.080  10.785  68.072  1.00  0.00    -0.359 C  
HETATM   14  C   UNL     2     -11.276  12.187  67.456  1.00  0.00    -0.357 C  
HETATM   15  C   UNL     2     -11.455  12.133  65.938  1.00  0.00    -0.363 A  
HETATM   16  C   UNL     2     -10.192  13.168  67.903  1.00  0.00    -0.233 A  
HETATM   17  C   UNL     2     -10.506  11.554  65.093  1.00  0.00    -0.340 A  
HETATM   18  C   UNL     2      -8.823  12.931  67.683  1.00  0.00    -0.187 A  
HETATM   19  C   UNL     2      -7.857  13.823  68.150  1.00  0.00    -0.149 A  
HETATM   20  C   UNL     2     -10.711  11.573  63.716  1.00  0.00    -0.474 A  
HETATM   21  C   UNL     2      -8.248  14.958  68.854  1.00  0.00    -0.171 A  
HETATM   22  C   UNL     2     -11.864  12.151  63.207  1.00  0.00    -0.466 A  
HETATM   23  C   UNL     2     -12.773  12.682  64.103  1.00  0.00    -0.281 A  
HETATM   24 CL   UNL     2      -7.054  16.040  69.456  1.00  0.00    -0.209 Cl 
HETATM   25  C   UNL     2      -9.595  15.214  69.084  1.00  0.00    -0.232 A  
HETATM   26  N   UNL     2     -12.598  12.680  65.444  1.00  0.00    -0.642 NA 
HETATM   27  C   UNL     2     -10.563  14.326  68.606  1.00  0.00    -0.254 A  
ENDBRANCH  12  13
ENDBRANCH   4  12
TORSDOF 2
ENDMDL
MODEL       18
REMARK 921   NORMALIZED FREE ENERGY PREDICTED BY IDOCK:   -6.22 KCAL/MOL
REMARK 922        TOTAL FREE ENERGY PREDICTED BY IDOCK:   -7.63 KCAL/MOL
REMARK 923 INTER-LIGAND FREE ENERGY PREDICTED BY IDOCK:   -7.03 KCAL/MOL
REMARK 924 INTRA-LIGAND FREE ENERGY PREDICTED BY IDOCK:   -0.60 KCAL/MOL
REMARK 927      BINDING AFFINITY PREDICTED BY RF-SCORE:    0.00 PKD
ROOT
HETATM    1  O   UNL     1      -8.915  11.310  64.572  1.00  0.00    -0.066 OA 
HETATM    2  C   UNL     1      -9.637  11.368  63.447  1.00  0.00    -0.329 C  
HETATM    3  C   UNL     2     -11.283   6.575  67.021  1.00  0.00    -0.207 C  
HETATM    4  N   UNL     2      -9.944   7.132  67.202  1.00  0.00    -0.190 NA 
HETATM    5  O   UNL     1      -9.161  11.115  62.351  1.00  0.00    -0.324 OA 
HETATM    6  C   UNL     1     -11.086  11.629  63.568  1.00  0.00    -0.476 C  
HETATM    7  C   UNL     1     -11.877  12.060  64.562  1.00  0.00    -0.363 C  
HETATM    8  O   UNL     1     -10.255  12.706  66.162  1.00  0.00    -0.248 OA 
HETATM    9  C   UNL     2      -8.970   6.340  66.444  1.00  0.00    -0.152 C  
HETATM   10  O   UNL     1     -12.410  12.513  66.798  1.00  0.00    -0.457 OA 
HETATM   11  C   UNL     1     -11.422  12.476  65.890  1.00  0.00    -0.373 C  
ENDROOT
BRANCH   4  12
HETATM   12  C   UNL     2      -9.854   8.547  66.816  1.00  0.00    -0.257 C  
BRANCH  12  13
HETATM   13  C   UNL     2      -8.731   9.323  67.530  1.00  0.00    -0.116 C  
HETATM   14  C   UNL     2      -9.205  10.578  68.295  1.00  0.00    -0.152 C  
HETATM   15  C   UNL     2      -8.037  11.466  68.729  1.00  0.00    -0.112 A  
HETATM   16  C   UNL     2     -10.158  10.230  69.438  1.00  0.00    -0.255 A  
HETATM   17  C   UNL     2      -6.994  10.993  69.527  1.00  0.00    -0.126 A  
HETATM   18  C   UNL     2      -9.796   9.359  70.482  1.00  0.00    -0.331 A  
HETATM   19  C   UNL     2     -10.708   9.022  71.483  1.00  0.00    -0.421 A  
HETATM   20  C   UNL     2      -5.981  11.864  69.919  1.00  0.00    -0.148 A  
HETATM   21  C   UNL     2     -11.999   9.542  71.445  1.00  0.00    -0.386 A  
HETATM   22  C   UNL     2      -6.016  13.184  69.496  1.00  0.00    -0.108 A  
HETATM   23  C   UNL     2      -7.065  13.577  68.686  1.00  0.00    -0.106 A  
HETATM   24 CL   UNL     2     -13.132   9.101  72.662  1.00  0.00    -0.437 Cl 
HETATM   25  C   UNL     2     -12.379  10.405  70.423  1.00  0.00    -0.370 A  
HETATM   26  N   UNL     2      -8.063  12.754  68.292  1.00  0.00    -0.151 NA 
HETATM   27  C   UNL     2     -11.462  10.751  69.427  1.00  0.00    -0.366 A  
ENDBRANCH  12  13
ENDBRANCH   4  12
TORSDOF 2
ENDMDL
MODEL       19
REMARK 921   NORMALIZED FREE ENERGY PREDICTED BY IDOCK:   -6.09 KCAL/MOL
REMARK 922        TOTAL FREE ENERGY PREDICTED BY IDOCK:   -7.49 KCAL/MOL
REMARK 923 INTER-LIGAND FREE ENERGY PREDICTED BY IDOCK:   -6.86 KCAL/MOL
REMARK 924 INTRA-LIGAND FREE ENERGY PREDICTED BY IDOCK:   -0.62 KCAL/MOL
REMARK 927      BINDING AFFINITY PREDICTED BY RF-SCORE:    0.00 PKD
ROOT
HETATM    1  O   UNL     1      -8.329  10.100  64.809  1.00  0.00    -0.152 OA 
HETATM    2  C   UNL     1      -7.432   9.140  64.556  1.00  0.00    -0.101 C  
HETATM    3  C   UNL     2      -6.303  12.023  69.929  1.00  0.00    -0.089 C  
HETATM    4  N   UNL     2      -7.091  12.736  68.926  1.00  0.00    -0.093 NA 
HETATM    5  O   UNL     1      -6.593   9.244  63.675  1.00  0.00    -0.090 OA 
HETATM    6  C   UNL     1      -7.392   7.975  65.464  1.00  0.00    -0.075 C  
HETATM    7  C   UNL     1      -8.215   7.500  66.412  1.00  0.00    -0.122 C  
HETATM    8  O   UNL     1     -10.114   8.872  66.065  1.00  0.00    -0.260 OA 
HETATM    9  C   UNL     2      -6.224  13.638  68.162  1.00  0.00    -0.117 C  
HETATM   10  O   UNL     1      -9.975   7.643  67.951  1.00  0.00    -0.155 OA 
HETATM   11  C   UNL     1      -9.522   8.060  66.759  1.00  0.00    -0.202 C  
ENDROOT
BRANCH   4  12
HETATM   12  C   UNL     2      -7.808  11.835  68.014  1.00  0.00    -0.134 C  
BRANCH  12  13
HETATM   13  C   UNL     2      -8.708  12.558  66.995  1.00  0.00    -0.205 C  
HETATM   14  C   UNL     2     -10.117  11.948  66.835  1.00  0.00    -0.229 C  
HETATM   15  C   UNL     2     -10.856  12.506  65.617  1.00  0.00    -0.277 A  
HETATM   16  C   UNL     2     -10.931  12.034  68.127  1.00  0.00    -0.273 A  
HETATM   17  C   UNL     2     -11.088  13.872  65.444  1.00  0.00    -0.310 A  
HETATM   18  C   UNL     2     -11.201  13.257  68.767  1.00  0.00    -0.317 A  
HETATM   19  C   UNL     2     -11.903  13.294  69.973  1.00  0.00    -0.365 A  
HETATM   20  C   UNL     2     -11.801  14.311  64.332  1.00  0.00    -0.444 A  
HETATM   21  C   UNL     2     -12.332  12.108  70.560  1.00  0.00    -0.272 A  
HETATM   22  C   UNL     2     -12.254  13.386  63.404  1.00  0.00    -0.419 A  
HETATM   23  C   UNL     2     -11.965  12.052  63.625  1.00  0.00    -0.515 A  
HETATM   24 CL   UNL     2     -13.169  12.153  72.062  1.00  0.00    -0.576 Cl 
HETATM   25  C   UNL     2     -12.076  10.886  69.946  1.00  0.00    -0.428 A  
HETATM   26  N   UNL     2     -11.277  11.598  64.697  1.00  0.00    -0.287 NA 
HETATM   27  C   UNL     2     -11.383  10.850  68.732  1.00  0.00    -0.357 A  
ENDBRANCH  12  13
ENDBRANCH   4  12
TORSDOF 2
ENDMDL
MODEL       20
REMARK 921   NORMALIZED FREE ENERGY PREDICTED BY IDOCK:   -6.06 KCAL/MOL
REMARK 922        TOTAL FREE ENERGY PREDICTED BY IDOCK:   -7.46 KCAL/MOL
REMARK 923 INTER-LIGAND FREE ENERGY PREDICTED BY IDOCK:   -6.73 KCAL/MOL
REMARK 924 INTRA-LIGAND FREE ENERGY PREDICTED BY IDOCK:   -0.73 KCAL/MOL
REMARK 927      BINDING AFFINITY PREDICTED BY RF-SCORE:    0.00 PKD
ROOT
HETATM    1  O   UNL     1      -7.034  12.631  69.433  1.00  0.00    -0.024 OA 
HETATM    2  C   UNL     1      -5.946  12.251  68.754  1.00  0.00    -0.065 C  
HETATM    3  C   UNL     2     -10.496  14.142  64.988  1.00  0.00    -0.425 C  
HETATM    4  N   UNL     2     -10.864  13.688  66.327  1.00  0.00    -0.282 NA 
HETATM    5  O   UNL     1      -5.599  11.082  68.674  1.00  0.00    -0.044 OA 
HETATM    6  C   UNL     1      -5.221  13.279  67.978  1.00  0.00    -0.106 C  
HETATM    7  C   UNL     1      -5.252  14.620  67.947  1.00  0.00    -0.073 C  
HETATM    8  O   UNL     1      -6.614  15.067  69.832  1.00  0.00    -0.157 OA 
HETATM    9  C   UNL     2     -11.290  12.285  66.276  1.00  0.00    -0.345 C  
HETATM   10  O   UNL     1      -6.192  16.725  68.362  1.00  0.00    -0.129 OA 
HETATM   11  C   UNL     1      -6.061  15.471  68.821  1.00  0.00    -0.099 C  
ENDROOT
BRANCH   4  12
HETATM   12  C   UNL     2      -9.781  13.850  67.306  1.00  0.00    -0.245 C  
BRANCH  12  13
HETATM   13  C   UNL     2      -9.359  15.312  67.541  1.00  0.00    -0.204 C  
HETATM   14  C   UNL     2     -10.516  16.262  67.917  1.00  0.00    -0.295 C  
HETATM   15  C   UNL     2     -10.103  17.734  67.847  1.00  0.00    -0.342 A  
HETATM   16  C   UNL     2     -11.166  15.879  69.247  1.00  0.00    -0.335 A  
HETATM   17  C   UNL     2      -9.031  18.245  68.581  1.00  0.00    -0.303 A  
HETATM   18  C   UNL     2     -10.437  15.801  70.447  1.00  0.00    -0.169 A  
HETATM   19  C   UNL     2     -11.051  15.397  71.634  1.00  0.00    -0.273 A  
HETATM   20  C   UNL     2      -8.732  19.603  68.502  1.00  0.00    -0.344 A  
HETATM   21  C   UNL     2     -12.400  15.055  71.631  1.00  0.00    -0.342 A  
HETATM   22  C   UNL     2      -9.493  20.422  67.682  1.00  0.00    -0.485 A  
HETATM   23  C   UNL     2     -10.523  19.842  66.964  1.00  0.00    -0.441 A  
HETATM   24 CL   UNL     2     -13.148  14.528  73.088  1.00  0.00    -0.604 Cl 
HETATM   25  C   UNL     2     -13.141  15.124  70.457  1.00  0.00    -0.320 A  
HETATM   26  N   UNL     2     -10.837  18.528  67.023  1.00  0.00    -0.303 NA 
HETATM   27  C   UNL     2     -12.529  15.539  69.271  1.00  0.00     0.026 A  
ENDBRANCH  12  13
ENDBRANCH   4  12
TORSDOF 2
ENDMDL
MODEL       21
REMARK 921   NORMALIZED FREE ENERGY PREDICTED BY IDOCK:   -6.06 KCAL/MOL
REMARK 922        TOTAL FREE ENERGY PREDICTED BY IDOCK:   -7.45 KCAL/MOL
REMARK 923 INTER-LIGAND FREE ENERGY PREDICTED BY IDOCK:   -7.18 KCAL/MOL
REMARK 924 INTRA-LIGAND FREE ENERGY PREDICTED BY IDOCK:   -0.27 KCAL/MOL
REMARK 927      BINDING AFFINITY PREDICTED BY RF-SCORE:    0.00 PKD
ROOT
HETATM    1  O   UNL     1     -11.401  11.941  66.352  1.00  0.00    -0.331 OA 
HETATM    2  C   UNL     1     -12.131  12.973  65.913  1.00  0.00    -0.444 C  
HETATM    3  C   UNL     2     -13.049  11.877  71.947  1.00  0.00    -0.369 C  
HETATM    4  N   UNL     2     -12.547  10.779  71.124  1.00  0.00    -0.394 NA 
HETATM    5  O   UNL     1     -13.085  12.828  65.164  1.00  0.00    -0.750 OA 
HETATM    6  C   UNL     1     -11.834  14.313  66.461  1.00  0.00    -0.433 C  
HETATM    7  C   UNL     1     -10.819  14.827  67.172  1.00  0.00    -0.311 C  
HETATM    8  O   UNL     1      -9.269  13.039  67.074  1.00  0.00    -0.217 OA 
HETATM    9  C   UNL     2     -13.659   9.917  70.712  1.00  0.00     0.076 C  
HETATM   10  O   UNL     1      -8.928  14.711  68.548  1.00  0.00    -0.174 OA 
HETATM   11  C   UNL     1      -9.604  14.109  67.558  1.00  0.00    -0.223 C  
ENDROOT
BRANCH   4  12
HETATM   12  C   UNL     2     -11.803  11.240  69.944  1.00  0.00    -0.360 C  
BRANCH  12  13
HETATM   13  C   UNL     2     -11.514  10.135  68.911  1.00  0.00    -0.125 C  
HETATM   14  C   UNL     2     -10.188   9.377  69.135  1.00  0.00    -0.209 C  
HETATM   15  C   UNL     2      -9.807   8.509  67.934  1.00  0.00    -0.170 A  
HETATM   16  C   UNL     2     -10.178   8.615  70.460  1.00  0.00    -0.229 A  
HETATM   17  C   UNL     2     -10.650   7.516  67.432  1.00  0.00    -0.364 A  
HETATM   18  C   UNL     2     -11.140   7.639  70.775  1.00  0.00    -0.276 A  
HETATM   19  C   UNL     2     -11.132   6.998  72.015  1.00  0.00    -0.276 A  
HETATM   20  C   UNL     2     -10.226   6.734  66.360  1.00  0.00    -0.020 A  
HETATM   21  C   UNL     2     -10.168   7.336  72.961  1.00  0.00    -0.268 A  
HETATM   22  C   UNL     2      -8.980   6.967  65.798  1.00  0.00    -0.038 A  
HETATM   23  C   UNL     2      -8.209   7.984  66.329  1.00  0.00    -0.116 A  
HETATM   24 CL   UNL     2     -10.179   6.568  74.500  1.00  0.00    -0.356 Cl 
HETATM   25  C   UNL     2      -9.206   8.298  72.672  1.00  0.00    -0.345 A  
HETATM   26  N   UNL     2      -8.594   8.756  67.370  1.00  0.00    -0.125 NA 
HETATM   27  C   UNL     2      -9.208   8.930  71.426  1.00  0.00    -0.328 A  
ENDBRANCH  12  13
ENDBRANCH   4  12
TORSDOF 2
ENDMDL
MODEL       22
REMARK 921   NORMALIZED FREE ENERGY PREDICTED BY IDOCK:   -6.05 KCAL/MOL
REMARK 922        TOTAL FREE ENERGY PREDICTED BY IDOCK:   -7.44 KCAL/MOL
REMARK 923 INTER-LIGAND FREE ENERGY PREDICTED BY IDOCK:   -6.85 KCAL/MOL
REMARK 924 INTRA-LIGAND FREE ENERGY PREDICTED BY IDOCK:   -0.59 KCAL/MOL
REMARK 927      BINDING AFFINITY PREDICTED BY RF-SCORE:    0.00 PKD
ROOT
HETATM    1  O   UNL     1     -11.713  12.014  68.992  1.00  0.00    -0.282 OA 
HETATM    2  C   UNL     1     -12.079  11.492  70.168  1.00  0.00    -0.351 C  
HETATM    3  C   UNL     2      -6.480  14.145  70.441  1.00  0.00    -0.038 C  
HETATM    4  N   UNL     2      -6.968  13.716  69.132  1.00  0.00    -0.099 NA 
HETATM    5  O   UNL     1     -12.140  10.287  70.359  1.00  0.00    -0.279 OA 
HETATM    6  C   UNL     1     -12.294  12.419  71.299  1.00  0.00    -0.154 C  
HETATM    7  C   UNL     1     -12.431  13.749  71.403  1.00  0.00    -0.404 C  
HETATM    8  O   UNL     1     -12.612  14.348  69.119  1.00  0.00    -0.094 OA 
HETATM    9  C   UNL     2      -6.420  12.396  68.806  1.00  0.00    -0.084 C  
HETATM   10  O   UNL     1     -12.246  15.960  70.652  1.00  0.00    -0.393 OA 
HETATM   11  C   UNL     1     -12.464  14.689  70.281  1.00  0.00    -0.346 C  
ENDROOT
BRANCH   4  12
HETATM   12  C   UNL     2      -8.435  13.687  69.047  1.00  0.00     0.299 C  
BRANCH  12  13
HETATM   13  C   UNL     2      -8.977  13.327  67.651  1.00  0.00    -0.199 C  
HETATM   14  C   UNL     2     -10.143  14.215  67.167  1.00  0.00    -0.258 C  
HETATM   15  C   UNL     2     -10.833  13.640  65.928  1.00  0.00    -0.275 A  
HETATM   16  C   UNL     2      -9.723  15.676  67.001  1.00  0.00    -0.234 A  
HETATM   17  C   UNL     2     -10.142  13.365  64.747  1.00  0.00    -0.262 A  
HETATM   18  C   UNL     2      -8.673  16.067  66.152  1.00  0.00    -0.348 A  
HETATM   19  C   UNL     2      -8.282  17.404  66.065  1.00  0.00    -0.161 A  
HETATM   20  C   UNL     2     -10.837  12.878  63.643  1.00  0.00    -0.270 A  
HETATM   21  C   UNL     2      -8.930  18.365  66.835  1.00  0.00    -0.280 A  
HETATM   22  C   UNL     2     -12.202  12.659  63.740  1.00  0.00    -0.600 A  
HETATM   23  C   UNL     2     -12.817  12.928  64.949  1.00  0.00    -0.295 A  
HETATM   24 CL   UNL     2      -8.426  20.008  66.750  1.00  0.00    -0.364 Cl 
HETATM   25  C   UNL     2      -9.971  18.002  67.683  1.00  0.00    -0.332 A  
HETATM   26  N   UNL     2     -12.168  13.403  66.035  1.00  0.00    -0.436 NA 
HETATM   27  C   UNL     2     -10.370  16.665  67.761  1.00  0.00    -0.306 A  
ENDBRANCH  12  13
ENDBRANCH   4  12
TORSDOF 2
ENDMDL
MODEL       23
REMARK 921   NORMALIZED FREE ENERGY PREDICTED BY IDOCK:   -6.04 KCAL/MOL
REMARK 922        TOTAL FREE ENERGY PREDICTED BY IDOCK:   -7.43 KCAL/MOL
REMARK 923 INTER-LIGAND FREE ENERGY PREDICTED BY IDOCK:   -6.92 KCAL/MOL
REMARK 924 INTRA-LIGAND FREE ENERGY PREDICTED BY IDOCK:   -0.52 KCAL/MOL
REMARK 927      BINDING AFFINITY PREDICTED BY RF-SCORE:    0.00 PKD
ROOT
HETATM    1  O   UNL     1      -7.982  10.901  65.518  1.00  0.00    -0.113 OA 
HETATM    2  C   UNL     1      -6.947  10.053  65.485  1.00  0.00    -0.124 C  
HETATM    3  C   UNL     2      -6.474  14.120  70.143  1.00  0.00    -0.086 C  
HETATM    4  N   UNL     2      -7.311  14.485  69.002  1.00  0.00    -0.128 NA 
HETATM    5  O   UNL     1      -6.094  10.096  64.612  1.00  0.00    -0.112 OA 
HETATM    6  C   UNL     1      -6.781   9.120  66.619  1.00  0.00    -0.076 C  
HETATM    7  C   UNL     1      -7.568   8.735  67.635  1.00  0.00    -0.097 C  
HETATM    8  O   UNL     1      -9.627   9.708  66.983  1.00  0.00    -0.160 OA 
HETATM    9  C   UNL     2      -6.549  15.328  68.076  1.00  0.00    -0.141 C  
HETATM   10  O   UNL     1      -9.396   8.931  69.087  1.00  0.00    -0.147 OA 
HETATM   11  C   UNL     1      -8.956   9.154  67.840  1.00  0.00    -0.128 C  
ENDROOT
BRANCH   4  12
HETATM   12  C   UNL     2      -7.853  13.318  68.291  1.00  0.00    -0.143 C  
BRANCH  12  13
HETATM   13  C   UNL     2      -8.842  13.672  67.165  1.00  0.00    -0.237 C  
HETATM   14  C   UNL     2     -10.105  12.785  67.117  1.00  0.00    -0.234 C  
HETATM   15  C   UNL     2     -10.898  12.976  65.823  1.00  0.00    -0.272 A  
HETATM   16  C   UNL     2     -10.959  12.931  68.377  1.00  0.00    -0.285 A  
HETATM   17  C   UNL     2     -11.380  14.222  65.418  1.00  0.00    -0.329 A  
HETATM   18  C   UNL     2     -11.475  14.169  68.797  1.00  0.00    -0.333 A  
HETATM   19  C   UNL     2     -12.208  14.275  69.980  1.00  0.00    -0.417 A  
HETATM   20  C   UNL     2     -12.129  14.320  64.248  1.00  0.00    -0.467 A  
HETATM   21  C   UNL     2     -12.422  13.145  70.764  1.00  0.00    -0.308 A  
HETATM   22  C   UNL     2     -12.369  13.181  63.495  1.00  0.00    -0.478 A  
HETATM   23  C   UNL     2     -11.839  11.986  63.942  1.00  0.00    -0.448 A  
HETATM   24 CL   UNL     2     -13.298  13.283  72.238  1.00  0.00    -0.619 Cl 
HETATM   25  C   UNL     2     -11.920  11.909  70.369  1.00  0.00    -0.400 A  
HETATM   26  N   UNL     2     -11.111  11.860  65.074  1.00  0.00    -0.310 NA 
HETATM   27  C   UNL     2     -11.197  11.802  69.178  1.00  0.00    -0.324 A  
ENDBRANCH  12  13
ENDBRANCH   4  12
TORSDOF 2
ENDMDL
MODEL       24
REMARK 921   NORMALIZED FREE ENERGY PREDICTED BY IDOCK:   -6.02 KCAL/MOL
REMARK 922        TOTAL FREE ENERGY PREDICTED BY IDOCK:   -7.41 KCAL/MOL
REMARK 923 INTER-LIGAND FREE ENERGY PREDICTED BY IDOCK:   -6.63 KCAL/MOL
REMARK 924 INTRA-LIGAND FREE ENERGY PREDICTED BY IDOCK:   -0.78 KCAL/MOL
REMARK 927      BINDING AFFINITY PREDICTED BY RF-SCORE:    0.00 PKD
ROOT
HETATM    1  O   UNL     1      -7.089  14.675  69.580  1.00  0.00    -0.157 OA 
HETATM    2  C   UNL     1      -6.280  13.974  70.383  1.00  0.00    -0.129 C  
HETATM    3  C   UNL     2     -11.839  11.296  69.763  1.00  0.00    -0.364 C  
HETATM    4  N   UNL     2     -11.740  12.729  69.499  1.00  0.00    -0.316 NA 
HETATM    5  O   UNL     1      -5.966  14.365  71.497  1.00  0.00    -0.150 OA 
HETATM    6  C   UNL     1      -5.863  12.627  69.941  1.00  0.00    -0.133 C  
HETATM    7  C   UNL     1      -5.919  11.970  68.772  1.00  0.00    -0.056 C  
HETATM    8  O   UNL     1      -6.589  13.717  67.321  1.00  0.00    -0.254 OA 
HETATM    9  C   UNL     2     -12.143  13.483  70.691  1.00  0.00    -0.309 C  
HETATM   10  O   UNL     1      -6.694  11.584  66.596  1.00  0.00    -0.133 OA 
HETATM   11  C   UNL     1      -6.405  12.524  67.508  1.00  0.00    -0.154 C  
ENDROOT
BRANCH   4  12
HETATM   12  C   UNL     2     -10.397  13.143  69.071  1.00  0.00     0.050 C  
BRANCH  12  13
HETATM   13  C   UNL     2     -10.315  14.599  68.576  1.00  0.00    -0.238 C  
HETATM   14  C   UNL     2      -9.681  14.767  67.178  1.00  0.00    -0.234 C  
HETATM   15  C   UNL     2      -9.354  16.228  66.862  1.00  0.00    -0.224 A  
HETATM   16  C   UNL     2     -10.505  14.083  66.087  1.00  0.00    -0.297 A  
HETATM   17  C   UNL     2     -10.322  17.233  66.886  1.00  0.00    -0.310 A  
HETATM   18  C   UNL     2     -11.853  14.403  65.847  1.00  0.00    -0.371 A  
HETATM   19  C   UNL     2     -12.590  13.722  64.877  1.00  0.00    -0.380 A  
HETATM   20  C   UNL     2      -9.966  18.537  66.551  1.00  0.00    -0.401 A  
HETATM   21  C   UNL     2     -11.991  12.703  64.143  1.00  0.00    -0.426 A  
HETATM   22  C   UNL     2      -8.650  18.819  66.215  1.00  0.00    -0.247 A  
HETATM   23  C   UNL     2      -7.739  17.779  66.238  1.00  0.00    -0.273 A  
HETATM   24 CL   UNL     2     -12.910  11.843  62.970  1.00  0.00    -0.300 Cl 
HETATM   25  C   UNL     2     -10.659  12.368  64.362  1.00  0.00    -0.366 A  
HETATM   26  N   UNL     2      -8.058  16.504  66.557  1.00  0.00    -0.277 NA 
HETATM   27  C   UNL     2      -9.918  13.058  65.326  1.00  0.00    -0.186 A  
ENDBRANCH  12  13
ENDBRANCH   4  12
TORSDOF 2
ENDMDL
MODEL       25
REMARK 921   NORMALIZED FREE ENERGY PREDICTED BY IDOCK:   -5.95 KCAL/MOL
REMARK 922        TOTAL FREE ENERGY PREDICTED BY IDOCK:   -7.33 KCAL/MOL
REMARK 923 INTER-LIGAND FREE ENERGY PREDICTED BY IDOCK:   -6.71 KCAL/MOL
REMARK 924 INTRA-LIGAND FREE ENERGY PREDICTED BY IDOCK:   -0.62 KCAL/MOL
REMARK 927      BINDING AFFINITY PREDICTED BY RF-SCORE:    0.00 PKD
ROOT
HETATM    1  O   UNL     1      -7.254  15.627  69.926  1.00  0.00    -0.134 OA 
HETATM    2  C   UNL     1      -6.012  16.113  69.820  1.00  0.00    -0.177 C  
HETATM    3  C   UNL     2      -6.839  11.063  66.317  1.00  0.00    -0.096 C  
HETATM    4  N   UNL     2      -7.733  11.256  67.456  1.00  0.00    -0.117 NA 
HETATM    5  O   UNL     1      -5.200  16.039  70.730  1.00  0.00    -0.171 OA 
HETATM    6  C   UNL     1      -5.586  16.644  68.507  1.00  0.00    -0.121 C  
HETATM    7  C   UNL     1      -6.234  16.978  67.381  1.00  0.00    -0.176 C  
HETATM    8  O   UNL     1      -8.482  16.847  68.116  1.00  0.00    -0.204 OA 
HETATM    9  C   UNL     2      -7.249  10.483  68.605  1.00  0.00    -0.087 C  
HETATM   10  O   UNL     1      -8.053  16.974  65.905  1.00  0.00    -0.494 OA 
HETATM   11  C   UNL     1      -7.686  16.948  67.195  1.00  0.00    -0.179 C  
ENDROOT
BRANCH   4  12
HETATM   12  C   UNL     2      -7.891  12.668  67.830  1.00  0.00    -0.154 C  
BRANCH  12  13
HETATM   13  C   UNL     2      -9.042  12.933  68.818  1.00  0.00     0.171 C  
HETATM   14  C   UNL     2      -9.959  14.115  68.435  1.00  0.00    -0.235 C  
HETATM   15  C   UNL     2     -10.890  14.521  69.579  1.00  0.00    -0.184 A  
HETATM   16  C   UNL     2     -10.693  13.869  67.116  1.00  0.00    -0.282 A  
HETATM   17  C   UNL     2     -11.776  13.623  70.177  1.00  0.00    -0.288 A  
HETATM   18  C   UNL     2     -11.532  12.759  66.916  1.00  0.00    -0.396 A  
HETATM   19  C   UNL     2     -12.146  12.537  65.683  1.00  0.00    -0.464 A  
HETATM   20  C   UNL     2     -12.624  14.066  71.188  1.00  0.00    -0.445 A  
HETATM   21  C   UNL     2     -11.918  13.418  64.629  1.00  0.00    -0.399 A  
HETATM   22  C   UNL     2     -12.562  15.390  71.597  1.00  0.00    -0.458 A  
HETATM   23  C   UNL     2     -11.642  16.216  70.979  1.00  0.00    -0.393 A  
HETATM   24 CL   UNL     2     -12.650  13.126  63.100  1.00  0.00    -0.197 Cl 
HETATM   25  C   UNL     2     -11.091  14.523  64.803  1.00  0.00    -0.400 A  
HETATM   26  N   UNL     2     -10.809  15.813  69.994  1.00  0.00    -0.314 NA 
HETATM   27  C   UNL     2     -10.486  14.750  66.042  1.00  0.00    -0.312 A  
ENDBRANCH  12  13
ENDBRANCH   4  12
TORSDOF 2
ENDMDL
MODEL       26
REMARK 921   NORMALIZED FREE ENERGY PREDICTED BY IDOCK:   -5.93 KCAL/MOL
REMARK 922        TOTAL FREE ENERGY PREDICTED BY IDOCK:   -7.31 KCAL/MOL
REMARK 923 INTER-LIGAND FREE ENERGY PREDICTED BY IDOCK:   -7.54 KCAL/MOL
REMARK 924 INTRA-LIGAND FREE ENERGY PREDICTED BY IDOCK:    0.23 KCAL/MOL
REMARK 927      BINDING AFFINITY PREDICTED BY RF-SCORE:    0.00 PKD
ROOT
HETATM    1  O   UNL     1      -7.164  17.573  66.876  1.00  0.00    -0.171 OA 
HETATM    2  C   UNL     1      -6.845  18.490  65.955  1.00  0.00    -0.268 C  
HETATM    3  C   UNL     2     -12.240  15.704  64.694  1.00  0.00     0.114 C  
HETATM    4  N   UNL     2     -11.293  14.997  65.553  1.00  0.00    -0.338 NA 
HETATM    5  O   UNL     1      -5.930  18.330  65.161  1.00  0.00    -0.204 OA 
HETATM    6  C   UNL     1      -7.718  19.676  65.829  1.00  0.00    -0.245 C  
HETATM    7  C   UNL     1      -8.688  20.207  66.589  1.00  0.00    -0.367 C  
HETATM    8  O   UNL     1      -8.463  18.902  68.554  1.00  0.00    -0.329 OA 
HETATM    9  C   UNL     2     -10.516  14.042  64.757  1.00  0.00    -0.421 C  
HETATM   10  O   UNL     1     -10.307  20.173  68.282  1.00  0.00    -0.401 OA 
HETATM   11  C   UNL     1      -9.108  19.708  67.900  1.00  0.00    -0.327 C  
ENDROOT
BRANCH   4  12
HETATM   12  C   UNL     2     -10.388  15.902  66.277  1.00  0.00    -0.314 C  
BRANCH  12  13
HETATM   13  C   UNL     2     -10.637  15.958  67.795  1.00  0.00    -0.302 C  
HETATM   14  C   UNL     2     -11.549  14.836  68.338  1.00  0.00    -0.350 C  
HETATM   15  C   UNL     2     -12.002  15.103  69.775  1.00  0.00    -0.334 A  
HETATM   16  C   UNL     2     -10.933  13.450  68.146  1.00  0.00    -0.277 A  
HETATM   17  C   UNL     2     -11.098  15.300  70.820  1.00  0.00    -0.340 A  
HETATM   18  C   UNL     2      -9.679  13.103  68.677  1.00  0.00    -0.062 A  
HETATM   19  C   UNL     2      -9.123  11.845  68.438  1.00  0.00    -0.167 A  
HETATM   20  C   UNL     2     -11.576  15.499  72.113  1.00  0.00    -0.552 A  
HETATM   21  C   UNL     2      -9.810  10.923  67.654  1.00  0.00    -0.171 A  
HETATM   22  C   UNL     2     -12.944  15.516  72.338  1.00  0.00    -0.511 A  
HETATM   23  C   UNL     2     -13.781  15.341  71.252  1.00  0.00    -0.490 A  
HETATM   24 CL   UNL     2      -9.110   9.385  67.335  1.00  0.00    -0.138 Cl 
HETATM   25  C   UNL     2     -11.053  11.245  67.118  1.00  0.00    -0.364 A  
HETATM   26  N   UNL     2     -13.345  15.143  69.988  1.00  0.00     0.226 NA 
HETATM   27  C   UNL     2     -11.614  12.500  67.367  1.00  0.00    -0.434 A  
ENDBRANCH  12  13
ENDBRANCH   4  12
TORSDOF 2
ENDMDL
MODEL       27
REMARK 921   NORMALIZED FREE ENERGY PREDICTED BY IDOCK:   -5.92 KCAL/MOL
REMARK 922        TOTAL FREE ENERGY PREDICTED BY IDOCK:   -7.29 KCAL/MOL
REMARK 923 INTER-LIGAND FREE ENERGY PREDICTED BY IDOCK:   -6.37 KCAL/MOL
REMARK 924 INTRA-LIGAND FREE ENERGY PREDICTED BY IDOCK:   -0.92 KCAL/MOL
REMARK 927      BINDING AFFINITY PREDICTED BY RF-SCORE:    0.00 PKD
ROOT
HETATM    1  O   UNL     1      -9.811  15.185  67.287  1.00  0.00    -0.225 OA 
HETATM    2  C   UNL     1      -9.921  15.794  66.101  1.00  0.00    -0.311 C  
HETATM    3  C   UNL     2      -6.355  10.730  65.797  1.00  0.00    -0.089 C  
HETATM    4  N   UNL     2      -6.518  11.371  67.099  1.00  0.00    -0.096 NA 
HETATM    5  O   UNL     1      -9.391  16.869  65.866  1.00  0.00    -0.489 OA 
HETATM    6  C   UNL     1     -10.607  15.067  65.012  1.00  0.00    -0.437 C  
HETATM    7  C   UNL     1     -11.381  13.973  64.962  1.00  0.00    -0.342 C  
HETATM    8  O   UNL     1     -11.742  13.591  67.272  1.00  0.00    -0.340 OA 
HETATM    9  C   UNL     2      -5.380  12.259  67.362  1.00  0.00    -0.116 C  
HETATM   10  O   UNL     1     -12.273  11.973  65.793  1.00  0.00    -0.520 OA 
HETATM   11  C   UNL     1     -11.826  13.195  66.120  1.00  0.00    -0.401 C  
ENDROOT
BRANCH   4  12
HETATM   12  C   UNL     2      -7.777  12.117  67.218  1.00  0.00    -0.168 C  
BRANCH  12  13
HETATM   13  C   UNL     2      -8.654  11.686  68.409  1.00  0.00    -0.156 C  
HETATM   14  C   UNL     2      -9.831  10.759  68.037  1.00  0.00    -0.180 C  
HETATM   15  C   UNL     2     -10.831  10.603  69.185  1.00  0.00    -0.237 A  
HETATM   16  C   UNL     2      -9.353   9.423  67.466  1.00  0.00    -0.147 A  
HETATM   17  C   UNL     2     -10.455  10.136  70.446  1.00  0.00    -0.237 A  
HETATM   18  C   UNL     2      -8.502   8.560  68.180  1.00  0.00    -0.134 A  
HETATM   19  C   UNL     2      -8.043   7.373  67.608  1.00  0.00    -0.114 A  
HETATM   20  C   UNL     2     -11.421   9.981  71.436  1.00  0.00    -0.329 A  
HETATM   21  C   UNL     2      -8.420   7.040  66.310  1.00  0.00    -0.134 A  
HETATM   22  C   UNL     2     -12.740  10.309  71.158  1.00  0.00    -0.502 A  
HETATM   23  C   UNL     2     -13.035  10.790  69.897  1.00  0.00     0.221 A  
HETATM   24 CL   UNL     2      -7.828   5.591  65.596  1.00  0.00    -0.098 Cl 
HETATM   25  C   UNL     2      -9.261   7.878  65.585  1.00  0.00     0.047 A  
HETATM   26  N   UNL     2     -12.118  10.949  68.916  1.00  0.00    -0.481 NA 
HETATM   27  C   UNL     2      -9.729   9.061  66.163  1.00  0.00    -0.354 A  
ENDBRANCH  12  13
ENDBRANCH   4  12
TORSDOF 2
ENDMDL
MODEL       28
REMARK 921   NORMALIZED FREE ENERGY PREDICTED BY IDOCK:   -5.84 KCAL/MOL
REMARK 922        TOTAL FREE ENERGY PREDICTED BY IDOCK:   -7.21 KCAL/MOL
REMARK 923 INTER-LIGAND FREE ENERGY PREDICTED BY IDOCK:   -6.37 KCAL/MOL
REMARK 924 INTRA-LIGAND FREE ENERGY PREDICTED BY IDOCK:   -0.83 KCAL/MOL
REMARK 927      BINDING AFFINITY PREDICTED BY RF-SCORE:    0.00 PKD
ROOT
HETATM    1  O   UNL     1      -7.144  11.785  69.269  1.00  0.00    -0.101 OA 
HETATM    2  C   UNL     1      -6.491  11.202  70.280  1.00  0.00    -0.035 C  
HETATM    3  C   UNL     2     -12.635  10.526  70.781  1.00  0.00    -0.382 C  
HETATM    4  N   UNL     2     -12.135  11.637  69.975  1.00  0.00    -0.324 NA 
HETATM    5  O   UNL     1      -5.923  11.845  71.150  1.00  0.00    -0.327 OA 
HETATM    6  C   UNL     1      -6.574   9.731  70.400  1.00  0.00    -0.114 C  
HETATM    7  C   UNL     1      -6.987   8.749  69.584  1.00  0.00    -0.050 C  
HETATM    8  O   UNL     1      -7.276   9.954  67.566  1.00  0.00    -0.087 OA 
HETATM    9  C   UNL     2     -12.120  12.865  70.776  1.00  0.00    -0.162 C  
HETATM   10  O   UNL     1      -8.131   7.874  67.737  1.00  0.00    -0.124 OA 
HETATM   11  C   UNL     1      -7.445   8.928  68.205  1.00  0.00    -0.087 C  
ENDROOT
BRANCH   4  12
HETATM   12  C   UNL     2     -10.801  11.385  69.414  1.00  0.00    -0.162 C  
BRANCH  12  13
HETATM   13  C   UNL     2     -10.771  11.295  67.877  1.00  0.00    -0.250 C  
HETATM   14  C   UNL     2     -11.307  12.547  67.149  1.00  0.00    -0.381 C  
HETATM   15  C   UNL     2     -11.534  12.297  65.657  1.00  0.00    -0.368 A  
HETATM   16  C   UNL     2     -10.457  13.785  67.433  1.00  0.00    -0.256 A  
HETATM   17  C   UNL     2     -10.515  11.858  64.809  1.00  0.00    -0.333 A  
HETATM   18  C   UNL     2      -9.081  13.835  67.147  1.00  0.00    -0.243 A  
HETATM   19  C   UNL     2      -8.323  14.963  67.467  1.00  0.00    -0.195 A  
HETATM   20  C   UNL     2     -10.778  11.688  63.452  1.00  0.00    -0.460 A  
HETATM   21  C   UNL     2      -8.931  16.050  68.088  1.00  0.00    -0.183 A  
HETATM   22  C   UNL     2     -12.053  11.940  62.968  1.00  0.00    -0.106 A  
HETATM   23  C   UNL     2     -13.019  12.346  63.870  1.00  0.00    -0.158 A  
HETATM   24 CL   UNL     2      -7.990  17.427  68.510  1.00  0.00    -0.258 Cl 
HETATM   25  C   UNL     2     -10.291  16.023  68.380  1.00  0.00    -0.251 A  
HETATM   26  N   UNL     2     -12.791  12.522  65.191  1.00  0.00    -0.672 NA 
HETATM   27  C   UNL     2     -11.051  14.898  68.050  1.00  0.00    -0.301 A  
ENDBRANCH  12  13
ENDBRANCH   4  12
TORSDOF 2
ENDMDL
MODEL       29
REMARK 921   NORMALIZED FREE ENERGY PREDICTED BY IDOCK:   -5.83 KCAL/MOL
REMARK 922        TOTAL FREE ENERGY PREDICTED BY IDOCK:   -7.20 KCAL/MOL
REMARK 923 INTER-LIGAND FREE ENERGY PREDICTED BY IDOCK:   -6.36 KCAL/MOL
REMARK 924 INTRA-LIGAND FREE ENERGY PREDICTED BY IDOCK:   -0.84 KCAL/MOL
REMARK 927      BINDING AFFINITY PREDICTED BY RF-SCORE:    0.00 PKD
ROOT
HETATM    1  O   UNL     1      -6.063  15.238  71.002  1.00  0.00     0.108 OA 
HETATM    2  C   UNL     1      -5.780  14.057  71.563  1.00  0.00    -0.225 C  
HETATM    3  C   UNL     2     -11.538  14.222  69.266  1.00  0.00    -0.306 C  
HETATM    4  N   UNL     2     -10.899  15.494  69.594  1.00  0.00    -0.259 NA 
HETATM    5  O   UNL     1      -5.661  13.919  72.771  1.00  0.00    -0.428 OA 
HETATM    6  C   UNL     1      -5.737  12.867  70.688  1.00  0.00    -0.163 C  
HETATM    7  C   UNL     1      -5.697  12.687  69.359  1.00  0.00    -0.087 C  
HETATM    8  O   UNL     1      -5.333  14.910  68.629  1.00  0.00    -0.086 OA 
HETATM    9  C   UNL     2     -11.327  15.937  70.925  1.00  0.00    -0.391 C  
HETATM   10  O   UNL     1      -5.950  13.346  67.126  1.00  0.00    -0.285 OA 
HETATM   11  C   UNL     1      -5.616  13.753  68.359  1.00  0.00    -0.102 C  
ENDROOT
BRANCH   4  12
HETATM   12  C   UNL     2      -9.432  15.433  69.531  1.00  0.00    -0.249 C  
BRANCH  12  13
HETATM   13  C   UNL     2      -8.791  16.558  68.698  1.00  0.00    -0.237 C  
HETATM   14  C   UNL     2      -8.201  16.101  67.347  1.00  0.00    -0.185 C  
HETATM   15  C   UNL     2      -7.325  17.177  66.703  1.00  0.00    -0.250 A  
HETATM   16  C   UNL     2      -9.275  15.552  66.406  1.00  0.00    -0.339 A  
HETATM   17  C   UNL     2      -7.803  18.457  66.414  1.00  0.00    -0.291 A  
HETATM   18  C   UNL     2     -10.388  16.314  66.008  1.00  0.00    -0.363 A  
HETATM   19  C   UNL     2     -11.376  15.765  65.190  1.00  0.00    -0.155 A  
HETATM   20  C   UNL     2      -6.966  19.378  65.792  1.00  0.00    -0.307 A  
HETATM   21  C   UNL     2     -11.269  14.442  64.770  1.00  0.00    -0.387 A  
HETATM   22  C   UNL     2      -5.663  19.015  65.484  1.00  0.00    -0.216 A  
HETATM   23  C   UNL     2      -5.249  17.741  65.822  1.00  0.00    -0.171 A  
HETATM   24 CL   UNL     2     -12.505  13.757  63.788  1.00  0.00    -0.340 Cl 
HETATM   25  C   UNL     2     -10.178  13.669  65.152  1.00  0.00    -0.349 A  
HETATM   26  N   UNL     2      -6.042  16.825  66.424  1.00  0.00    -0.260 NA 
HETATM   27  C   UNL     2      -9.183  14.223  65.962  1.00  0.00    -0.039 A  
ENDBRANCH  12  13
ENDBRANCH   4  12
TORSDOF 2
ENDMDL
MODEL       30
REMARK 921   NORMALIZED FREE ENERGY PREDICTED BY IDOCK:   -5.83 KCAL/MOL
REMARK 922        TOTAL FREE ENERGY PREDICTED BY IDOCK:   -7.20 KCAL/MOL
REMARK 923 INTER-LIGAND FREE ENERGY PREDICTED BY IDOCK:   -6.85 KCAL/MOL
REMARK 924 INTRA-LIGAND FREE ENERGY PREDICTED BY IDOCK:   -0.35 KCAL/MOL
REMARK 927      BINDING AFFINITY PREDICTED BY RF-SCORE:    0.00 PKD
ROOT
HETATM    1  O   UNL     1     -10.176   8.369  67.529  1.00  0.00    -0.206 OA 
HETATM    2  C   UNL     1     -10.239   7.283  66.750  1.00  0.00    -0.235 C  
HETATM    3  C   UNL     2     -10.677  12.528  63.471  1.00  0.00    -0.376 C  
HETATM    4  N   UNL     2     -11.029  12.579  64.888  1.00  0.00    -0.290 NA 
HETATM    5  O   UNL     1     -11.205   6.535  66.747  1.00  0.00    -0.334 OA 
HETATM    6  C   UNL     1      -9.147   7.065  65.778  1.00  0.00     0.017 C  
HETATM    7  C   UNL     1      -7.926   7.595  65.611  1.00  0.00    -0.116 C  
HETATM    8  O   UNL     1      -7.720   8.851  67.608  1.00  0.00    -0.099 OA 
HETATM    9  C   UNL     2     -12.482  12.456  65.044  1.00  0.00    -0.316 C  
HETATM   10  O   UNL     1      -6.259   9.209  65.928  1.00  0.00    -0.058 OA 
HETATM   11  C   UNL     1      -7.301   8.581  66.494  1.00  0.00    -0.084 C  
ENDROOT
BRANCH   4  12
HETATM   12  C   UNL     2     -10.348  11.551  65.686  1.00  0.00    -0.261 C  
BRANCH  12  13
HETATM   13  C   UNL     2     -11.130  11.104  66.935  1.00  0.00    -0.313 C  
HETATM   14  C   UNL     2     -10.522  11.571  68.275  1.00  0.00    -0.219 C  
HETATM   15  C   UNL     2     -11.153  10.864  69.476  1.00  0.00    -0.268 A  
HETATM   16  C   UNL     2     -10.517  13.095  68.404  1.00  0.00    -0.261 A  
HETATM   17  C   UNL     2     -12.525  10.901  69.730  1.00  0.00    -0.250 A  
HETATM   18  C   UNL     2     -11.693  13.862  68.323  1.00  0.00    -0.396 A  
HETATM   19  C   UNL     2     -11.646  15.255  68.393  1.00  0.00    -0.365 A  
HETATM   20  C   UNL     2     -13.031  10.269  70.862  1.00  0.00    -0.456 A  
HETATM   21  C   UNL     2     -10.421  15.899  68.533  1.00  0.00    -0.241 A  
HETATM   22  C   UNL     2     -12.165   9.597  71.711  1.00  0.00    -0.464 A  
HETATM   23  C   UNL     2     -10.821   9.579  71.384  1.00  0.00    -0.312 A  
HETATM   24 CL   UNL     2     -10.362  17.617  68.588  1.00  0.00    -0.368 Cl 
HETATM   25  C   UNL     2      -9.244  15.162  68.616  1.00  0.00    -0.196 A  
HETATM   26  N   UNL     2     -10.303  10.186  70.293  1.00  0.00    -0.239 NA 
HETATM   27  C   UNL     2      -9.293  13.766  68.557  1.00  0.00    -0.144 A  
ENDBRANCH  12  13
ENDBRANCH   4  12
TORSDOF 2
ENDMDL
MODEL       31
REMARK 921   NORMALIZED FREE ENERGY PREDICTED BY IDOCK:   -5.76 KCAL/MOL
REMARK 922        TOTAL FREE ENERGY PREDICTED BY IDOCK:   -7.11 KCAL/MOL
REMARK 923 INTER-LIGAND FREE ENERGY PREDICTED BY IDOCK:   -6.56 KCAL/MOL
REMARK 924 INTRA-LIGAND FREE ENERGY PREDICTED BY IDOCK:   -0.55 KCAL/MOL
REMARK 927      BINDING AFFINITY PREDICTED BY RF-SCORE:    0.00 PKD
ROOT
HETATM    1  O   UNL     1     -10.157   8.060  68.869  1.00  0.00    -0.190 OA 
HETATM    2  C   UNL     1      -9.618   7.396  69.898  1.00  0.00    -0.163 C  
HETATM    3  C   UNL     2      -6.896  12.894  68.996  1.00  0.00    -0.080 C  
HETATM    4  N   UNL     2      -7.598  12.288  67.867  1.00  0.00    -0.115 NA 
HETATM    5  O   UNL     1      -8.932   6.397  69.744  1.00  0.00    -0.140 OA 
HETATM    6  C   UNL     1      -9.766   7.975  71.249  1.00  0.00    -0.199 C  
HETATM    7  C   UNL     1     -10.531   8.947  71.770  1.00  0.00    -0.431 C  
HETATM    8  O   UNL     1     -11.996   9.366  69.957  1.00  0.00     0.027 OA 
HETATM    9  C   UNL     2      -6.642  11.580  67.010  1.00  0.00    -0.138 C  
HETATM   10  O   UNL     1     -11.916  10.834  71.667  1.00  0.00    -0.132 OA 
HETATM   11  C   UNL     1     -11.556   9.700  71.045  1.00  0.00    -0.359 C  
ENDROOT
BRANCH   4  12
HETATM   12  C   UNL     2      -8.674  11.378  68.282  1.00  0.00    -0.160 C  
BRANCH  12  13
HETATM   13  C   UNL     2      -9.802  12.058  69.079  1.00  0.00     0.157 C  
HETATM   14  C   UNL     2     -10.207  13.453  68.555  1.00  0.00    -0.224 C  
HETATM   15  C   UNL     2     -11.105  14.204  69.540  1.00  0.00    -0.178 A  
HETATM   16  C   UNL     2     -10.781  13.391  67.139  1.00  0.00    -0.268 A  
HETATM   17  C   UNL     2     -12.316  13.680  69.996  1.00  0.00    -0.342 A  
HETATM   18  C   UNL     2     -11.904  12.609  66.815  1.00  0.00    -0.440 A  
HETATM   19  C   UNL     2     -12.370  12.535  65.502  1.00  0.00    -0.364 A  
HETATM   20  C   UNL     2     -13.106  14.432  70.862  1.00  0.00    -0.390 A  
HETATM   21  C   UNL     2     -11.711  13.234  64.494  1.00  0.00    -0.378 A  
HETATM   22  C   UNL     2     -12.667  15.682  71.273  1.00  0.00    -0.537 A  
HETATM   23  C   UNL     2     -11.445  16.126  70.803  1.00  0.00    -0.378 A  
HETATM   24 CL   UNL     2     -12.269  13.116  62.871  1.00  0.00    -0.075 Cl 
HETATM   25  C   UNL     2     -10.599  14.014  64.791  1.00  0.00    -0.441 A  
HETATM   26  N   UNL     2     -10.660  15.418  69.959  1.00  0.00    -0.300 NA 
HETATM   27  C   UNL     2     -10.139  14.096  66.108  1.00  0.00    -0.324 A  
ENDBRANCH  12  13
ENDBRANCH   4  12
TORSDOF 2
ENDMDL
MODEL       32
REMARK 921   NORMALIZED FREE ENERGY PREDICTED BY IDOCK:   -5.71 KCAL/MOL
REMARK 922        TOTAL FREE ENERGY PREDICTED BY IDOCK:   -7.06 KCAL/MOL
REMARK 923 INTER-LIGAND FREE ENERGY PREDICTED BY IDOCK:   -6.17 KCAL/MOL
REMARK 924 INTRA-LIGAND FREE ENERGY PREDICTED BY IDOCK:   -0.88 KCAL/MOL
REMARK 927      BINDING AFFINITY PREDICTED BY RF-SCORE:    0.00 PKD
ROOT
HETATM    1  O   UNL     1     -10.104  11.356  69.143  1.00  0.00    -0.146 OA 
HETATM    2  C   UNL     1     -10.436  10.060  69.106  1.00  0.00    -0.219 C  
HETATM    3  C   UNL     2     -11.492  12.889  63.690  1.00  0.00    -0.446 C  
HETATM    4  N   UNL     2     -11.435  13.718  64.892  1.00  0.00    -0.330 NA 
HETATM    5  O   UNL     1     -11.403   9.616  69.706  1.00  0.00    -0.213 OA 
HETATM    6  C   UNL     1      -9.669   9.175  68.205  1.00  0.00    -0.171 C  
HETATM    7  C   UNL     1      -8.516   9.301  67.531  1.00  0.00    -0.115 C  
HETATM    8  O   UNL     1      -7.700  11.330  68.441  1.00  0.00    -0.109 OA 
HETATM    9  C   UNL     2     -12.792  13.972  65.385  1.00  0.00    -0.410 C  
HETATM   10  O   UNL     1      -6.744  10.499  66.575  1.00  0.00    -0.090 OA 
HETATM   11  C   UNL     1      -7.620  10.458  67.590  1.00  0.00    -0.089 C  
ENDROOT
BRANCH   4  12
HETATM   12  C   UNL     2     -10.614  13.128  65.958  1.00  0.00    -0.281 C  
BRANCH  12  13
HETATM   13  C   UNL     2      -9.294  13.877  66.222  1.00  0.00    -0.180 C  
HETATM   14  C   UNL     2      -9.468  15.340  66.683  1.00  0.00    -0.281 C  
HETATM   15  C   UNL     2      -8.152  16.120  66.645  1.00  0.00    -0.288 A  
HETATM   16  C   UNL     2     -10.189  15.438  68.028  1.00  0.00    -0.235 A  
HETATM   17  C   UNL     2      -7.017  15.706  67.346  1.00  0.00    -0.234 A  
HETATM   18  C   UNL     2      -9.706  14.810  69.190  1.00  0.00    -0.149 A  
HETATM   19  C   UNL     2     -10.417  14.877  70.389  1.00  0.00     0.088 A  
HETATM   20  C   UNL     2      -5.862  16.483  67.300  1.00  0.00    -0.191 A  
HETATM   21  C   UNL     2     -11.627  15.562  70.437  1.00  0.00    -0.337 A  
HETATM   22  C   UNL     2      -5.852  17.645  66.544  1.00  0.00    -0.231 A  
HETATM   23  C   UNL     2      -7.003  17.979  65.854  1.00  0.00    -0.284 A  
HETATM   24 CL   UNL     2     -12.518  15.617  71.908  1.00  0.00    -0.457 Cl 
HETATM   25  C   UNL     2     -12.125  16.191  69.301  1.00  0.00     0.030 A  
HETATM   26  N   UNL     2      -8.138  17.246  65.883  1.00  0.00    -0.536 NA 
HETATM   27  C   UNL     2     -11.407  16.133  68.103  1.00  0.00    -0.270 A  
ENDBRANCH  12  13
ENDBRANCH   4  12
TORSDOF 2
ENDMDL
MODEL       33
REMARK 921   NORMALIZED FREE ENERGY PREDICTED BY IDOCK:   -5.70 KCAL/MOL
REMARK 922        TOTAL FREE ENERGY PREDICTED BY IDOCK:   -7.05 KCAL/MOL
REMARK 923 INTER-LIGAND FREE ENERGY PREDICTED BY IDOCK:   -6.52 KCAL/MOL
REMARK 924 INTRA-LIGAND FREE ENERGY PREDICTED BY IDOCK:   -0.53 KCAL/MOL
REMARK 927      BINDING AFFINITY PREDICTED BY RF-SCORE:    0.00 PKD
ROOT
HETATM    1  O   UNL     1     -12.952  12.800  65.034  1.00  0.00    -0.811 OA 
HETATM    2  C   UNL     1     -12.453  12.213  63.939  1.00  0.00    -0.478 C  
HETATM    3  C   UNL     2      -8.925  16.938  65.859  1.00  0.00    -0.040 C  
HETATM    4  N   UNL     2     -10.328  16.927  66.265  1.00  0.00    -0.320 NA 
HETATM    5  O   UNL     1     -12.983  12.317  62.843  1.00  0.00    -0.344 OA 
HETATM    6  C   UNL     1     -11.151  11.525  64.056  1.00  0.00    -0.441 C  
HETATM    7  C   UNL     1     -10.393  11.130  65.090  1.00  0.00    -0.354 C  
HETATM    8  O   UNL     1     -11.886  11.502  66.891  1.00  0.00    -0.542 OA 
HETATM    9  C   UNL     2     -11.114  17.772  65.360  1.00  0.00     0.513 C  
HETATM   10  O   UNL     1      -9.706  11.124  67.330  1.00  0.00    -0.165 OA 
HETATM   11  C   UNL     1     -10.756  11.250  66.504  1.00  0.00    -0.271 C  
ENDROOT
BRANCH   4  12
HETATM   12  C   UNL     2     -10.901  15.575  66.316  1.00  0.00    -0.283 C  
BRANCH  12  13
HETATM   13  C   UNL     2     -11.545  15.215  67.668  1.00  0.00    -0.290 C  
HETATM   14  C   UNL     2     -10.787  14.139  68.475  1.00  0.00    -0.264 C  
HETATM   15  C   UNL     2     -11.611  13.608  69.650  1.00  0.00    -0.278 A  
HETATM   16  C   UNL     2      -9.387  14.602  68.878  1.00  0.00    -0.160 A  
HETATM   17  C   UNL     2     -12.116  14.444  70.647  1.00  0.00    -0.404 A  
HETATM   18  C   UNL     2      -9.168  15.762  69.643  1.00  0.00    -0.144 A  
HETATM   19  C   UNL     2      -7.873  16.184  69.949  1.00  0.00     0.590 A  
HETATM   20  C   UNL     2     -12.825  13.893  71.711  1.00  0.00    -0.421 A  
HETATM   21  C   UNL     2      -6.781  15.457  69.484  1.00  0.00    -0.174 A  
HETATM   22  C   UNL     2     -13.034  12.522  71.752  1.00  0.00    -0.419 A  
HETATM   23  C   UNL     2     -12.529  11.758  70.717  1.00  0.00    -0.312 A  
HETATM   24 CL   UNL     2      -5.186  15.996  69.837  1.00  0.00    -0.124 Cl 
HETATM   25  C   UNL     2      -6.973  14.307  68.727  1.00  0.00    -0.102 A  
HETATM   26  N   UNL     2     -11.834  12.267  69.674  1.00  0.00    -0.328 NA 
HETATM   27  C   UNL     2      -8.270  13.878  68.429  1.00  0.00    -0.153 A  
ENDBRANCH  12  13
ENDBRANCH   4  12
TORSDOF 2
ENDMDL
MODEL       34
REMARK 921   NORMALIZED FREE ENERGY PREDICTED BY IDOCK:   -5.67 KCAL/MOL
REMARK 922        TOTAL FREE ENERGY PREDICTED BY IDOCK:   -7.02 KCAL/MOL
REMARK 923 INTER-LIGAND FREE ENERGY PREDICTED BY IDOCK:   -6.05 KCAL/MOL
REMARK 924 INTRA-LIGAND FREE ENERGY PREDICTED BY IDOCK:   -0.97 KCAL/MOL
REMARK 927      BINDING AFFINITY PREDICTED BY RF-SCORE:    0.00 PKD
ROOT
HETATM    1  O   UNL     1      -8.717  13.833  68.821  1.00  0.00    -0.095 OA 
HETATM    2  C   UNL     1      -8.550  14.602  67.738  1.00  0.00    -0.173 C  
HETATM    3  C   UNL     2      -6.823   8.735  66.712  1.00  0.00    -0.069 C  
HETATM    4  N   UNL     2      -6.845   9.207  68.095  1.00  0.00    -0.068 NA 
HETATM    5  O   UNL     1      -7.685  15.462  67.674  1.00  0.00    -0.133 OA 
HETATM    6  C   UNL     1      -9.369  14.303  66.545  1.00  0.00    -0.292 C  
HETATM    7  C   UNL     1     -10.454  13.546  66.323  1.00  0.00    -0.290 C  
HETATM    8  O   UNL     1     -11.058  12.989  68.544  1.00  0.00    -0.240 OA 
HETATM    9  C   UNL     2      -5.499   9.621  68.501  1.00  0.00    -0.036 C  
HETATM   10  O   UNL     1     -11.999  11.861  66.833  1.00  0.00    -0.614 OA 
HETATM   11  C   UNL     1     -11.198  12.807  67.345  1.00  0.00    -0.294 C  
ENDROOT
BRANCH   4  12
HETATM   12  C   UNL     2      -7.797  10.305  68.312  1.00  0.00    -0.101 C  
BRANCH  12  13
HETATM   13  C   UNL     2      -8.767  10.075  69.486  1.00  0.00    -0.205 C  
HETATM   14  C   UNL     2     -10.154   9.534  69.076  1.00  0.00    -0.201 C  
HETATM   15  C   UNL     2     -11.164   9.604  70.223  1.00  0.00    -0.271 A  
HETATM   16  C   UNL     2     -10.064   8.150  68.433  1.00  0.00    -0.226 A  
HETATM   17  C   UNL     2     -10.942   8.986  71.455  1.00  0.00    -0.394 A  
HETATM   18  C   UNL     2      -9.493   7.047  69.093  1.00  0.00    -0.143 A  
HETATM   19  C   UNL     2      -9.381   5.810  68.457  1.00  0.00    -0.133 A  
HETATM   20  C   UNL     2     -11.920   9.055  72.443  1.00  0.00    -0.255 A  
HETATM   21  C   UNL     2      -9.828   5.664  67.147  1.00  0.00    -0.149 A  
HETATM   22  C   UNL     2     -13.092   9.753  72.194  1.00  0.00    -0.513 A  
HETATM   23  C   UNL     2     -13.233  10.363  70.962  1.00  0.00    -0.278 A  
HETATM   24 CL   UNL     2      -9.660   4.147  66.353  1.00  0.00    -0.199 Cl 
HETATM   25  C   UNL     2     -10.396   6.740  66.474  1.00  0.00    -0.116 A  
HETATM   26  N   UNL     2     -12.302  10.310  69.983  1.00  0.00    -0.155 NA 
HETATM   27  C   UNL     2     -10.519   7.976  67.115  1.00  0.00    -0.408 A  
ENDBRANCH  12  13
ENDBRANCH   4  12
TORSDOF 2
ENDMDL
MODEL       35
REMARK 921   NORMALIZED FREE ENERGY PREDICTED BY IDOCK:   -5.63 KCAL/MOL
REMARK 922        TOTAL FREE ENERGY PREDICTED BY IDOCK:   -6.97 KCAL/MOL
REMARK 923 INTER-LIGAND FREE ENERGY PREDICTED BY IDOCK:   -6.13 KCAL/MOL
REMARK 924 INTRA-LIGAND FREE ENERGY PREDICTED BY IDOCK:   -0.84 KCAL/MOL
REMARK 927      BINDING AFFINITY PREDICTED BY RF-SCORE:    0.00 PKD
ROOT
HETATM    1  O   UNL     1     -11.884  10.560  69.728  1.00  0.00    -0.265 OA 
HETATM    2  C   UNL     1     -12.309  11.340  70.728  1.00  0.00    -0.398 C  
HETATM    3  C   UNL     2      -6.244  12.043  69.644  1.00  0.00    -0.131 C  
HETATM    4  N   UNL     2      -6.873  10.798  69.210  1.00  0.00    -0.080 NA 
HETATM    5  O   UNL     1     -12.637  10.888  71.815  1.00  0.00    -0.353 OA 
HETATM    6  C   UNL     1     -12.255  12.804  70.535  1.00  0.00    -0.389 C  
HETATM    7  C   UNL     1     -12.077  13.599  69.469  1.00  0.00    -0.368 C  
HETATM    8  O   UNL     1     -12.216  12.013  67.715  1.00  0.00    -0.474 OA 
HETATM    9  C   UNL     2      -6.658   9.755  70.218  1.00  0.00    -0.102 C  
HETATM   10  O   UNL     1     -11.422  14.077  67.272  1.00  0.00    -0.314 OA 
HETATM   11  C   UNL     1     -11.942  13.145  68.084  1.00  0.00    -0.294 C  
ENDROOT
BRANCH   4  12
HETATM   12  C   UNL     2      -8.309  10.946  68.937  1.00  0.00    -0.139 C  
BRANCH  12  13
HETATM   13  C   UNL     2      -8.663  10.996  67.439  1.00  0.00    -0.132 C  
HETATM   14  C   UNL     2      -8.073   9.841  66.601  1.00  0.00    -0.116 C  
HETATM   15  C   UNL     2      -8.199  10.093  65.097  1.00  0.00    -0.151 A  
HETATM   16  C   UNL     2      -8.619   8.480  67.033  1.00  0.00    -0.124 A  
HETATM   17  C   UNL     2      -9.428  10.329  64.478  1.00  0.00    -0.356 A  
HETATM   18  C   UNL     2      -9.994   8.184  67.031  1.00  0.00    -0.329 A  
HETATM   19  C   UNL     2     -10.462   6.949  67.481  1.00  0.00    -0.314 A  
HETATM   20  C   UNL     2      -9.477  10.512  63.099  1.00  0.00    -0.367 A  
HETATM   21  C   UNL     2      -9.561   5.998  67.952  1.00  0.00    -0.116 A  
HETATM   22  C   UNL     2      -8.302  10.476  62.364  1.00  0.00    -0.239 A  
HETATM   23  C   UNL     2      -7.118  10.265  63.047  1.00  0.00    -0.119 A  
HETATM   24 CL   UNL     2     -10.142   4.488  68.536  1.00  0.00    -0.098 Cl 
HETATM   25  C   UNL     2      -8.197   6.268  67.964  1.00  0.00    -0.115 A  
HETATM   26  N   UNL     2      -7.041  10.081  64.384  1.00  0.00    -0.135 NA 
HETATM   27  C   UNL     2      -7.728   7.501  67.502  1.00  0.00    -0.118 A  
ENDBRANCH  12  13
ENDBRANCH   4  12
TORSDOF 2
ENDMDL
MODEL       36
REMARK 921   NORMALIZED FREE ENERGY PREDICTED BY IDOCK:   -5.61 KCAL/MOL
REMARK 922        TOTAL FREE ENERGY PREDICTED BY IDOCK:   -6.95 KCAL/MOL
REMARK 923 INTER-LIGAND FREE ENERGY PREDICTED BY IDOCK:   -5.99 KCAL/MOL
REMARK 924 INTRA-LIGAND FREE ENERGY PREDICTED BY IDOCK:   -0.96 KCAL/MOL
REMARK 927      BINDING AFFINITY PREDICTED BY RF-SCORE:    0.00 PKD
ROOT
HETATM    1  O   UNL     1     -11.197   5.995  66.648  1.00  0.00    -0.207 OA 
HETATM    2  C   UNL     1     -10.419   4.972  66.276  1.00  0.00    -0.303 C  
HETATM    3  C   UNL     2      -7.703  10.453  65.258  1.00  0.00    -0.124 C  
HETATM    4  N   UNL     2      -9.160  10.422  65.351  1.00  0.00    -0.177 NA 
HETATM    5  O   UNL     1     -10.670   4.279  65.301  1.00  0.00    -0.240 OA 
HETATM    6  C   UNL     1      -9.151   4.765  67.007  1.00  0.00    -0.121 C  
HETATM    7  C   UNL     1      -8.649   5.239  68.157  1.00  0.00    -0.099 C  
HETATM    8  O   UNL     1     -10.551   6.337  69.043  1.00  0.00    -0.209 OA 
HETATM    9  C   UNL     2      -9.743  10.366  64.007  1.00  0.00    -0.311 C  
HETATM   10  O   UNL     1      -8.528   6.735  69.956  1.00  0.00    -0.136 OA 
HETATM   11  C   UNL     1      -9.350   6.125  69.089  1.00  0.00    -0.126 C  
ENDROOT
BRANCH   4  12
HETATM   12  C   UNL     2      -9.660   9.304  66.164  1.00  0.00    -0.260 C  
BRANCH  12  13
HETATM   13  C   UNL     2     -10.636   9.724  67.279  1.00  0.00    -0.320 C  
HETATM   14  C   UNL     2      -9.985   9.904  68.667  1.00  0.00    -0.177 C  
HETATM   15  C   UNL     2     -11.025  10.026  69.783  1.00  0.00    -0.276 A  
HETATM   16  C   UNL     2      -8.952  11.032  68.677  1.00  0.00    -0.167 A  
HETATM   17  C   UNL     2     -12.017  11.008  69.776  1.00  0.00    -0.428 A  
HETATM   18  C   UNL     2      -9.277  12.353  68.322  1.00  0.00    -0.189 A  
HETATM   19  C   UNL     2      -8.298  13.348  68.292  1.00  0.00    -0.160 A  
HETATM   20  C   UNL     2     -12.909  11.089  70.842  1.00  0.00    -0.393 A  
HETATM   21  C   UNL     2      -6.980  13.029  68.604  1.00  0.00    -0.102 A  
HETATM   22  C   UNL     2     -12.809  10.181  71.885  1.00  0.00    -0.526 A  
HETATM   23  C   UNL     2     -11.819   9.219  71.813  1.00  0.00    -0.384 A  
HETATM   24 CL   UNL     2      -5.769  14.249  68.536  1.00  0.00    -0.089 Cl 
HETATM   25  C   UNL     2      -6.635  11.729  68.959  1.00  0.00    -0.094 A  
HETATM   26  N   UNL     2     -10.938   9.119  70.792  1.00  0.00    -0.249 NA 
HETATM   27  C   UNL     2      -7.618  10.736  69.000  1.00  0.00    -0.126 A  
ENDBRANCH  12  13
ENDBRANCH   4  12
TORSDOF 2
ENDMDL
MODEL       37
REMARK 921   NORMALIZED FREE ENERGY PREDICTED BY IDOCK:   -5.53 KCAL/MOL
REMARK 922        TOTAL FREE ENERGY PREDICTED BY IDOCK:   -6.86 KCAL/MOL
REMARK 923 INTER-LIGAND FREE ENERGY PREDICTED BY IDOCK:   -5.98 KCAL/MOL
REMARK 924 INTRA-LIGAND FREE ENERGY PREDICTED BY IDOCK:   -0.88 KCAL/MOL
REMARK 927      BINDING AFFINITY PREDICTED BY RF-SCORE:    0.00 PKD
ROOT
HETATM    1  O   UNL     1     -11.505  12.318  69.942  1.00  0.00    -0.224 OA 
HETATM    2  C   UNL     1     -11.897  13.570  70.207  1.00  0.00    -0.257 C  
HETATM    3  C   UNL     2      -6.036  13.341  68.193  1.00  0.00    -0.108 C  
HETATM    4  N   UNL     2      -6.601  12.130  68.785  1.00  0.00    -0.077 NA 
HETATM    5  O   UNL     1     -12.084  13.969  71.346  1.00  0.00    -0.319 OA 
HETATM    6  C   UNL     1     -11.979  14.522  69.080  1.00  0.00    -0.344 C  
HETATM    7  C   UNL     1     -11.967  14.392  67.745  1.00  0.00    -0.368 C  
HETATM    8  O   UNL     1     -12.140  12.039  67.535  1.00  0.00    -0.555 OA 
HETATM    9  C   UNL     2      -6.209  12.037  70.195  1.00  0.00    -0.075 C  
HETATM   10  O   UNL     1     -11.560  13.264  65.733  1.00  0.00    -0.317 OA 
HETATM   11  C   UNL     1     -11.925  13.123  67.016  1.00  0.00    -0.355 C  
ENDROOT
BRANCH   4  12
HETATM   12  C   UNL     2      -8.063  12.060  68.663  1.00  0.00    -0.069 C  
BRANCH  12  13
HETATM   13  C   UNL     2      -8.565  11.849  67.223  1.00  0.00    -0.170 C  
HETATM   14  C   UNL     2      -8.140  10.509  66.584  1.00  0.00    -0.127 C  
HETATM   15  C   UNL     2      -8.403  10.476  65.077  1.00  0.00    -0.140 A  
HETATM   16  C   UNL     2      -8.724   9.307  67.327  1.00  0.00    -0.132 A  
HETATM   17  C   UNL     2      -9.671  10.689  64.535  1.00  0.00    -0.367 A  
HETATM   18  C   UNL     2     -10.108   9.132  67.504  1.00  0.00    -0.284 A  
HETATM   19  C   UNL     2     -10.606   8.050  68.232  1.00  0.00    -0.155 A  
HETATM   20  C   UNL     2      -9.850  10.606  63.156  1.00  0.00    -0.351 A  
HETATM   21  C   UNL     2      -9.724   7.137  68.802  1.00  0.00    -0.145 A  
HETATM   22  C   UNL     2      -8.761  10.331  62.343  1.00  0.00    -0.251 A  
HETATM   23  C   UNL     2      -7.530  10.158  62.947  1.00  0.00    -0.143 A  
HETATM   24 CL   UNL     2     -10.337   5.821  69.726  1.00  0.00    -0.302 Cl 
HETATM   25  C   UNL     2      -8.351   7.290  68.640  1.00  0.00    -0.125 A  
HETATM   26  N   UNL     2      -7.328  10.230  64.282  1.00  0.00    -0.109 NA 
HETATM   27  C   UNL     2      -7.854   8.367  67.902  1.00  0.00    -0.107 A  
ENDBRANCH  12  13
ENDBRANCH   4  12
TORSDOF 2
ENDMDL
MODEL       38
REMARK 921   NORMALIZED FREE ENERGY PREDICTED BY IDOCK:   -5.47 KCAL/MOL
REMARK 922        TOTAL FREE ENERGY PREDICTED BY IDOCK:   -6.79 KCAL/MOL
REMARK 923 INTER-LIGAND FREE ENERGY PREDICTED BY IDOCK:   -6.49 KCAL/MOL
REMARK 924 INTRA-LIGAND FREE ENERGY PREDICTED BY IDOCK:   -0.30 KCAL/MOL
REMARK 927      BINDING AFFINITY PREDICTED BY RF-SCORE:    0.00 PKD
ROOT
HETATM    1  O   UNL     1      -9.827  12.516  67.153  1.00  0.00    -0.205 OA 
HETATM    2  C   UNL     1      -9.487  13.664  66.555  1.00  0.00    -0.259 C  
HETATM    3  C   UNL     2      -8.191   8.730  63.029  1.00  0.00    -0.188 C  
HETATM    4  N   UNL     2      -8.308   8.525  64.470  1.00  0.00    -0.154 NA 
HETATM    5  O   UNL     1      -8.548  14.346  66.935  1.00  0.00    -0.215 OA 
HETATM    6  C   UNL     1     -10.207  14.040  65.320  1.00  0.00    -0.383 C  
HETATM    7  C   UNL     1     -11.327  13.606  64.723  1.00  0.00    -0.365 C  
HETATM    8  O   UNL     1     -12.195  12.185  66.407  1.00  0.00    -0.592 OA 
HETATM    9  C   UNL     2      -6.977   8.541  65.085  1.00  0.00    -0.075 C  
HETATM   10  O   UNL     1     -13.058  12.078  64.326  1.00  0.00    -0.671 OA 
HETATM   11  C   UNL     1     -12.231  12.583  65.254  1.00  0.00    -0.433 C  
ENDROOT
BRANCH   4  12
HETATM   12  C   UNL     2      -9.176   9.515  65.122  1.00  0.00    -0.244 C  
BRANCH  12  13
HETATM   13  C   UNL     2      -9.043   9.555  66.656  1.00  0.00    -0.179 C  
HETATM   14  C   UNL     2     -10.031   8.640  67.411  1.00  0.00    -0.270 C  
HETATM   15  C   UNL     2     -10.063   8.934  68.912  1.00  0.00    -0.197 A  
HETATM   16  C   UNL     2      -9.807   7.162  67.089  1.00  0.00    -0.235 A  
HETATM   17  C   UNL     2      -8.918   8.878  69.709  1.00  0.00    -0.149 A  
HETATM   18  C   UNL     2      -8.574   6.522  67.308  1.00  0.00    -0.111 A  
HETATM   19  C   UNL     2      -8.388   5.184  66.955  1.00  0.00    -0.107 A  
HETATM   20  C   UNL     2      -9.022   9.119  71.077  1.00  0.00    -0.281 A  
HETATM   21  C   UNL     2      -9.430   4.474  66.366  1.00  0.00    -0.172 A  
HETATM   22  C   UNL     2     -10.259   9.428  71.621  1.00  0.00    -0.114 A  
HETATM   23  C   UNL     2     -11.345   9.492  70.768  1.00  0.00    -0.321 A  
HETATM   24 CL   UNL     2      -9.189   2.835  65.902  1.00  0.00    -0.119 Cl 
HETATM   25  C   UNL     2     -10.658   5.086  66.139  1.00  0.00    -0.321 A  
HETATM   26  N   UNL     2     -11.273   9.260  69.438  1.00  0.00    -0.034 NA 
HETATM   27  C   UNL     2     -10.847   6.422  66.503  1.00  0.00    -0.101 A  
ENDBRANCH  12  13
ENDBRANCH   4  12
TORSDOF 2
ENDMDL
MODEL       39
REMARK 921   NORMALIZED FREE ENERGY PREDICTED BY IDOCK:   -5.40 KCAL/MOL
REMARK 922        TOTAL FREE ENERGY PREDICTED BY IDOCK:   -6.72 KCAL/MOL
REMARK 923 INTER-LIGAND FREE ENERGY PREDICTED BY IDOCK:   -5.89 KCAL/MOL
REMARK 924 INTRA-LIGAND FREE ENERGY PREDICTED BY IDOCK:   -0.83 KCAL/MOL
REMARK 927      BINDING AFFINITY PREDICTED BY RF-SCORE:    0.00 PKD
ROOT
HETATM    1  O   UNL     1      -8.139  16.438  66.242  1.00  0.00    -0.312 OA 
HETATM    2  C   UNL     1      -7.838  17.734  66.388  1.00  0.00    -0.277 C  
HETATM    3  C   UNL     2     -11.082  15.542  71.197  1.00  0.00    -0.314 C  
HETATM    4  N   UNL     2     -11.186  14.832  69.925  1.00  0.00    -0.262 NA 
HETATM    5  O   UNL     1      -8.359  18.607  65.709  1.00  0.00    -0.462 OA 
HETATM    6  C   UNL     1      -6.937  18.115  67.495  1.00  0.00    -0.204 C  
HETATM    7  C   UNL     1      -6.123  17.432  68.313  1.00  0.00    -0.161 C  
HETATM    8  O   UNL     1      -6.174  15.295  67.294  1.00  0.00    -0.321 OA 
HETATM    9  C   UNL     2     -12.387  15.271  69.206  1.00  0.00    -0.093 C  
HETATM   10  O   UNL     1      -5.317  15.502  69.369  1.00  0.00    -0.100 OA 
HETATM   11  C   UNL     1      -5.865  15.992  68.247  1.00  0.00    -0.111 C  
ENDROOT
BRANCH   4  12
HETATM   12  C   UNL     2     -10.000  15.001  69.074  1.00  0.00    -0.246 C  
BRANCH  12  13
HETATM   13  C   UNL     2      -9.152  13.725  68.915  1.00  0.00     0.139 C  
HETATM   14  C   UNL     2      -9.940  12.487  68.435  1.00  0.00    -0.212 C  
HETATM   15  C   UNL     2      -9.132  11.196  68.578  1.00  0.00    -0.175 A  
HETATM   16  C   UNL     2     -10.523  12.683  67.036  1.00  0.00    -0.244 A  
HETATM   17  C   UNL     2      -7.885  11.023  67.974  1.00  0.00    -0.112 A  
HETATM   18  C   UNL     2      -9.721  12.983  65.920  1.00  0.00    -0.187 A  
HETATM   19  C   UNL     2     -10.292  13.207  64.666  1.00  0.00    -0.381 A  
HETATM   20  C   UNL     2      -7.219   9.808  68.111  1.00  0.00    -0.079 A  
HETATM   21  C   UNL     2     -11.675  13.147  64.516  1.00  0.00    -0.371 A  
HETATM   22  C   UNL     2      -7.797   8.795  68.861  1.00  0.00    -0.104 A  
HETATM   23  C   UNL     2      -9.021   9.045  69.452  1.00  0.00    -0.145 A  
HETATM   24 CL   UNL     2     -12.379  13.454  62.977  1.00  0.00    -0.188 Cl 
HETATM   25  C   UNL     2     -12.488  12.852  65.605  1.00  0.00    -0.400 A  
HETATM   26  N   UNL     2      -9.691  10.213  69.333  1.00  0.00    -0.219 NA 
HETATM   27  C   UNL     2     -11.915  12.617  66.858  1.00  0.00    -0.345 A  
ENDBRANCH  12  13
ENDBRANCH   4  12
TORSDOF 2
ENDMDL
MODEL       40
REMARK 921   NORMALIZED FREE ENERGY PREDICTED BY IDOCK:   -5.39 KCAL/MOL
REMARK 922        TOTAL FREE ENERGY PREDICTED BY IDOCK:   -6.71 KCAL/MOL
REMARK 923 INTER-LIGAND FREE ENERGY PREDICTED BY IDOCK:   -5.99 KCAL/MOL
REMARK 924 INTRA-LIGAND FREE ENERGY PREDICTED BY IDOCK:   -0.71 KCAL/MOL
REMARK 927      BINDING AFFINITY PREDICTED BY RF-SCORE:    0.00 PKD
ROOT
HETATM    1  O   UNL     1      -7.770  18.866  68.520  1.00  0.00    -0.307 OA 
HETATM    2  C   UNL     1      -6.687  19.578  68.853  1.00  0.00    -0.312 C  
HETATM    3  C   UNL     2      -5.316  13.628  67.770  1.00  0.00    -0.043 C  
HETATM    4  N   UNL     2      -6.693  13.954  68.132  1.00  0.00    -0.108 NA 
HETATM    5  O   UNL     1      -6.504  20.000  69.985  1.00  0.00    -0.357 OA 
HETATM    6  C   UNL     1      -5.628  19.744  67.836  1.00  0.00    -0.217 C  
HETATM    7  C   UNL     1      -5.563  19.531  66.513  1.00  0.00    -0.163 C  
HETATM    8  O   UNL     1      -7.842  19.103  66.028  1.00  0.00    -0.343 OA 
HETATM    9  C   UNL     2      -6.894  13.734  69.568  1.00  0.00     0.001 C  
HETATM   10  O   UNL     1      -6.277  18.611  64.480  1.00  0.00    -0.418 OA 
HETATM   11  C   UNL     1      -6.675  19.092  65.668  1.00  0.00    -0.280 C  
ENDROOT
BRANCH   4  12
HETATM   12  C   UNL     2      -7.070  15.329  67.776  1.00  0.00    -0.160 C  
BRANCH  12  13
HETATM   13  C   UNL     2      -8.194  15.421  66.727  1.00  0.00    -0.252 C  
HETATM   14  C   UNL     2      -9.450  14.586  67.057  1.00  0.00    -0.247 C  
HETATM   15  C   UNL     2     -10.401  14.473  65.864  1.00  0.00    -0.319 A  
HETATM   16  C   UNL     2     -10.139  15.064  68.336  1.00  0.00    -0.225 A  
HETATM   17  C   UNL     2     -10.934  15.594  65.224  1.00  0.00    -0.375 A  
HETATM   18  C   UNL     2     -10.602  16.382  68.495  1.00  0.00    -0.304 A  
HETATM   19  C   UNL     2     -11.180  16.798  69.696  1.00  0.00     0.084 A  
HETATM   20  C   UNL     2     -11.824  15.422  64.167  1.00  0.00    -0.116 A  
HETATM   21  C   UNL     2     -11.290  15.904  70.756  1.00  0.00    -0.395 A  
HETATM   22  C   UNL     2     -12.154  14.139  63.757  1.00  0.00    -0.192 A  
HETATM   23  C   UNL     2     -11.569  13.076  64.419  1.00  0.00    -0.369 A  
HETATM   24 CL   UNL     2     -11.974  16.428  72.245  1.00  0.00    -0.585 Cl 
HETATM   25  C   UNL     2     -10.839  14.595  70.622  1.00  0.00     0.178 A  
HETATM   26  N   UNL     2     -10.703  13.214  65.449  1.00  0.00    -0.288 NA 
HETATM   27  C   UNL     2     -10.271  14.176  69.416  1.00  0.00     0.120 A  
ENDBRANCH  12  13
ENDBRANCH   4  12
TORSDOF 2
ENDMDL
MODEL       41
REMARK 921   NORMALIZED FREE ENERGY PREDICTED BY IDOCK:   -5.39 KCAL/MOL
REMARK 922        TOTAL FREE ENERGY PREDICTED BY IDOCK:   -6.71 KCAL/MOL
REMARK 923 INTER-LIGAND FREE ENERGY PREDICTED BY IDOCK:   -5.82 KCAL/MOL
REMARK 924 INTRA-LIGAND FREE ENERGY PREDICTED BY IDOCK:   -0.89 KCAL/MOL
REMARK 927      BINDING AFFINITY PREDICTED BY RF-SCORE:    0.00 PKD
ROOT
HETATM    1  O   UNL     1     -11.422   9.111  69.842  1.00  0.00    -0.111 OA 
HETATM    2  C   UNL     1     -11.841   9.506  71.050  1.00  0.00    -0.330 C  
HETATM    3  C   UNL     2      -6.193  11.691  69.714  1.00  0.00    -0.139 C  
HETATM    4  N   UNL     2      -6.646  10.495  69.006  1.00  0.00    -0.056 NA 
HETATM    5  O   UNL     1     -11.937   8.736  71.994  1.00  0.00    -0.333 OA 
HETATM    6  C   UNL     1     -12.071  10.950  71.264  1.00  0.00    -0.322 C  
HETATM    7  C   UNL     1     -12.180  12.009  70.448  1.00  0.00    -0.379 C  
HETATM    8  O   UNL     1     -12.269  10.928  68.342  1.00  0.00    -0.540 OA 
HETATM    9  C   UNL     2      -6.118   9.297  69.667  1.00  0.00    -0.039 C  
HETATM   10  O   UNL     1     -11.917  13.154  68.421  1.00  0.00    -0.341 OA 
HETATM   11  C   UNL     1     -12.152  11.960  68.985  1.00  0.00    -0.186 C  
ENDROOT
BRANCH   4  12
HETATM   12  C   UNL     2      -8.109  10.410  68.902  1.00  0.00    -0.129 C  
BRANCH  12  13
HETATM   13  C   UNL     2      -8.653  10.652  67.482  1.00  0.00    -0.122 C  
HETATM   14  C   UNL     2      -8.167   9.636  66.425  1.00  0.00    -0.119 C  
HETATM   15  C   UNL     2      -8.488  10.085  64.999  1.00  0.00    -0.160 A  
HETATM   16  C   UNL     2      -8.641   8.215  66.733  1.00  0.00    -0.136 A  
HETATM   17  C   UNL     2      -9.788  10.370  64.579  1.00  0.00    -0.405 A  
HETATM   18  C   UNL     2     -10.003   7.887  66.864  1.00  0.00    -0.332 A  
HETATM   19  C   UNL     2     -10.398   6.591  67.196  1.00  0.00    -0.311 A  
HETATM   20  C   UNL     2     -10.017  10.737  63.255  1.00  0.00    -0.369 A  
HETATM   21  C   UNL     2      -9.436   5.609  67.414  1.00  0.00    -0.114 A  
HETATM   22  C   UNL     2      -8.946  10.830  62.379  1.00  0.00    -0.347 A  
HETATM   23  C   UNL     2      -7.682  10.560  62.871  1.00  0.00    -0.092 A  
HETATM   24 CL   UNL     2      -9.924   4.019  67.855  1.00  0.00    -0.062 Cl 
HETATM   25  C   UNL     2      -8.084   5.910  67.291  1.00  0.00    -0.102 A  
HETATM   26  N   UNL     2      -7.432  10.199  64.149  1.00  0.00    -0.134 NA 
HETATM   27  C   UNL     2      -7.689   7.206  66.947  1.00  0.00    -0.106 A  
ENDBRANCH  12  13
ENDBRANCH   4  12
TORSDOF 2
ENDMDL
MODEL       42
REMARK 921   NORMALIZED FREE ENERGY PREDICTED BY IDOCK:   -5.38 KCAL/MOL
REMARK 922        TOTAL FREE ENERGY PREDICTED BY IDOCK:   -6.69 KCAL/MOL
REMARK 923 INTER-LIGAND FREE ENERGY PREDICTED BY IDOCK:   -5.81 KCAL/MOL
REMARK 924 INTRA-LIGAND FREE ENERGY PREDICTED BY IDOCK:   -0.88 KCAL/MOL
REMARK 927      BINDING AFFINITY PREDICTED BY RF-SCORE:    0.00 PKD
ROOT
HETATM    1  O   UNL     1     -10.310   5.942  70.902  1.00  0.00    -0.209 OA 
HETATM    2  C   UNL     1     -10.417   5.736  72.220  1.00  0.00    -0.209 C  
HETATM    3  C   UNL     2      -5.965   9.834  70.860  1.00  0.00    -0.089 C  
HETATM    4  N   UNL     2      -6.367   8.893  69.817  1.00  0.00    -0.035 NA 
HETATM    5  O   UNL     1     -10.075   4.689  72.748  1.00  0.00    -0.158 OA 
HETATM    6  C   UNL     1     -10.850   6.869  73.065  1.00  0.00    -0.328 C  
HETATM    7  C   UNL     1     -11.401   8.065  72.811  1.00  0.00    -0.439 C  
HETATM    8  O   UNL     1     -11.903   7.833  70.508  1.00  0.00    -0.188 OA 
HETATM    9  C   UNL     2      -5.443   7.754  69.793  1.00  0.00    -0.023 C  
HETATM   10  O   UNL     1     -11.984   9.881  71.450  1.00  0.00    -0.362 OA 
HETATM   11  C   UNL     1     -11.803   8.552  71.490  1.00  0.00    -0.299 C  
ENDROOT
BRANCH   4  12
HETATM   12  C   UNL     2      -7.748   8.417  69.974  1.00  0.00    -0.090 C  
BRANCH  12  13
HETATM   13  C   UNL     2      -8.813   9.388  69.429  1.00  0.00    -0.159 C  
HETATM   14  C   UNL     2      -8.846   9.507  67.890  1.00  0.00    -0.119 C  
HETATM   15  C   UNL     2      -9.700  10.686  67.419  1.00  0.00    -0.167 A  
HETATM   16  C   UNL     2      -9.218   8.184  67.219  1.00  0.00    -0.165 A  
HETATM   17  C   UNL     2     -11.045  10.823  67.770  1.00  0.00    -0.381 A  
HETATM   18  C   UNL     2     -10.421   7.511  67.497  1.00  0.00    -0.341 A  
HETATM   19  C   UNL     2     -10.705   6.279  66.905  1.00  0.00    -0.411 A  
HETATM   20  C   UNL     2     -11.776  11.899  67.275  1.00  0.00    -0.319 A  
HETATM   21  C   UNL     2      -9.784   5.700  66.038  1.00  0.00    -0.051 A  
HETATM   22  C   UNL     2     -11.153  12.828  66.456  1.00  0.00    -0.321 A  
HETATM   23  C   UNL     2      -9.812  12.644  66.171  1.00  0.00    -0.259 A  
HETATM   24 CL   UNL     2     -10.122   4.167  65.334  1.00  0.00    -0.219 Cl 
HETATM   25  C   UNL     2      -8.587   6.348  65.748  1.00  0.00    -0.152 A  
HETATM   26  N   UNL     2      -9.079  11.607  66.636  1.00  0.00    -0.189 NA 
HETATM   27  C   UNL     2      -8.308   7.586  66.332  1.00  0.00    -0.126 A  
ENDBRANCH  12  13
ENDBRANCH   4  12
TORSDOF 2
ENDMDL
MODEL       43
REMARK 921   NORMALIZED FREE ENERGY PREDICTED BY IDOCK:   -5.28 KCAL/MOL
REMARK 922        TOTAL FREE ENERGY PREDICTED BY IDOCK:   -6.59 KCAL/MOL
REMARK 923 INTER-LIGAND FREE ENERGY PREDICTED BY IDOCK:   -5.67 KCAL/MOL
REMARK 924 INTRA-LIGAND FREE ENERGY PREDICTED BY IDOCK:   -0.91 KCAL/MOL
REMARK 927      BINDING AFFINITY PREDICTED BY RF-SCORE:    0.00 PKD
ROOT
HETATM    1  O   UNL     1     -11.791   7.557  70.706  1.00  0.00    -0.287 OA 
HETATM    2  C   UNL     1     -11.339   6.805  71.717  1.00  0.00    -0.269 C  
HETATM    3  C   UNL     2      -8.323   5.642  66.424  1.00  0.00    -0.112 C  
HETATM    4  N   UNL     2      -9.657   6.232  66.333  1.00  0.00    -0.149 NA 
HETATM    5  O   UNL     1     -11.996   5.896  72.200  1.00  0.00    -0.274 OA 
HETATM    6  C   UNL     1      -9.947   7.016  72.167  1.00  0.00    -0.179 C  
HETATM    7  C   UNL     1      -9.031   7.972  71.952  1.00  0.00    -0.200 C  
HETATM    8  O   UNL     1     -10.351   9.601  70.852  1.00  0.00    -0.300 OA 
HETATM    9  C   UNL     2     -10.650   5.179  66.096  1.00  0.00    -0.236 C  
HETATM   10  O   UNL     1      -8.105   9.797  70.814  1.00  0.00    -0.271 OA 
HETATM   11  C   UNL     1      -9.247   9.197  71.181  1.00  0.00    -0.231 C  
ENDROOT
BRANCH   4  12
HETATM   12  C   UNL     2     -10.023   7.011  67.523  1.00  0.00    -0.156 C  
BRANCH  12  13
HETATM   13  C   UNL     2     -10.650   8.382  67.209  1.00  0.00    -0.328 C  
HETATM   14  C   UNL     2      -9.664   9.569  67.273  1.00  0.00    -0.215 C  
HETATM   15  C   UNL     2     -10.382  10.920  67.249  1.00  0.00    -0.216 A  
HETATM   16  C   UNL     2      -8.556   9.454  66.226  1.00  0.00    -0.142 A  
HETATM   17  C   UNL     2     -11.245  11.290  66.216  1.00  0.00    -0.160 A  
HETATM   18  C   UNL     2      -8.827   9.361  64.849  1.00  0.00    -0.240 A  
HETATM   19  C   UNL     2      -7.793   9.205  63.925  1.00  0.00    -0.129 A  
HETATM   20  C   UNL     2     -11.836  12.551  66.234  1.00  0.00    -0.453 A  
HETATM   21  C   UNL     2      -6.476   9.128  64.367  1.00  0.00    -0.079 A  
HETATM   22  C   UNL     2     -11.571  13.412  67.289  1.00  0.00    -0.400 A  
HETATM   23  C   UNL     2     -10.728  12.969  68.291  1.00  0.00    -0.245 A  
HETATM   24 CL   UNL     2      -5.206   8.904  63.229  1.00  0.00    -0.066 Cl 
HETATM   25  C   UNL     2      -6.184   9.217  65.724  1.00  0.00    -0.056 A  
HETATM   26  N   UNL     2     -10.139  11.752  68.297  1.00  0.00    -0.192 NA 
HETATM   27  C   UNL     2      -7.218   9.385  66.649  1.00  0.00    -0.086 A  
ENDBRANCH  12  13
ENDBRANCH   4  12
TORSDOF 2
ENDMDL
MODEL       44
REMARK 921   NORMALIZED FREE ENERGY PREDICTED BY IDOCK:   -5.26 KCAL/MOL
REMARK 922        TOTAL FREE ENERGY PREDICTED BY IDOCK:   -6.56 KCAL/MOL
REMARK 923 INTER-LIGAND FREE ENERGY PREDICTED BY IDOCK:   -6.02 KCAL/MOL
REMARK 924 INTRA-LIGAND FREE ENERGY PREDICTED BY IDOCK:   -0.54 KCAL/MOL
REMARK 927      BINDING AFFINITY PREDICTED BY RF-SCORE:    0.00 PKD
ROOT
HETATM    1  O   UNL     1     -11.328  12.662  69.590  1.00  0.00    -0.207 OA 
HETATM    2  C   UNL     1     -11.634  13.944  69.358  1.00  0.00    -0.297 C  
HETATM    3  C   UNL     2      -5.953  12.502  67.332  1.00  0.00    -0.147 C  
HETATM    4  N   UNL     2      -6.536  11.665  68.378  1.00  0.00    -0.051 NA 
HETATM    5  O   UNL     1     -11.718  14.769  70.255  1.00  0.00    -0.268 OA 
HETATM    6  C   UNL     1     -11.748  14.385  67.952  1.00  0.00    -0.388 C  
HETATM    7  C   UNL     1     -11.838  13.743  66.777  1.00  0.00    -0.454 C  
HETATM    8  O   UNL     1     -12.148  11.516  67.519  1.00  0.00    -0.614 OA 
HETATM    9  C   UNL     2      -6.049  12.099  69.691  1.00  0.00    -0.129 C  
HETATM   10  O   UNL     1     -11.636  11.892  65.356  1.00  0.00    -0.316 OA 
HETATM   11  C   UNL     1     -11.915  12.291  66.606  1.00  0.00    -0.182 C  
ENDROOT
BRANCH   4  12
HETATM   12  C   UNL     2      -8.005  11.664  68.361  1.00  0.00    -0.140 C  
BRANCH  12  13
HETATM   13  C   UNL     2      -8.648  10.926  69.549  1.00  0.00     0.214 C  
HETATM   14  C   UNL     2      -9.708   9.875  69.155  1.00  0.00    -0.204 C  
HETATM   15  C   UNL     2     -10.519   9.391  70.359  1.00  0.00    -0.256 A  
HETATM   16  C   UNL     2      -9.110   8.735  68.331  1.00  0.00    -0.141 A  
HETATM   17  C   UNL     2      -9.920   8.819  71.483  1.00  0.00    -0.370 A  
HETATM   18  C   UNL     2      -8.054   7.936  68.805  1.00  0.00    -0.126 A  
HETATM   19  C   UNL     2      -7.497   6.937  68.006  1.00  0.00    -0.099 A  
HETATM   20  C   UNL     2     -10.719   8.363  72.528  1.00  0.00    -0.372 A  
HETATM   21  C   UNL     2      -7.980   6.733  66.717  1.00  0.00    -0.108 A  
HETATM   22  C   UNL     2     -12.096   8.500  72.443  1.00  0.00    -0.436 A  
HETATM   23  C   UNL     2     -12.619   9.099  71.312  1.00  0.00    -0.288 A  
HETATM   24 CL   UNL     2      -7.271   5.523  65.721  1.00  0.00    -0.067 Cl 
HETATM   25  C   UNL     2      -9.023   7.512  66.226  1.00  0.00    -0.199 A  
HETATM   26  N   UNL     2     -11.868   9.548  70.282  1.00  0.00    -0.130 NA 
HETATM   27  C   UNL     2      -9.589   8.504  67.031  1.00  0.00    -0.246 A  
ENDBRANCH  12  13
ENDBRANCH   4  12
TORSDOF 2
ENDMDL
MODEL       45
REMARK 921   NORMALIZED FREE ENERGY PREDICTED BY IDOCK:   -5.25 KCAL/MOL
REMARK 922        TOTAL FREE ENERGY PREDICTED BY IDOCK:   -6.55 KCAL/MOL
REMARK 923 INTER-LIGAND FREE ENERGY PREDICTED BY IDOCK:   -5.75 KCAL/MOL
REMARK 924 INTRA-LIGAND FREE ENERGY PREDICTED BY IDOCK:   -0.80 KCAL/MOL
REMARK 927      BINDING AFFINITY PREDICTED BY RF-SCORE:    0.00 PKD
ROOT
HETATM    1  O   UNL     1     -11.476  12.884  69.421  1.00  0.00    -0.273 OA 
HETATM    2  C   UNL     1     -12.023  14.068  69.121  1.00  0.00    -0.360 C  
HETATM    3  C   UNL     2      -5.937  13.948  67.933  1.00  0.00    -0.138 C  
HETATM    4  N   UNL     2      -6.460  12.992  68.907  1.00  0.00    -0.088 NA 
HETATM    5  O   UNL     1     -12.412  14.845  69.979  1.00  0.00    -0.320 OA 
HETATM    6  C   UNL     1     -12.034  14.486  67.703  1.00  0.00    -0.355 C  
HETATM    7  C   UNL     1     -11.814  13.852  66.542  1.00  0.00    -0.440 C  
HETATM    8  O   UNL     1     -11.722  11.604  67.283  1.00  0.00    -0.568 OA 
HETATM    9  C   UNL     2      -6.270  13.512  70.265  1.00  0.00    -0.052 C  
HETATM   10  O   UNL     1     -11.009  12.106  65.203  1.00  0.00    -0.293 OA 
HETATM   11  C   UNL     1     -11.542  12.421  66.393  1.00  0.00    -0.384 C  
ENDROOT
BRANCH   4  12
HETATM   12  C   UNL     2      -7.875  12.664  68.686  1.00  0.00    -0.043 C  
BRANCH  12  13
HETATM   13  C   UNL     2      -8.115  11.637  67.564  1.00  0.00    -0.144 C  
HETATM   14  C   UNL     2      -7.747  10.184  67.934  1.00  0.00    -0.089 C  
HETATM   15  C   UNL     2      -7.720   9.264  66.712  1.00  0.00    -0.094 A  
HETATM   16  C   UNL     2      -8.609   9.646  69.077  1.00  0.00    -0.133 A  
HETATM   17  C   UNL     2      -8.825   9.100  65.874  1.00  0.00    -0.209 A  
HETATM   18  C   UNL     2     -10.012   9.593  69.002  1.00  0.00    -0.189 A  
HETATM   19  C   UNL     2     -10.771   9.144  70.084  1.00  0.00    -0.263 A  
HETATM   20  C   UNL     2      -8.747   8.217  64.801  1.00  0.00     0.034 A  
HETATM   21  C   UNL     2     -10.135   8.754  71.259  1.00  0.00    -0.266 A  
HETATM   22  C   UNL     2      -7.566   7.528  64.570  1.00  0.00    -0.110 A  
HETATM   23  C   UNL     2      -6.504   7.759  65.424  1.00  0.00    -0.041 A  
HETATM   24 CL   UNL     2     -11.073   8.231  72.603  1.00  0.00    -0.437 Cl 
HETATM   25  C   UNL     2      -8.748   8.798  71.357  1.00  0.00    -0.278 A  
HETATM   26  N   UNL     2      -6.553   8.609  66.475  1.00  0.00    -0.062 NA 
HETATM   27  C   UNL     2      -7.989   9.237  70.269  1.00  0.00    -0.155 A  
ENDBRANCH  12  13
ENDBRANCH   4  12
TORSDOF 2
ENDMDL
MODEL       46
REMARK 921   NORMALIZED FREE ENERGY PREDICTED BY IDOCK:   -5.24 KCAL/MOL
REMARK 922        TOTAL FREE ENERGY PREDICTED BY IDOCK:   -6.53 KCAL/MOL
REMARK 923 INTER-LIGAND FREE ENERGY PREDICTED BY IDOCK:   -5.72 KCAL/MOL
REMARK 924 INTRA-LIGAND FREE ENERGY PREDICTED BY IDOCK:   -0.81 KCAL/MOL
REMARK 927      BINDING AFFINITY PREDICTED BY RF-SCORE:    0.00 PKD
ROOT
HETATM    1  O   UNL     1      -7.760  10.078  65.449  1.00  0.00    -0.125 OA 
HETATM    2  C   UNL     1      -6.689   9.605  64.801  1.00  0.00    -0.103 C  
HETATM    3  C   UNL     2      -5.526  10.580  70.814  1.00  0.00    -0.093 C  
HETATM    4  N   UNL     2      -6.631  11.317  70.205  1.00  0.00    -0.212 NA 
HETATM    5  O   UNL     1      -6.066  10.275  63.992  1.00  0.00    -0.134 OA 
HETATM    6  C   UNL     1      -6.185   8.269  65.180  1.00  0.00    -0.045 C  
HETATM    7  C   UNL     1      -6.682   7.255  65.905  1.00  0.00    -0.053 C  
HETATM    8  O   UNL     1      -8.913   7.989  66.209  1.00  0.00    -0.154 OA 
HETATM    9  C   UNL     2      -6.179  12.657  69.814  1.00  0.00    -0.111 C  
HETATM   10  O   UNL     1      -8.139   6.279  67.459  1.00  0.00    -0.111 OA 
HETATM   11  C   UNL     1      -8.018   7.214  66.503  1.00  0.00    -0.112 C  
ENDROOT
BRANCH   4  12
HETATM   12  C   UNL     2      -7.215  10.625  69.048  1.00  0.00    -0.095 C  
BRANCH  12  13
HETATM   13  C   UNL     2      -8.223   9.521  69.419  1.00  0.00    -0.126 C  
HETATM   14  C   UNL     2      -9.591  10.039  69.913  1.00  0.00    -0.233 C  
HETATM   15  C   UNL     2     -10.437   8.930  70.543  1.00  0.00    -0.215 A  
HETATM   16  C   UNL     2     -10.332  10.825  68.832  1.00  0.00    -0.220 A  
HETATM   17  C   UNL     2     -10.778   7.766  69.852  1.00  0.00    -0.245 A  
HETATM   18  C   UNL     2     -10.654  10.268  67.581  1.00  0.00    -0.312 A  
HETATM   19  C   UNL     2     -11.285  11.031  66.598  1.00  0.00    -0.124 A  
HETATM   20  C   UNL     2     -11.584   6.813  70.470  1.00  0.00    -0.426 A  
HETATM   21  C   UNL     2     -11.592  12.365  66.850  1.00  0.00    -0.370 A  
HETATM   22  C   UNL     2     -12.021   7.029  71.768  1.00  0.00    -0.361 A  
HETATM   23  C   UNL     2     -11.623   8.192  72.400  1.00  0.00    -0.399 A  
HETATM   24 CL   UNL     2     -12.342  13.313  65.625  1.00  0.00    -0.507 Cl 
HETATM   25  C   UNL     2     -11.284  12.938  68.079  1.00  0.00    -0.305 A  
HETATM   26  N   UNL     2     -10.843   9.134  71.824  1.00  0.00    -0.365 NA 
HETATM   27  C   UNL     2     -10.662  12.170  69.067  1.00  0.00    -0.163 A  
ENDBRANCH  12  13
ENDBRANCH   4  12
TORSDOF 2
ENDMDL
MODEL       47
REMARK 921   NORMALIZED FREE ENERGY PREDICTED BY IDOCK:   -5.15 KCAL/MOL
REMARK 922        TOTAL FREE ENERGY PREDICTED BY IDOCK:   -6.44 KCAL/MOL
REMARK 923 INTER-LIGAND FREE ENERGY PREDICTED BY IDOCK:   -5.55 KCAL/MOL
REMARK 924 INTRA-LIGAND FREE ENERGY PREDICTED BY IDOCK:   -0.88 KCAL/MOL
REMARK 927      BINDING AFFINITY PREDICTED BY RF-SCORE:    0.00 PKD
ROOT
HETATM    1  O   UNL     1      -7.560   5.709  68.144  1.00  0.00    -0.080 OA 
HETATM    2  C   UNL     1      -6.666   4.723  68.278  1.00  0.00    -0.050 C  
HETATM    3  C   UNL     2      -6.817   8.418  73.255  1.00  0.00    -0.082 C  
HETATM    4  N   UNL     2      -7.299   8.963  71.988  1.00  0.00    -0.325 NA 
HETATM    5  O   UNL     1      -5.628   4.689  67.634  1.00  0.00    -0.015 OA 
HETATM    6  C   UNL     1      -6.900   3.715  69.333  1.00  0.00    -0.041 C  
HETATM    7  C   UNL     1      -7.953   3.395  70.100  1.00  0.00    -0.053 C  
HETATM    8  O   UNL     1      -9.650   4.691  69.076  1.00  0.00    -0.146 OA 
HETATM    9  C   UNL     2      -6.234   9.736  71.342  1.00  0.00     0.088 C  
HETATM   10  O   UNL     1     -10.037   3.775  71.100  1.00  0.00    -0.128 OA 
HETATM   11  C   UNL     1      -9.283   4.000  70.013  1.00  0.00    -0.145 C  
ENDROOT
BRANCH   4  12
HETATM   12  C   UNL     2      -7.798   7.928  71.072  1.00  0.00    -0.089 C  
BRANCH  12  13
HETATM   13  C   UNL     2      -9.288   7.587  71.259  1.00  0.00    -0.157 C  
HETATM   14  C   UNL     2     -10.262   8.689  70.788  1.00  0.00    -0.250 C  
HETATM   15  C   UNL     2     -11.695   8.436  71.262  1.00  0.00    -0.285 A  
HETATM   16  C   UNL     2     -10.159   8.945  69.285  1.00  0.00    -0.205 A  
HETATM   17  C   UNL     2     -12.386   7.261  70.959  1.00  0.00    -0.335 A  
HETATM   18  C   UNL     2     -10.365   7.932  68.332  1.00  0.00    -0.235 A  
HETATM   19  C   UNL     2     -10.212   8.188  66.968  1.00  0.00    -0.378 A  
HETATM   20  C   UNL     2     -13.702   7.109  71.387  1.00  0.00    -0.364 A  
HETATM   21  C   UNL     2      -9.837   9.459  66.542  1.00  0.00    -0.258 A  
HETATM   22  C   UNL     2     -14.300   8.121  72.123  1.00  0.00    -0.469 A  
HETATM   23  C   UNL     2     -13.547   9.245  72.409  1.00  0.00    -0.463 A  
HETATM   24 CL   UNL     2      -9.618   9.765  64.864  1.00  0.00    -0.353 Cl 
HETATM   25  C   UNL     2      -9.627  10.477  67.466  1.00  0.00    -0.181 A  
HETATM   26  N   UNL     2     -12.269   9.420  72.004  1.00  0.00    -0.352 NA 
HETATM   27  C   UNL     2      -9.792  10.223  68.830  1.00  0.00    -0.200 A  
ENDBRANCH  12  13
ENDBRANCH   4  12
TORSDOF 2
ENDMDL
MODEL       48
REMARK 921   NORMALIZED FREE ENERGY PREDICTED BY IDOCK:   -5.11 KCAL/MOL
REMARK 922        TOTAL FREE ENERGY PREDICTED BY IDOCK:   -6.39 KCAL/MOL
REMARK 923 INTER-LIGAND FREE ENERGY PREDICTED BY IDOCK:   -5.60 KCAL/MOL
REMARK 924 INTRA-LIGAND FREE ENERGY PREDICTED BY IDOCK:   -0.79 KCAL/MOL
REMARK 927      BINDING AFFINITY PREDICTED BY RF-SCORE:    0.00 PKD
ROOT
HETATM    1  O   UNL     1      -8.900  13.403  67.528  1.00  0.00    -0.186 OA 
HETATM    2  C   UNL     1      -9.651  14.133  66.695  1.00  0.00    -0.289 C  
HETATM    3  C   UNL     2      -8.422   8.507  64.393  1.00  0.00    -0.071 C  
HETATM    4  N   UNL     2      -7.519   9.039  65.412  1.00  0.00    -0.088 NA 
HETATM    5  O   UNL     1      -9.207  15.097  66.090  1.00  0.00    -0.295 OA 
HETATM    6  C   UNL     1     -11.026  13.669  66.415  1.00  0.00    -0.297 C  
HETATM    7  C   UNL     1     -11.838  12.764  66.981  1.00  0.00    -0.428 C  
HETATM    8  O   UNL     1     -10.612  12.240  68.938  1.00  0.00    -0.211 OA 
HETATM    9  C   UNL     2      -6.351   9.649  64.769  1.00  0.00    -0.089 C  
HETATM   10  O   UNL     1     -12.332  10.914  68.330  1.00  0.00    -0.477 OA 
HETATM   11  C   UNL     1     -11.535  11.983  68.182  1.00  0.00    -0.322 C  
ENDROOT
BRANCH   4  12
HETATM   12  C   UNL     2      -8.168  10.009  66.304  1.00  0.00    -0.124 C  
BRANCH  12  13
HETATM   13  C   UNL     2      -8.069   9.652  67.799  1.00  0.00    -0.113 C  
HETATM   14  C   UNL     2      -9.228   8.781  68.329  1.00  0.00    -0.143 C  
HETATM   15  C   UNL     2      -9.244   8.704  69.857  1.00  0.00    -0.155 A  
HETATM   16  C   UNL     2      -9.271   7.409  67.654  1.00  0.00    -0.132 A  
HETATM   17  C   UNL     2      -8.150   8.247  70.594  1.00  0.00    -0.110 A  
HETATM   18  C   UNL     2      -8.183   6.518  67.688  1.00  0.00    -0.122 A  
HETATM   19  C   UNL     2      -8.238   5.295  67.018  1.00  0.00    -0.108 A  
HETATM   20  C   UNL     2      -8.243   8.165  71.981  1.00  0.00    -0.192 A  
HETATM   21  C   UNL     2      -9.377   4.954  66.295  1.00  0.00    -0.149 A  
HETATM   22  C   UNL     2      -9.416   8.557  72.609  1.00  0.00    -0.295 A  
HETATM   23  C   UNL     2     -10.449   9.024  71.818  1.00  0.00    -0.348 A  
HETATM   24 CL   UNL     2      -9.430   3.460  65.443  1.00  0.00    -0.156 Cl 
HETATM   25  C   UNL     2     -10.465   5.819  66.247  1.00  0.00    -0.131 A  
HETATM   26  N   UNL     2     -10.387   9.112  70.470  1.00  0.00    -0.217 NA 
HETATM   27  C   UNL     2     -10.414   7.038  66.928  1.00  0.00    -0.356 A  
ENDBRANCH  12  13
ENDBRANCH   4  12
TORSDOF 2
ENDMDL
MODEL       49
REMARK 921   NORMALIZED FREE ENERGY PREDICTED BY IDOCK:   -5.11 KCAL/MOL
REMARK 922        TOTAL FREE ENERGY PREDICTED BY IDOCK:   -6.39 KCAL/MOL
REMARK 923 INTER-LIGAND FREE ENERGY PREDICTED BY IDOCK:   -6.06 KCAL/MOL
REMARK 924 INTRA-LIGAND FREE ENERGY PREDICTED BY IDOCK:   -0.33 KCAL/MOL
REMARK 927      BINDING AFFINITY PREDICTED BY RF-SCORE:    0.00 PKD
ROOT
HETATM    1  O   UNL     1     -10.353  17.974  69.137  1.00  0.00    -0.322 OA 
HETATM    2  C   UNL     1      -9.948  19.202  68.794  1.00  0.00    -0.427 C  
HETATM    3  C   UNL     2      -5.574  14.932  67.747  1.00  0.00    -0.063 C  
HETATM    4  N   UNL     2      -6.606  14.622  68.733  1.00  0.00    -0.086 NA 
HETATM    5  O   UNL     1      -9.703  20.065  69.623  1.00  0.00    -0.084 OA 
HETATM    6  C   UNL     1      -9.673  19.467  67.366  1.00  0.00    -0.424 C  
HETATM    7  C   UNL     1      -9.946  18.813  66.227  1.00  0.00    -0.418 C  
HETATM    8  O   UNL     1     -11.408  17.131  67.028  1.00  0.00     0.286 OA 
HETATM    9  C   UNL     2      -6.112  14.920  70.081  1.00  0.00    -0.157 C  
HETATM   10  O   UNL     1     -10.547  16.942  64.952  1.00  0.00    -0.702 OA 
HETATM   11  C   UNL     1     -10.721  17.575  66.122  1.00  0.00    -0.098 C  
ENDROOT
BRANCH   4  12
HETATM   12  C   UNL     2      -7.866  15.337  68.489  1.00  0.00    -0.134 C  
BRANCH  12  13
HETATM   13  C   UNL     2      -9.020  14.914  69.418  1.00  0.00    -0.044 C  
HETATM   14  C   UNL     2     -10.388  14.770  68.718  1.00  0.00    -0.248 C  
HETATM   15  C   UNL     2     -11.540  14.643  69.717  1.00  0.00    -0.296 A  
HETATM   16  C   UNL     2     -10.380  13.665  67.661  1.00  0.00    -0.239 A  
HETATM   17  C   UNL     2     -11.581  13.641  70.688  1.00  0.00     0.051 A  
HETATM   18  C   UNL     2     -10.055  12.331  67.969  1.00  0.00    -0.206 A  
HETATM   19  C   UNL     2     -10.007  11.357  66.970  1.00  0.00    -0.227 A  
HETATM   20  C   UNL     2     -12.677  13.557  71.542  1.00  0.00    -0.412 A  
HETATM   21  C   UNL     2     -10.271  11.708  65.649  1.00  0.00    -0.243 A  
HETATM   22  C   UNL     2     -13.703  14.484  71.426  1.00  0.00    -0.448 A  
HETATM   23  C   UNL     2     -13.583  15.465  70.460  1.00  0.00     0.083 A  
HETATM   24 CL   UNL     2     -10.180  10.513  64.416  1.00  0.00    -0.400 Cl 
HETATM   25  C   UNL     2     -10.594  13.021  65.322  1.00  0.00    -0.320 A  
HETATM   26  N   UNL     2     -12.532  15.568  69.616  1.00  0.00    -0.203 NA 
HETATM   27  C   UNL     2     -10.653  13.993  66.323  1.00  0.00    -0.281 A  
ENDBRANCH  12  13
ENDBRANCH   4  12
TORSDOF 2
ENDMDL
MODEL       50
REMARK 921   NORMALIZED FREE ENERGY PREDICTED BY IDOCK:   -5.08 KCAL/MOL
REMARK 922        TOTAL FREE ENERGY PREDICTED BY IDOCK:   -6.36 KCAL/MOL
REMARK 923 INTER-LIGAND FREE ENERGY PREDICTED BY IDOCK:   -5.49 KCAL/MOL
REMARK 924 INTRA-LIGAND FREE ENERGY PREDICTED BY IDOCK:   -0.87 KCAL/MOL
REMARK 927      BINDING AFFINITY PREDICTED BY RF-SCORE:    0.00 PKD
ROOT
HETATM    1  O   UNL     1     -11.715  11.490  65.719  1.00  0.00    -0.240 OA 
HETATM    2  C   UNL     1     -12.352  12.592  65.307  1.00  0.00    -0.466 C  
HETATM    3  C   UNL     2     -12.595  11.929  71.468  1.00  0.00    -0.193 C  
HETATM    4  N   UNL     2     -12.358  10.733  70.663  1.00  0.00    -0.340 NA 
HETATM    5  O   UNL     1     -13.408  12.548  64.695  1.00  0.00    -0.804 OA 
HETATM    6  C   UNL     1     -11.808  13.902  65.724  1.00  0.00    -0.393 C  
HETATM    7  C   UNL     1     -10.647  14.301  66.266  1.00  0.00    -0.291 C  
HETATM    8  O   UNL     1      -9.378  12.308  66.093  1.00  0.00    -0.230 OA 
HETATM    9  C   UNL     2     -13.622  10.019  70.452  1.00  0.00     0.477 C  
HETATM   10  O   UNL     1      -8.621  13.984  67.398  1.00  0.00    -0.180 OA 
HETATM   11  C   UNL     1      -9.498  13.437  66.543  1.00  0.00    -0.245 C  
ENDROOT
BRANCH   4  12
HETATM   12  C   UNL     2     -11.724  11.027  69.371  1.00  0.00    -0.323 C  
BRANCH  12  13
HETATM   13  C   UNL     2     -10.185  10.992  69.404  1.00  0.00    -0.097 C  
HETATM   14  C   UNL     2      -9.581   9.622  69.783  1.00  0.00    -0.242 C  
HETATM   15  C   UNL     2      -8.085   9.713  70.090  1.00  0.00    -0.189 A  
HETATM   16  C   UNL     2      -9.923   8.540  68.758  1.00  0.00    -0.197 A  
HETATM   17  C   UNL     2      -7.162  10.215  69.170  1.00  0.00    -0.081 A  
HETATM   18  C   UNL     2      -9.582   8.655  67.399  1.00  0.00    -0.204 A  
HETATM   19  C   UNL     2      -9.956   7.672  66.481  1.00  0.00    -0.226 A  
HETATM   20  C   UNL     2      -5.809  10.234  69.498  1.00  0.00    -0.038 A  
HETATM   21  C   UNL     2     -10.686   6.567  66.910  1.00  0.00    -0.333 A  
HETATM   22  C   UNL     2      -5.402   9.771  70.740  1.00  0.00    -0.052 A  
HETATM   23  C   UNL     2      -6.373   9.313  71.611  1.00  0.00     0.005 A  
HETATM   24 CL   UNL     2     -11.172   5.372  65.773  1.00  0.00     0.340 Cl 
HETATM   25  C   UNL     2     -11.034   6.432  68.250  1.00  0.00    -0.396 A  
HETATM   26  N   UNL     2      -7.693   9.281  71.318  1.00  0.00    -0.338 NA 
HETATM   27  C   UNL     2     -10.650   7.411  69.170  1.00  0.00    -0.213 A  
ENDBRANCH  12  13
ENDBRANCH   4  12
TORSDOF 2
ENDMDL
MODEL       51
REMARK 921   NORMALIZED FREE ENERGY PREDICTED BY IDOCK:   -5.08 KCAL/MOL
REMARK 922        TOTAL FREE ENERGY PREDICTED BY IDOCK:   -6.36 KCAL/MOL
REMARK 923 INTER-LIGAND FREE ENERGY PREDICTED BY IDOCK:   -5.47 KCAL/MOL
REMARK 924 INTRA-LIGAND FREE ENERGY PREDICTED BY IDOCK:   -0.88 KCAL/MOL
REMARK 927      BINDING AFFINITY PREDICTED BY RF-SCORE:    0.00 PKD
ROOT
HETATM    1  O   UNL     1     -10.817   9.974  71.072  1.00  0.00    -0.298 OA 
HETATM    2  C   UNL     1     -11.771  10.805  70.637  1.00  0.00    -0.342 C  
HETATM    3  C   UNL     2     -10.979   5.973  66.831  1.00  0.00    -0.266 C  
HETATM    4  N   UNL     2      -9.870   6.338  67.708  1.00  0.00    -0.117 NA 
HETATM    5  O   UNL     1     -11.519  11.916  70.195  1.00  0.00    -0.210 OA 
HETATM    6  C   UNL     1     -13.158  10.298  70.581  1.00  0.00    -0.292 C  
HETATM    7  C   UNL     1     -13.779   9.221  71.085  1.00  0.00    -0.165 C  
HETATM    8  O   UNL     1     -12.093   8.378  72.520  1.00  0.00    -0.393 OA 
HETATM    9  C   UNL     2      -8.914   7.178  66.978  1.00  0.00    -0.129 C  
HETATM   10  O   UNL     1     -13.869   7.078  72.028  1.00  0.00    -0.226 OA 
HETATM   11  C   UNL     1     -13.166   8.219  71.959  1.00  0.00    -0.319 C  
ENDROOT
BRANCH   4  12
HETATM   12  C   UNL     2     -10.307   7.022  68.933  1.00  0.00    -0.190 C  
BRANCH  12  13
HETATM   13  C   UNL     2     -10.724   6.070  70.070  1.00  0.00    -0.380 C  
HETATM   14  C   UNL     2      -9.556   5.293  70.717  1.00  0.00    -0.234 C  
HETATM   15  C   UNL     2     -10.045   4.160  71.621  1.00  0.00    -0.128 A  
HETATM   16  C   UNL     2      -8.557   6.225  71.403  1.00  0.00    -0.131 A  
HETATM   17  C   UNL     2     -10.906   4.380  72.698  1.00  0.00    -0.166 A  
HETATM   18  C   UNL     2      -8.933   7.113  72.427  1.00  0.00    -0.145 A  
HETATM   19  C   UNL     2      -8.005   7.986  72.996  1.00  0.00    -0.207 A  
HETATM   20  C   UNL     2     -11.282   3.309  73.505  1.00  0.00    -0.280 A  
HETATM   21  C   UNL     2      -6.690   7.990  72.539  1.00  0.00    -0.079 A  
HETATM   22  C   UNL     2     -10.810   2.038  73.215  1.00  0.00    -0.263 A  
HETATM   23  C   UNL     2      -9.983   1.890  72.117  1.00  0.00    -0.146 A  
HETATM   24 CL   UNL     2      -5.555   9.089  73.219  1.00  0.00    -0.104 Cl 
HETATM   25  C   UNL     2      -6.295   7.121  71.528  1.00  0.00    -0.037 A  
HETATM   26  N   UNL     2      -9.599   2.911  71.319  1.00  0.00    -0.154 NA 
HETATM   27  C   UNL     2      -7.222   6.239  70.966  1.00  0.00    -0.075 A  
ENDBRANCH  12  13
ENDBRANCH   4  12
TORSDOF 2
ENDMDL
MODEL       52
REMARK 921   NORMALIZED FREE ENERGY PREDICTED BY IDOCK:   -5.03 KCAL/MOL
REMARK 922        TOTAL FREE ENERGY PREDICTED BY IDOCK:   -6.31 KCAL/MOL
REMARK 923 INTER-LIGAND FREE ENERGY PREDICTED BY IDOCK:   -5.42 KCAL/MOL
REMARK 924 INTRA-LIGAND FREE ENERGY PREDICTED BY IDOCK:   -0.89 KCAL/MOL
REMARK 927      BINDING AFFINITY PREDICTED BY RF-SCORE:    0.00 PKD
ROOT
HETATM    1  O   UNL     1      -6.552  13.287  67.230  1.00  0.00    -0.218 OA 
HETATM    2  C   UNL     1      -6.089  14.365  67.875  1.00  0.00    -0.150 C  
HETATM    3  C   UNL     2     -11.892  12.960  69.552  1.00  0.00    -0.320 C  
HETATM    4  N   UNL     2     -11.423  12.480  68.254  1.00  0.00    -0.285 NA 
HETATM    5  O   UNL     1      -5.910  15.435  67.314  1.00  0.00    -0.334 OA 
HETATM    6  C   UNL     1      -5.914  14.272  69.339  1.00  0.00    -0.103 C  
HETATM    7  C   UNL     1      -5.896  13.256  70.215  1.00  0.00    -0.158 C  
HETATM    8  O   UNL     1      -5.867  11.406  68.735  1.00  0.00    -0.043 OA 
HETATM    9  C   UNL     2     -11.861  13.397  67.197  1.00  0.00    -0.382 C  
HETATM   10  O   UNL     1      -6.315  11.061  70.919  1.00  0.00    -0.339 OA 
HETATM   11  C   UNL     1      -5.997  11.836  69.871  1.00  0.00    -0.146 C  
ENDROOT
BRANCH   4  12
HETATM   12  C   UNL     2      -9.965  12.307  68.199  1.00  0.00    -0.210 C  
BRANCH  12  13
HETATM   13  C   UNL     2      -9.473  10.947  68.728  1.00  0.00    -0.196 C  
HETATM   14  C   UNL     2      -9.830   9.741  67.832  1.00  0.00    -0.176 C  
HETATM   15  C   UNL     2      -9.587   8.405  68.535  1.00  0.00    -0.149 A  
HETATM   16  C   UNL     2      -9.169   9.831  66.457  1.00  0.00    -0.194 A  
HETATM   17  C   UNL     2      -8.340   8.047  69.052  1.00  0.00    -0.129 A  
HETATM   18  C   UNL     2      -7.775   9.923  66.296  1.00  0.00    -0.105 A  
HETATM   19  C   UNL     2      -7.207  10.055  65.028  1.00  0.00    -0.139 A  
HETATM   20  C   UNL     2      -8.176   6.798  69.645  1.00  0.00    -0.131 A  
HETATM   21  C   UNL     2      -8.028  10.109  63.905  1.00  0.00    -0.153 A  
HETATM   22  C   UNL     2      -9.259   5.937  69.730  1.00  0.00    -0.160 A  
HETATM   23  C   UNL     2     -10.471   6.367  69.222  1.00  0.00    -0.231 A  
HETATM   24 CL   UNL     2      -7.328  10.304  62.346  1.00  0.00    -0.145 Cl 
HETATM   25  C   UNL     2      -9.409  10.020  64.040  1.00  0.00    -0.324 A  
HETATM   26  N   UNL     2     -10.657   7.572  68.638  1.00  0.00    -0.178 NA 
HETATM   27  C   UNL     2      -9.976   9.876  65.309  1.00  0.00    -0.320 A  
ENDBRANCH  12  13
ENDBRANCH   4  12
TORSDOF 2
ENDMDL
MODEL       53
REMARK 921   NORMALIZED FREE ENERGY PREDICTED BY IDOCK:   -5.03 KCAL/MOL
REMARK 922        TOTAL FREE ENERGY PREDICTED BY IDOCK:   -6.30 KCAL/MOL
REMARK 923 INTER-LIGAND FREE ENERGY PREDICTED BY IDOCK:   -5.78 KCAL/MOL
REMARK 924 INTRA-LIGAND FREE ENERGY PREDICTED BY IDOCK:   -0.53 KCAL/MOL
REMARK 927      BINDING AFFINITY PREDICTED BY RF-SCORE:    0.00 PKD
ROOT
HETATM    1  O   UNL     1     -10.660   7.980  67.498  1.00  0.00    -0.259 OA 
HETATM    2  C   UNL     1     -10.452   6.854  66.805  1.00  0.00    -0.230 C  
HETATM    3  C   UNL     2     -10.021  11.903  63.229  1.00  0.00    -0.380 C  
HETATM    4  N   UNL     2     -10.789  12.009  64.468  1.00  0.00    -0.297 NA 
HETATM    5  O   UNL     1     -11.350   6.064  66.557  1.00  0.00    -0.042 OA 
HETATM    6  C   UNL     1      -9.111   6.638  66.223  1.00  0.00    -0.168 C  
HETATM    7  C   UNL     1      -7.912   7.214  66.400  1.00  0.00    -0.112 C  
HETATM    8  O   UNL     1      -8.358   8.577  68.285  1.00  0.00    -0.122 OA 
HETATM    9  C   UNL     2     -12.216  11.827  64.186  1.00  0.00    -0.190 C  
HETATM   10  O   UNL     1      -6.466   8.917  67.105  1.00  0.00    -0.059 OA 
HETATM   11  C   UNL     1      -7.613   8.271  67.368  1.00  0.00    -0.098 C  
ENDROOT
BRANCH   4  12
HETATM   12  C   UNL     2     -10.353  11.054  65.497  1.00  0.00    -0.260 C  
BRANCH  12  13
HETATM   13  C   UNL     2     -11.105  11.185  66.834  1.00  0.00    -0.313 C  
HETATM   14  C   UNL     2     -10.204  11.115  68.087  1.00  0.00    -0.198 C  
HETATM   15  C   UNL     2     -11.014  10.951  69.374  1.00  0.00    -0.252 A  
HETATM   16  C   UNL     2      -9.207  12.273  68.143  1.00  0.00    -0.197 A  
HETATM   17  C   UNL     2     -12.005  11.858  69.755  1.00  0.00    -0.377 A  
HETATM   18  C   UNL     2      -9.615  13.619  68.137  1.00  0.00    -0.221 A  
HETATM   19  C   UNL     2      -8.676  14.652  68.137  1.00  0.00    -0.168 A  
HETATM   20  C   UNL     2     -12.678  11.672  70.960  1.00  0.00    -0.395 A  
HETATM   21  C   UNL     2      -7.317  14.350  68.129  1.00  0.00    -0.130 A  
HETATM   22  C   UNL     2     -12.366  10.578  71.753  1.00  0.00    -0.264 A  
HETATM   23  C   UNL     2     -11.393   9.707  71.301  1.00  0.00    -0.388 A  
HETATM   24 CL   UNL     2      -6.161  15.624  68.097  1.00  0.00    -0.121 Cl 
HETATM   25  C   UNL     2      -6.890  13.027  68.134  1.00  0.00    -0.104 A  
HETATM   26  N   UNL     2     -10.721   9.865  70.137  1.00  0.00    -0.286 NA 
HETATM   27  C   UNL     2      -7.831  11.993  68.146  1.00  0.00    -0.145 A  
ENDBRANCH  12  13
ENDBRANCH   4  12
TORSDOF 2
ENDMDL
MODEL       54
REMARK 921   NORMALIZED FREE ENERGY PREDICTED BY IDOCK:   -5.03 KCAL/MOL
REMARK 922        TOTAL FREE ENERGY PREDICTED BY IDOCK:   -6.30 KCAL/MOL
REMARK 923 INTER-LIGAND FREE ENERGY PREDICTED BY IDOCK:   -5.51 KCAL/MOL
REMARK 924 INTRA-LIGAND FREE ENERGY PREDICTED BY IDOCK:   -0.79 KCAL/MOL
REMARK 927      BINDING AFFINITY PREDICTED BY RF-SCORE:    0.00 PKD
ROOT
HETATM    1  O   UNL     1     -11.516   8.689  69.638  1.00  0.00     0.092 OA 
HETATM    2  C   UNL     1     -11.936   8.672  70.909  1.00  0.00    -0.191 C  
HETATM    3  C   UNL     2      -6.298  11.195  70.353  1.00  0.00    -0.031 C  
HETATM    4  N   UNL     2      -6.746  10.289  69.298  1.00  0.00    -0.057 NA 
HETATM    5  O   UNL     1     -12.028   7.638  71.554  1.00  0.00    -0.282 OA 
HETATM    6  C   UNL     1     -12.173   9.969  71.577  1.00  0.00    -0.496 C  
HETATM    7  C   UNL     1     -12.286  11.234  71.145  1.00  0.00    -0.429 C  
HETATM    8  O   UNL     1     -12.372  10.889  68.804  1.00  0.00    -0.495 OA 
HETATM    9  C   UNL     2      -6.213   8.944  69.537  1.00  0.00    -0.043 C  
HETATM   10  O   UNL     1     -12.029  12.972  69.597  1.00  0.00    -0.315 OA 
HETATM   11  C   UNL     1     -12.259  11.659  69.744  1.00  0.00    -0.219 C  
ENDROOT
BRANCH   4  12
HETATM   12  C   UNL     2      -8.209  10.236  69.170  1.00  0.00    -0.152 C  
BRANCH  12  13
HETATM   13  C   UNL     2      -8.845  11.546  68.668  1.00  0.00    -0.108 C  
HETATM   14  C   UNL     2      -8.154  12.162  67.432  1.00  0.00    -0.171 C  
HETATM   15  C   UNL     2      -8.626  13.591  67.158  1.00  0.00    -0.195 A  
HETATM   16  C   UNL     2      -8.244  11.250  66.208  1.00  0.00    -0.126 A  
HETATM   17  C   UNL     2      -9.970  13.909  66.952  1.00  0.00    -0.264 A  
HETATM   18  C   UNL     2      -9.473  10.815  65.682  1.00  0.00    -0.250 A  
HETATM   19  C   UNL     2      -9.518   9.941  64.595  1.00  0.00    -0.343 A  
HETATM   20  C   UNL     2     -10.329  15.224  66.668  1.00  0.00    -0.281 A  
HETATM   21  C   UNL     2      -8.332   9.481  64.029  1.00  0.00    -0.170 A  
HETATM   22  C   UNL     2      -9.346  16.201  66.612  1.00  0.00    -0.267 A  
HETATM   23  C   UNL     2      -8.039  15.820  66.852  1.00  0.00    -0.257 A  
HETATM   24 CL   UNL     2      -8.389   8.379  62.709  1.00  0.00    -0.167 Cl 
HETATM   25  C   UNL     2      -7.105   9.898  64.532  1.00  0.00    -0.137 A  
HETATM   26  N   UNL     2      -7.663  14.550  67.127  1.00  0.00    -0.142 NA 
HETATM   27  C   UNL     2      -7.061  10.782  65.613  1.00  0.00    -0.017 A  
ENDBRANCH  12  13
ENDBRANCH   4  12
TORSDOF 2
ENDMDL
MODEL       55
REMARK 921   NORMALIZED FREE ENERGY PREDICTED BY IDOCK:   -5.00 KCAL/MOL
REMARK 922        TOTAL FREE ENERGY PREDICTED BY IDOCK:   -6.27 KCAL/MOL
REMARK 923 INTER-LIGAND FREE ENERGY PREDICTED BY IDOCK:   -5.74 KCAL/MOL
REMARK 924 INTRA-LIGAND FREE ENERGY PREDICTED BY IDOCK:   -0.54 KCAL/MOL
REMARK 927      BINDING AFFINITY PREDICTED BY RF-SCORE:    0.00 PKD
ROOT
HETATM    1  O   UNL     1     -11.289  12.144  64.563  1.00  0.00    -0.313 OA 
HETATM    2  C   UNL     1     -12.411  12.683  64.072  1.00  0.00    -0.443 C  
HETATM    3  C   UNL     2     -12.136  13.108  70.253  1.00  0.00    -0.328 C  
HETATM    4  N   UNL     2     -11.338  12.070  69.605  1.00  0.00    -0.221 NA 
HETATM    5  O   UNL     1     -13.308  12.005  63.595  1.00  0.00    -0.676 OA 
HETATM    6  C   UNL     1     -12.608  14.139  64.234  1.00  0.00    -0.162 C  
HETATM    7  C   UNL     1     -11.805  15.157  64.581  1.00  0.00    -0.333 C  
HETATM    8  O   UNL     1      -9.697  14.077  64.552  1.00  0.00     0.020 OA 
HETATM    9  C   UNL     2     -12.058  10.793  69.641  1.00  0.00    -0.289 C  
HETATM   10  O   UNL     1      -9.879  16.110  65.513  1.00  0.00    -0.458 OA 
HETATM   11  C   UNL     1     -10.369  15.053  64.848  1.00  0.00    -0.282 C  
ENDROOT
BRANCH   4  12
HETATM   12  C   UNL     2     -10.974  12.405  68.222  1.00  0.00    -0.236 C  
BRANCH  12  13
HETATM   13  C   UNL     2     -10.513  11.198  67.383  1.00  0.00    -0.255 C  
HETATM   14  C   UNL     2      -9.059  11.289  66.872  1.00  0.00    -0.172 C  
HETATM   15  C   UNL     2      -8.750  10.229  65.813  1.00  0.00    -0.156 A  
HETATM   16  C   UNL     2      -8.047  11.312  68.017  1.00  0.00    -0.128 A  
HETATM   17  C   UNL     2      -8.909   8.863  66.053  1.00  0.00    -0.206 A  
HETATM   18  C   UNL     2      -7.967  10.284  68.974  1.00  0.00    -0.125 A  
HETATM   19  C   UNL     2      -7.066  10.363  70.036  1.00  0.00    -0.155 A  
HETATM   20  C   UNL     2      -8.572   7.948  65.059  1.00  0.00    -0.010 A  
HETATM   21  C   UNL     2      -6.242  11.477  70.163  1.00  0.00    -0.132 A  
HETATM   22  C   UNL     2      -8.101   8.409  63.840  1.00  0.00    -0.143 A  
HETATM   23  C   UNL     2      -7.995   9.776  63.662  1.00  0.00    -0.144 A  
HETATM   24 CL   UNL     2      -5.155  11.587  71.491  1.00  0.00    -0.068 Cl 
HETATM   25  C   UNL     2      -6.303  12.506  69.230  1.00  0.00    -0.110 A  
HETATM   26  N   UNL     2      -8.312  10.686  64.610  1.00  0.00    -0.111 NA 
HETATM   27  C   UNL     2      -7.198  12.422  68.159  1.00  0.00    -0.100 A  
ENDBRANCH  12  13
ENDBRANCH   4  12
TORSDOF 2
ENDMDL
MODEL       56
REMARK 921   NORMALIZED FREE ENERGY PREDICTED BY IDOCK:   -4.97 KCAL/MOL
REMARK 922        TOTAL FREE ENERGY PREDICTED BY IDOCK:   -6.23 KCAL/MOL
REMARK 923 INTER-LIGAND FREE ENERGY PREDICTED BY IDOCK:   -5.49 KCAL/MOL
REMARK 924 INTRA-LIGAND FREE ENERGY PREDICTED BY IDOCK:   -0.74 KCAL/MOL
REMARK 927      BINDING AFFINITY PREDICTED BY RF-SCORE:    0.00 PKD
ROOT
HETATM    1  O   UNL     1     -10.367   7.996  67.597  1.00  0.00    -0.217 OA 
HETATM    2  C   UNL     1     -10.358   6.868  66.877  1.00  0.00    -0.262 C  
HETATM    3  C   UNL     2     -10.149  11.922  63.290  1.00  0.00    -0.396 C  
HETATM    4  N   UNL     2     -10.694  12.066  64.638  1.00  0.00    -0.294 NA 
HETATM    5  O   UNL     1     -11.340   6.148  66.778  1.00  0.00    -0.188 OA 
HETATM    6  C   UNL     1      -9.150   6.564  66.083  1.00  0.00    -0.146 C  
HETATM    7  C   UNL     1      -7.899   7.050  66.062  1.00  0.00    -0.104 C  
HETATM    8  O   UNL     1      -7.930   8.415  67.997  1.00  0.00    -0.115 OA 
HETATM    9  C   UNL     2     -12.158  11.991  64.593  1.00  0.00    -0.232 C  
HETATM   10  O   UNL     1      -6.237   8.634  66.524  1.00  0.00    -0.055 OA 
HETATM   11  C   UNL     1      -7.369   8.069  66.969  1.00  0.00    -0.091 C  
ENDROOT
BRANCH   4  12
HETATM   12  C   UNL     2     -10.167  11.068  65.579  1.00  0.00    -0.268 C  
BRANCH  12  13
HETATM   13  C   UNL     2      -8.953  11.551  66.394  1.00  0.00    -0.200 C  
HETATM   14  C   UNL     2      -9.292  12.551  67.520  1.00  0.00    -0.187 C  
HETATM   15  C   UNL     2      -8.043  13.220  68.097  1.00  0.00    -0.159 A  
HETATM   16  C   UNL     2     -10.193  11.929  68.589  1.00  0.00    -0.202 A  
HETATM   17  C   UNL     2      -6.986  12.488  68.640  1.00  0.00    -0.091 A  
HETATM   18  C   UNL     2      -9.825  10.778  69.307  1.00  0.00    -0.160 A  
HETATM   19  C   UNL     2     -10.694  10.207  70.239  1.00  0.00    -0.352 A  
HETATM   20  C   UNL     2      -5.894  13.160  69.184  1.00  0.00    -0.080 A  
HETATM   21  C   UNL     2     -11.946  10.775  70.454  1.00  0.00    -0.357 A  
HETATM   22  C   UNL     2      -5.867  14.547  69.160  1.00  0.00    -0.092 A  
HETATM   23  C   UNL     2      -6.936  15.205  68.583  1.00  0.00    -0.113 A  
HETATM   24 CL   UNL     2     -13.027  10.051  71.580  1.00  0.00    -0.511 Cl 
HETATM   25  C   UNL     2     -12.331  11.914  69.755  1.00  0.00    -0.136 A  
HETATM   26  N   UNL     2      -8.010  14.579  68.050  1.00  0.00    -0.125 NA 
HETATM   27  C   UNL     2     -11.457  12.491  68.831  1.00  0.00    -0.355 A  
ENDBRANCH  12  13
ENDBRANCH   4  12
TORSDOF 2
ENDMDL
MODEL       57
REMARK 921   NORMALIZED FREE ENERGY PREDICTED BY IDOCK:   -4.94 KCAL/MOL
REMARK 922        TOTAL FREE ENERGY PREDICTED BY IDOCK:   -6.21 KCAL/MOL
REMARK 923 INTER-LIGAND FREE ENERGY PREDICTED BY IDOCK:   -6.17 KCAL/MOL
REMARK 924 INTRA-LIGAND FREE ENERGY PREDICTED BY IDOCK:   -0.04 KCAL/MOL
REMARK 927      BINDING AFFINITY PREDICTED BY RF-SCORE:    0.00 PKD
ROOT
HETATM    1  O   UNL     1      -9.827  14.610  66.672  1.00  0.00    -0.251 OA 
HETATM    2  C   UNL     1      -9.808  15.521  65.692  1.00  0.00    -0.342 C  
HETATM    3  C   UNL     2      -8.648   9.808  63.579  1.00  0.00    -0.201 C  
HETATM    4  N   UNL     2      -8.397  10.075  64.993  1.00  0.00    -0.147 NA 
HETATM    5  O   UNL     1      -8.917  16.351  65.588  1.00  0.00    -0.427 OA 
HETATM    6  C   UNL     1     -10.841  15.427  64.639  1.00  0.00    -0.281 C  
HETATM    7  C   UNL     1     -11.992  14.749  64.519  1.00  0.00    -0.451 C  
HETATM    8  O   UNL     1     -12.227  13.897  66.717  1.00  0.00    -0.429 OA 
HETATM    9  C   UNL     2      -6.977  10.379  65.198  1.00  0.00    -0.082 C  
HETATM   10  O   UNL     1     -13.522  13.063  65.070  1.00  0.00    -0.484 OA 
HETATM   11  C   UNL     1     -12.587  13.896  65.550  1.00  0.00    -0.526 C  
ENDROOT
BRANCH   4  12
HETATM   12  C   UNL     2      -9.227  11.163  65.528  1.00  0.00    -0.216 C  
BRANCH  12  13
HETATM   13  C   UNL     2      -9.940  10.819  66.849  1.00  0.00    -0.240 C  
HETATM   14  C   UNL     2      -8.993  10.509  68.028  1.00  0.00    -0.135 C  
HETATM   15  C   UNL     2      -9.731   9.892  69.217  1.00  0.00    -0.208 A  
HETATM   16  C   UNL     2      -8.135  11.716  68.409  1.00  0.00    -0.153 A  
HETATM   17  C   UNL     2     -10.806  10.527  69.842  1.00  0.00    -0.334 A  
HETATM   18  C   UNL     2      -8.695  12.949  68.788  1.00  0.00     0.173 A  
HETATM   19  C   UNL     2      -7.882  14.046  69.079  1.00  0.00     0.023 A  
HETATM   20  C   UNL     2     -11.409   9.929  70.945  1.00  0.00    -0.446 A  
HETATM   21  C   UNL     2      -6.498  13.925  68.984  1.00  0.00    -0.103 A  
HETATM   22  C   UNL     2     -10.944   8.702  71.394  1.00  0.00    -0.341 A  
HETATM   23  C   UNL     2      -9.894   8.118  70.711  1.00  0.00    -0.180 A  
HETATM   24 CL   UNL     2      -5.500  15.286  69.313  1.00  0.00    -0.095 Cl 
HETATM   25  C   UNL     2      -5.922  12.715  68.611  1.00  0.00    -0.065 A  
HETATM   26  N   UNL     2      -9.288   8.678  69.640  1.00  0.00    -0.160 NA 
HETATM   27  C   UNL     2      -6.736  11.615  68.330  1.00  0.00    -0.064 A  
ENDBRANCH  12  13
ENDBRANCH   4  12
TORSDOF 2
ENDMDL
MODEL       58
REMARK 921   NORMALIZED FREE ENERGY PREDICTED BY IDOCK:   -4.93 KCAL/MOL
REMARK 922        TOTAL FREE ENERGY PREDICTED BY IDOCK:   -6.19 KCAL/MOL
REMARK 923 INTER-LIGAND FREE ENERGY PREDICTED BY IDOCK:   -5.57 KCAL/MOL
REMARK 924 INTRA-LIGAND FREE ENERGY PREDICTED BY IDOCK:   -0.62 KCAL/MOL
REMARK 927      BINDING AFFINITY PREDICTED BY RF-SCORE:    0.00 PKD
ROOT
HETATM    1  O   UNL     1      -9.808  13.686  68.892  1.00  0.00    -0.118 OA 
HETATM    2  C   UNL     1      -9.746  14.879  68.287  1.00  0.00    -0.215 C  
HETATM    3  C   UNL     2      -6.361  10.596  65.343  1.00  0.00    -0.052 C  
HETATM    4  N   UNL     2      -6.663  10.374  66.756  1.00  0.00    -0.082 NA 
HETATM    5  O   UNL     1      -9.151  15.828  68.774  1.00  0.00    -0.188 OA 
HETATM    6  C   UNL     1     -10.316  14.996  66.929  1.00  0.00    -0.266 C  
HETATM    7  C   UNL     1     -11.119  14.222  66.183  1.00  0.00    -0.324 C  
HETATM    8  O   UNL     1     -11.781  12.610  67.786  1.00  0.00    -0.330 OA 
HETATM    9  C   UNL     2      -5.535  10.820  67.580  1.00  0.00    -0.043 C  
HETATM   10  O   UNL     1     -12.182  12.218  65.602  1.00  0.00    -0.605 OA 
HETATM   11  C   UNL     1     -11.734  12.968  66.620  1.00  0.00    -0.381 C  
ENDROOT
BRANCH   4  12
HETATM   12  C   UNL     2      -7.899  11.039  67.191  1.00  0.00    -0.135 C  
BRANCH  12  13
HETATM   13  C   UNL     2      -8.422  10.561  68.558  1.00  0.00    -0.131 C  
HETATM   14  C   UNL     2      -9.495   9.454  68.484  1.00  0.00    -0.150 C  
HETATM   15  C   UNL     2     -10.189   9.228  69.829  1.00  0.00    -0.211 A  
HETATM   16  C   UNL     2      -8.953   8.168  67.859  1.00  0.00    -0.133 A  
HETATM   17  C   UNL     2      -9.483   8.898  70.988  1.00  0.00    -0.318 A  
HETATM   18  C   UNL     2      -7.847   7.481  68.390  1.00  0.00    -0.122 A  
HETATM   19  C   UNL     2      -7.346   6.338  67.765  1.00  0.00    -0.084 A  
HETATM   20  C   UNL     2     -10.179   8.667  72.172  1.00  0.00    -0.394 A  
HETATM   21  C   UNL     2      -7.938   5.875  66.593  1.00  0.00    -0.102 A  
HETATM   22  C   UNL     2     -11.560   8.786  72.184  1.00  0.00    -0.434 A  
HETATM   23  C   UNL     2     -12.191   9.142  71.007  1.00  0.00    -0.242 A  
HETATM   24 CL   UNL     2      -7.300   4.485  65.807  1.00  0.00    -0.076 Cl 
HETATM   25  C   UNL     2      -9.033   6.539  66.050  1.00  0.00    -0.139 A  
HETATM   26  N   UNL     2     -11.541   9.369  69.843  1.00  0.00    -0.027 NA 
HETATM   27  C   UNL     2      -9.541   7.676  66.683  1.00  0.00    -0.271 A  
ENDBRANCH  12  13
ENDBRANCH   4  12
TORSDOF 2
ENDMDL
MODEL       59
REMARK 921   NORMALIZED FREE ENERGY PREDICTED BY IDOCK:   -4.92 KCAL/MOL
REMARK 922        TOTAL FREE ENERGY PREDICTED BY IDOCK:   -6.18 KCAL/MOL
REMARK 923 INTER-LIGAND FREE ENERGY PREDICTED BY IDOCK:   -5.28 KCAL/MOL
REMARK 924 INTRA-LIGAND FREE ENERGY PREDICTED BY IDOCK:   -0.90 KCAL/MOL
REMARK 927      BINDING AFFINITY PREDICTED BY RF-SCORE:    0.00 PKD
ROOT
HETATM    1  O   UNL     1      -8.721   3.994  70.830  1.00  0.00    -0.070 OA 
HETATM    2  C   UNL     1      -8.013   3.172  71.613  1.00  0.00    -0.057 C  
HETATM    3  C   UNL     2      -5.967   9.019  71.919  1.00  0.00    -0.073 C  
HETATM    4  N   UNL     2      -6.720   8.621  70.731  1.00  0.00    -0.042 NA 
HETATM    5  O   UNL     1      -7.249   2.333  71.160  1.00  0.00    -0.032 OA 
HETATM    6  C   UNL     1      -8.075   3.386  73.075  1.00  0.00    -0.073 C  
HETATM    7  C   UNL     1      -8.874   4.101  73.880  1.00  0.00    -0.092 C  
HETATM    8  O   UNL     1     -10.557   4.760  72.350  1.00  0.00    -0.206 OA 
HETATM    9  C   UNL     2      -5.794   8.265  69.652  1.00  0.00    -0.026 C  
HETATM   10  O   UNL     1     -10.445   5.770  74.364  1.00  0.00    -0.265 OA 
HETATM   11  C   UNL     1     -10.041   4.874  73.451  1.00  0.00    -0.166 C  
ENDROOT
BRANCH   4  12
HETATM   12  C   UNL     2      -7.649   7.512  70.985  1.00  0.00    -0.084 C  
BRANCH  12  13
HETATM   13  C   UNL     2      -9.061   7.958  71.408  1.00  0.00    -0.163 C  
HETATM   14  C   UNL     2      -9.888   8.623  70.286  1.00  0.00    -0.195 C  
HETATM   15  C   UNL     2     -11.147   9.308  70.822  1.00  0.00    -0.285 A  
HETATM   16  C   UNL     2     -10.167   7.662  69.130  1.00  0.00    -0.204 A  
HETATM   17  C   UNL     2     -12.116   8.621  71.556  1.00  0.00    -0.369 A  
HETATM   18  C   UNL     2     -10.836   6.438  69.313  1.00  0.00    -0.387 A  
HETATM   19  C   UNL     2     -11.029   5.561  68.245  1.00  0.00     0.108 A  
HETATM   20  C   UNL     2     -13.258   9.295  71.981  1.00  0.00    -0.519 A  
HETATM   21  C   UNL     2     -10.544   5.892  66.983  1.00  0.00    -0.305 A  
HETATM   22  C   UNL     2     -13.406  10.641  71.684  1.00  0.00    -0.407 A  
HETATM   23  C   UNL     2     -12.394  11.263  70.977  1.00  0.00    -0.366 A  
HETATM   24 CL   UNL     2     -10.755   4.795  65.675  1.00  0.00    -0.274 Cl 
HETATM   25  C   UNL     2      -9.879   7.096  66.778  1.00  0.00    -0.272 A  
HETATM   26  N   UNL     2     -11.276  10.634  70.550  1.00  0.00    -0.268 NA 
HETATM   27  C   UNL     2      -9.697   7.979  67.846  1.00  0.00    -0.189 A  
ENDBRANCH  12  13
ENDBRANCH   4  12
TORSDOF 2
ENDMDL
MODEL       60
REMARK 921   NORMALIZED FREE ENERGY PREDICTED BY IDOCK:   -4.91 KCAL/MOL
REMARK 922        TOTAL FREE ENERGY PREDICTED BY IDOCK:   -6.17 KCAL/MOL
REMARK 923 INTER-LIGAND FREE ENERGY PREDICTED BY IDOCK:   -5.24 KCAL/MOL
REMARK 924 INTRA-LIGAND FREE ENERGY PREDICTED BY IDOCK:   -0.93 KCAL/MOL
REMARK 927      BINDING AFFINITY PREDICTED BY RF-SCORE:    0.00 PKD
ROOT
HETATM    1  O   UNL     1     -11.353   9.975  67.543  1.00  0.00    -0.212 OA 
HETATM    2  C   UNL     1     -11.172  11.246  67.922  1.00  0.00    -0.290 C  
HETATM    3  C   UNL     2     -11.279   7.367  72.759  1.00  0.00    -0.332 C  
HETATM    4  N   UNL     2     -11.925   6.932  71.523  1.00  0.00    -0.323 NA 
HETATM    5  O   UNL     1     -12.060  12.082  67.852  1.00  0.00    -0.531 OA 
HETATM    6  C   UNL     1      -9.887  11.602  68.559  1.00  0.00    -0.196 C  
HETATM    7  C   UNL     1      -8.699  10.988  68.671  1.00  0.00    -0.161 C  
HETATM    8  O   UNL     1      -9.009   9.165  67.191  1.00  0.00    -0.122 OA 
HETATM    9  C   UNL     2     -13.366   7.197  71.596  1.00  0.00    -0.331 C  
HETATM   10  O   UNL     1      -7.255   9.145  68.609  1.00  0.00    -0.073 OA 
HETATM   11  C   UNL     1      -8.346   9.704  68.063  1.00  0.00    -0.117 C  
ENDROOT
BRANCH   4  12
HETATM   12  C   UNL     2     -11.357   7.565  70.325  1.00  0.00    -0.199 C  
BRANCH  12  13
HETATM   13  C   UNL     2     -10.977   6.572  69.210  1.00  0.00    -0.389 C  
HETATM   14  C   UNL     2      -9.493   6.143  69.210  1.00  0.00    -0.147 C  
HETATM   15  C   UNL     2      -9.103   5.405  67.928  1.00  0.00    -0.109 A  
HETATM   16  C   UNL     2      -9.114   5.386  70.484  1.00  0.00    -0.171 A  
HETATM   17  C   UNL     2      -9.760   4.250  67.502  1.00  0.00    -0.198 A  
HETATM   18  C   UNL     2      -9.769   4.208  70.883  1.00  0.00    -0.259 A  
HETATM   19  C   UNL     2      -9.432   3.570  72.078  1.00  0.00    -0.198 A  
HETATM   20  C   UNL     2      -9.330   3.604  66.346  1.00  0.00    -0.194 A  
HETATM   21  C   UNL     2      -8.444   4.111  72.894  1.00  0.00    -0.100 A  
HETATM   22  C   UNL     2      -8.267   4.130  65.627  1.00  0.00    -0.109 A  
HETATM   23  C   UNL     2      -7.681   5.292  66.093  1.00  0.00    -0.088 A  
HETATM   24 CL   UNL     2      -8.052   3.341  74.382  1.00  0.00    -0.069 Cl 
HETATM   25  C   UNL     2      -7.782   5.276  72.520  1.00  0.00    -0.098 A  
HETATM   26  N   UNL     2      -8.077   5.938  67.213  1.00  0.00    -0.102 NA 
HETATM   27  C   UNL     2      -8.112   5.907  71.318  1.00  0.00    -0.118 A  
ENDBRANCH  12  13
ENDBRANCH   4  12
TORSDOF 2
ENDMDL
MODEL       61
REMARK 921   NORMALIZED FREE ENERGY PREDICTED BY IDOCK:   -4.91 KCAL/MOL
REMARK 922        TOTAL FREE ENERGY PREDICTED BY IDOCK:   -6.17 KCAL/MOL
REMARK 923 INTER-LIGAND FREE ENERGY PREDICTED BY IDOCK:   -5.48 KCAL/MOL
REMARK 924 INTRA-LIGAND FREE ENERGY PREDICTED BY IDOCK:   -0.69 KCAL/MOL
REMARK 927      BINDING AFFINITY PREDICTED BY RF-SCORE:    0.00 PKD
ROOT
HETATM    1  O   UNL     1      -6.072  15.449  67.109  1.00  0.00    -0.306 OA 
HETATM    2  C   UNL     1      -5.865  16.510  67.897  1.00  0.00    -0.128 C  
HETATM    3  C   UNL     2     -11.674  14.382  68.334  1.00  0.00    -0.332 C  
HETATM    4  N   UNL     2     -10.920  14.062  67.124  1.00  0.00    -0.292 NA 
HETATM    5  O   UNL     1      -5.712  17.637  67.449  1.00  0.00    -0.136 OA 
HETATM    6  C   UNL     1      -5.953  16.315  69.359  1.00  0.00    -0.157 C  
HETATM    7  C   UNL     1      -5.978  15.236  70.156  1.00  0.00    -0.144 C  
HETATM    8  O   UNL     1      -5.461  13.530  68.598  1.00  0.00    -0.076 OA 
HETATM    9  C   UNL     2     -11.259  15.014  66.061  1.00  0.00    -0.310 C  
HETATM   10  O   UNL     1      -6.261  12.959  70.628  1.00  0.00    -0.111 OA 
HETATM   11  C   UNL     1      -5.848  13.847  69.711  1.00  0.00    -0.117 C  
ENDROOT
BRANCH   4  12
HETATM   12  C   UNL     2      -9.467  14.045  67.340  1.00  0.00    -0.225 C  
BRANCH  12  13
HETATM   13  C   UNL     2      -8.985  12.934  68.291  1.00  0.00    -0.175 C  
HETATM   14  C   UNL     2      -9.648  11.559  68.060  1.00  0.00    -0.180 C  
HETATM   15  C   UNL     2      -9.365  10.580  69.202  1.00  0.00    -0.187 A  
HETATM   16  C   UNL     2      -9.322  10.988  66.680  1.00  0.00    -0.196 A  
HETATM   17  C   UNL     2      -8.068  10.238  69.589  1.00  0.00    -0.157 A  
HETATM   18  C   UNL     2      -8.003  10.764  66.249  1.00  0.00    -0.160 A  
HETATM   19  C   UNL     2      -7.739  10.290  64.963  1.00  0.00    -0.129 A  
HETATM   20  C   UNL     2      -7.879   9.310  70.610  1.00  0.00    -0.181 A  
HETATM   21  C   UNL     2      -8.793  10.047  64.087  1.00  0.00    -0.221 A  
HETATM   22  C   UNL     2      -8.983   8.755  71.238  1.00  0.00    -0.295 A  
HETATM   23  C   UNL     2     -10.238   9.160  70.821  1.00  0.00    -0.260 A  
HETATM   24 CL   UNL     2      -8.465   9.494  62.491  1.00  0.00    -0.171 Cl 
HETATM   25  C   UNL     2     -10.107  10.262  64.490  1.00  0.00    -0.286 A  
HETATM   26  N   UNL     2     -10.450  10.056  69.831  1.00  0.00    -0.257 NA 
HETATM   27  C   UNL     2     -10.370  10.725  65.782  1.00  0.00    -0.295 A  
ENDBRANCH  12  13
ENDBRANCH   4  12
TORSDOF 2
ENDMDL
MODEL       62
REMARK 921   NORMALIZED FREE ENERGY PREDICTED BY IDOCK:   -4.83 KCAL/MOL
REMARK 922        TOTAL FREE ENERGY PREDICTED BY IDOCK:   -6.08 KCAL/MOL
REMARK 923 INTER-LIGAND FREE ENERGY PREDICTED BY IDOCK:   -5.28 KCAL/MOL
REMARK 924 INTRA-LIGAND FREE ENERGY PREDICTED BY IDOCK:   -0.80 KCAL/MOL
REMARK 927      BINDING AFFINITY PREDICTED BY RF-SCORE:    0.00 PKD
ROOT
HETATM    1  O   UNL     1      -6.442  15.465  67.135  1.00  0.00    -0.300 OA 
HETATM    2  C   UNL     1      -5.544  16.135  67.866  1.00  0.00    -0.128 C  
HETATM    3  C   UNL     2     -11.075  15.853  70.657  1.00  0.00    -0.346 C  
HETATM    4  N   UNL     2     -11.034  15.685  69.207  1.00  0.00    -0.247 NA 
HETATM    5  O   UNL     1      -5.132  17.239  67.545  1.00  0.00    -0.106 OA 
HETATM    6  C   UNL     1      -5.141  15.559  69.166  1.00  0.00    -0.096 C  
HETATM    7  C   UNL     1      -5.294  14.357  69.742  1.00  0.00    -0.093 C  
HETATM    8  O   UNL     1      -6.141  13.105  67.919  1.00  0.00    -0.108 OA 
HETATM    9  C   UNL     2     -11.337  16.961  68.550  1.00  0.00     0.021 C  
HETATM   10  O   UNL     1      -6.268  12.242  69.999  1.00  0.00    -0.143 OA 
HETATM   11  C   UNL     1      -5.913  13.188  69.116  1.00  0.00    -0.086 C  
ENDROOT
BRANCH   4  12
HETATM   12  C   UNL     2      -9.748  15.163  68.725  1.00  0.00    -0.221 C  
BRANCH  12  13
HETATM   13  C   UNL     2      -9.536  13.662  68.999  1.00  0.00     0.217 C  
HETATM   14  C   UNL     2     -10.762  12.774  68.694  1.00  0.00    -0.273 C  
HETATM   15  C   UNL     2     -10.606  11.359  69.256  1.00  0.00    -0.108 A  
HETATM   16  C   UNL     2     -11.134  12.798  67.211  1.00  0.00    -0.314 A  
HETATM   17  C   UNL     2      -9.533  10.534  68.916  1.00  0.00    -0.199 A  
HETATM   18  C   UNL     2     -10.231  12.424  66.201  1.00  0.00    -0.262 A  
HETATM   19  C   UNL     2     -10.587  12.508  64.854  1.00  0.00    -0.330 A  
HETATM   20  C   UNL     2      -9.471   9.242  69.432  1.00  0.00    -0.169 A  
HETATM   21  C   UNL     2     -11.848  12.979  64.501  1.00  0.00    -0.377 A  
HETATM   22  C   UNL     2     -10.468   8.803  70.290  1.00  0.00    -0.231 A  
HETATM   23  C   UNL     2     -11.487   9.683  70.603  1.00  0.00    -0.306 A  
HETATM   24 CL   UNL     2     -12.274  13.111  62.840  1.00  0.00    -0.075 Cl 
HETATM   25  C   UNL     2     -12.759  13.354  65.483  1.00  0.00    -0.469 A  
HETATM   26  N   UNL     2     -11.573  10.941  70.115  1.00  0.00    -0.314 NA 
HETATM   27  C   UNL     2     -12.405  13.260  66.832  1.00  0.00    -0.220 A  
ENDBRANCH  12  13
ENDBRANCH   4  12
TORSDOF 2
ENDMDL
MODEL       63
REMARK 921   NORMALIZED FREE ENERGY PREDICTED BY IDOCK:   -4.82 KCAL/MOL
REMARK 922        TOTAL FREE ENERGY PREDICTED BY IDOCK:   -6.07 KCAL/MOL
REMARK 923 INTER-LIGAND FREE ENERGY PREDICTED BY IDOCK:   -5.19 KCAL/MOL
REMARK 924 INTRA-LIGAND FREE ENERGY PREDICTED BY IDOCK:   -0.88 KCAL/MOL
REMARK 927      BINDING AFFINITY PREDICTED BY RF-SCORE:    0.00 PKD
ROOT
HETATM    1  O   UNL     1     -11.583  10.985  67.448  1.00  0.00    -0.525 OA 
HETATM    2  C   UNL     1     -11.236  12.234  67.778  1.00  0.00    -0.276 C  
HETATM    3  C   UNL     2     -10.497   8.288  72.504  1.00  0.00    -0.336 C  
HETATM    4  N   UNL     2     -11.436   7.917  71.448  1.00  0.00    -0.255 NA 
HETATM    5  O   UNL     1     -12.059  13.127  67.915  1.00  0.00    -0.321 OA 
HETATM    6  C   UNL     1      -9.819  12.495  68.105  1.00  0.00    -0.221 C  
HETATM    7  C   UNL     1      -8.680  11.804  67.941  1.00  0.00    -0.164 C  
HETATM    8  O   UNL     1      -9.441  10.031  66.568  1.00  0.00    -0.162 OA 
HETATM    9  C   UNL     2     -12.801   8.273  71.848  1.00  0.00    -0.344 C  
HETATM   10  O   UNL     1      -7.416   9.872  67.547  1.00  0.00    -0.090 OA 
HETATM   11  C   UNL     1      -8.562  10.510  67.266  1.00  0.00    -0.122 C  
ENDROOT
BRANCH   4  12
HETATM   12  C   UNL     2     -11.114   8.532  70.152  1.00  0.00    -0.188 C  
BRANCH  12  13
HETATM   13  C   UNL     2     -11.002   7.528  68.990  1.00  0.00     0.004 C  
HETATM   14  C   UNL     2      -9.574   7.000  68.734  1.00  0.00    -0.139 C  
HETATM   15  C   UNL     2      -9.463   6.251  67.404  1.00  0.00    -0.115 A  
HETATM   16  C   UNL     2      -9.032   6.206  69.923  1.00  0.00    -0.139 A  
HETATM   17  C   UNL     2     -10.260   5.146  67.100  1.00  0.00    -0.254 A  
HETATM   18  C   UNL     2      -9.686   5.070  70.432  1.00  0.00    -0.280 A  
HETATM   19  C   UNL     2      -9.191   4.399  71.551  1.00  0.00    -0.190 A  
HETATM   20  C   UNL     2     -10.082   4.484  65.888  1.00  0.00    -0.279 A  
HETATM   21  C   UNL     2      -8.042   4.864  72.182  1.00  0.00    -0.111 A  
HETATM   22  C   UNL     2      -9.127   4.945  64.994  1.00  0.00    -0.133 A  
HETATM   23  C   UNL     2      -8.392   6.060  65.350  1.00  0.00    -0.150 A  
HETATM   24 CL   UNL     2      -7.451   4.054  73.581  1.00  0.00    -0.073 Cl 
HETATM   25  C   UNL     2      -7.377   5.985  71.697  1.00  0.00    -0.093 A  
HETATM   26  N   UNL     2      -8.542   6.720  66.521  1.00  0.00    -0.123 NA 
HETATM   27  C   UNL     2      -7.867   6.650  70.570  1.00  0.00    -0.106 A  
ENDBRANCH  12  13
ENDBRANCH   4  12
TORSDOF 2
ENDMDL
MODEL       64
REMARK 921   NORMALIZED FREE ENERGY PREDICTED BY IDOCK:   -4.81 KCAL/MOL
REMARK 922        TOTAL FREE ENERGY PREDICTED BY IDOCK:   -6.06 KCAL/MOL
REMARK 923 INTER-LIGAND FREE ENERGY PREDICTED BY IDOCK:   -5.29 KCAL/MOL
REMARK 924 INTRA-LIGAND FREE ENERGY PREDICTED BY IDOCK:   -0.77 KCAL/MOL
REMARK 927      BINDING AFFINITY PREDICTED BY RF-SCORE:    0.00 PKD
ROOT
HETATM    1  O   UNL     1      -8.794   6.665  70.538  1.00  0.00    -0.149 OA 
HETATM    2  C   UNL     1      -8.663   6.649  71.869  1.00  0.00    -0.128 C  
HETATM    3  C   UNL     2      -6.554  11.925  69.385  1.00  0.00    -0.108 C  
HETATM    4  N   UNL     2      -6.624  10.747  68.524  1.00  0.00    -0.054 NA 
HETATM    5  O   UNL     1      -7.854   5.933  72.438  1.00  0.00    -0.101 OA 
HETATM    6  C   UNL     1      -9.446   7.628  72.653  1.00  0.00    -0.230 C  
HETATM    7  C   UNL     1     -10.478   8.437  72.372  1.00  0.00    -0.402 C  
HETATM    8  O   UNL     1     -11.074   7.652  70.218  1.00  0.00    -0.260 OA 
HETATM    9  C   UNL     2      -5.311  10.096  68.465  1.00  0.00    -0.038 C  
HETATM   10  O   UNL     1     -11.919   9.611  70.946  1.00  0.00    -0.285 OA 
HETATM   11  C   UNL     1     -11.186   8.497  71.091  1.00  0.00    -0.267 C  
ENDROOT
BRANCH   4  12
HETATM   12  C   UNL     2      -7.646   9.782  68.952  1.00  0.00    -0.081 C  
BRANCH  12  13
HETATM   13  C   UNL     2      -7.805   8.574  68.011  1.00  0.00    -0.103 C  
HETATM   14  C   UNL     2      -9.232   8.373  67.458  1.00  0.00    -0.158 C  
HETATM   15  C   UNL     2      -9.406   7.013  66.780  1.00  0.00    -0.156 A  
HETATM   16  C   UNL     2      -9.681   9.546  66.585  1.00  0.00    -0.270 A  
HETATM   17  C   UNL     2      -8.601   6.600  65.717  1.00  0.00    -0.147 A  
HETATM   18  C   UNL     2      -8.969   9.950  65.442  1.00  0.00    -0.220 A  
HETATM   19  C   UNL     2      -9.378  11.057  64.697  1.00  0.00    -0.235 A  
HETATM   20  C   UNL     2      -8.837   5.365  65.118  1.00  0.00    -0.111 A  
HETATM   21  C   UNL     2     -10.499  11.781  65.094  1.00  0.00    -0.283 A  
HETATM   22  C   UNL     2      -9.855   4.557  65.601  1.00  0.00    -0.227 A  
HETATM   23  C   UNL     2     -10.595   5.019  66.673  1.00  0.00    -0.195 A  
HETATM   24 CL   UNL     2     -10.983  13.164  64.193  1.00  0.00    -0.417 Cl 
HETATM   25  C   UNL     2     -11.219  11.400  66.221  1.00  0.00    -0.228 A  
HETATM   26  N   UNL     2     -10.390   6.214  67.272  1.00  0.00    -0.187 NA 
HETATM   27  C   UNL     2     -10.815  10.285  66.960  1.00  0.00    -0.248 A  
ENDBRANCH  12  13
ENDBRANCH   4  12
TORSDOF 2
ENDMDL
MODEL       65
REMARK 921   NORMALIZED FREE ENERGY PREDICTED BY IDOCK:   -4.77 KCAL/MOL
REMARK 922        TOTAL FREE ENERGY PREDICTED BY IDOCK:   -6.02 KCAL/MOL
REMARK 923 INTER-LIGAND FREE ENERGY PREDICTED BY IDOCK:   -5.25 KCAL/MOL
REMARK 924 INTRA-LIGAND FREE ENERGY PREDICTED BY IDOCK:   -0.77 KCAL/MOL
REMARK 927      BINDING AFFINITY PREDICTED BY RF-SCORE:    0.00 PKD
ROOT
HETATM    1  O   UNL     1     -10.032  14.640  68.366  1.00  0.00    -0.214 OA 
HETATM    2  C   UNL     1      -9.602  15.426  69.360  1.00  0.00    -0.270 C  
HETATM    3  C   UNL     2      -8.587   9.422  70.537  1.00  0.00    -0.223 C  
HETATM    4  N   UNL     2      -9.637   9.761  69.579  1.00  0.00    -0.197 NA 
HETATM    5  O   UNL     1     -10.369  16.022  70.101  1.00  0.00    -0.253 OA 
HETATM    6  C   UNL     1      -8.150  15.464  69.633  1.00  0.00    -0.134 C  
HETATM    7  C   UNL     1      -7.063  15.052  68.963  1.00  0.00    -0.133 C  
HETATM    8  O   UNL     1      -8.027  14.488  66.874  1.00  0.00    -0.115 OA 
HETATM    9  C   UNL     2     -10.941   9.758  70.249  1.00  0.00    -0.298 C  
HETATM   10  O   UNL     1      -5.926  13.810  67.335  1.00  0.00    -0.348 OA 
HETATM   11  C   UNL     1      -7.065  14.455  67.626  1.00  0.00    -0.183 C  
ENDROOT
BRANCH   4  12
HETATM   12  C   UNL     2      -9.414  11.053  68.915  1.00  0.00    -0.155 C  
BRANCH  12  13
HETATM   13  C   UNL     2     -10.409  11.356  67.780  1.00  0.00    -0.206 C  
HETATM   14  C   UNL     2      -9.753  11.747  66.438  1.00  0.00    -0.234 C  
HETATM   15  C   UNL     2     -10.765  12.320  65.443  1.00  0.00    -0.284 A  
HETATM   16  C   UNL     2      -8.912  10.610  65.857  1.00  0.00    -0.192 A  
HETATM   17  C   UNL     2     -11.899  11.614  65.040  1.00  0.00     0.021 A  
HETATM   18  C   UNL     2      -9.452   9.342  65.572  1.00  0.00    -0.328 A  
HETATM   19  C   UNL     2      -8.644   8.311  65.091  1.00  0.00    -0.132 A  
HETATM   20  C   UNL     2     -12.760  12.177  64.101  1.00  0.00    -0.416 A  
HETATM   21  C   UNL     2      -7.283   8.532  64.900  1.00  0.00    -0.084 A  
HETATM   22  C   UNL     2     -12.486  13.439  63.596  1.00  0.00    -0.316 A  
HETATM   23  C   UNL     2     -11.359  14.091  64.061  1.00  0.00    -0.015 A  
HETATM   24 CL   UNL     2      -6.283   7.250  64.337  1.00  0.00    -0.037 Cl 
HETATM   25  C   UNL     2      -6.727   9.777  65.175  1.00  0.00    -0.101 A  
HETATM   26  N   UNL     2     -10.505  13.567  64.969  1.00  0.00    -0.356 NA 
HETATM   27  C   UNL     2      -7.538  10.812  65.646  1.00  0.00    -0.044 A  
ENDBRANCH  12  13
ENDBRANCH   4  12
TORSDOF 2
ENDMDL
MODEL       66
REMARK 921   NORMALIZED FREE ENERGY PREDICTED BY IDOCK:   -4.76 KCAL/MOL
REMARK 922        TOTAL FREE ENERGY PREDICTED BY IDOCK:   -6.00 KCAL/MOL
REMARK 923 INTER-LIGAND FREE ENERGY PREDICTED BY IDOCK:   -5.17 KCAL/MOL
REMARK 924 INTRA-LIGAND FREE ENERGY PREDICTED BY IDOCK:   -0.83 KCAL/MOL
REMARK 927      BINDING AFFINITY PREDICTED BY RF-SCORE:    0.00 PKD
ROOT
HETATM    1  O   UNL     1     -12.821   8.057  70.830  1.00  0.00    -0.065 OA 
HETATM    2  C   UNL     1     -12.948   7.103  71.760  1.00  0.00    -0.325 C  
HETATM    3  C   UNL     2      -8.863   5.541  67.363  1.00  0.00    -0.105 C  
HETATM    4  N   UNL     2      -9.873   6.542  67.030  1.00  0.00    -0.148 NA 
HETATM    5  O   UNL     1     -13.954   6.418  71.861  1.00  0.00     0.006 OA 
HETATM    6  C   UNL     1     -11.773   6.799  72.604  1.00  0.00    -0.117 C  
HETATM    7  C   UNL     1     -10.605   7.417  72.834  1.00  0.00    -0.370 C  
HETATM    8  O   UNL     1     -10.987   9.490  71.755  1.00  0.00    -0.333 OA 
HETATM    9  C   UNL     2     -10.995   5.903  66.333  1.00  0.00     0.052 C  
HETATM   10  O   UNL     1      -8.887   8.939  72.366  1.00  0.00    -0.396 OA 
HETATM   11  C   UNL     1     -10.207   8.715  72.287  1.00  0.00    -0.301 C  
ENDROOT
BRANCH   4  12
HETATM   12  C   UNL     2     -10.363   7.278  68.204  1.00  0.00    -0.194 C  
BRANCH  12  13
HETATM   13  C   UNL     2      -9.326   8.231  68.826  1.00  0.00    -0.143 C  
HETATM   14  C   UNL     2      -8.629   9.169  67.816  1.00  0.00    -0.121 C  
HETATM   15  C   UNL     2      -7.415   9.875  68.424  1.00  0.00    -0.082 A  
HETATM   16  C   UNL     2      -9.615  10.128  67.147  1.00  0.00    -0.202 A  
HETATM   17  C   UNL     2      -7.507  10.667  69.570  1.00  0.00    -0.132 A  
HETATM   18  C   UNL     2     -10.417  11.018  67.883  1.00  0.00    -0.223 A  
HETATM   19  C   UNL     2     -11.343  11.844  67.244  1.00  0.00    -0.393 A  
HETATM   20  C   UNL     2      -6.371  11.314  70.049  1.00  0.00    -0.140 A  
HETATM   21  C   UNL     2     -11.487  11.779  65.861  1.00  0.00    -0.207 A  
HETATM   22  C   UNL     2      -5.163  11.147  69.390  1.00  0.00    -0.044 A  
HETATM   23  C   UNL     2      -5.140  10.327  68.277  1.00  0.00    -0.035 A  
HETATM   24 CL   UNL     2     -12.652  12.774  65.078  1.00  0.00    -0.569 Cl 
HETATM   25  C   UNL     2     -10.705  10.906  65.113  1.00  0.00    -0.209 A  
HETATM   26  N   UNL     2      -6.228   9.689  67.788  1.00  0.00    -0.052 NA 
HETATM   27  C   UNL     2      -9.770  10.088  65.752  1.00  0.00    -0.321 A  
ENDBRANCH  12  13
ENDBRANCH   4  12
TORSDOF 2
ENDMDL
MODEL       67
REMARK 921   NORMALIZED FREE ENERGY PREDICTED BY IDOCK:   -4.75 KCAL/MOL
REMARK 922        TOTAL FREE ENERGY PREDICTED BY IDOCK:   -6.00 KCAL/MOL
REMARK 923 INTER-LIGAND FREE ENERGY PREDICTED BY IDOCK:   -5.38 KCAL/MOL
REMARK 924 INTRA-LIGAND FREE ENERGY PREDICTED BY IDOCK:   -0.61 KCAL/MOL
REMARK 927      BINDING AFFINITY PREDICTED BY RF-SCORE:    0.00 PKD
ROOT
HETATM    1  O   UNL     1      -9.201  15.101  67.988  1.00  0.00    -0.182 OA 
HETATM    2  C   UNL     1      -9.597  16.367  67.816  1.00  0.00    -0.231 C  
HETATM    3  C   UNL     2     -12.859  12.411  64.328  1.00  0.00    -0.258 C  
HETATM    4  N   UNL     2     -11.536  11.989  64.780  1.00  0.00    -0.317 NA 
HETATM    5  O   UNL     1      -8.911  17.195  67.235  1.00  0.00    -0.216 OA 
HETATM    6  C   UNL     1     -10.967  16.727  68.240  1.00  0.00    -0.327 C  
HETATM    7  C   UNL     1     -11.899  16.125  68.994  1.00  0.00    -0.181 C  
HETATM    8  O   UNL     1     -10.645  14.322  69.881  1.00  0.00     0.036 OA 
HETATM    9  C   UNL     2     -10.548  12.237  63.725  1.00  0.00    -0.451 C  
HETATM   10  O   UNL     1     -12.891  14.299  70.074  1.00  0.00    -0.233 OA 
HETATM   11  C   UNL     1     -11.729  14.855  69.701  1.00  0.00    -0.320 C  
ENDROOT
BRANCH   4  12
HETATM   12  C   UNL     2     -11.117  12.647  66.026  1.00  0.00    -0.287 C  
BRANCH  12  13
HETATM   13  C   UNL     2      -9.602  12.583  66.292  1.00  0.00    -0.246 C  
HETATM   14  C   UNL     2      -9.200  11.726  67.513  1.00  0.00    -0.175 C  
HETATM   15  C   UNL     2      -7.737  11.933  67.909  1.00  0.00    -0.131 A  
HETATM   16  C   UNL     2      -9.576  10.255  67.331  1.00  0.00    -0.183 A  
HETATM   17  C   UNL     2      -6.683  11.718  67.019  1.00  0.00    -0.139 A  
HETATM   18  C   UNL     2      -9.105   9.485  66.253  1.00  0.00    -0.202 A  
HETATM   19  C   UNL     2      -9.509   8.159  66.090  1.00  0.00    -0.217 A  
HETATM   20  C   UNL     2      -5.372  11.886  67.455  1.00  0.00    -0.084 A  
HETATM   21  C   UNL     2     -10.399   7.591  66.996  1.00  0.00    -0.324 A  
HETATM   22  C   UNL     2      -5.134  12.283  68.762  1.00  0.00    -0.054 A  
HETATM   23  C   UNL     2      -6.226  12.504  69.581  1.00  0.00    -0.126 A  
HETATM   24 CL   UNL     2     -10.920   5.967  66.775  1.00  0.00    -0.348 Cl 
HETATM   25  C   UNL     2     -10.878   8.334  68.070  1.00  0.00    -0.008 A  
HETATM   26  N   UNL     2      -7.509  12.346  69.185  1.00  0.00     0.080 NA 
HETATM   27  C   UNL     2     -10.464   9.657  68.240  1.00  0.00    -0.259 A  
ENDBRANCH  12  13
ENDBRANCH   4  12
TORSDOF 2
ENDMDL
MODEL       68
REMARK 921   NORMALIZED FREE ENERGY PREDICTED BY IDOCK:   -4.75 KCAL/MOL
REMARK 922        TOTAL FREE ENERGY PREDICTED BY IDOCK:   -5.99 KCAL/MOL
REMARK 923 INTER-LIGAND FREE ENERGY PREDICTED BY IDOCK:   -5.32 KCAL/MOL
REMARK 924 INTRA-LIGAND FREE ENERGY PREDICTED BY IDOCK:   -0.67 KCAL/MOL
REMARK 927      BINDING AFFINITY PREDICTED BY RF-SCORE:    0.00 PKD
ROOT
HETATM    1  O   UNL     1     -11.722   9.883  69.970  1.00  0.00    -0.215 OA 
HETATM    2  C   UNL     1     -12.215  10.994  70.530  1.00  0.00    -0.381 C  
HETATM    3  C   UNL     2      -6.015  10.895  70.626  1.00  0.00    -0.087 C  
HETATM    4  N   UNL     2      -6.715   9.618  70.512  1.00  0.00    -0.105 NA 
HETATM    5  O   UNL     1     -12.794  10.982  71.606  1.00  0.00    -0.430 OA 
HETATM    6  C   UNL     1     -11.931  12.286  69.871  1.00  0.00    -0.377 C  
HETATM    7  C   UNL     1     -11.457  12.634  68.665  1.00  0.00    -0.347 C  
HETATM    8  O   UNL     1     -11.482  10.537  67.565  1.00  0.00    -0.431 OA 
HETATM    9  C   UNL     2      -6.830   8.993  71.834  1.00  0.00     0.069 C  
HETATM   10  O   UNL     1     -10.352  12.254  66.635  1.00  0.00    -0.213 OA 
HETATM   11  C   UNL     1     -11.132  11.707  67.580  1.00  0.00    -0.255 C  
ENDROOT
BRANCH   4  12
HETATM   12  C   UNL     2      -8.044   9.744  69.898  1.00  0.00    -0.182 C  
BRANCH  12  13
HETATM   13  C   UNL     2      -8.231   8.899  68.624  1.00  0.00    -0.116 C  
HETATM   14  C   UNL     2      -7.983   7.387  68.814  1.00  0.00    -0.123 C  
HETATM   15  C   UNL     2      -7.889   6.644  67.480  1.00  0.00    -0.111 A  
HETATM   16  C   UNL     2      -8.980   6.759  69.788  1.00  0.00    -0.144 A  
HETATM   17  C   UNL     2      -8.915   6.673  66.534  1.00  0.00    -0.155 A  
HETATM   18  C   UNL     2     -10.370   6.813  69.583  1.00  0.00    -0.223 A  
HETATM   19  C   UNL     2     -11.254   6.274  70.518  1.00  0.00    -0.420 A  
HETATM   20  C   UNL     2      -8.783   5.942  65.356  1.00  0.00    -0.109 A  
HETATM   21  C   UNL     2     -10.759   5.684  71.677  1.00  0.00    -0.251 A  
HETATM   22  C   UNL     2      -7.625   5.211  65.134  1.00  0.00    -0.082 A  
HETATM   23  C   UNL     2      -6.640   5.249  66.103  1.00  0.00    -0.048 A  
HETATM   24 CL   UNL     2     -11.851   5.048  72.845  1.00  0.00    -0.236 Cl 
HETATM   25  C   UNL     2      -9.387   5.619  71.902  1.00  0.00    -0.161 A  
HETATM   26  N   UNL     2      -6.743   5.947  67.256  1.00  0.00    -0.059 NA 
HETATM   27  C   UNL     2      -8.503   6.149  70.959  1.00  0.00    -0.128 A  
ENDBRANCH  12  13
ENDBRANCH   4  12
TORSDOF 2
ENDMDL
MODEL       69
REMARK 921   NORMALIZED FREE ENERGY PREDICTED BY IDOCK:   -4.69 KCAL/MOL
REMARK 922        TOTAL FREE ENERGY PREDICTED BY IDOCK:   -5.93 KCAL/MOL
REMARK 923 INTER-LIGAND FREE ENERGY PREDICTED BY IDOCK:   -5.11 KCAL/MOL
REMARK 924 INTRA-LIGAND FREE ENERGY PREDICTED BY IDOCK:   -0.82 KCAL/MOL
REMARK 927      BINDING AFFINITY PREDICTED BY RF-SCORE:    0.00 PKD
ROOT
HETATM    1  O   UNL     1      -6.993   9.068  72.338  1.00  0.00    -0.320 OA 
HETATM    2  C   UNL     1      -6.733   8.452  73.497  1.00  0.00    -0.099 C  
HETATM    3  C   UNL     2     -12.443   7.200  71.427  1.00  0.00    -0.388 C  
HETATM    4  N   UNL     2     -11.798   8.421  70.950  1.00  0.00    -0.259 NA 
HETATM    5  O   UNL     1      -6.638   9.058  74.553  1.00  0.00    -0.318 OA 
HETATM    6  C   UNL     1      -6.684   6.975  73.499  1.00  0.00    -0.066 C  
HETATM    7  C   UNL     1      -6.620   6.041  72.538  1.00  0.00    -0.068 C  
HETATM    8  O   UNL     1      -6.220   7.399  70.639  1.00  0.00    -0.034 OA 
HETATM    9  C   UNL     2     -12.247   9.566  71.749  1.00  0.00    -0.387 C  
HETATM   10  O   UNL     1      -6.823   5.246  70.344  1.00  0.00    -0.044 OA 
HETATM   11  C   UNL     1      -6.509   6.307  71.102  1.00  0.00    -0.049 C  
ENDROOT
BRANCH   4  12
HETATM   12  C   UNL     2     -10.331   8.340  70.967  1.00  0.00    -0.191 C  
BRANCH  12  13
HETATM   13  C   UNL     2      -9.737   7.460  69.851  1.00  0.00    -0.171 C  
HETATM   14  C   UNL     2     -10.329   7.716  68.448  1.00  0.00    -0.228 C  
HETATM   15  C   UNL     2      -9.931   6.631  67.445  1.00  0.00    -0.145 A  
HETATM   16  C   UNL     2     -10.042   9.133  67.953  1.00  0.00    -0.246 A  
HETATM   17  C   UNL     2      -8.598   6.323  67.167  1.00  0.00    -0.107 A  
HETATM   18  C   UNL     2      -8.736   9.637  67.825  1.00  0.00    -0.122 A  
HETATM   19  C   UNL     2      -8.511  10.953  67.419  1.00  0.00    -0.120 A  
HETATM   20  C   UNL     2      -8.303   5.352  66.214  1.00  0.00    -0.115 A  
HETATM   21  C   UNL     2      -9.593  11.786  67.147  1.00  0.00    -0.181 A  
HETATM   22  C   UNL     2      -9.339   4.694  65.569  1.00  0.00    -0.159 A  
HETATM   23  C   UNL     2     -10.635   5.031  65.913  1.00  0.00    -0.183 A  
HETATM   24 CL   UNL     2      -9.315  13.417  66.676  1.00  0.00    -0.258 Cl 
HETATM   25  C   UNL     2     -10.894  11.310  67.266  1.00  0.00    -0.317 A  
HETATM   26  N   UNL     2     -10.950   5.972  66.832  1.00  0.00    -0.313 NA 
HETATM   27  C   UNL     2     -11.118   9.989  67.662  1.00  0.00    -0.222 A  
ENDBRANCH  12  13
ENDBRANCH   4  12
TORSDOF 2
ENDMDL
MODEL       70
REMARK 921   NORMALIZED FREE ENERGY PREDICTED BY IDOCK:   -4.65 KCAL/MOL
REMARK 922        TOTAL FREE ENERGY PREDICTED BY IDOCK:   -5.88 KCAL/MOL
REMARK 923 INTER-LIGAND FREE ENERGY PREDICTED BY IDOCK:   -5.50 KCAL/MOL
REMARK 924 INTRA-LIGAND FREE ENERGY PREDICTED BY IDOCK:   -0.38 KCAL/MOL
REMARK 927      BINDING AFFINITY PREDICTED BY RF-SCORE:    0.00 PKD
ROOT
HETATM    1  O   UNL     1      -8.677  10.733  64.909  1.00  0.00    -0.180 OA 
HETATM    2  C   UNL     1      -7.643  10.006  64.470  1.00  0.00    -0.142 C  
HETATM    3  C   UNL     2      -6.013  13.823  69.077  1.00  0.00    -0.083 C  
HETATM    4  N   UNL     2      -7.205  14.160  68.303  1.00  0.00    -0.103 NA 
HETATM    5  O   UNL     1      -7.130  10.193  63.377  1.00  0.00    -0.133 OA 
HETATM    6  C   UNL     1      -7.037   9.032  65.401  1.00  0.00    -0.081 C  
HETATM    7  C   UNL     1      -7.413   8.506  66.577  1.00  0.00    -0.088 C  
HETATM    8  O   UNL     1      -9.645   9.286  66.709  1.00  0.00    -0.158 OA 
HETATM    9  C   UNL     2      -6.862  15.134  67.262  1.00  0.00    -0.040 C  
HETATM   10  O   UNL     1      -8.673   8.417  68.549  1.00  0.00    -0.135 OA 
HETATM   11  C   UNL     1      -8.687   8.759  67.252  1.00  0.00    -0.129 C  
ENDROOT
BRANCH   4  12
HETATM   12  C   UNL     2      -7.850  12.985  67.701  1.00  0.00    -0.166 C  
BRANCH  12  13
HETATM   13  C   UNL     2      -8.962  12.365  68.568  1.00  0.00    -0.058 C  
HETATM   14  C   UNL     2     -10.316  13.103  68.500  1.00  0.00    -0.245 C  
HETATM   15  C   UNL     2     -11.285  12.636  69.588  1.00  0.00    -0.007 A  
HETATM   16  C   UNL     2     -10.921  13.068  67.096  1.00  0.00    -0.293 A  
HETATM   17  C   UNL     2     -11.667  11.301  69.726  1.00  0.00    -0.422 A  
HETATM   18  C   UNL     2     -11.199  11.864  66.425  1.00  0.00    -0.387 A  
HETATM   19  C   UNL     2     -11.703  11.869  65.124  1.00  0.00    -0.244 A  
HETATM   20  C   UNL     2     -12.584  10.948  70.714  1.00  0.00    -0.470 A  
HETATM   21  C   UNL     2     -11.922  13.079  64.472  1.00  0.00    -0.394 A  
HETATM   22  C   UNL     2     -13.089  11.927  71.555  1.00  0.00    -0.377 A  
HETATM   23  C   UNL     2     -12.646  13.225  71.378  1.00  0.00    -0.271 A  
HETATM   24 CL   UNL     2     -12.513  13.082  62.857  1.00  0.00     0.003 Cl 
HETATM   25  C   UNL     2     -11.654  14.282  65.116  1.00  0.00    -0.355 A  
HETATM   26  N   UNL     2     -11.760  13.596  70.426  1.00  0.00    -0.213 NA 
HETATM   27  C   UNL     2     -11.161  14.277  66.423  1.00  0.00    -0.325 A  
ENDBRANCH  12  13
ENDBRANCH   4  12
TORSDOF 2
ENDMDL
MODEL       71
REMARK 921   NORMALIZED FREE ENERGY PREDICTED BY IDOCK:   -4.61 KCAL/MOL
REMARK 922        TOTAL FREE ENERGY PREDICTED BY IDOCK:   -5.83 KCAL/MOL
REMARK 923 INTER-LIGAND FREE ENERGY PREDICTED BY IDOCK:   -4.86 KCAL/MOL
REMARK 924 INTRA-LIGAND FREE ENERGY PREDICTED BY IDOCK:   -0.97 KCAL/MOL
REMARK 927      BINDING AFFINITY PREDICTED BY RF-SCORE:    0.00 PKD
ROOT
HETATM    1  O   UNL     1      -7.272  15.126  67.197  1.00  0.00    -0.187 OA 
HETATM    2  C   UNL     1      -6.973  15.716  68.360  1.00  0.00    -0.115 C  
HETATM    3  C   UNL     2     -11.436  11.457  68.989  1.00  0.00    -0.300 C  
HETATM    4  N   UNL     2     -11.230  12.037  67.664  1.00  0.00    -0.262 NA 
HETATM    5  O   UNL     1      -7.266  16.877  68.600  1.00  0.00    -0.191 OA 
HETATM    6  C   UNL     1      -6.378  14.882  69.426  1.00  0.00    -0.124 C  
HETATM    7  C   UNL     1      -5.831  13.657  69.457  1.00  0.00    -0.102 C  
HETATM    8  O   UNL     1      -5.693  13.183  67.140  1.00  0.00    -0.341 OA 
HETATM    9  C   UNL     2     -12.185  13.128  67.446  1.00  0.00    -0.140 C  
HETATM   10  O   UNL     1      -5.400  11.510  68.625  1.00  0.00    -0.043 OA 
HETATM   11  C   UNL     1      -5.618  12.792  68.295  1.00  0.00    -0.070 C  
ENDROOT
BRANCH   4  12
HETATM   12  C   UNL     2      -9.858  12.520  67.456  1.00  0.00    -0.198 C  
BRANCH  12  13
HETATM   13  C   UNL     2      -9.180  11.959  66.192  1.00  0.00    -0.204 C  
HETATM   14  C   UNL     2      -8.180  10.813  66.455  1.00  0.00    -0.155 C  
HETATM   15  C   UNL     2      -7.324  10.497  65.227  1.00  0.00    -0.059 A  
HETATM   16  C   UNL     2      -8.861   9.580  67.050  1.00  0.00    -0.139 A  
HETATM   17  C   UNL     2      -7.882  10.145  63.997  1.00  0.00    -0.149 A  
HETATM   18  C   UNL     2      -9.918   8.916  66.401  1.00  0.00    -0.354 A  
HETATM   19  C   UNL     2     -10.552   7.825  66.996  1.00  0.00    -0.396 A  
HETATM   20  C   UNL     2      -7.046   9.832  62.928  1.00  0.00    -0.115 A  
HETATM   21  C   UNL     2     -10.145   7.392  68.255  1.00  0.00    -0.177 A  
HETATM   22  C   UNL     2      -5.671   9.892  63.099  1.00  0.00    -0.105 A  
HETATM   23  C   UNL     2      -5.188  10.274  64.337  1.00  0.00    -0.123 A  
HETATM   24 CL   UNL     2     -10.948   6.066  69.001  1.00  0.00    -0.413 Cl 
HETATM   25  C   UNL     2      -9.102   8.032  68.916  1.00  0.00    -0.144 A  
HETATM   26  N   UNL     2      -5.977  10.581  65.391  1.00  0.00    -0.131 NA 
HETATM   27  C   UNL     2      -8.460   9.118  68.314  1.00  0.00    -0.125 A  
ENDBRANCH  12  13
ENDBRANCH   4  12
TORSDOF 2
ENDMDL
MODEL       72
REMARK 921   NORMALIZED FREE ENERGY PREDICTED BY IDOCK:   -4.60 KCAL/MOL
REMARK 922        TOTAL FREE ENERGY PREDICTED BY IDOCK:   -5.82 KCAL/MOL
REMARK 923 INTER-LIGAND FREE ENERGY PREDICTED BY IDOCK:   -4.89 KCAL/MOL
REMARK 924 INTRA-LIGAND FREE ENERGY PREDICTED BY IDOCK:   -0.93 KCAL/MOL
REMARK 927      BINDING AFFINITY PREDICTED BY RF-SCORE:    0.00 PKD
ROOT
HETATM    1  O   UNL     1     -11.296  10.146  71.386  1.00  0.00    -0.291 OA 
HETATM    2  C   UNL     1     -12.624  10.237  71.523  1.00  0.00    -0.440 C  
HETATM    3  C   UNL     2     -11.018   6.672  66.709  1.00  0.00    -0.216 C  
HETATM    4  N   UNL     2     -10.046   7.654  67.184  1.00  0.00    -0.225 NA 
HETATM    5  O   UNL     1     -13.238  11.265  71.281  1.00  0.00    -0.282 OA 
HETATM    6  C   UNL     1     -13.370   9.006  71.860  1.00  0.00    -0.474 C  
HETATM    7  C   UNL     1     -13.014   7.789  72.299  1.00  0.00    -0.069 C  
HETATM    8  O   UNL     1     -10.728   8.158  72.799  1.00  0.00    -0.345 OA 
HETATM    9  C   UNL     2     -10.126   8.869  66.366  1.00  0.00    -0.263 C  
HETATM   10  O   UNL     1     -11.506   6.043  72.704  1.00  0.00    -0.283 OA 
HETATM   11  C   UNL     1     -11.652   7.375  72.644  1.00  0.00    -0.250 C  
ENDROOT
BRANCH   4  12
HETATM   12  C   UNL     2     -10.217   7.991  68.604  1.00  0.00    -0.206 C  
BRANCH  12  13
HETATM   13  C   UNL     2      -8.917   7.925  69.426  1.00  0.00    -0.145 C  
HETATM   14  C   UNL     2      -8.704   6.599  70.187  1.00  0.00    -0.141 C  
HETATM   15  C   UNL     2      -7.570   6.693  71.210  1.00  0.00    -0.093 A  
HETATM   16  C   UNL     2      -8.566   5.407  69.239  1.00  0.00    -0.102 A  
HETATM   17  C   UNL     2      -6.270   7.057  70.853  1.00  0.00    -0.036 A  
HETATM   18  C   UNL     2      -7.574   5.347  68.244  1.00  0.00    -0.081 A  
HETATM   19  C   UNL     2      -7.509   4.268  67.361  1.00  0.00    -0.073 A  
HETATM   20  C   UNL     2      -5.274   7.086  71.826  1.00  0.00    -0.028 A  
HETATM   21  C   UNL     2      -8.444   3.241  67.455  1.00  0.00    -0.090 A  
HETATM   22  C   UNL     2      -5.594   6.769  73.138  1.00  0.00    -0.038 A  
HETATM   23  C   UNL     2      -6.907   6.443  73.424  1.00  0.00    -0.074 A  
HETATM   24 CL   UNL     2      -8.381   1.928  66.346  1.00  0.00    -0.086 Cl 
HETATM   25  C   UNL     2      -9.434   3.279  68.431  1.00  0.00    -0.209 A  
HETATM   26  N   UNL     2      -7.893   6.405  72.499  1.00  0.00    -0.101 NA 
HETATM   27  C   UNL     2      -9.491   4.354  69.322  1.00  0.00    -0.249 A  
ENDBRANCH  12  13
ENDBRANCH   4  12
TORSDOF 2
ENDMDL
MODEL       73
REMARK 921   NORMALIZED FREE ENERGY PREDICTED BY IDOCK:   -4.60 KCAL/MOL
REMARK 922        TOTAL FREE ENERGY PREDICTED BY IDOCK:   -5.82 KCAL/MOL
REMARK 923 INTER-LIGAND FREE ENERGY PREDICTED BY IDOCK:   -4.94 KCAL/MOL
REMARK 924 INTRA-LIGAND FREE ENERGY PREDICTED BY IDOCK:   -0.88 KCAL/MOL
REMARK 927      BINDING AFFINITY PREDICTED BY RF-SCORE:    0.00 PKD
ROOT
HETATM    1  O   UNL     1     -12.109   9.077  72.445  1.00  0.00    -0.324 OA 
HETATM    2  C   UNL     1     -13.360   8.630  72.283  1.00  0.00    -0.375 C  
HETATM    3  C   UNL     2     -11.117  11.191  67.100  1.00  0.00    -0.287 C  
HETATM    4  N   UNL     2     -10.511  11.583  68.371  1.00  0.00    -0.199 NA 
HETATM    5  O   UNL     1     -14.321   9.172  72.808  1.00  0.00    -0.563 OA 
HETATM    6  C   UNL     1     -13.580   7.517  71.336  1.00  0.00    -0.397 C  
HETATM    7  C   UNL     1     -12.771   6.644  70.716  1.00  0.00     0.093 C  
HETATM    8  O   UNL     1     -10.726   7.082  71.828  1.00  0.00    -0.215 OA 
HETATM    9  C   UNL     2     -11.104  12.841  68.837  1.00  0.00    -0.262 C  
HETATM   10  O   UNL     1     -10.707   5.862  69.931  1.00  0.00    -0.274 OA 
HETATM   11  C   UNL     1     -11.323   6.546  70.908  1.00  0.00    -0.337 C  
ENDROOT
BRANCH   4  12
HETATM   12  C   UNL     2     -10.638  10.552  69.410  1.00  0.00    -0.240 C  
BRANCH  12  13
HETATM   13  C   UNL     2      -9.294  10.079  69.994  1.00  0.00    -0.165 C  
HETATM   14  C   UNL     2      -8.730   8.794  69.350  1.00  0.00    -0.142 C  
HETATM   15  C   UNL     2      -7.567   8.206  70.152  1.00  0.00    -0.077 A  
HETATM   16  C   UNL     2      -8.408   8.987  67.868  1.00  0.00    -0.117 A  
HETATM   17  C   UNL     2      -6.414   8.938  70.442  1.00  0.00    -0.043 A  
HETATM   18  C   UNL     2      -7.511   9.970  67.414  1.00  0.00    -0.091 A  
HETATM   19  C   UNL     2      -7.278  10.153  66.051  1.00  0.00    -0.118 A  
HETATM   20  C   UNL     2      -5.375   8.332  71.143  1.00  0.00    -0.029 A  
HETATM   21  C   UNL     2      -7.950   9.363  65.123  1.00  0.00    -0.116 A  
HETATM   22  C   UNL     2      -5.509   7.015  71.556  1.00  0.00    -0.035 A  
HETATM   23  C   UNL     2      -6.689   6.360  71.257  1.00  0.00    -0.058 A  
HETATM   24 CL   UNL     2      -7.686   9.611  63.441  1.00  0.00    -0.122 Cl 
HETATM   25  C   UNL     2      -8.842   8.384  65.548  1.00  0.00    -0.172 A  
HETATM   26  N   UNL     2      -7.713   6.923  70.576  1.00  0.00    -0.095 NA 
HETATM   27  C   UNL     2      -9.065   8.193  66.914  1.00  0.00    -0.185 A  
ENDBRANCH  12  13
ENDBRANCH   4  12
TORSDOF 2
ENDMDL
MODEL       74
REMARK 921   NORMALIZED FREE ENERGY PREDICTED BY IDOCK:   -4.58 KCAL/MOL
REMARK 922        TOTAL FREE ENERGY PREDICTED BY IDOCK:   -5.80 KCAL/MOL
REMARK 923 INTER-LIGAND FREE ENERGY PREDICTED BY IDOCK:   -4.86 KCAL/MOL
REMARK 924 INTRA-LIGAND FREE ENERGY PREDICTED BY IDOCK:   -0.93 KCAL/MOL
REMARK 927      BINDING AFFINITY PREDICTED BY RF-SCORE:    0.00 PKD
ROOT
HETATM    1  O   UNL     1      -9.672  11.282  66.633  1.00  0.00    -0.190 OA 
HETATM    2  C   UNL     1      -8.914  12.340  66.944  1.00  0.00    -0.207 C  
HETATM    3  C   UNL     2     -10.225   8.875  71.917  1.00  0.00    -0.333 C  
HETATM    4  N   UNL     2     -11.118   8.778  70.765  1.00  0.00    -0.253 NA 
HETATM    5  O   UNL     1      -9.346  13.482  66.925  1.00  0.00    -0.237 OA 
HETATM    6  C   UNL     1      -7.546  12.088  67.444  1.00  0.00    -0.151 C  
HETATM    7  C   UNL     1      -6.744  11.013  67.468  1.00  0.00    -0.072 C  
HETATM    8  O   UNL     1      -7.971   9.523  66.096  1.00  0.00    -0.106 OA 
HETATM    9  C   UNL     2     -12.280   9.650  70.961  1.00  0.00    -0.323 C  
HETATM   10  O   UNL     1      -6.271   8.722  67.343  1.00  0.00    -0.054 OA 
HETATM   11  C   UNL     1      -7.054   9.708  66.880  1.00  0.00    -0.086 C  
ENDROOT
BRANCH   4  12
HETATM   12  C   UNL     2     -10.454   9.102  69.495  1.00  0.00    -0.219 C  
BRANCH  12  13
HETATM   13  C   UNL     2     -10.589   8.011  68.417  1.00  0.00    -0.150 C  
HETATM   14  C   UNL     2      -9.403   7.025  68.348  1.00  0.00    -0.130 C  
HETATM   15  C   UNL     2      -9.443   6.158  67.088  1.00  0.00    -0.119 A  
HETATM   16  C   UNL     2      -9.254   6.214  69.636  1.00  0.00    -0.148 A  
HETATM   17  C   UNL     2     -10.536   5.349  66.771  1.00  0.00    -0.347 A  
HETATM   18  C   UNL     2     -10.288   5.407  70.143  1.00  0.00    -0.361 A  
HETATM   19  C   UNL     2     -10.136   4.721  71.348  1.00  0.00    -0.259 A  
HETATM   20  C   UNL     2     -10.492   4.554  65.629  1.00  0.00    -0.261 A  
HETATM   21  C   UNL     2      -8.951   4.843  72.069  1.00  0.00    -0.131 A  
HETATM   22  C   UNL     2      -9.370   4.592  64.815  1.00  0.00    -0.140 A  
HETATM   23  C   UNL     2      -8.336   5.435  65.177  1.00  0.00    -0.144 A  
HETATM   24 CL   UNL     2      -8.778   4.022  73.570  1.00  0.00    -0.091 Cl 
HETATM   25  C   UNL     2      -7.915   5.636  71.587  1.00  0.00    -0.117 A  
HETATM   26  N   UNL     2      -8.350   6.215  66.281  1.00  0.00    -0.119 NA 
HETATM   27  C   UNL     2      -8.063   6.313  70.375  1.00  0.00    -0.116 A  
ENDBRANCH  12  13
ENDBRANCH   4  12
TORSDOF 2
ENDMDL
MODEL       75
REMARK 921   NORMALIZED FREE ENERGY PREDICTED BY IDOCK:   -4.55 KCAL/MOL
REMARK 922        TOTAL FREE ENERGY PREDICTED BY IDOCK:   -5.77 KCAL/MOL
REMARK 923 INTER-LIGAND FREE ENERGY PREDICTED BY IDOCK:   -5.34 KCAL/MOL
REMARK 924 INTRA-LIGAND FREE ENERGY PREDICTED BY IDOCK:   -0.43 KCAL/MOL
REMARK 927      BINDING AFFINITY PREDICTED BY RF-SCORE:    0.00 PKD
ROOT
HETATM    1  O   UNL     1     -11.524  12.468  65.442  1.00  0.00    -0.316 OA 
HETATM    2  C   UNL     1     -12.626  12.798  64.759  1.00  0.00    -0.446 C  
HETATM    3  C   UNL     2     -12.660  15.145  70.499  1.00  0.00    -0.380 C  
HETATM    4  N   UNL     2     -11.820  13.977  70.245  1.00  0.00    -0.309 NA 
HETATM    5  O   UNL     1     -13.491  11.981  64.480  1.00  0.00    -0.487 OA 
HETATM    6  C   UNL     1     -12.846  14.225  64.446  1.00  0.00     0.188 C  
HETATM    7  C   UNL     1     -12.072  15.320  64.490  1.00  0.00    -0.252 C  
HETATM    8  O   UNL     1      -9.954  14.341  64.894  1.00  0.00    -0.317 OA 
HETATM    9  C   UNL     2     -12.528  12.758  70.649  1.00  0.00    -0.246 C  
HETATM   10  O   UNL     1     -10.204  16.566  65.157  1.00  0.00    -0.590 OA 
HETATM   11  C   UNL     1     -10.650  15.342  64.838  1.00  0.00    -0.351 C  
ENDROOT
BRANCH   4  12
HETATM   12  C   UNL     2     -11.392  13.870  68.843  1.00  0.00    -0.282 C  
BRANCH  12  13
HETATM   13  C   UNL     2     -10.438  12.695  68.565  1.00  0.00    -0.249 C  
HETATM   14  C   UNL     2      -9.255  13.035  67.632  1.00  0.00    -0.200 C  
HETATM   15  C   UNL     2      -8.516  11.783  67.153  1.00  0.00    -0.170 A  
HETATM   16  C   UNL     2      -8.328  14.088  68.240  1.00  0.00    -0.162 A  
HETATM   17  C   UNL     2      -7.958  10.860  68.038  1.00  0.00    -0.109 A  
HETATM   18  C   UNL     2      -7.692  13.906  69.481  1.00  0.00     0.433 A  
HETATM   19  C   UNL     2      -6.893  14.910  70.031  1.00  0.00    -0.129 A  
HETATM   20  C   UNL     2      -7.264   9.761  67.536  1.00  0.00    -0.089 A  
HETATM   21  C   UNL     2      -6.731  16.113  69.351  1.00  0.00    -0.205 A  
HETATM   22  C   UNL     2      -7.156   9.593  66.164  1.00  0.00    -0.094 A  
HETATM   23  C   UNL     2      -7.757  10.533  65.347  1.00  0.00    -0.106 A  
HETATM   24 CL   UNL     2      -5.771  17.362  70.045  1.00  0.00    -0.240 Cl 
HETATM   25  C   UNL     2      -7.350  16.316  68.122  1.00  0.00    -0.144 A  
HETATM   26  N   UNL     2      -8.433  11.609  65.807  1.00  0.00     0.103 NA 
HETATM   27  C   UNL     2      -8.140  15.306  67.567  1.00  0.00    -0.192 A  
ENDBRANCH  12  13
ENDBRANCH   4  12
TORSDOF 2
ENDMDL
MODEL       76
REMARK 921   NORMALIZED FREE ENERGY PREDICTED BY IDOCK:   -4.51 KCAL/MOL
REMARK 922        TOTAL FREE ENERGY PREDICTED BY IDOCK:   -5.72 KCAL/MOL
REMARK 923 INTER-LIGAND FREE ENERGY PREDICTED BY IDOCK:   -5.02 KCAL/MOL
REMARK 924 INTRA-LIGAND FREE ENERGY PREDICTED BY IDOCK:   -0.70 KCAL/MOL
REMARK 927      BINDING AFFINITY PREDICTED BY RF-SCORE:    0.00 PKD
ROOT
HETATM    1  O   UNL     1     -11.147  12.214  69.643  1.00  0.00    -0.128 OA 
HETATM    2  C   UNL     1     -11.866  13.340  69.733  1.00  0.00    -0.325 C  
HETATM    3  C   UNL     2      -6.145  14.394  67.583  1.00  0.00    -0.051 C  
HETATM    4  N   UNL     2      -6.366  13.180  68.366  1.00  0.00    -0.076 NA 
HETATM    5  O   UNL     1     -12.164  13.842  70.806  1.00  0.00    -0.344 OA 
HETATM    6  C   UNL     1     -12.194  14.053  68.480  1.00  0.00    -0.210 C  
HETATM    7  C   UNL     1     -12.135  13.729  67.180  1.00  0.00    -0.416 C  
HETATM    8  O   UNL     1     -11.662  11.413  67.327  1.00  0.00    -0.577 OA 
HETATM    9  C   UNL     2      -5.975  13.410  69.760  1.00  0.00    -0.126 C  
HETATM   10  O   UNL     1     -11.421  12.461  65.344  1.00  0.00    -0.331 OA 
HETATM   11  C   UNL     1     -11.745  12.423  66.646  1.00  0.00    -0.372 C  
ENDROOT
BRANCH   4  12
HETATM   12  C   UNL     2      -7.753  12.701  68.304  1.00  0.00    -0.135 C  
BRANCH  12  13
HETATM   13  C   UNL     2      -7.972  11.321  68.952  1.00  0.00    -0.104 C  
HETATM   14  C   UNL     2      -8.795  10.333  68.097  1.00  0.00    -0.123 C  
HETATM   15  C   UNL     2      -9.233   9.103  68.894  1.00  0.00    -0.139 A  
HETATM   16  C   UNL     2      -8.092   9.985  66.784  1.00  0.00    -0.118 A  
HETATM   17  C   UNL     2      -8.321   8.267  69.541  1.00  0.00    -0.121 A  
HETATM   18  C   UNL     2      -6.805   9.419  66.746  1.00  0.00    -0.080 A  
HETATM   19  C   UNL     2      -6.171   9.161  65.530  1.00  0.00    -0.063 A  
HETATM   20  C   UNL     2      -8.783   7.141  70.217  1.00  0.00    -0.144 A  
HETATM   21  C   UNL     2      -6.813   9.478  64.336  1.00  0.00    -0.100 A  
HETATM   22  C   UNL     2     -10.144   6.878  70.251  1.00  0.00    -0.196 A  
HETATM   23  C   UNL     2     -10.991   7.763  69.611  1.00  0.00    -0.122 A  
HETATM   24 CL   UNL     2      -6.017   9.189  62.838  1.00  0.00    -0.089 Cl 
HETATM   25  C   UNL     2      -8.085  10.039  64.349  1.00  0.00    -0.156 A  
HETATM   26  N   UNL     2     -10.570   8.862  68.945  1.00  0.00    -0.200 NA 
HETATM   27  C   UNL     2      -8.724  10.286  65.567  1.00  0.00    -0.176 A  
ENDBRANCH  12  13
ENDBRANCH   4  12
TORSDOF 2
ENDMDL
MODEL       77
REMARK 921   NORMALIZED FREE ENERGY PREDICTED BY IDOCK:   -4.39 KCAL/MOL
REMARK 922        TOTAL FREE ENERGY PREDICTED BY IDOCK:   -5.58 KCAL/MOL
REMARK 923 INTER-LIGAND FREE ENERGY PREDICTED BY IDOCK:   -4.75 KCAL/MOL
REMARK 924 INTRA-LIGAND FREE ENERGY PREDICTED BY IDOCK:   -0.84 KCAL/MOL
REMARK 927      BINDING AFFINITY PREDICTED BY RF-SCORE:    0.00 PKD
ROOT
HETATM    1  O   UNL     1      -9.732   8.601  66.330  1.00  0.00    -0.244 OA 
HETATM    2  C   UNL     1      -9.002   8.889  65.246  1.00  0.00    -0.162 C  
HETATM    3  C   UNL     2      -5.472   8.067  70.279  1.00  0.00    -0.023 C  
HETATM    4  N   UNL     2      -6.874   8.429  70.481  1.00  0.00    -0.036 NA 
HETATM    5  O   UNL     1      -9.001   9.999  64.734  1.00  0.00    -0.177 OA 
HETATM    6  C   UNL     1      -8.076   7.855  64.739  1.00  0.00    -0.141 C  
HETATM    7  C   UNL     1      -7.925   6.542  64.973  1.00  0.00    -0.121 C  
HETATM    8  O   UNL     1      -9.868   6.101  66.253  1.00  0.00    -0.129 OA 
HETATM    9  C   UNL     2      -6.988   9.875  70.694  1.00  0.00    -0.064 C  
HETATM   10  O   UNL     1      -8.221   4.561  66.188  1.00  0.00    -0.106 OA 
HETATM   11  C   UNL     1      -8.781   5.730  65.839  1.00  0.00    -0.149 C  
ENDROOT
BRANCH   4  12
HETATM   12  C   UNL     2      -7.740   8.013  69.369  1.00  0.00    -0.104 C  
BRANCH  12  13
HETATM   13  C   UNL     2      -8.084   6.512  69.367  1.00  0.00    -0.119 C  
HETATM   14  C   UNL     2      -8.580   5.965  70.723  1.00  0.00    -0.130 C  
HETATM   15  C   UNL     2      -8.622   4.436  70.750  1.00  0.00    -0.091 A  
HETATM   16  C   UNL     2      -9.894   6.614  71.159  1.00  0.00    -0.195 A  
HETATM   17  C   UNL     2      -9.359   3.691  69.827  1.00  0.00    -0.243 A  
HETATM   18  C   UNL     2     -11.057   6.565  70.369  1.00  0.00    -0.389 A  
HETATM   19  C   UNL     2     -12.225   7.213  70.774  1.00  0.00    -0.308 A  
HETATM   20  C   UNL     2      -9.387   2.303  69.932  1.00  0.00    -0.171 A  
HETATM   21  C   UNL     2     -12.241   7.928  71.968  1.00  0.00    -0.317 A  
HETATM   22  C   UNL     2      -8.667   1.681  70.940  1.00  0.00    -0.098 A  
HETATM   23  C   UNL     2      -7.938   2.480  71.802  1.00  0.00    -0.052 A  
HETATM   24 CL   UNL     2     -13.672   8.752  72.449  1.00  0.00    -0.462 Cl 
HETATM   25  C   UNL     2     -11.103   7.991  72.765  1.00  0.00    -0.448 A  
HETATM   26  N   UNL     2      -7.896   3.829  71.726  1.00  0.00    -0.061 NA 
HETATM   27  C   UNL     2      -9.937   7.333  72.365  1.00  0.00    -0.208 A  
ENDBRANCH  12  13
ENDBRANCH   4  12
TORSDOF 2
ENDMDL
MODEL       78
REMARK 921   NORMALIZED FREE ENERGY PREDICTED BY IDOCK:   -4.38 KCAL/MOL
REMARK 922        TOTAL FREE ENERGY PREDICTED BY IDOCK:   -5.58 KCAL/MOL
REMARK 923 INTER-LIGAND FREE ENERGY PREDICTED BY IDOCK:   -4.61 KCAL/MOL
REMARK 924 INTRA-LIGAND FREE ENERGY PREDICTED BY IDOCK:   -0.96 KCAL/MOL
REMARK 927      BINDING AFFINITY PREDICTED BY RF-SCORE:    0.00 PKD
ROOT
HETATM    1  O   UNL     1      -6.548   3.912  68.126  1.00  0.00    -0.040 OA 
HETATM    2  C   UNL     1      -6.866   2.612  68.085  1.00  0.00    -0.047 C  
HETATM    3  C   UNL     2      -9.616   5.533  72.814  1.00  0.00    -0.148 C  
HETATM    4  N   UNL     2      -8.405   6.130  72.256  1.00  0.00    -0.113 NA 
HETATM    5  O   UNL     1      -6.062   1.734  68.358  1.00  0.00    -0.023 OA 
HETATM    6  C   UNL     1      -8.275   2.253  67.819  1.00  0.00    -0.074 C  
HETATM    7  C   UNL     1      -9.342   2.930  67.370  1.00  0.00    -0.201 C  
HETATM    8  O   UNL     1      -8.321   4.959  66.700  1.00  0.00    -0.107 OA 
HETATM    9  C   UNL     2      -7.243   5.740  73.062  1.00  0.00    -0.090 C  
HETATM   10  O   UNL     1     -10.567   4.865  66.878  1.00  0.00    -0.199 OA 
HETATM   11  C   UNL     1      -9.339   4.327  66.932  1.00  0.00    -0.166 C  
ENDROOT
BRANCH   4  12
HETATM   12  C   UNL     2      -8.184   5.772  70.849  1.00  0.00    -0.121 C  
BRANCH  12  13
HETATM   13  C   UNL     2      -8.008   6.982  69.912  1.00  0.00    -0.123 C  
HETATM   14  C   UNL     2      -9.269   7.359  69.106  1.00  0.00    -0.147 C  
HETATM   15  C   UNL     2      -8.966   8.360  67.989  1.00  0.00    -0.138 A  
HETATM   16  C   UNL     2     -10.422   7.795  70.011  1.00  0.00    -0.230 A  
HETATM   17  C   UNL     2      -8.375   9.600  68.237  1.00  0.00    -0.117 A  
HETATM   18  C   UNL     2     -10.308   8.868  70.913  1.00  0.00    -0.303 A  
HETATM   19  C   UNL     2     -11.363   9.206  71.762  1.00  0.00    -0.451 A  
HETATM   20  C   UNL     2      -8.161  10.481  67.180  1.00  0.00    -0.120 A  
HETATM   21  C   UNL     2     -12.541   8.466  71.728  1.00  0.00    -0.342 A  
HETATM   22  C   UNL     2      -8.522  10.105  65.895  1.00  0.00    -0.146 A  
HETATM   23  C   UNL     2      -9.078   8.851  65.720  1.00  0.00    -0.221 A  
HETATM   24 CL   UNL     2     -13.829   8.864  72.797  1.00  0.00    -0.386 Cl 
HETATM   25  C   UNL     2     -12.677   7.400  70.845  1.00  0.00    -0.162 A  
HETATM   26  N   UNL     2      -9.300   7.977  66.728  1.00  0.00    -0.168 NA 
HETATM   27  C   UNL     2     -11.625   7.070  69.987  1.00  0.00    -0.226 A  
ENDBRANCH  12  13
ENDBRANCH   4  12
TORSDOF 2
ENDMDL
MODEL       79
REMARK 921   NORMALIZED FREE ENERGY PREDICTED BY IDOCK:   -4.37 KCAL/MOL
REMARK 922        TOTAL FREE ENERGY PREDICTED BY IDOCK:   -5.57 KCAL/MOL
REMARK 923 INTER-LIGAND FREE ENERGY PREDICTED BY IDOCK:   -4.60 KCAL/MOL
REMARK 924 INTRA-LIGAND FREE ENERGY PREDICTED BY IDOCK:   -0.96 KCAL/MOL
REMARK 927      BINDING AFFINITY PREDICTED BY RF-SCORE:    0.00 PKD
ROOT
HETATM    1  O   UNL     1     -12.044   9.532  71.923  1.00  0.00    -0.371 OA 
HETATM    2  C   UNL     1     -13.126   8.745  71.907  1.00  0.00    -0.378 C  
HETATM    3  C   UNL     2     -10.410   9.079  66.342  1.00  0.00    -0.149 C  
HETATM    4  N   UNL     2     -10.162  10.165  67.288  1.00  0.00    -0.209 NA 
HETATM    5  O   UNL     1     -14.260   9.190  72.007  1.00  0.00    -0.345 OA 
HETATM    6  C   UNL     1     -12.932   7.306  71.635  1.00  0.00    -0.417 C  
HETATM    7  C   UNL     1     -11.861   6.498  71.607  1.00  0.00    -0.384 C  
HETATM    8  O   UNL     1     -10.208   7.933  72.510  1.00  0.00    -0.230 OA 
HETATM    9  C   UNL     2     -11.067  11.284  67.006  1.00  0.00    -0.293 C  
HETATM   10  O   UNL     1      -9.570   6.023  71.494  1.00  0.00    -0.156 OA 
HETATM   11  C   UNL     1     -10.491   6.891  71.940  1.00  0.00    -0.201 C  
ENDROOT
BRANCH   4  12
HETATM   12  C   UNL     2     -10.297   9.748  68.690  1.00  0.00    -0.201 C  
BRANCH  12  13
HETATM   13  C   UNL     2      -9.059  10.043  69.556  1.00  0.00    -0.236 C  
HETATM   14  C   UNL     2      -8.129   8.831  69.781  1.00  0.00    -0.111 C  
HETATM   15  C   UNL     2      -7.090   9.093  70.873  1.00  0.00    -0.105 A  
HETATM   16  C   UNL     2      -7.517   8.326  68.474  1.00  0.00    -0.095 A  
HETATM   17  C   UNL     2      -6.196  10.163  70.815  1.00  0.00    -0.069 A  
HETATM   18  C   UNL     2      -6.744   9.149  67.636  1.00  0.00    -0.069 A  
HETATM   19  C   UNL     2      -6.243   8.670  66.424  1.00  0.00    -0.060 A  
HETATM   20  C   UNL     2      -5.249  10.322  71.823  1.00  0.00    -0.027 A  
HETATM   21  C   UNL     2      -6.521   7.364  66.030  1.00  0.00    -0.045 A  
HETATM   22  C   UNL     2      -5.222   9.424  72.880  1.00  0.00    -0.068 A  
HETATM   23  C   UNL     2      -6.155   8.404  72.887  1.00  0.00    -0.078 A  
HETATM   24 CL   UNL     2      -5.931   6.785  64.521  1.00  0.00    -0.035 Cl 
HETATM   25  C   UNL     2      -7.284   6.532  66.842  1.00  0.00    -0.078 A  
HETATM   26  N   UNL     2      -7.083   8.224  71.920  1.00  0.00    -0.081 NA 
HETATM   27  C   UNL     2      -7.775   7.009  68.060  1.00  0.00    -0.113 A  
ENDBRANCH  12  13
ENDBRANCH   4  12
TORSDOF 2
ENDMDL
MODEL       80
REMARK 921   NORMALIZED FREE ENERGY PREDICTED BY IDOCK:   -4.35 KCAL/MOL
REMARK 922        TOTAL FREE ENERGY PREDICTED BY IDOCK:   -5.54 KCAL/MOL
REMARK 923 INTER-LIGAND FREE ENERGY PREDICTED BY IDOCK:   -5.22 KCAL/MOL
REMARK 924 INTRA-LIGAND FREE ENERGY PREDICTED BY IDOCK:   -0.32 KCAL/MOL
REMARK 927      BINDING AFFINITY PREDICTED BY RF-SCORE:    0.00 PKD
ROOT
HETATM    1  O   UNL     1     -10.317  12.646  68.023  1.00  0.00    -0.215 OA 
HETATM    2  C   UNL     1     -11.557  12.191  67.813  1.00  0.00    -0.342 C  
HETATM    3  C   UNL     2     -10.889  18.068  65.949  1.00  0.00     0.036 C  
HETATM    4  N   UNL     2      -9.956  17.561  66.953  1.00  0.00    -0.300 NA 
HETATM    5  O   UNL     1     -12.339  11.977  68.727  1.00  0.00    -0.206 OA 
HETATM    6  C   UNL     1     -12.021  12.067  66.415  1.00  0.00    -0.096 C  
HETATM    7  C   UNL     1     -11.408  12.094  65.222  1.00  0.00    -0.386 C  
HETATM    8  O   UNL     1      -9.139  12.041  65.898  1.00  0.00    -0.164 OA 
HETATM    9  C   UNL     2     -10.409  17.949  68.293  1.00  0.00    -0.383 C  
HETATM   10  O   UNL     1      -9.639  12.569  63.763  1.00  0.00    -0.136 OA 
HETATM   11  C   UNL     1      -9.963  12.204  65.012  1.00  0.00    -0.220 C  
ENDROOT
BRANCH   4  12
HETATM   12  C   UNL     2      -9.774  16.105  66.885  1.00  0.00    -0.236 C  
BRANCH  12  13
HETATM   13  C   UNL     2      -8.929  15.522  68.033  1.00  0.00    -0.174 C  
HETATM   14  C   UNL     2      -7.409  15.501  67.765  1.00  0.00    -0.174 C  
HETATM   15  C   UNL     2      -6.651  14.654  68.789  1.00  0.00    -0.090 A  
HETATM   16  C   UNL     2      -6.834  16.909  67.601  1.00  0.00    -0.161 A  
HETATM   17  C   UNL     2      -6.720  14.901  70.161  1.00  0.00    -0.117 A  
HETATM   18  C   UNL     2      -6.951  17.891  68.600  1.00  0.00    -0.252 A  
HETATM   19  C   UNL     2      -6.461  19.182  68.396  1.00  0.00    -0.263 A  
HETATM   20  C   UNL     2      -5.975  14.117  71.038  1.00  0.00    -0.187 A  
HETATM   21  C   UNL     2      -5.858  19.509  67.185  1.00  0.00    -0.174 A  
HETATM   22  C   UNL     2      -5.189  13.091  70.534  1.00  0.00    -0.126 A  
HETATM   23  C   UNL     2      -5.190  12.887  69.167  1.00  0.00    -0.069 A  
HETATM   24 CL   UNL     2      -5.282  21.109  66.924  1.00  0.00    -0.248 Cl 
HETATM   25  C   UNL     2      -5.731  18.554  66.182  1.00  0.00    -0.199 A  
HETATM   26  N   UNL     2      -5.901  13.634  68.293  1.00  0.00    -0.092 NA 
HETATM   27  C   UNL     2      -6.212  17.259  66.391  1.00  0.00    -0.246 A  
ENDBRANCH  12  13
ENDBRANCH   4  12
TORSDOF 2
ENDMDL
MODEL       81
REMARK 921   NORMALIZED FREE ENERGY PREDICTED BY IDOCK:   -4.32 KCAL/MOL
REMARK 922        TOTAL FREE ENERGY PREDICTED BY IDOCK:   -5.51 KCAL/MOL
REMARK 923 INTER-LIGAND FREE ENERGY PREDICTED BY IDOCK:   -4.78 KCAL/MOL
REMARK 924 INTRA-LIGAND FREE ENERGY PREDICTED BY IDOCK:   -0.74 KCAL/MOL
REMARK 927      BINDING AFFINITY PREDICTED BY RF-SCORE:    0.00 PKD
ROOT
HETATM    1  O   UNL     1     -11.184   5.521  71.048  1.00  0.00    -0.139 OA 
HETATM    2  C   UNL     1     -11.207   5.653  72.379  1.00  0.00    -0.280 C  
HETATM    3  C   UNL     2      -5.577   6.759  70.026  1.00  0.00    -0.019 C  
HETATM    4  N   UNL     2      -6.497   5.944  69.237  1.00  0.00    -0.040 NA 
HETATM    5  O   UNL     1     -11.324   4.695  73.129  1.00  0.00    -0.289 OA 
HETATM    6  C   UNL     1     -10.955   6.994  72.946  1.00  0.00    -0.337 C  
HETATM    7  C   UNL     1     -10.917   8.233  72.433  1.00  0.00    -0.438 C  
HETATM    8  O   UNL     1     -11.757   7.827  70.256  1.00  0.00    -0.123 OA 
HETATM    9  C   UNL     2      -6.217   4.522  69.459  1.00  0.00    -0.027 C  
HETATM   10  O   UNL     1     -10.761   9.801  70.699  1.00  0.00    -0.290 OA 
HETATM   11  C   UNL     1     -11.212   8.585  71.042  1.00  0.00    -0.268 C  
ENDROOT
BRANCH   4  12
HETATM   12  C   UNL     2      -7.909   6.230  69.524  1.00  0.00    -0.101 C  
BRANCH  12  13
HETATM   13  C   UNL     2      -8.534   7.297  68.606  1.00  0.00    -0.129 C  
HETATM   14  C   UNL     2      -8.077   7.224  67.133  1.00  0.00    -0.114 C  
HETATM   15  C   UNL     2      -8.485   8.466  66.338  1.00  0.00    -0.123 A  
HETATM   16  C   UNL     2      -8.495   5.914  66.465  1.00  0.00    -0.113 A  
HETATM   17  C   UNL     2      -9.813   8.881  66.230  1.00  0.00    -0.355 A  
HETATM   18  C   UNL     2      -9.838   5.504  66.385  1.00  0.00    -0.192 A  
HETATM   19  C   UNL     2     -10.179   4.277  65.814  1.00  0.00    -0.207 A  
HETATM   20  C   UNL     2     -10.122   9.999  65.458  1.00  0.00    -0.325 A  
HETATM   21  C   UNL     2      -9.180   3.439  65.327  1.00  0.00    -0.150 A  
HETATM   22  C   UNL     2      -9.101  10.691  64.824  1.00  0.00    -0.236 A  
HETATM   23  C   UNL     2      -7.807  10.239  64.997  1.00  0.00    -0.133 A  
HETATM   24 CL   UNL     2      -9.600   1.914  64.652  1.00  0.00    -0.085 Cl 
HETATM   25  C   UNL     2      -7.845   3.824  65.395  1.00  0.00    -0.089 A  
HETATM   26  N   UNL     2      -7.479   9.156  65.737  1.00  0.00    -0.090 NA 
HETATM   27  C   UNL     2      -7.505   5.057  65.957  1.00  0.00    -0.082 A  
ENDBRANCH  12  13
ENDBRANCH   4  12
TORSDOF 2
ENDMDL
MODEL       82
REMARK 921   NORMALIZED FREE ENERGY PREDICTED BY IDOCK:   -4.31 KCAL/MOL
REMARK 922        TOTAL FREE ENERGY PREDICTED BY IDOCK:   -5.50 KCAL/MOL
REMARK 923 INTER-LIGAND FREE ENERGY PREDICTED BY IDOCK:   -7.41 KCAL/MOL
REMARK 924 INTRA-LIGAND FREE ENERGY PREDICTED BY IDOCK:    1.91 KCAL/MOL
REMARK 927      BINDING AFFINITY PREDICTED BY RF-SCORE:    0.00 PKD
ROOT
HETATM    1  O   UNL     1      -9.459  18.338  65.583  1.00  0.00    -0.361 OA 
HETATM    2  C   UNL     1     -10.323  19.230  66.081  1.00  0.00    -0.494 C  
HETATM    3  C   UNL     2     -12.633  13.476  66.132  1.00  0.00    -0.295 C  
HETATM    4  N   UNL     2     -11.557  13.770  65.188  1.00  0.00    -0.321 NA 
HETATM    5  O   UNL     1     -10.887  20.057  65.380  1.00  0.00    -0.363 OA 
HETATM    6  C   UNL     1     -10.688  19.117  67.509  1.00  0.00    -0.555 C  
HETATM    7  C   UNL     1     -10.183  18.438  68.550  1.00  0.00    -0.394 C  
HETATM    8  O   UNL     1      -8.166  17.630  67.607  1.00  0.00    -0.219 OA 
HETATM    9  C   UNL     2     -12.123  14.075  63.870  1.00  0.00    -0.311 C  
HETATM   10  O   UNL     1      -8.891  16.765  69.560  1.00  0.00     0.053 OA 
HETATM   11  C   UNL     1      -8.978  17.607  68.519  1.00  0.00    -0.289 C  
ENDROOT
BRANCH   4  12
HETATM   12  C   UNL     2     -10.689  14.869  65.631  1.00  0.00    -0.342 C  
BRANCH  12  13
HETATM   13  C   UNL     2     -10.899  15.284  67.099  1.00  0.00    -0.322 C  
HETATM   14  C   UNL     2     -10.975  14.106  68.095  1.00  0.00    -0.264 C  
HETATM   15  C   UNL     2     -11.476  14.544  69.473  1.00  0.00    -0.288 A  
HETATM   16  C   UNL     2      -9.668  13.314  68.149  1.00  0.00    -0.227 A  
HETATM   17  C   UNL     2     -10.840  15.539  70.218  1.00  0.00    -0.358 A  
HETATM   18  C   UNL     2      -8.439  13.911  68.481  1.00  0.00    -0.127 A  
HETATM   19  C   UNL     2      -7.257  13.170  68.471  1.00  0.00    -0.110 A  
HETATM   20  C   UNL     2     -11.324  15.863  71.483  1.00  0.00    -0.384 A  
HETATM   21  C   UNL     2      -7.288  11.824  68.117  1.00  0.00    -0.094 A  
HETATM   22  C   UNL     2     -12.440  15.203  71.975  1.00  0.00    -0.414 A  
HETATM   23  C   UNL     2     -13.035  14.248  71.171  1.00  0.00    -0.353 A  
HETATM   24 CL   UNL     2      -5.825  10.919  68.074  1.00  0.00    -0.046 Cl 
HETATM   25  C   UNL     2      -8.492  11.212  67.785  1.00  0.00    -0.124 A  
HETATM   26  N   UNL     2     -12.585  13.912  69.941  1.00  0.00    -0.217 NA 
HETATM   27  C   UNL     2      -9.677  11.952  67.807  1.00  0.00    -0.189 A  
ENDBRANCH  12  13
ENDBRANCH   4  12
TORSDOF 2
ENDMDL
MODEL       83
REMARK 921   NORMALIZED FREE ENERGY PREDICTED BY IDOCK:   -4.25 KCAL/MOL
REMARK 922        TOTAL FREE ENERGY PREDICTED BY IDOCK:   -5.44 KCAL/MOL
REMARK 923 INTER-LIGAND FREE ENERGY PREDICTED BY IDOCK:   -4.87 KCAL/MOL
REMARK 924 INTRA-LIGAND FREE ENERGY PREDICTED BY IDOCK:   -0.56 KCAL/MOL
REMARK 927      BINDING AFFINITY PREDICTED BY RF-SCORE:    0.00 PKD
ROOT
HETATM    1  O   UNL     1      -6.538  12.780  67.264  1.00  0.00    -0.159 OA 
HETATM    2  C   UNL     1      -6.302  14.022  67.703  1.00  0.00    -0.118 C  
HETATM    3  C   UNL     2     -11.808  11.888  69.598  1.00  0.00    -0.337 C  
HETATM    4  N   UNL     2     -11.213  11.279  68.410  1.00  0.00    -0.237 NA 
HETATM    5  O   UNL     1      -6.301  14.990  66.958  1.00  0.00    -0.184 OA 
HETATM    6  C   UNL     1      -6.164  14.226  69.161  1.00  0.00    -0.099 C  
HETATM    7  C   UNL     1      -5.992  13.403  70.206  1.00  0.00    -0.141 C  
HETATM    8  O   UNL     1      -5.575  11.358  69.087  1.00  0.00    -0.044 OA 
HETATM    9  C   UNL     2     -11.773  11.896  67.203  1.00  0.00    -0.236 C  
HETATM   10  O   UNL     1      -6.030  11.330  71.296  1.00  0.00    -0.355 OA 
HETATM   11  C   UNL     1      -5.821  11.951  70.125  1.00  0.00    -0.157 C  
ENDROOT
BRANCH   4  12
HETATM   12  C   UNL     2      -9.747  11.373  68.390  1.00  0.00    -0.203 C  
BRANCH  12  13
HETATM   13  C   UNL     2      -9.054  10.642  69.555  1.00  0.00     0.016 C  
HETATM   14  C   UNL     2      -9.669   9.271  69.910  1.00  0.00    -0.220 C  
HETATM   15  C   UNL     2      -9.148   8.729  71.242  1.00  0.00    -0.234 A  
HETATM   16  C   UNL     2      -9.546   8.270  68.760  1.00  0.00    -0.150 A  
HETATM   17  C   UNL     2      -7.788   8.531  71.487  1.00  0.00    -0.158 A  
HETATM   18  C   UNL     2      -8.305   7.910  68.204  1.00  0.00    -0.124 A  
HETATM   19  C   UNL     2      -8.233   7.033  67.121  1.00  0.00    -0.118 A  
HETATM   20  C   UNL     2      -7.381   7.997  72.708  1.00  0.00    -0.137 A  
HETATM   21  C   UNL     2      -9.402   6.515  66.572  1.00  0.00    -0.159 A  
HETATM   22  C   UNL     2      -8.334   7.688  73.667  1.00  0.00    -0.230 A  
HETATM   23  C   UNL     2      -9.660   7.935  73.365  1.00  0.00    -0.264 A  
HETATM   24 CL   UNL     2      -9.313   5.459  65.217  1.00  0.00    -0.027 Cl 
HETATM   25  C   UNL     2     -10.641   6.857  67.105  1.00  0.00    -0.408 A  
HETATM   26  N   UNL     2     -10.083   8.449  72.188  1.00  0.00    -0.277 NA 
HETATM   27  C   UNL     2     -10.712   7.726  68.196  1.00  0.00    -0.112 A  
ENDBRANCH  12  13
ENDBRANCH   4  12
TORSDOF 2
ENDMDL
MODEL       84
REMARK 921   NORMALIZED FREE ENERGY PREDICTED BY IDOCK:   -4.25 KCAL/MOL
REMARK 922        TOTAL FREE ENERGY PREDICTED BY IDOCK:   -5.43 KCAL/MOL
REMARK 923 INTER-LIGAND FREE ENERGY PREDICTED BY IDOCK:   -4.72 KCAL/MOL
REMARK 924 INTRA-LIGAND FREE ENERGY PREDICTED BY IDOCK:   -0.72 KCAL/MOL
REMARK 927      BINDING AFFINITY PREDICTED BY RF-SCORE:    0.00 PKD
ROOT
HETATM    1  O   UNL     1      -7.918  15.465  66.319  1.00  0.00     0.093 OA 
HETATM    2  C   UNL     1      -7.315  16.648  66.483  1.00  0.00    -0.238 C  
HETATM    3  C   UNL     2     -11.298  15.408  71.072  1.00  0.00    -0.367 C  
HETATM    4  N   UNL     2     -11.495  14.724  69.795  1.00  0.00    -0.277 NA 
HETATM    5  O   UNL     1      -7.559  17.611  65.772  1.00  0.00    -0.530 OA 
HETATM    6  C   UNL     1      -6.419  16.813  67.647  1.00  0.00    -0.170 C  
HETATM    7  C   UNL     1      -5.853  15.962  68.517  1.00  0.00    -0.103 C  
HETATM    8  O   UNL     1      -6.369  13.888  67.497  1.00  0.00    -0.276 OA 
HETATM    9  C   UNL     2     -12.501  15.435  69.000  1.00  0.00     0.134 C  
HETATM   10  O   UNL     1      -5.620  13.911  69.624  1.00  0.00    -0.086 OA 
HETATM   11  C   UNL     1      -5.958  14.503  68.468  1.00  0.00    -0.093 C  
ENDROOT
BRANCH   4  12
HETATM   12  C   UNL     2     -10.252  14.581  69.024  1.00  0.00    -0.206 C  
BRANCH  12  13
HETATM   13  C   UNL     2     -10.416  13.798  67.708  1.00  0.00    -0.240 C  
HETATM   14  C   UNL     2      -9.825  12.371  67.732  1.00  0.00    -0.203 C  
HETATM   15  C   UNL     2      -9.746  11.754  66.334  1.00  0.00    -0.214 A  
HETATM   16  C   UNL     2     -10.528  11.474  68.751  1.00  0.00    -0.227 A  
HETATM   17  C   UNL     2     -10.868  11.610  65.516  1.00  0.00    -0.334 A  
HETATM   18  C   UNL     2     -11.911  11.227  68.709  1.00  0.00    -0.350 A  
HETATM   19  C   UNL     2     -12.529  10.444  69.686  1.00  0.00     0.022 A  
HETATM   20  C   UNL     2     -10.735  11.004  64.269  1.00  0.00    -0.348 A  
HETATM   21  C   UNL     2     -11.771   9.909  70.724  1.00  0.00    -0.341 A  
HETATM   22  C   UNL     2      -9.486  10.568  63.854  1.00  0.00    -0.338 A  
HETATM   23  C   UNL     2      -8.415  10.767  64.705  1.00  0.00    -0.020 A  
HETATM   24 CL   UNL     2     -12.539   8.971  71.944  1.00  0.00    -0.416 Cl 
HETATM   25  C   UNL     2     -10.401  10.141  70.786  1.00  0.00     0.117 A  
HETATM   26  N   UNL     2      -8.516  11.350  65.920  1.00  0.00    -0.069 NA 
HETATM   27  C   UNL     2      -9.782  10.915  69.801  1.00  0.00     0.367 A  
ENDBRANCH  12  13
ENDBRANCH   4  12
TORSDOF 2
ENDMDL
MODEL       85
REMARK 921   NORMALIZED FREE ENERGY PREDICTED BY IDOCK:   -4.21 KCAL/MOL
REMARK 922        TOTAL FREE ENERGY PREDICTED BY IDOCK:   -5.39 KCAL/MOL
REMARK 923 INTER-LIGAND FREE ENERGY PREDICTED BY IDOCK:   -4.86 KCAL/MOL
REMARK 924 INTRA-LIGAND FREE ENERGY PREDICTED BY IDOCK:   -0.53 KCAL/MOL
REMARK 927      BINDING AFFINITY PREDICTED BY RF-SCORE:    0.00 PKD
ROOT
HETATM    1  O   UNL     1     -11.154  11.890  65.151  1.00  0.00    -0.305 OA 
HETATM    2  C   UNL     1     -12.339  12.479  64.956  1.00  0.00    -0.453 C  
HETATM    3  C   UNL     2     -11.674  10.456  70.781  1.00  0.00    -0.368 C  
HETATM    4  N   UNL     2     -10.855   9.831  69.744  1.00  0.00    -0.244 NA 
HETATM    5  O   UNL     1     -13.220  11.968  64.281  1.00  0.00    -0.710 OA 
HETATM    6  C   UNL     1     -12.619  13.730  65.692  1.00  0.00    -0.551 C  
HETATM    7  C   UNL     1     -11.863  14.594  66.385  1.00  0.00    -0.304 C  
HETATM    8  O   UNL     1      -9.696  13.801  65.853  1.00  0.00    -0.268 OA 
HETATM    9  C   UNL     2     -11.487   8.586  69.295  1.00  0.00     0.616 C  
HETATM   10  O   UNL     1      -9.944  15.266  67.549  1.00  0.00    -0.225 OA 
HETATM   11  C   UNL     1     -10.409  14.519  66.536  1.00  0.00    -0.283 C  
ENDROOT
BRANCH   4  12
HETATM   12  C   UNL     2     -10.609  10.714  68.596  1.00  0.00    -0.203 C  
BRANCH  12  13
HETATM   13  C   UNL     2     -10.129   9.980  67.330  1.00  0.00    -0.256 C  
HETATM   14  C   UNL     2      -8.606  10.046  67.088  1.00  0.00    -0.128 C  
HETATM   15  C   UNL     2      -8.220   9.569  65.687  1.00  0.00    -0.120 A  
HETATM   16  C   UNL     2      -7.816   9.355  68.201  1.00  0.00    -0.087 A  
HETATM   17  C   UNL     2      -8.555   8.300  65.211  1.00  0.00    -0.159 A  
HETATM   18  C   UNL     2      -8.011   8.003  68.535  1.00  0.00    -0.120 A  
HETATM   19  C   UNL     2      -7.310   7.418  69.591  1.00  0.00    -0.091 A  
HETATM   20  C   UNL     2      -8.140   7.913  63.939  1.00  0.00    -0.082 A  
HETATM   21  C   UNL     2      -6.415   8.182  70.333  1.00  0.00    -0.036 A  
HETATM   22  C   UNL     2      -7.416   8.801  63.159  1.00  0.00    -0.103 A  
HETATM   23  C   UNL     2      -7.143  10.051  63.684  1.00  0.00    -0.126 A  
HETATM   24 CL   UNL     2      -5.575   7.468  71.654  1.00  0.00    -0.036 Cl 
HETATM   25  C   UNL     2      -6.206   9.521  70.021  1.00  0.00    -0.051 A  
HETATM   26  N   UNL     2      -7.531  10.452  64.916  1.00  0.00    -0.110 NA 
HETATM   27  C   UNL     2      -6.899  10.104  68.957  1.00  0.00    -0.056 A  
ENDBRANCH  12  13
ENDBRANCH   4  12
TORSDOF 2
ENDMDL
MODEL       86
REMARK 921   NORMALIZED FREE ENERGY PREDICTED BY IDOCK:   -4.21 KCAL/MOL
REMARK 922        TOTAL FREE ENERGY PREDICTED BY IDOCK:   -5.39 KCAL/MOL
REMARK 923 INTER-LIGAND FREE ENERGY PREDICTED BY IDOCK:   -4.50 KCAL/MOL
REMARK 924 INTRA-LIGAND FREE ENERGY PREDICTED BY IDOCK:   -0.89 KCAL/MOL
REMARK 927      BINDING AFFINITY PREDICTED BY RF-SCORE:    0.00 PKD
ROOT
HETATM    1  O   UNL     1     -11.995   9.748  71.926  1.00  0.00    -0.365 OA 
HETATM    2  C   UNL     1     -13.073   8.959  71.865  1.00  0.00    -0.386 C  
HETATM    3  C   UNL     2     -11.160  10.725  66.237  1.00  0.00     0.097 C  
HETATM    4  N   UNL     2     -10.777  11.553  67.378  1.00  0.00    -0.220 NA 
HETATM    5  O   UNL     1     -14.179   9.333  72.226  1.00  0.00    -0.371 OA 
HETATM    6  C   UNL     1     -12.927   7.637  71.222  1.00  0.00    -0.287 C  
HETATM    7  C   UNL     1     -11.876   6.891  70.849  1.00  0.00    -0.424 C  
HETATM    8  O   UNL     1     -10.104   8.108  71.842  1.00  0.00    -0.188 OA 
HETATM    9  C   UNL     2     -11.705  12.681  67.509  1.00  0.00    -0.368 C  
HETATM   10  O   UNL     1      -9.626   6.525  70.309  1.00  0.00    -0.161 OA 
HETATM   11  C   UNL     1     -10.470   7.230  71.077  1.00  0.00    -0.215 C  
ENDROOT
BRANCH   4  12
HETATM   12  C   UNL     2     -10.717  10.801  68.639  1.00  0.00    -0.208 C  
BRANCH  12  13
HETATM   13  C   UNL     2      -9.376  10.930  69.385  1.00  0.00     0.062 C  
HETATM   14  C   UNL     2      -8.467   9.685  69.293  1.00  0.00    -0.150 C  
HETATM   15  C   UNL     2      -7.299   9.746  70.280  1.00  0.00    -0.158 A  
HETATM   16  C   UNL     2      -8.030   9.397  67.856  1.00  0.00    -0.092 A  
HETATM   17  C   UNL     2      -6.382  10.798  70.290  1.00  0.00    -0.142 A  
HETATM   18  C   UNL     2      -7.333  10.338  67.077  1.00  0.00    -0.092 A  
HETATM   19  C   UNL     2      -6.995  10.062  65.752  1.00  0.00    -0.112 A  
HETATM   20  C   UNL     2      -5.319  10.773  71.188  1.00  0.00    -0.078 A  
HETATM   21  C   UNL     2      -7.361   8.844  65.185  1.00  0.00    -0.092 A  
HETATM   22  C   UNL     2      -5.199   9.711  72.072  1.00  0.00    -0.074 A  
HETATM   23  C   UNL     2      -6.158   8.717  72.024  1.00  0.00    -0.070 A  
HETATM   24 CL   UNL     2      -6.971   8.518  63.541  1.00  0.00    -0.088 Cl 
HETATM   25  C   UNL     2      -8.051   7.898  65.936  1.00  0.00    -0.119 A  
HETATM   26  N   UNL     2      -7.199   8.715  71.160  1.00  0.00    -0.076 NA 
HETATM   27  C   UNL     2      -8.379   8.171  67.266  1.00  0.00    -0.121 A  
ENDBRANCH  12  13
ENDBRANCH   4  12
TORSDOF 2
ENDMDL
MODEL       87
REMARK 921   NORMALIZED FREE ENERGY PREDICTED BY IDOCK:   -4.20 KCAL/MOL
REMARK 922        TOTAL FREE ENERGY PREDICTED BY IDOCK:   -5.38 KCAL/MOL
REMARK 923 INTER-LIGAND FREE ENERGY PREDICTED BY IDOCK:   -5.18 KCAL/MOL
REMARK 924 INTRA-LIGAND FREE ENERGY PREDICTED BY IDOCK:   -0.20 KCAL/MOL
REMARK 927      BINDING AFFINITY PREDICTED BY RF-SCORE:    0.00 PKD
ROOT
HETATM    1  O   UNL     1     -10.131  11.957  65.540  1.00  0.00    -0.232 OA 
HETATM    2  C   UNL     1      -9.783  10.712  65.194  1.00  0.00    -0.271 C  
HETATM    3  C   UNL     2      -6.276  12.911  69.812  1.00  0.00    -0.105 C  
HETATM    4  N   UNL     2      -6.947  13.878  68.945  1.00  0.00    -0.107 NA 
HETATM    5  O   UNL     1      -9.225  10.458  64.137  1.00  0.00    -0.213 OA 
HETATM    6  C   UNL     1      -9.975   9.638  66.191  1.00  0.00    -0.346 C  
HETATM    7  C   UNL     1     -10.647   9.548  67.348  1.00  0.00    -0.337 C  
HETATM    8  O   UNL     1     -11.870  11.575  67.300  1.00  0.00    -0.609 OA 
HETATM    9  C   UNL     2      -6.020  14.342  67.908  1.00  0.00    -0.138 C  
HETATM   10  O   UNL     1     -11.751  10.409  69.227  1.00  0.00    -0.222 OA 
HETATM   11  C   UNL     1     -11.491  10.597  67.924  1.00  0.00    -0.181 C  
ENDROOT
BRANCH   4  12
HETATM   12  C   UNL     2      -8.168  13.345  68.328  1.00  0.00    -0.160 C  
BRANCH  12  13
HETATM   13  C   UNL     2      -9.429  13.490  69.200  1.00  0.00     0.453 C  
HETATM   14  C   UNL     2     -10.107  14.875  69.124  1.00  0.00    -0.227 C  
HETATM   15  C   UNL     2     -11.161  15.065  70.216  1.00  0.00    -0.252 A  
HETATM   16  C   UNL     2     -10.628  15.185  67.720  1.00  0.00    -0.264 A  
HETATM   17  C   UNL     2     -12.245  14.198  70.368  1.00  0.00    -0.427 A  
HETATM   18  C   UNL     2     -11.555  14.358  67.062  1.00  0.00    -0.402 A  
HETATM   19  C   UNL     2     -11.971  14.643  65.760  1.00  0.00    -0.236 A  
HETATM   20  C   UNL     2     -13.191  14.450  71.359  1.00  0.00    -0.418 A  
HETATM   21  C   UNL     2     -11.453  15.751  65.096  1.00  0.00    -0.048 A  
HETATM   22  C   UNL     2     -13.031  15.548  72.190  1.00  0.00    -0.506 A  
HETATM   23  C   UNL     2     -11.921  16.348  71.999  1.00  0.00    -0.365 A  
HETATM   24 CL   UNL     2     -11.942  16.082  63.480  1.00  0.00     1.150 Cl 
HETATM   25  C   UNL     2     -10.534  16.583  65.727  1.00  0.00    -0.343 A  
HETATM   26  N   UNL     2     -10.988  16.129  71.045  1.00  0.00    -0.106 NA 
HETATM   27  C   UNL     2     -10.127  16.304  67.035  1.00  0.00    -0.270 A  
ENDBRANCH  12  13
ENDBRANCH   4  12
TORSDOF 2
ENDMDL
MODEL       88
REMARK 921   NORMALIZED FREE ENERGY PREDICTED BY IDOCK:   -4.20 KCAL/MOL
REMARK 922        TOTAL FREE ENERGY PREDICTED BY IDOCK:   -5.38 KCAL/MOL
REMARK 923 INTER-LIGAND FREE ENERGY PREDICTED BY IDOCK:   -4.81 KCAL/MOL
REMARK 924 INTRA-LIGAND FREE ENERGY PREDICTED BY IDOCK:   -0.57 KCAL/MOL
REMARK 927      BINDING AFFINITY PREDICTED BY RF-SCORE:    0.00 PKD
ROOT
HETATM    1  O   UNL     1     -10.502   5.207  66.144  1.00  0.00    -0.260 OA 
HETATM    2  C   UNL     1      -9.939   4.323  65.311  1.00  0.00    -0.219 C  
HETATM    3  C   UNL     2      -7.442   9.972  64.746  1.00  0.00    -0.143 C  
HETATM    4  N   UNL     2      -8.789   9.875  65.305  1.00  0.00    -0.168 NA 
HETATM    5  O   UNL     1     -10.528   3.870  64.342  1.00  0.00    -0.244 OA 
HETATM    6  C   UNL     1      -8.513   3.991  65.516  1.00  0.00    -0.109 C  
HETATM    7  C   UNL     1      -7.640   4.199  66.513  1.00  0.00    -0.089 C  
HETATM    8  O   UNL     1      -9.093   5.001  68.204  1.00  0.00    -0.109 OA 
HETATM    9  C   UNL     2      -9.782  10.116  64.253  1.00  0.00    -0.258 C  
HETATM   10  O   UNL     1      -6.865   5.237  68.465  1.00  0.00    -0.052 OA 
HETATM   11  C   UNL     1      -7.954   4.821  67.801  1.00  0.00    -0.093 C  
ENDROOT
BRANCH   4  12
HETATM   12  C   UNL     2      -9.049   8.584  65.956  1.00  0.00    -0.194 C  
BRANCH  12  13
HETATM   13  C   UNL     2      -9.897   8.686  67.237  1.00  0.00    -0.256 C  
HETATM   14  C   UNL     2      -9.093   9.003  68.516  1.00  0.00    -0.133 C  
HETATM   15  C   UNL     2      -9.922   8.801  69.787  1.00  0.00    -0.190 A  
HETATM   16  C   UNL     2      -8.419  10.374  68.446  1.00  0.00    -0.124 A  
HETATM   17  C   UNL     2     -11.129   9.467  70.006  1.00  0.00    -0.268 A  
HETATM   18  C   UNL     2      -9.145  11.561  68.242  1.00  0.00    -0.185 A  
HETATM   19  C   UNL     2      -8.492  12.790  68.132  1.00  0.00    -0.177 A  
HETATM   20  C   UNL     2     -11.815   9.268  71.202  1.00  0.00    -0.396 A  
HETATM   21  C   UNL     2      -7.103  12.844  68.211  1.00  0.00    -0.102 A  
HETATM   22  C   UNL     2     -11.296   8.397  72.148  1.00  0.00    -0.437 A  
HETATM   23  C   UNL     2     -10.110   7.751  71.852  1.00  0.00    -0.182 A  
HETATM   24 CL   UNL     2      -6.298  14.355  68.042  1.00  0.00    -0.144 Cl 
HETATM   25  C   UNL     2      -6.365  11.683  68.412  1.00  0.00    -0.051 A  
HETATM   26  N   UNL     2      -9.422   7.928  70.701  1.00  0.00    -0.162 NA 
HETATM   27  C   UNL     2      -7.020  10.455  68.534  1.00  0.00    -0.062 A  
ENDBRANCH  12  13
ENDBRANCH   4  12
TORSDOF 2
ENDMDL
MODEL       89
REMARK 921   NORMALIZED FREE ENERGY PREDICTED BY IDOCK:   -4.19 KCAL/MOL
REMARK 922        TOTAL FREE ENERGY PREDICTED BY IDOCK:   -5.37 KCAL/MOL
REMARK 923 INTER-LIGAND FREE ENERGY PREDICTED BY IDOCK:   -5.24 KCAL/MOL
REMARK 924 INTRA-LIGAND FREE ENERGY PREDICTED BY IDOCK:   -0.13 KCAL/MOL
REMARK 927      BINDING AFFINITY PREDICTED BY RF-SCORE:    0.00 PKD
ROOT
HETATM    1  O   UNL     1      -7.473   8.083  68.688  1.00  0.00    -0.093 OA 
HETATM    2  C   UNL     1      -7.813   6.814  68.435  1.00  0.00    -0.114 C  
HETATM    3  C   UNL     2     -12.774  10.385  69.482  1.00  0.00     0.511 C  
HETATM    4  N   UNL     2     -11.489  10.831  70.015  1.00  0.00    -0.306 NA 
HETATM    5  O   UNL     1      -7.595   5.908  69.226  1.00  0.00    -0.085 OA 
HETATM    6  C   UNL     1      -8.587   6.537  67.207  1.00  0.00    -0.111 C  
HETATM    7  C   UNL     1      -8.873   7.245  66.104  1.00  0.00    -0.181 C  
HETATM    8  O   UNL     1      -7.452   9.115  66.407  1.00  0.00    -0.091 OA 
HETATM    9  C   UNL     2     -11.370  10.437  71.422  1.00  0.00     0.279 C  
HETATM   10  O   UNL     1      -9.075   9.209  64.843  1.00  0.00    -0.210 OA 
HETATM   11  C   UNL     1      -8.374   8.588  65.804  1.00  0.00    -0.140 C  
ENDROOT
BRANCH   4  12
HETATM   12  C   UNL     2     -10.342  10.321  69.251  1.00  0.00    -0.231 C  
BRANCH  12  13
HETATM   13  C   UNL     2     -10.431  10.580  67.735  1.00  0.00    -0.263 C  
HETATM   14  C   UNL     2     -10.900  12.000  67.353  1.00  0.00    -0.285 C  
HETATM   15  C   UNL     2     -11.254  12.114  65.869  1.00  0.00    -0.339 A  
HETATM   16  C   UNL     2      -9.922  13.076  67.825  1.00  0.00    -0.227 A  
HETATM   17  C   UNL     2     -10.343  11.806  64.857  1.00  0.00    -0.334 A  
HETATM   18  C   UNL     2      -8.571  13.089  67.435  1.00  0.00    -0.199 A  
HETATM   19  C   UNL     2      -7.692  14.057  67.926  1.00  0.00    -0.161 A  
HETATM   20  C   UNL     2     -10.717  11.968  63.525  1.00  0.00    -0.513 A  
HETATM   21  C   UNL     2      -8.152  15.016  68.824  1.00  0.00    -0.166 A  
HETATM   22  C   UNL     2     -11.994  12.416  63.226  1.00  0.00    -0.509 A  
HETATM   23  C   UNL     2     -12.853  12.676  64.278  1.00  0.00    -0.215 A  
HETATM   24 CL   UNL     2      -7.061  16.188  69.452  1.00  0.00    -0.222 Cl 
HETATM   25  C   UNL     2      -9.484  15.022  69.224  1.00  0.00    -0.171 A  
HETATM   26  N   UNL     2     -12.516  12.530  65.579  1.00  0.00    -0.635 NA 
HETATM   27  C   UNL     2     -10.366  14.061  68.723  1.00  0.00    -0.225 A  
ENDBRANCH  12  13
ENDBRANCH   4  12
TORSDOF 2
ENDMDL
MODEL       90
REMARK 921   NORMALIZED FREE ENERGY PREDICTED BY IDOCK:   -4.10 KCAL/MOL
REMARK 922        TOTAL FREE ENERGY PREDICTED BY IDOCK:   -5.27 KCAL/MOL
REMARK 923 INTER-LIGAND FREE ENERGY PREDICTED BY IDOCK:   -4.37 KCAL/MOL
REMARK 924 INTRA-LIGAND FREE ENERGY PREDICTED BY IDOCK:   -0.89 KCAL/MOL
REMARK 927      BINDING AFFINITY PREDICTED BY RF-SCORE:    0.00 PKD
ROOT
HETATM    1  O   UNL     1     -10.062   3.763  71.590  1.00  0.00    -0.165 OA 
HETATM    2  C   UNL     1      -9.559   2.534  71.427  1.00  0.00    -0.155 C  
HETATM    3  C   UNL     2      -8.338   6.211  66.584  1.00  0.00    -0.111 C  
HETATM    4  N   UNL     2      -9.475   6.557  67.433  1.00  0.00    -0.123 NA 
HETATM    5  O   UNL     1     -10.266   1.558  71.227  1.00  0.00    -0.071 OA 
HETATM    6  C   UNL     1      -8.089   2.391  71.365  1.00  0.00    -0.058 C  
HETATM    7  C   UNL     1      -7.059   3.199  71.662  1.00  0.00    -0.032 C  
HETATM    8  O   UNL     1      -8.196   4.977  72.736  1.00  0.00    -0.107 OA 
HETATM    9  C   UNL     2     -10.714   6.044  66.839  1.00  0.00    -0.334 C  
HETATM   10  O   UNL     1      -6.051   5.266  72.103  1.00  0.00    -0.028 OA 
HETATM   11  C   UNL     1      -7.171   4.540  72.238  1.00  0.00    -0.071 C  
ENDROOT
BRANCH   4  12
HETATM   12  C   UNL     2      -9.335   6.064  68.810  1.00  0.00    -0.122 C  
BRANCH  12  13
HETATM   13  C   UNL     2      -8.276   6.812  69.642  1.00  0.00    -0.131 C  
HETATM   14  C   UNL     2      -8.544   8.323  69.813  1.00  0.00    -0.129 C  
HETATM   15  C   UNL     2      -7.333   9.066  70.381  1.00  0.00    -0.084 A  
HETATM   16  C   UNL     2      -9.836   8.594  70.586  1.00  0.00    -0.220 A  
HETATM   17  C   UNL     2      -6.744   8.715  71.597  1.00  0.00    -0.084 A  
HETATM   18  C   UNL     2     -10.056   8.098  71.883  1.00  0.00    -0.285 A  
HETATM   19  C   UNL     2     -11.267   8.321  72.540  1.00  0.00    -0.446 A  
HETATM   20  C   UNL     2      -5.667   9.457  72.076  1.00  0.00    -0.028 A  
HETATM   21  C   UNL     2     -12.279   9.032  71.900  1.00  0.00    -0.381 A  
HETATM   22  C   UNL     2      -5.186  10.521  71.328  1.00  0.00    -0.084 A  
HETATM   23  C   UNL     2      -5.802  10.795  70.121  1.00  0.00    -0.093 A  
HETATM   24 CL   UNL     2     -13.783   9.278  72.698  1.00  0.00    -0.464 Cl 
HETATM   25  C   UNL     2     -12.084   9.531  70.617  1.00  0.00    -0.230 A  
HETATM   26  N   UNL     2      -6.850  10.093  69.633  1.00  0.00    -0.073 NA 
HETATM   27  C   UNL     2     -10.867   9.318  69.965  1.00  0.00    -0.264 A  
ENDBRANCH  12  13
ENDBRANCH   4  12
TORSDOF 2
ENDMDL
MODEL       91
REMARK 921   NORMALIZED FREE ENERGY PREDICTED BY IDOCK:   -4.06 KCAL/MOL
REMARK 922        TOTAL FREE ENERGY PREDICTED BY IDOCK:   -5.22 KCAL/MOL
REMARK 923 INTER-LIGAND FREE ENERGY PREDICTED BY IDOCK:   -4.81 KCAL/MOL
REMARK 924 INTRA-LIGAND FREE ENERGY PREDICTED BY IDOCK:   -0.41 KCAL/MOL
REMARK 927      BINDING AFFINITY PREDICTED BY RF-SCORE:    0.00 PKD
ROOT
HETATM    1  O   UNL     1     -12.602  10.691  71.029  1.00  0.00    -0.348 OA 
HETATM    2  C   UNL     1     -13.147   9.470  70.961  1.00  0.00    -0.198 C  
HETATM    3  C   UNL     2     -10.545  11.158  65.591  1.00  0.00    -0.223 C  
HETATM    4  N   UNL     2     -10.941  12.215  66.518  1.00  0.00    -0.270 NA 
HETATM    5  O   UNL     1     -14.356   9.293  70.969  1.00  0.00    -0.044 OA 
HETATM    6  C   UNL     1     -12.244   8.320  70.746  1.00  0.00    -0.001 C  
HETATM    7  C   UNL     1     -10.915   8.151  70.816  1.00  0.00    -0.261 C  
HETATM    8  O   UNL     1     -10.265  10.210  71.788  1.00  0.00     1.165 OA 
HETATM    9  C   UNL     2     -12.257  12.739  66.142  1.00  0.00    -0.271 C  
HETATM   10  O   UNL     1      -8.690   8.878  70.877  1.00  0.00    -0.172 OA 
HETATM   11  C   UNL     1      -9.950   9.170  71.231  1.00  0.00    -0.303 C  
ENDROOT
BRANCH   4  12
HETATM   12  C   UNL     2     -10.956  11.774  67.919  1.00  0.00    -0.221 C  
BRANCH  12  13
HETATM   13  C   UNL     2     -11.896  12.590  68.826  1.00  0.00    -0.347 C  
HETATM   14  C   UNL     2     -11.189  13.661  69.685  1.00  0.00    -0.147 C  
HETATM   15  C   UNL     2     -12.106  14.232  70.769  1.00  0.00    -0.348 A  
HETATM   16  C   UNL     2     -10.523  14.738  68.828  1.00  0.00    -0.250 A  
HETATM   17  C   UNL     2     -13.331  14.831  70.473  1.00  0.00    -0.104 A  
HETATM   18  C   UNL     2     -11.242  15.518  67.905  1.00  0.00    -0.325 A  
HETATM   19  C   UNL     2     -10.593  16.457  67.101  1.00  0.00    -0.276 A  
HETATM   20  C   UNL     2     -14.100  15.366  71.503  1.00  0.00    -0.596 A  
HETATM   21  C   UNL     2      -9.214  16.619  67.204  1.00  0.00    -0.222 A  
HETATM   22  C   UNL     2     -13.644  15.278  72.810  1.00  0.00    -0.611 A  
HETATM   23  C   UNL     2     -12.434  14.647  73.032  1.00  0.00    -0.304 A  
HETATM   24 CL   UNL     2      -8.412  17.754  66.190  1.00  0.00    -0.212 Cl 
HETATM   25  C   UNL     2      -8.482  15.859  68.110  1.00  0.00    -0.167 A  
HETATM   26  N   UNL     2     -11.666  14.122  72.051  1.00  0.00     0.439 NA 
HETATM   27  C   UNL     2      -9.134  14.927  68.922  1.00  0.00    -0.191 A  
ENDBRANCH  12  13
ENDBRANCH   4  12
TORSDOF 2
ENDMDL
MODEL       92
REMARK 921   NORMALIZED FREE ENERGY PREDICTED BY IDOCK:   -4.05 KCAL/MOL
REMARK 922        TOTAL FREE ENERGY PREDICTED BY IDOCK:   -5.21 KCAL/MOL
REMARK 923 INTER-LIGAND FREE ENERGY PREDICTED BY IDOCK:   -4.76 KCAL/MOL
REMARK 924 INTRA-LIGAND FREE ENERGY PREDICTED BY IDOCK:   -0.44 KCAL/MOL
REMARK 927      BINDING AFFINITY PREDICTED BY RF-SCORE:    0.00 PKD
ROOT
HETATM    1  O   UNL     1     -10.812  11.735  65.295  1.00  0.00    -0.280 OA 
HETATM    2  C   UNL     1     -11.953  12.420  65.439  1.00  0.00    -0.398 C  
HETATM    3  C   UNL     2     -11.042   8.412  70.083  1.00  0.00    -0.182 C  
HETATM    4  N   UNL     2     -10.359   8.154  68.816  1.00  0.00    -0.207 NA 
HETATM    5  O   UNL     1     -12.922  12.236  64.720  1.00  0.00    -0.713 OA 
HETATM    6  C   UNL     1     -12.066  13.339  66.592  1.00  0.00    -0.421 C  
HETATM    7  C   UNL     1     -11.188  13.853  67.465  1.00  0.00    -0.323 C  
HETATM    8  O   UNL     1      -9.144  13.183  66.474  1.00  0.00    -0.216 OA 
HETATM    9  C   UNL     2     -11.130   7.191  68.024  1.00  0.00     0.027 C  
HETATM   10  O   UNL     1      -9.137  13.955  68.593  1.00  0.00    -0.172 OA 
HETATM   11  C   UNL     1      -9.739  13.647  67.434  1.00  0.00    -0.228 C  
ENDROOT
BRANCH   4  12
HETATM   12  C   UNL     2     -10.122   9.375  68.034  1.00  0.00    -0.191 C  
BRANCH  12  13
HETATM   13  C   UNL     2      -9.636   9.115  66.596  1.00  0.00    -0.263 C  
HETATM   14  C   UNL     2      -8.101   9.115  66.426  1.00  0.00    -0.107 C  
HETATM   15  C   UNL     2      -7.680   9.151  64.956  1.00  0.00    -0.109 A  
HETATM   16  C   UNL     2      -7.435   7.989  67.218  1.00  0.00    -0.093 A  
HETATM   17  C   UNL     2      -8.093   8.186  64.036  1.00  0.00    -0.122 A  
HETATM   18  C   UNL     2      -7.760   6.635  67.023  1.00  0.00    -0.103 A  
HETATM   19  C   UNL     2      -7.170   5.637  67.799  1.00  0.00    -0.072 A  
HETATM   20  C   UNL     2      -7.642   8.254  62.720  1.00  0.00    -0.120 A  
HETATM   21  C   UNL     2      -6.256   5.983  68.791  1.00  0.00    -0.036 A  
HETATM   22  C   UNL     2      -6.804   9.292  62.341  1.00  0.00    -0.090 A  
HETATM   23  C   UNL     2      -6.458  10.227  63.298  1.00  0.00    -0.120 A  
HETATM   24 CL   UNL     2      -5.554   4.754  69.768  1.00  0.00    -0.011 Cl 
HETATM   25  C   UNL     2      -5.919   7.315  69.003  1.00  0.00    -0.023 A  
HETATM   26  N   UNL     2      -6.878  10.183  64.582  1.00  0.00    -0.130 NA 
HETATM   27  C   UNL     2      -6.502   8.313  68.217  1.00  0.00    -0.059 A  
ENDBRANCH  12  13
ENDBRANCH   4  12
TORSDOF 2
ENDMDL
MODEL       93
REMARK 921   NORMALIZED FREE ENERGY PREDICTED BY IDOCK:   -4.04 KCAL/MOL
REMARK 922        TOTAL FREE ENERGY PREDICTED BY IDOCK:   -5.19 KCAL/MOL
REMARK 923 INTER-LIGAND FREE ENERGY PREDICTED BY IDOCK:   -4.94 KCAL/MOL
REMARK 924 INTRA-LIGAND FREE ENERGY PREDICTED BY IDOCK:   -0.25 KCAL/MOL
REMARK 927      BINDING AFFINITY PREDICTED BY RF-SCORE:    0.00 PKD
ROOT
HETATM    1  O   UNL     1     -11.844   8.128  70.510  1.00  0.00    -0.166 OA 
HETATM    2  C   UNL     1     -12.355   7.493  71.571  1.00  0.00    -0.339 C  
HETATM    3  C   UNL     2      -8.211   4.008  68.546  1.00  0.00    -0.075 C  
HETATM    4  N   UNL     2      -8.862   5.089  67.808  1.00  0.00    -0.103 NA 
HETATM    5  O   UNL     1     -13.509   7.094  71.602  1.00  0.00    -0.379 OA 
HETATM    6  C   UNL     1     -11.442   7.162  72.685  1.00  0.00    -0.274 C  
HETATM    7  C   UNL     1     -10.200   7.546  73.020  1.00  0.00    -0.360 C  
HETATM    8  O   UNL     1      -9.858   9.309  71.476  1.00  0.00    -0.288 OA 
HETATM    9  C   UNL     2      -9.994   4.557  67.043  1.00  0.00    -0.179 C  
HETATM   10  O   UNL     1      -8.093   8.484  72.612  1.00  0.00    -0.310 OA 
HETATM   11  C   UNL     1      -9.399   8.543  72.308  1.00  0.00    -0.293 C  
ENDROOT
BRANCH   4  12
HETATM   12  C   UNL     2      -9.311   6.187  68.675  1.00  0.00    -0.121 C  
BRANCH  12  13
HETATM   13  C   UNL     2      -9.734   7.456  67.913  1.00  0.00    -0.166 C  
HETATM   14  C   UNL     2      -8.560   8.309  67.383  1.00  0.00    -0.125 C  
HETATM   15  C   UNL     2      -9.016   9.688  66.904  1.00  0.00    -0.134 A  
HETATM   16  C   UNL     2      -7.723   7.555  66.350  1.00  0.00    -0.089 A  
HETATM   17  C   UNL     2      -9.988   9.853  65.916  1.00  0.00    -0.347 A  
HETATM   18  C   UNL     2      -8.276   7.035  65.166  1.00  0.00    -0.113 A  
HETATM   19  C   UNL     2      -7.493   6.307  64.269  1.00  0.00    -0.086 A  
HETATM   20  C   UNL     2     -10.330  11.136  65.496  1.00  0.00    -0.326 A  
HETATM   21  C   UNL     2      -6.149   6.080  64.550  1.00  0.00    -0.026 A  
HETATM   22  C   UNL     2      -9.710  12.231  66.080  1.00  0.00    -0.256 A  
HETATM   23  C   UNL     2      -8.776  11.994  67.071  1.00  0.00    -0.188 A  
HETATM   24 CL   UNL     2      -5.194   5.156  63.459  1.00  0.00    -0.009 Cl 
HETATM   25  C   UNL     2      -5.580   6.585  65.715  1.00  0.00    -0.021 A  
HETATM   26  N   UNL     2      -8.424  10.759  67.496  1.00  0.00    -0.119 NA 
HETATM   27  C   UNL     2      -6.362   7.323  66.607  1.00  0.00    -0.051 A  
ENDBRANCH  12  13
ENDBRANCH   4  12
TORSDOF 2
ENDMDL
MODEL       94
REMARK 921   NORMALIZED FREE ENERGY PREDICTED BY IDOCK:   -4.00 KCAL/MOL
REMARK 922        TOTAL FREE ENERGY PREDICTED BY IDOCK:   -5.16 KCAL/MOL
REMARK 923 INTER-LIGAND FREE ENERGY PREDICTED BY IDOCK:   -4.36 KCAL/MOL
REMARK 924 INTRA-LIGAND FREE ENERGY PREDICTED BY IDOCK:   -0.80 KCAL/MOL
REMARK 927      BINDING AFFINITY PREDICTED BY RF-SCORE:    0.00 PKD
ROOT
HETATM    1  O   UNL     1      -6.860   4.945  68.022  1.00  0.00    -0.053 OA 
HETATM    2  C   UNL     1      -7.292   3.823  68.609  1.00  0.00    -0.054 C  
HETATM    3  C   UNL     2      -9.465   8.906  71.420  1.00  0.00    -0.274 C  
HETATM    4  N   UNL     2      -8.244   9.035  70.627  1.00  0.00    -0.163 NA 
HETATM    5  O   UNL     1      -6.552   3.096  69.255  1.00  0.00    -0.033 OA 
HETATM    6  C   UNL     1      -8.741   3.535  68.568  1.00  0.00    -0.137 C  
HETATM    7  C   UNL     1      -9.772   4.031  67.867  1.00  0.00    -0.148 C  
HETATM    8  O   UNL     1      -8.622   5.380  66.297  1.00  0.00    -0.117 OA 
HETATM    9  C   UNL     2      -7.071   8.950  71.503  1.00  0.00    -0.059 C  
HETATM   10  O   UNL     1     -10.852   5.624  66.533  1.00  0.00    -0.284 OA 
HETATM   11  C   UNL     1      -9.675   5.047  66.818  1.00  0.00    -0.174 C  
ENDROOT
BRANCH   4  12
HETATM   12  C   UNL     2      -8.147   8.034  69.556  1.00  0.00    -0.120 C  
BRANCH  12  13
HETATM   13  C   UNL     2      -7.488   8.556  68.265  1.00  0.00    -0.096 C  
HETATM   14  C   UNL     2      -8.482   8.971  67.159  1.00  0.00    -0.113 C  
HETATM   15  C   UNL     2      -7.791   9.195  65.813  1.00  0.00    -0.098 A  
HETATM   16  C   UNL     2      -9.364  10.144  67.589  1.00  0.00    -0.162 A  
HETATM   17  C   UNL     2      -6.748  10.109  65.651  1.00  0.00    -0.116 A  
HETATM   18  C   UNL     2      -8.829  11.380  67.994  1.00  0.00    -0.155 A  
HETATM   19  C   UNL     2      -9.661  12.412  68.429  1.00  0.00    -0.189 A  
HETATM   20  C   UNL     2      -6.188  10.294  64.390  1.00  0.00    -0.111 A  
HETATM   21  C   UNL     2     -11.038  12.217  68.477  1.00  0.00    -0.252 A  
HETATM   22  C   UNL     2      -6.663   9.553  63.318  1.00  0.00    -0.101 A  
HETATM   23  C   UNL     2      -7.679   8.647  63.557  1.00  0.00    -0.136 A  
HETATM   24 CL   UNL     2     -12.060  13.479  69.044  1.00  0.00    -0.366 Cl 
HETATM   25  C   UNL     2     -11.590  11.002  68.082  1.00  0.00    -0.345 A  
HETATM   26  N   UNL     2      -8.243   8.450  64.770  1.00  0.00    -0.161 NA 
HETATM   27  C   UNL     2     -10.757   9.973  67.635  1.00  0.00    -0.340 A  
ENDBRANCH  12  13
ENDBRANCH   4  12
TORSDOF 2
ENDMDL
MODEL       95
REMARK 921   NORMALIZED FREE ENERGY PREDICTED BY IDOCK:   -3.96 KCAL/MOL
REMARK 922        TOTAL FREE ENERGY PREDICTED BY IDOCK:   -5.11 KCAL/MOL
REMARK 923 INTER-LIGAND FREE ENERGY PREDICTED BY IDOCK:   -4.20 KCAL/MOL
REMARK 924 INTRA-LIGAND FREE ENERGY PREDICTED BY IDOCK:   -0.91 KCAL/MOL
REMARK 927      BINDING AFFINITY PREDICTED BY RF-SCORE:    0.00 PKD
ROOT
HETATM    1  O   UNL     1     -10.647   3.687  72.674  1.00  0.00    -0.146 OA 
HETATM    2  C   UNL     1     -10.326   2.394  72.806  1.00  0.00    -0.159 C  
HETATM    3  C   UNL     2      -7.664   4.959  67.826  1.00  0.00    -0.083 C  
HETATM    4  N   UNL     2      -8.867   5.594  68.359  1.00  0.00    -0.109 NA 
HETATM    5  O   UNL     1     -11.132   1.497  72.613  1.00  0.00    -0.146 OA 
HETATM    6  C   UNL     1      -8.912   2.057  73.073  1.00  0.00    -0.074 C  
HETATM    7  C   UNL     1      -7.838   2.767  73.452  1.00  0.00    -0.059 C  
HETATM    8  O   UNL     1      -8.853   4.839  73.987  1.00  0.00    -0.110 OA 
HETATM    9  C   UNL     2     -10.042   5.145  67.604  1.00  0.00    -0.157 C  
HETATM   10  O   UNL     1      -6.610   4.735  73.777  1.00  0.00    -0.058 OA 
HETATM   11  C   UNL     1      -7.837   4.193  73.785  1.00  0.00    -0.081 C  
ENDROOT
BRANCH   4  12
HETATM   12  C   UNL     2      -9.063   5.342  69.793  1.00  0.00    -0.116 C  
BRANCH  12  13
HETATM   13  C   UNL     2      -8.118   6.143  70.707  1.00  0.00    -0.124 C  
HETATM   14  C   UNL     2      -8.331   7.672  70.669  1.00  0.00    -0.125 C  
HETATM   15  C   UNL     2      -7.192   8.432  71.351  1.00  0.00    -0.084 A  
HETATM   16  C   UNL     2      -9.716   8.073  71.177  1.00  0.00    -0.190 A  
HETATM   17  C   UNL     2      -6.831   8.203  72.680  1.00  0.00    -0.099 A  
HETATM   18  C   UNL     2     -10.173   7.737  72.464  1.00  0.00    -0.320 A  
HETATM   19  C   UNL     2     -11.463   8.074  72.877  1.00  0.00    -0.329 A  
HETATM   20  C   UNL     2      -5.810   8.958  73.254  1.00  0.00    -0.075 A  
HETATM   21  C   UNL     2     -12.316   8.741  72.003  1.00  0.00    -0.377 A  
HETATM   22  C   UNL     2      -5.157   9.912  72.489  1.00  0.00    -0.024 A  
HETATM   23  C   UNL     2      -5.549  10.067  71.173  1.00  0.00    -0.076 A  
HETATM   24 CL   UNL     2     -13.916   9.128  72.503  1.00  0.00    -0.510 Cl 
HETATM   25  C   UNL     2     -11.886   9.084  70.725  1.00  0.00    -0.251 A  
HETATM   26  N   UNL     2      -6.538   9.351  70.592  1.00  0.00    -0.077 NA 
HETATM   27  C   UNL     2     -10.591   8.756  70.316  1.00  0.00    -0.239 A  
ENDBRANCH  12  13
ENDBRANCH   4  12
TORSDOF 2
ENDMDL
MODEL       96
REMARK 921   NORMALIZED FREE ENERGY PREDICTED BY IDOCK:   -3.95 KCAL/MOL
REMARK 922        TOTAL FREE ENERGY PREDICTED BY IDOCK:   -5.10 KCAL/MOL
REMARK 923 INTER-LIGAND FREE ENERGY PREDICTED BY IDOCK:   -4.29 KCAL/MOL
REMARK 924 INTRA-LIGAND FREE ENERGY PREDICTED BY IDOCK:   -0.81 KCAL/MOL
REMARK 927      BINDING AFFINITY PREDICTED BY RF-SCORE:    0.00 PKD
ROOT
HETATM    1  O   UNL     1     -10.162   6.313  72.182  1.00  0.00    -0.183 OA 
HETATM    2  C   UNL     1     -10.540   5.117  72.650  1.00  0.00    -0.228 C  
HETATM    3  C   UNL     2      -9.175   4.929  66.603  1.00  0.00    -0.126 C  
HETATM    4  N   UNL     2      -9.542   6.221  67.179  1.00  0.00    -0.128 NA 
HETATM    5  O   UNL     1     -11.692   4.875  72.973  1.00  0.00    -0.278 OA 
HETATM    6  C   UNL     1      -9.540   4.028  72.650  1.00  0.00    -0.185 C  
HETATM    7  C   UNL     1      -8.209   3.982  72.490  1.00  0.00    -0.098 C  
HETATM    8  O   UNL     1      -7.685   6.291  72.545  1.00  0.00    -0.100 OA 
HETATM    9  C   UNL     2     -10.963   6.488  66.936  1.00  0.00    -0.338 C  
HETATM   10  O   UNL     1      -6.128   4.827  71.826  1.00  0.00    -0.019 OA 
HETATM   11  C   UNL     1      -7.334   5.144  72.320  1.00  0.00    -0.092 C  
ENDROOT
BRANCH   4  12
HETATM   12  C   UNL     2      -9.251   6.312  68.616  1.00  0.00    -0.124 C  
BRANCH  12  13
HETATM   13  C   UNL     2      -8.147   7.326  68.971  1.00  0.00    -0.124 C  
HETATM   14  C   UNL     2      -8.495   8.795  68.645  1.00  0.00    -0.129 C  
HETATM   15  C   UNL     2      -7.275   9.713  68.735  1.00  0.00    -0.072 A  
HETATM   16  C   UNL     2      -9.690   9.296  69.456  1.00  0.00    -0.179 A  
HETATM   17  C   UNL     2      -6.509   9.827  69.896  1.00  0.00    -0.062 A  
HETATM   18  C   UNL     2      -9.704   9.288  70.862  1.00  0.00    -0.346 A  
HETATM   19  C   UNL     2     -10.832   9.705  71.570  1.00  0.00    -0.205 A  
HETATM   20  C   UNL     2      -5.433  10.711  69.924  1.00  0.00    -0.043 A  
HETATM   21  C   UNL     2     -11.966  10.124  70.880  1.00  0.00    -0.365 A  
HETATM   22  C   UNL     2      -5.129  11.451  68.792  1.00  0.00    -0.040 A  
HETATM   23  C   UNL     2      -5.915  11.268  67.669  1.00  0.00    -0.051 A  
HETATM   24 CL   UNL     2     -13.366  10.607  71.754  1.00  0.00    -0.474 Cl 
HETATM   25  C   UNL     2     -11.976  10.141  69.489  1.00  0.00    -0.001 A  
HETATM   26  N   UNL     2      -6.966  10.419  67.614  1.00  0.00    -0.082 NA 
HETATM   27  C   UNL     2     -10.842   9.734  68.781  1.00  0.00    -0.219 A  
ENDBRANCH  12  13
ENDBRANCH   4  12
TORSDOF 2
ENDMDL
MODEL       97
REMARK 921   NORMALIZED FREE ENERGY PREDICTED BY IDOCK:   -3.94 KCAL/MOL
REMARK 922        TOTAL FREE ENERGY PREDICTED BY IDOCK:   -5.08 KCAL/MOL
REMARK 923 INTER-LIGAND FREE ENERGY PREDICTED BY IDOCK:   -4.14 KCAL/MOL
REMARK 924 INTRA-LIGAND FREE ENERGY PREDICTED BY IDOCK:   -0.94 KCAL/MOL
REMARK 927      BINDING AFFINITY PREDICTED BY RF-SCORE:    0.00 PKD
ROOT
HETATM    1  O   UNL     1      -6.977  14.903  67.287  1.00  0.00    -0.213 OA 
HETATM    2  C   UNL     1      -6.781  15.864  68.197  1.00  0.00    -0.123 C  
HETATM    3  C   UNL     2     -11.849  12.504  69.414  1.00  0.00    -0.308 C  
HETATM    4  N   UNL     2     -11.359  12.524  68.038  1.00  0.00    -0.267 NA 
HETATM    5  O   UNL     1      -6.940  17.049  67.942  1.00  0.00    -0.153 OA 
HETATM    6  C   UNL     1      -6.484  15.452  69.585  1.00  0.00    -0.171 C  
HETATM    7  C   UNL     1      -6.128  14.293  70.159  1.00  0.00    -0.160 C  
HETATM    8  O   UNL     1      -5.702  12.971  68.241  1.00  0.00    -0.066 OA 
HETATM    9  C   UNL     2     -12.104  13.520  67.260  1.00  0.00    -0.323 C  
HETATM   10  O   UNL     1      -5.884  11.965  70.252  1.00  0.00    -0.142 OA 
HETATM   11  C   UNL     1      -5.863  13.040  69.449  1.00  0.00    -0.096 C  
ENDROOT
BRANCH   4  12
HETATM   12  C   UNL     2      -9.917  12.788  67.945  1.00  0.00    -0.229 C  
BRANCH  12  13
HETATM   13  C   UNL     2      -9.141  11.754  67.110  1.00  0.00    -0.175 C  
HETATM   14  C   UNL     2      -8.322  10.742  67.940  1.00  0.00    -0.117 C  
HETATM   15  C   UNL     2      -7.348   9.937  67.077  1.00  0.00    -0.091 A  
HETATM   16  C   UNL     2      -9.213   9.866  68.822  1.00  0.00    -0.147 A  
HETATM   17  C   UNL     2      -7.770   9.174  65.987  1.00  0.00    -0.095 A  
HETATM   18  C   UNL     2     -10.240   9.063  68.293  1.00  0.00    -0.241 A  
HETATM   19  C   UNL     2     -11.068   8.316  69.132  1.00  0.00     0.188 A  
HETATM   20  C   UNL     2      -6.837   8.434  65.265  1.00  0.00    -0.067 A  
HETATM   21  C   UNL     2     -10.888   8.373  70.511  1.00  0.00    -0.232 A  
HETATM   22  C   UNL     2      -5.500   8.481  65.631  1.00  0.00    -0.035 A  
HETATM   23  C   UNL     2      -5.150   9.279  66.705  1.00  0.00    -0.033 A  
HETATM   24 CL   UNL     2     -11.931   7.476  71.544  1.00  0.00    -0.316 Cl 
HETATM   25  C   UNL     2      -9.880   9.160  71.056  1.00  0.00    -0.366 A  
HETATM   26  N   UNL     2      -6.035  10.005  67.424  1.00  0.00    -0.054 NA 
HETATM   27  C   UNL     2      -9.043   9.899  70.215  1.00  0.00    -0.108 A  
ENDBRANCH  12  13
ENDBRANCH   4  12
TORSDOF 2
ENDMDL
MODEL       98
REMARK 921   NORMALIZED FREE ENERGY PREDICTED BY IDOCK:   -3.94 KCAL/MOL
REMARK 922        TOTAL FREE ENERGY PREDICTED BY IDOCK:   -5.08 KCAL/MOL
REMARK 923 INTER-LIGAND FREE ENERGY PREDICTED BY IDOCK:   -4.48 KCAL/MOL
REMARK 924 INTRA-LIGAND FREE ENERGY PREDICTED BY IDOCK:   -0.60 KCAL/MOL
REMARK 927      BINDING AFFINITY PREDICTED BY RF-SCORE:    0.00 PKD
ROOT
HETATM    1  O   UNL     1     -10.672  12.425  68.472  1.00  0.00    -0.225 OA 
HETATM    2  C   UNL     1     -10.390  13.660  68.042  1.00  0.00    -0.250 C  
HETATM    3  C   UNL     2      -5.433   9.939  67.850  1.00  0.00    -0.039 C  
HETATM    4  N   UNL     2      -6.517   9.584  68.763  1.00  0.00    -0.047 NA 
HETATM    5  O   UNL     1     -10.343  14.621  68.796  1.00  0.00    -0.235 OA 
HETATM    6  C   UNL     1     -10.003  13.828  66.626  1.00  0.00    -0.279 C  
HETATM    7  C   UNL     1     -10.072  13.043  65.540  1.00  0.00    -0.270 C  
HETATM    8  O   UNL     1     -11.388  11.260  66.374  1.00  0.00    -0.279 OA 
HETATM    9  C   UNL     2      -6.207  10.067  70.113  1.00  0.00    -0.077 C  
HETATM   10  O   UNL     1     -10.299  11.000  64.417  1.00  0.00    -0.317 OA 
HETATM   11  C   UNL     1     -10.671  11.708  65.494  1.00  0.00    -0.281 C  
ENDROOT
BRANCH   4  12
HETATM   12  C   UNL     2      -7.823  10.098  68.332  1.00  0.00    -0.093 C  
BRANCH  12  13
HETATM   13  C   UNL     2      -8.703   9.058  67.614  1.00  0.00    -0.124 C  
HETATM   14  C   UNL     2      -8.534   7.611  68.125  1.00  0.00    -0.124 C  
HETATM   15  C   UNL     2      -9.193   6.588  67.198  1.00  0.00    -0.128 A  
HETATM   16  C   UNL     2      -8.960   7.465  69.587  1.00  0.00    -0.141 A  
HETATM   17  C   UNL     2     -10.548   6.643  66.866  1.00  0.00    -0.376 A  
HETATM   18  C   UNL     2     -10.253   7.794  70.032  1.00  0.00    -0.210 A  
HETATM   19  C   UNL     2     -10.592   7.697  71.382  1.00  0.00    -0.236 A  
HETATM   20  C   UNL     2     -11.094   5.658  66.047  1.00  0.00     0.430 A  
HETATM   21  C   UNL     2      -9.638   7.281  72.306  1.00  0.00    -0.146 A  
HETATM   22  C   UNL     2     -10.278   4.648  65.560  1.00  0.00    -0.219 A  
HETATM   23  C   UNL     2      -8.941   4.671  65.908  1.00  0.00    -0.127 A  
HETATM   24 CL   UNL     2     -10.048   7.193  73.974  1.00  0.00    -0.354 Cl 
HETATM   25  C   UNL     2      -8.353   6.951  71.889  1.00  0.00    -0.107 A  
HETATM   26  N   UNL     2      -8.385   5.613  66.703  1.00  0.00    -0.112 NA 
HETATM   27  C   UNL     2      -8.017   7.037  70.536  1.00  0.00    -0.113 A  
ENDBRANCH  12  13
ENDBRANCH   4  12
TORSDOF 2
ENDMDL
MODEL       99
REMARK 921   NORMALIZED FREE ENERGY PREDICTED BY IDOCK:   -3.93 KCAL/MOL
REMARK 922        TOTAL FREE ENERGY PREDICTED BY IDOCK:   -5.07 KCAL/MOL
REMARK 923 INTER-LIGAND FREE ENERGY PREDICTED BY IDOCK:   -5.36 KCAL/MOL
REMARK 924 INTRA-LIGAND FREE ENERGY PREDICTED BY IDOCK:    0.29 KCAL/MOL
REMARK 927      BINDING AFFINITY PREDICTED BY RF-SCORE:    0.00 PKD
ROOT
HETATM    1  O   UNL     1     -10.482  14.725  68.000  1.00  0.00    -0.241 OA 
HETATM    2  C   UNL     1     -10.119  15.544  68.994  1.00  0.00    -0.234 C  
HETATM    3  C   UNL     2      -9.524   9.574  70.564  1.00  0.00    -0.246 C  
HETATM    4  N   UNL     2     -10.452   9.906  69.485  1.00  0.00    -0.224 NA 
HETATM    5  O   UNL     1     -10.928  16.212  69.620  1.00  0.00    -0.299 OA 
HETATM    6  C   UNL     1      -8.703  15.534  69.416  1.00  0.00    -0.258 C  
HETATM    7  C   UNL     1      -7.574  15.039  68.885  1.00  0.00    -0.144 C  
HETATM    8  O   UNL     1      -8.344  14.406  66.737  1.00  0.00    -0.142 OA 
HETATM    9  C   UNL     2     -11.817   9.996  70.014  1.00  0.00    -0.126 C  
HETATM   10  O   UNL     1      -6.337  13.663  67.449  1.00  0.00    -0.307 OA 
HETATM   11  C   UNL     1      -7.467  14.372  67.586  1.00  0.00    -0.175 C  
ENDROOT
BRANCH   4  12
HETATM   12  C   UNL     2     -10.100  11.149  68.786  1.00  0.00    -0.201 C  
BRANCH  12  13
HETATM   13  C   UNL     2     -10.016  11.008  67.255  1.00  0.00    -0.210 C  
HETATM   14  C   UNL     2      -8.922  10.039  66.758  1.00  0.00    -0.151 C  
HETATM   15  C   UNL     2      -8.683  10.158  65.251  1.00  0.00    -0.165 A  
HETATM   16  C   UNL     2      -9.172   8.603  67.218  1.00  0.00    -0.167 A  
HETATM   17  C   UNL     2      -9.703   9.979  64.316  1.00  0.00    -0.242 A  
HETATM   18  C   UNL     2     -10.354   7.907  66.908  1.00  0.00    -0.400 A  
HETATM   19  C   UNL     2     -10.573   6.615  67.388  1.00  0.00    -0.370 A  
HETATM   20  C   UNL     2      -9.411  10.062  62.957  1.00  0.00    -0.297 A  
HETATM   21  C   UNL     2      -9.616   6.007  68.196  1.00  0.00    -0.118 A  
HETATM   22  C   UNL     2      -8.113  10.341  62.555  1.00  0.00    -0.169 A  
HETATM   23  C   UNL     2      -7.159  10.534  63.537  1.00  0.00     0.080 A  
HETATM   24 CL   UNL     2      -9.901   4.427  68.813  1.00  0.00    -0.193 Cl 
HETATM   25  C   UNL     2      -8.439   6.676  68.516  1.00  0.00    -0.122 A  
HETATM   26  N   UNL     2      -7.414  10.455  64.862  1.00  0.00    -0.110 NA 
HETATM   27  C   UNL     2      -8.216   7.965  68.026  1.00  0.00    -0.127 A  
ENDBRANCH  12  13
ENDBRANCH   4  12
TORSDOF 2
ENDMDL
MODEL      100
REMARK 921   NORMALIZED FREE ENERGY PREDICTED BY IDOCK:   -3.87 KCAL/MOL
REMARK 922        TOTAL FREE ENERGY PREDICTED BY IDOCK:   -5.00 KCAL/MOL
REMARK 923 INTER-LIGAND FREE ENERGY PREDICTED BY IDOCK:   -4.28 KCAL/MOL
REMARK 924 INTRA-LIGAND FREE ENERGY PREDICTED BY IDOCK:   -0.72 KCAL/MOL
REMARK 927      BINDING AFFINITY PREDICTED BY RF-SCORE:    0.00 PKD
ROOT
HETATM    1  O   UNL     1     -10.346   9.588  66.768  1.00  0.00    -0.246 OA 
HETATM    2  C   UNL     1     -10.428  10.893  67.050  1.00  0.00    -0.244 C  
HETATM    3  C   UNL     2     -10.222   7.413  72.179  1.00  0.00    -0.192 C  
HETATM    4  N   UNL     2     -10.679   6.780  70.943  1.00  0.00    -0.228 NA 
HETATM    5  O   UNL     1     -11.443  11.543  66.852  1.00  0.00    -0.441 OA 
HETATM    6  C   UNL     1      -9.283  11.525  67.738  1.00  0.00    -0.165 C  
HETATM    7  C   UNL     1      -8.016  11.152  67.979  1.00  0.00    -0.117 C  
HETATM    8  O   UNL     1      -7.875   9.204  66.641  1.00  0.00    -0.099 OA 
HETATM    9  C   UNL     2     -12.145   6.778  70.899  1.00  0.00    -0.367 C  
HETATM   10  O   UNL     1      -6.265   9.609  68.167  1.00  0.00    -0.054 OA 
HETATM   11  C   UNL     1      -7.391   9.916  67.506  1.00  0.00    -0.090 C  
ENDROOT
BRANCH   4  12
HETATM   12  C   UNL     2     -10.139   7.421  69.736  1.00  0.00    -0.193 C  
BRANCH  12  13
HETATM   13  C   UNL     2     -10.377   6.622  68.441  1.00  0.00    -0.220 C  
HETATM   14  C   UNL     2      -9.129   5.894  67.898  1.00  0.00    -0.109 C  
HETATM   15  C   UNL     2      -9.336   5.370  66.475  1.00  0.00    -0.145 A  
HETATM   16  C   UNL     2      -8.619   4.826  68.867  1.00  0.00    -0.095 A  
HETATM   17  C   UNL     2     -10.374   4.497  66.144  1.00  0.00    -0.258 A  
HETATM   18  C   UNL     2      -9.425   3.760  69.305  1.00  0.00    -0.252 A  
HETATM   19  C   UNL     2      -8.944   2.832  70.229  1.00  0.00    -0.165 A  
HETATM   20  C   UNL     2     -10.484   4.027  64.838  1.00  0.00    -0.175 A  
HETATM   21  C   UNL     2      -7.655   2.966  70.737  1.00  0.00    -0.039 A  
HETATM   22  C   UNL     2      -9.571   4.449  63.883  1.00  0.00    -0.046 A  
HETATM   23  C   UNL     2      -8.586   5.335  64.276  1.00  0.00    -0.080 A  
HETATM   24 CL   UNL     2      -7.076   1.839  71.901  1.00  0.00    -0.029 Cl 
HETATM   25  C   UNL     2      -6.840   4.013  70.319  1.00  0.00    -0.034 A  
HETATM   26  N   UNL     2      -8.454   5.805  65.537  1.00  0.00    -0.147 NA 
HETATM   27  C   UNL     2      -7.318   4.935  69.384  1.00  0.00    -0.056 A  
ENDBRANCH  12  13
ENDBRANCH   4  12
TORSDOF 2
ENDMDL
MODEL      101
REMARK 921   NORMALIZED FREE ENERGY PREDICTED BY IDOCK:   -3.78 KCAL/MOL
REMARK 922        TOTAL FREE ENERGY PREDICTED BY IDOCK:   -4.90 KCAL/MOL
REMARK 923 INTER-LIGAND FREE ENERGY PREDICTED BY IDOCK:   -4.07 KCAL/MOL
REMARK 924 INTRA-LIGAND FREE ENERGY PREDICTED BY IDOCK:   -0.84 KCAL/MOL
REMARK 927      BINDING AFFINITY PREDICTED BY RF-SCORE:    0.00 PKD
ROOT
HETATM    1  O   UNL     1      -6.781   8.970  72.444  1.00  0.00    -0.299 OA 
HETATM    2  C   UNL     1      -6.461   8.795  73.731  1.00  0.00     0.011 C  
HETATM    3  C   UNL     2     -11.739   5.905  72.231  1.00  0.00    -0.252 C  
HETATM    4  N   UNL     2     -11.313   7.025  71.394  1.00  0.00    -0.255 NA 
HETATM    5  O   UNL     1      -6.528   9.698  74.551  1.00  0.00    -0.318 OA 
HETATM    6  C   UNL     1      -6.136   7.425  74.183  1.00  0.00    -0.076 C  
HETATM    7  C   UNL     1      -5.856   6.276  73.551  1.00  0.00    -0.054 C  
HETATM    8  O   UNL     1      -5.635   7.047  71.322  1.00  0.00    -0.027 OA 
HETATM    9  C   UNL     2     -12.004   8.249  71.813  1.00  0.00    -0.316 C  
HETATM   10  O   UNL     1      -5.810   4.831  71.707  1.00  0.00    -0.011 OA 
HETATM   11  C   UNL     1      -5.734   6.112  72.101  1.00  0.00    -0.036 C  
ENDROOT
BRANCH   4  12
HETATM   12  C   UNL     2      -9.859   7.235  71.412  1.00  0.00    -0.186 C  
BRANCH  12  13
HETATM   13  C   UNL     2      -9.054   6.119  70.723  1.00  0.00    -0.156 C  
HETATM   14  C   UNL     2      -9.527   5.774  69.294  1.00  0.00    -0.159 C  
HETATM   15  C   UNL     2      -8.901   4.478  68.773  1.00  0.00    -0.101 A  
HETATM   16  C   UNL     2      -9.366   6.952  68.334  1.00  0.00    -0.129 A  
HETATM   17  C   UNL     2      -7.520   4.295  68.694  1.00  0.00    -0.059 A  
HETATM   18  C   UNL     2      -8.123   7.568  68.099  1.00  0.00    -0.124 A  
HETATM   19  C   UNL     2      -8.020   8.675  67.256  1.00  0.00    -0.101 A  
HETATM   20  C   UNL     2      -7.014   3.106  68.174  1.00  0.00    -0.049 A  
HETATM   21  C   UNL     2      -9.161   9.188  66.646  1.00  0.00    -0.164 A  
HETATM   22  C   UNL     2      -7.892   2.116  67.759  1.00  0.00    -0.059 A  
HETATM   23  C   UNL     2      -9.247   2.356  67.891  1.00  0.00    -0.202 A  
HETATM   24 CL   UNL     2      -9.037  10.572  65.631  1.00  0.00    -0.194 Cl 
HETATM   25  C   UNL     2     -10.401   8.595  66.863  1.00  0.00    -0.355 A  
HETATM   26  N   UNL     2      -9.765   3.501  68.390  1.00  0.00    -0.071 NA 
HETATM   27  C   UNL     2     -10.502   7.480  67.698  1.00  0.00    -0.319 A  
ENDBRANCH  12  13
ENDBRANCH   4  12
TORSDOF 2
ENDMDL
MODEL      102
REMARK 921   NORMALIZED FREE ENERGY PREDICTED BY IDOCK:   -3.74 KCAL/MOL
REMARK 922        TOTAL FREE ENERGY PREDICTED BY IDOCK:   -4.86 KCAL/MOL
REMARK 923 INTER-LIGAND FREE ENERGY PREDICTED BY IDOCK:   -4.99 KCAL/MOL
REMARK 924 INTRA-LIGAND FREE ENERGY PREDICTED BY IDOCK:    0.14 KCAL/MOL
REMARK 927      BINDING AFFINITY PREDICTED BY RF-SCORE:    0.00 PKD
ROOT
HETATM    1  O   UNL     1      -9.877  13.289  66.153  1.00  0.00    -0.283 OA 
HETATM    2  C   UNL     1     -10.538  14.340  65.652  1.00  0.00    -0.319 C  
HETATM    3  C   UNL     2     -12.596  12.764  71.286  1.00  0.00    -0.250 C  
HETATM    4  N   UNL     2     -11.906  11.742  70.502  1.00  0.00    -0.285 NA 
HETATM    5  O   UNL     1     -11.319  14.237  64.719  1.00  0.00    -0.352 OA 
HETATM    6  C   UNL     1     -10.399  15.638  66.344  1.00  0.00    -0.303 C  
HETATM    7  C   UNL     1      -9.561  16.113  67.279  1.00  0.00    -0.231 C  
HETATM    8  O   UNL     1      -7.966  14.364  67.363  1.00  0.00    -0.182 OA 
HETATM    9  C   UNL     2     -12.887  10.896  69.814  1.00  0.00     0.189 C  
HETATM   10  O   UNL     1      -7.976  15.923  68.993  1.00  0.00    -0.193 OA 
HETATM   11  C   UNL     1      -8.424  15.388  67.847  1.00  0.00    -0.147 C  
ENDROOT
BRANCH   4  12
HETATM   12  C   UNL     2     -10.959  12.306  69.531  1.00  0.00     0.056 C  
BRANCH  12  13
HETATM   13  C   UNL     2     -10.574  11.340  68.394  1.00  0.00    -0.226 C  
HETATM   14  C   UNL     2      -9.384  10.410  68.717  1.00  0.00    -0.175 C  
HETATM   15  C   UNL     2      -8.857   9.692  67.473  1.00  0.00    -0.125 A  
HETATM   16  C   UNL     2      -9.693   9.463  69.877  1.00  0.00    -0.236 A  
HETATM   17  C   UNL     2      -9.670   8.888  66.672  1.00  0.00    -0.303 A  
HETATM   18  C   UNL     2     -10.778   8.569  69.851  1.00  0.00    -0.224 A  
HETATM   19  C   UNL     2     -11.062   7.755  70.949  1.00  0.00    -0.270 A  
HETATM   20  C   UNL     2      -9.118   8.230  65.576  1.00  0.00    -0.065 A  
HETATM   21  C   UNL     2     -10.271   7.835  72.091  1.00  0.00    -0.213 A  
HETATM   22  C   UNL     2      -7.773   8.399  65.287  1.00  0.00    -0.098 A  
HETATM   23  C   UNL     2      -7.034   9.230  66.108  1.00  0.00    -0.086 A  
HETATM   24 CL   UNL     2     -10.641   6.853  73.455  1.00  0.00    -0.346 Cl 
HETATM   25  C   UNL     2      -9.192   8.712  72.140  1.00  0.00    -0.326 A  
HETATM   26  N   UNL     2      -7.543   9.879  67.180  1.00  0.00    -0.092 NA 
HETATM   27  C   UNL     2      -8.902   9.518  71.036  1.00  0.00     0.090 A  
ENDBRANCH  12  13
ENDBRANCH   4  12
TORSDOF 2
ENDMDL
MODEL      103
REMARK 921   NORMALIZED FREE ENERGY PREDICTED BY IDOCK:   -3.71 KCAL/MOL
REMARK 922        TOTAL FREE ENERGY PREDICTED BY IDOCK:   -4.83 KCAL/MOL
REMARK 923 INTER-LIGAND FREE ENERGY PREDICTED BY IDOCK:   -4.26 KCAL/MOL
REMARK 924 INTRA-LIGAND FREE ENERGY PREDICTED BY IDOCK:   -0.56 KCAL/MOL
REMARK 927      BINDING AFFINITY PREDICTED BY RF-SCORE:    0.00 PKD
ROOT
HETATM    1  O   UNL     1     -10.784  10.412  68.760  1.00  0.00    -0.199 OA 
HETATM    2  C   UNL     1     -10.324   9.161  68.641  1.00  0.00    -0.209 C  
HETATM    3  C   UNL     2     -10.301  12.175  63.221  1.00  0.00    -0.311 C  
HETATM    4  N   UNL     2     -11.209  12.651  64.261  1.00  0.00    -0.338 NA 
HETATM    5  O   UNL     1     -11.052   8.185  68.738  1.00  0.00     0.103 OA 
HETATM    6  C   UNL     1      -8.909   8.977  68.255  1.00  0.00    -0.134 C  
HETATM    7  C   UNL     1      -7.844   9.791  68.197  1.00  0.00    -0.085 C  
HETATM    8  O   UNL     1      -8.708  11.716  69.274  1.00  0.00     0.236 OA 
HETATM    9  C   UNL     2     -12.549  12.097  64.044  1.00  0.00    -0.403 C  
HETATM   10  O   UNL     1      -6.774  11.873  68.125  1.00  0.00    -0.057 OA 
HETATM   11  C   UNL     1      -7.826  11.196  68.609  1.00  0.00    -0.138 C  
ENDROOT
BRANCH   4  12
HETATM   12  C   UNL     2     -10.746  12.331  65.618  1.00  0.00    -0.267 C  
BRANCH  12  13
HETATM   13  C   UNL     2     -11.566  12.999  66.737  1.00  0.00    -0.420 C  
HETATM   14  C   UNL     2     -10.721  13.625  67.868  1.00  0.00    -0.257 C  
HETATM   15  C   UNL     2     -11.569  14.005  69.083  1.00  0.00    -0.313 A  
HETATM   16  C   UNL     2      -9.840  14.768  67.362  1.00  0.00    -0.222 A  
HETATM   17  C   UNL     2     -12.657  14.876  68.992  1.00  0.00     0.207 A  
HETATM   18  C   UNL     2     -10.372  15.901  66.720  1.00  0.00    -0.298 A  
HETATM   19  C   UNL     2      -9.535  16.902  66.225  1.00  0.00    -0.298 A  
HETATM   20  C   UNL     2     -13.363  15.212  70.144  1.00  0.00     0.192 A  
HETATM   21  C   UNL     2      -8.155  16.776  66.355  1.00  0.00    -0.320 A  
HETATM   22  C   UNL     2     -12.986  14.663  71.360  1.00  0.00    -0.404 A  
HETATM   23  C   UNL     2     -11.915  13.788  71.371  1.00  0.00     0.159 A  
HETATM   24 CL   UNL     2      -7.124  17.996  65.716  1.00  0.00    -0.300 Cl 
HETATM   25  C   UNL     2      -7.607  15.665  66.986  1.00  0.00    -0.245 A  
HETATM   26  N   UNL     2     -11.210  13.446  70.269  1.00  0.00     0.255 NA 
HETATM   27  C   UNL     2      -8.445  14.668  67.492  1.00  0.00    -0.200 A  
ENDBRANCH  12  13
ENDBRANCH   4  12
TORSDOF 2
ENDMDL
MODEL      104
REMARK 921   NORMALIZED FREE ENERGY PREDICTED BY IDOCK:   -3.70 KCAL/MOL
REMARK 922        TOTAL FREE ENERGY PREDICTED BY IDOCK:   -4.81 KCAL/MOL
REMARK 923 INTER-LIGAND FREE ENERGY PREDICTED BY IDOCK:   -4.08 KCAL/MOL
REMARK 924 INTRA-LIGAND FREE ENERGY PREDICTED BY IDOCK:   -0.74 KCAL/MOL
REMARK 927      BINDING AFFINITY PREDICTED BY RF-SCORE:    0.00 PKD
ROOT
HETATM    1  O   UNL     1      -7.873   6.381  67.132  1.00  0.00    -0.105 OA 
HETATM    2  C   UNL     1      -6.813   5.932  66.450  1.00  0.00    -0.059 C  
HETATM    3  C   UNL     2      -5.530   6.763  72.460  1.00  0.00    -0.037 C  
HETATM    4  N   UNL     2      -6.652   7.507  71.894  1.00  0.00    -0.042 NA 
HETATM    5  O   UNL     1      -6.211   6.626  65.645  1.00  0.00    -0.036 OA 
HETATM    6  C   UNL     1      -6.292   4.590  66.785  1.00  0.00    -0.037 C  
HETATM    7  C   UNL     1      -6.767   3.554  67.494  1.00  0.00    -0.042 C  
HETATM    8  O   UNL     1      -8.996   4.265  67.863  1.00  0.00    -0.110 OA 
HETATM    9  C   UNL     2      -6.218   8.859  71.527  1.00  0.00    -0.069 C  
HETATM   10  O   UNL     1      -8.184   2.529  69.052  1.00  0.00    -0.051 OA 
HETATM   11  C   UNL     1      -8.089   3.488  68.119  1.00  0.00    -0.078 C  
ENDROOT
BRANCH   4  12
HETATM   12  C   UNL     2      -7.256   6.840  70.732  1.00  0.00    -0.070 C  
BRANCH  12  13
HETATM   13  C   UNL     2      -7.890   5.473  71.051  1.00  0.00    -0.105 C  
HETATM   14  C   UNL     2      -8.883   5.486  72.234  1.00  0.00    -0.132 C  
HETATM   15  C   UNL     2      -9.252   4.076  72.696  1.00  0.00    -0.109 A  
HETATM   16  C   UNL     2     -10.100   6.369  71.953  1.00  0.00    -0.204 A  
HETATM   17  C   UNL     2      -9.809   3.128  71.835  1.00  0.00    -0.238 A  
HETATM   18  C   UNL     2     -10.947   6.156  70.850  1.00  0.00    -0.359 A  
HETATM   19  C   UNL     2     -12.019   7.012  70.595  1.00  0.00    -0.361 A  
HETATM   20  C   UNL     2     -10.158   1.874  72.329  1.00  0.00    -0.229 A  
HETATM   21  C   UNL     2     -12.250   8.099  71.433  1.00  0.00    -0.297 A  
HETATM   22  C   UNL     2      -9.931   1.580  73.665  1.00  0.00    -0.121 A  
HETATM   23  C   UNL     2      -9.352   2.557  74.453  1.00  0.00    -0.081 A  
HETATM   24 CL   UNL     2     -13.554   9.171  71.098  1.00  0.00    -0.256 Cl 
HETATM   25  C   UNL     2     -11.427   8.329  72.529  1.00  0.00    -0.454 A  
HETATM   26  N   UNL     2      -9.006   3.784  74.001  1.00  0.00    -0.088 NA 
HETATM   27  C   UNL     2     -10.360   7.465  72.791  1.00  0.00    -0.306 A  
ENDBRANCH  12  13
ENDBRANCH   4  12
TORSDOF 2
ENDMDL
MODEL      105
REMARK 921   NORMALIZED FREE ENERGY PREDICTED BY IDOCK:   -3.57 KCAL/MOL
REMARK 922        TOTAL FREE ENERGY PREDICTED BY IDOCK:   -4.68 KCAL/MOL
REMARK 923 INTER-LIGAND FREE ENERGY PREDICTED BY IDOCK:   -4.00 KCAL/MOL
REMARK 924 INTRA-LIGAND FREE ENERGY PREDICTED BY IDOCK:   -0.68 KCAL/MOL
REMARK 927      BINDING AFFINITY PREDICTED BY RF-SCORE:    0.00 PKD
ROOT
HETATM    1  O   UNL     1     -11.857  12.195  71.286  1.00  0.00     0.368 OA 
HETATM    2  C   UNL     1     -13.044  11.682  71.629  1.00  0.00    -0.351 C  
HETATM    3  C   UNL     2     -12.532  12.474  65.499  1.00  0.00    -0.155 C  
HETATM    4  N   UNL     2     -11.673  13.279  66.365  1.00  0.00    -0.355 NA 
HETATM    5  O   UNL     1     -13.896  12.336  72.211  1.00  0.00    -0.298 OA 
HETATM    6  C   UNL     1     -13.364  10.314  71.170  1.00  0.00    -0.339 C  
HETATM    7  C   UNL     1     -12.643   9.312  70.645  1.00  0.00     0.061 C  
HETATM    8  O   UNL     1     -10.449  10.152  70.945  1.00  0.00    -0.121 OA 
HETATM    9  C   UNL     2     -12.272  14.601  66.570  1.00  0.00    -0.131 C  
HETATM   10  O   UNL     1     -10.771   8.380  69.588  1.00  0.00    -0.232 OA 
HETATM   11  C   UNL     1     -11.193   9.326  70.441  1.00  0.00    -0.247 C  
ENDROOT
BRANCH   4  12
HETATM   12  C   UNL     2     -11.403  12.640  67.660  1.00  0.00    -0.310 C  
BRANCH  12  13
HETATM   13  C   UNL     2     -10.101  11.820  67.699  1.00  0.00    -0.206 C  
HETATM   14  C   UNL     2      -8.943  12.412  66.866  1.00  0.00    -0.212 C  
HETATM   15  C   UNL     2      -7.787  11.425  66.696  1.00  0.00    -0.137 A  
HETATM   16  C   UNL     2      -8.499  13.779  67.390  1.00  0.00    -0.209 A  
HETATM   17  C   UNL     2      -7.125  10.853  67.784  1.00  0.00    -0.082 A  
HETATM   18  C   UNL     2      -8.052  13.971  68.710  1.00  0.00    -0.065 A  
HETATM   19  C   UNL     2      -7.703  15.241  69.170  1.00  0.00    -0.200 A  
HETATM   20  C   UNL     2      -6.055   9.992  67.560  1.00  0.00    -0.058 A  
HETATM   21  C   UNL     2      -7.810  16.338  68.320  1.00  0.00    -0.164 A  
HETATM   22  C   UNL     2      -5.675   9.701  66.258  1.00  0.00    -0.053 A  
HETATM   23  C   UNL     2      -6.392  10.282  65.229  1.00  0.00    -0.125 A  
HETATM   24 CL   UNL     2      -7.410  17.908  68.898  1.00  0.00    -0.272 Cl 
HETATM   25  C   UNL     2      -8.250  16.172  67.010  1.00  0.00    -0.250 A  
HETATM   26  N   UNL     2      -7.434  11.124  65.418  1.00  0.00     0.275 NA 
HETATM   27  C   UNL     2      -8.588  14.898  66.547  1.00  0.00    -0.131 A  
ENDBRANCH  12  13
ENDBRANCH   4  12
TORSDOF 2
ENDMDL
MODEL      106
REMARK 921   NORMALIZED FREE ENERGY PREDICTED BY IDOCK:   -3.53 KCAL/MOL
REMARK 922        TOTAL FREE ENERGY PREDICTED BY IDOCK:   -4.63 KCAL/MOL
REMARK 923 INTER-LIGAND FREE ENERGY PREDICTED BY IDOCK:   -4.04 KCAL/MOL
REMARK 924 INTRA-LIGAND FREE ENERGY PREDICTED BY IDOCK:   -0.58 KCAL/MOL
REMARK 927      BINDING AFFINITY PREDICTED BY RF-SCORE:    0.00 PKD
ROOT
HETATM    1  O   UNL     1     -10.700  17.647  68.933  1.00  0.00    -0.222 OA 
HETATM    2  C   UNL     1     -10.232  18.722  69.578  1.00  0.00     0.395 C  
HETATM    3  C   UNL     2      -5.665  15.003  67.637  1.00  0.00    -0.016 C  
HETATM    4  N   UNL     2      -6.993  14.418  67.811  1.00  0.00    -0.163 NA 
HETATM    5  O   UNL     1     -10.363  18.869  70.784  1.00  0.00     1.390 OA 
HETATM    6  C   UNL     1      -9.425  19.693  68.811  1.00  0.00    -0.402 C  
HETATM    7  C   UNL     1      -9.204  19.896  67.503  1.00  0.00    -0.448 C  
HETATM    8  O   UNL     1     -10.808  18.434  66.557  1.00  0.00    -0.253 OA 
HETATM    9  C   UNL     2      -7.081  13.766  69.121  1.00  0.00    -0.053 C  
HETATM   10  O   UNL     1      -9.191  19.292  65.240  1.00  0.00     0.332 OA 
HETATM   11  C   UNL     1      -9.834  19.154  66.410  1.00  0.00    -0.381 C  
ENDROOT
BRANCH   4  12
HETATM   12  C   UNL     2      -8.076  15.399  67.663  1.00  0.00    -0.150 C  
BRANCH  12  13
HETATM   13  C   UNL     2      -9.051  15.091  66.510  1.00  0.00    -0.319 C  
HETATM   14  C   UNL     2      -9.872  13.796  66.692  1.00  0.00    -0.286 C  
HETATM   15  C   UNL     2     -10.593  13.382  65.408  1.00  0.00    -0.303 A  
HETATM   16  C   UNL     2     -10.796  13.867  67.908  1.00  0.00    -0.256 A  
HETATM   17  C   UNL     2     -11.487  14.226  64.747  1.00  0.00    -0.394 A  
HETATM   18  C   UNL     2     -11.773  14.868  68.055  1.00  0.00    -0.344 A  
HETATM   19  C   UNL     2     -12.565  14.934  69.202  1.00  0.00     0.151 A  
HETATM   20  C   UNL     2     -12.140  13.773  63.604  1.00  0.00    -0.330 A  
HETATM   21  C   UNL     2     -12.380  14.006  70.223  1.00  0.00    -0.358 A  
HETATM   22  C   UNL     2     -11.877  12.497  63.129  1.00  0.00    -0.346 A  
HETATM   23  C   UNL     2     -10.960  11.726  63.819  1.00  0.00    -0.429 A  
HETATM   24 CL   UNL     2     -13.335  14.108  71.650  1.00  0.00    -0.417 Cl 
HETATM   25  C   UNL     2     -11.420  13.008  70.101  1.00  0.00    -0.009 A  
HETATM   26  N   UNL     2     -10.314  12.139  64.933  1.00  0.00    -0.281 NA 
HETATM   27  C   UNL     2     -10.635  12.936  68.947  1.00  0.00    -0.154 A  
ENDBRANCH  12  13
ENDBRANCH   4  12
TORSDOF 2
ENDMDL
MODEL      107
REMARK 921   NORMALIZED FREE ENERGY PREDICTED BY IDOCK:   -3.52 KCAL/MOL
REMARK 922        TOTAL FREE ENERGY PREDICTED BY IDOCK:   -4.61 KCAL/MOL
REMARK 923 INTER-LIGAND FREE ENERGY PREDICTED BY IDOCK:   -4.13 KCAL/MOL
REMARK 924 INTRA-LIGAND FREE ENERGY PREDICTED BY IDOCK:   -0.48 KCAL/MOL
REMARK 927      BINDING AFFINITY PREDICTED BY RF-SCORE:    0.00 PKD
ROOT
HETATM    1  O   UNL     1      -7.347   6.608  67.162  1.00  0.00    -0.079 OA 
HETATM    2  C   UNL     1      -7.322   5.758  68.195  1.00  0.00    -0.077 C  
HETATM    3  C   UNL     2     -11.468  10.296  69.016  1.00  0.00    -0.137 C  
HETATM    4  N   UNL     2     -10.365  10.541  68.089  1.00  0.00    -0.164 NA 
HETATM    5  O   UNL     1      -6.384   5.705  68.976  1.00  0.00    -0.034 OA 
HETATM    6  C   UNL     1      -8.532   4.950  68.455  1.00  0.00    -0.095 C  
HETATM    7  C   UNL     1      -9.642   4.679  67.752  1.00  0.00    -0.203 C  
HETATM    8  O   UNL     1      -9.056   5.585  65.644  1.00  0.00    -0.160 OA 
HETATM    9  C   UNL     2      -9.297  11.278  68.771  1.00  0.00    -0.128 C  
HETATM   10  O   UNL     1     -11.206   5.035  66.045  1.00  0.00    -0.053 OA 
HETATM   11  C   UNL     1      -9.911   5.123  66.383  1.00  0.00    -0.193 C  
ENDROOT
BRANCH   4  12
HETATM   12  C   UNL     2      -9.827   9.307  67.498  1.00  0.00    -0.175 C  
BRANCH  12  13
HETATM   13  C   UNL     2      -8.564   9.518  66.644  1.00  0.00    -0.141 C  
HETATM   14  C   UNL     2      -8.834   9.726  65.138  1.00  0.00    -0.213 C  
HETATM   15  C   UNL     2      -7.556   9.633  64.302  1.00  0.00    -0.128 A  
HETATM   16  C   UNL     2      -9.641  10.996  64.868  1.00  0.00    -0.289 A  
HETATM   17  C   UNL     2      -6.449  10.451  64.534  1.00  0.00    -0.039 A  
HETATM   18  C   UNL     2      -9.203  12.268  65.275  1.00  0.00     0.293 A  
HETATM   19  C   UNL     2      -9.990  13.401  65.059  1.00  0.00    -0.179 A  
HETATM   20  C   UNL     2      -5.331  10.342  63.711  1.00  0.00    -0.150 A  
HETATM   21  C   UNL     2     -11.231  13.272  64.444  1.00  0.00    -0.381 A  
HETATM   22  C   UNL     2      -5.328   9.410  62.685  1.00  0.00    -0.083 A  
HETATM   23  C   UNL     2      -6.448   8.614  62.530  1.00  0.00    -0.095 A  
HETATM   24 CL   UNL     2     -12.214  14.664  64.206  1.00  0.00    -0.500 Cl 
HETATM   25  C   UNL     2     -11.686  12.023  64.033  1.00  0.00    -0.498 A  
HETATM   26  N   UNL     2      -7.548   8.700  63.312  1.00  0.00    -0.110 NA 
HETATM   27  C   UNL     2     -10.893  10.892  64.240  1.00  0.00    -0.121 A  
ENDBRANCH  12  13
ENDBRANCH   4  12
TORSDOF 2
ENDMDL
MODEL      108
REMARK 921   NORMALIZED FREE ENERGY PREDICTED BY IDOCK:   -3.51 KCAL/MOL
REMARK 922        TOTAL FREE ENERGY PREDICTED BY IDOCK:   -4.61 KCAL/MOL
REMARK 923 INTER-LIGAND FREE ENERGY PREDICTED BY IDOCK:   -3.79 KCAL/MOL
REMARK 924 INTRA-LIGAND FREE ENERGY PREDICTED BY IDOCK:   -0.82 KCAL/MOL
REMARK 927      BINDING AFFINITY PREDICTED BY RF-SCORE:    0.00 PKD
ROOT
HETATM    1  O   UNL     1      -9.672  12.562  68.366  1.00  0.00    -0.221 OA 
HETATM    2  C   UNL     1      -9.713  13.848  67.996  1.00  0.00    -0.226 C  
HETATM    3  C   UNL     2      -5.960  10.500  64.367  1.00  0.00    -0.053 C  
HETATM    4  N   UNL     2      -6.244   9.992  65.707  1.00  0.00    -0.084 NA 
HETATM    5  O   UNL     1      -9.205  14.736  68.663  1.00  0.00    -0.185 OA 
HETATM    6  C   UNL     1     -10.288  14.169  66.673  1.00  0.00    -0.277 C  
HETATM    7  C   UNL     1     -11.018  13.483  65.781  1.00  0.00    -0.285 C  
HETATM    8  O   UNL     1     -11.540  11.547  67.042  1.00  0.00    -0.510 OA 
HETATM    9  C   UNL     2      -5.161  10.370  66.622  1.00  0.00    -0.043 C  
HETATM   10  O   UNL     1     -11.901  11.540  64.816  1.00  0.00    -0.065 OA 
HETATM   11  C   UNL     1     -11.523  12.121  65.964  1.00  0.00    -0.370 C  
ENDROOT
BRANCH   4  12
HETATM   12  C   UNL     2      -7.534  10.454  66.236  1.00  0.00    -0.127 C  
BRANCH  12  13
HETATM   13  C   UNL     2      -8.623   9.366  66.278  1.00  0.00    -0.142 C  
HETATM   14  C   UNL     2      -8.195   8.056  66.974  1.00  0.00    -0.116 C  
HETATM   15  C   UNL     2      -9.189   6.919  66.731  1.00  0.00    -0.152 A  
HETATM   16  C   UNL     2      -7.870   8.270  68.453  1.00  0.00    -0.118 A  
HETATM   17  C   UNL     2     -10.540   7.022  67.068  1.00  0.00    -0.412 A  
HETATM   18  C   UNL     2      -8.804   8.802  69.360  1.00  0.00    -0.143 A  
HETATM   19  C   UNL     2      -8.458   9.032  70.692  1.00  0.00    -0.229 A  
HETATM   20  C   UNL     2     -11.385   5.936  66.856  1.00  0.00     0.241 A  
HETATM   21  C   UNL     2      -7.169   8.744  71.131  1.00  0.00    -0.093 A  
HETATM   22  C   UNL     2     -10.874   4.775  66.297  1.00  0.00     0.057 A  
HETATM   23  C   UNL     2      -9.533   4.753  65.962  1.00  0.00    -0.165 A  
HETATM   24 CL   UNL     2      -6.734   9.058  72.765  1.00  0.00     0.145 Cl 
HETATM   25  C   UNL     2      -6.228   8.217  70.252  1.00  0.00    -0.032 A  
HETATM   26  N   UNL     2      -8.690   5.791  66.159  1.00  0.00    -0.134 NA 
HETATM   27  C   UNL     2      -6.579   7.976  68.921  1.00  0.00    -0.049 A  
ENDBRANCH  12  13
ENDBRANCH   4  12
TORSDOF 2
ENDMDL
MODEL      109
REMARK 921   NORMALIZED FREE ENERGY PREDICTED BY IDOCK:   -3.46 KCAL/MOL
REMARK 922        TOTAL FREE ENERGY PREDICTED BY IDOCK:   -4.55 KCAL/MOL
REMARK 923 INTER-LIGAND FREE ENERGY PREDICTED BY IDOCK:   -4.85 KCAL/MOL
REMARK 924 INTRA-LIGAND FREE ENERGY PREDICTED BY IDOCK:    0.30 KCAL/MOL
REMARK 927      BINDING AFFINITY PREDICTED BY RF-SCORE:    0.00 PKD
ROOT
HETATM    1  O   UNL     1      -9.892  18.285  68.029  1.00  0.00    -0.300 OA 
HETATM    2  C   UNL     1      -9.588  19.473  68.567  1.00  0.00    -0.399 C  
HETATM    3  C   UNL     2      -5.186  15.239  69.639  1.00  0.00    -0.095 C  
HETATM    4  N   UNL     2      -6.534  14.760  69.342  1.00  0.00    -0.120 NA 
HETATM    5  O   UNL     1     -10.182  19.923  69.535  1.00  0.00    -0.292 OA 
HETATM    6  C   UNL     1      -8.412  20.192  68.036  1.00  0.00    -0.198 C  
HETATM    7  C   UNL     1      -7.646  20.052  66.943  1.00  0.00    -0.313 C  
HETATM    8  O   UNL     1      -8.904  18.450  65.734  1.00  0.00    -0.433 OA 
HETATM    9  C   UNL     2      -7.242  14.462  70.591  1.00  0.00     0.917 C  
HETATM   10  O   UNL     1      -6.787  18.896  65.096  1.00  0.00    -0.496 OA 
HETATM   11  C   UNL     1      -7.866  19.078  65.872  1.00  0.00    -0.111 C  
ENDROOT
BRANCH   4  12
HETATM   12  C   UNL     2      -7.314  15.706  68.533  1.00  0.00    -0.122 C  
BRANCH  12  13
HETATM   13  C   UNL     2      -8.662  15.149  68.040  1.00  0.00    -0.165 C  
HETATM   14  C   UNL     2      -8.546  14.015  66.999  1.00  0.00    -0.193 C  
HETATM   15  C   UNL     2      -9.886  13.705  66.327  1.00  0.00    -0.301 A  
HETATM   16  C   UNL     2      -7.856  12.776  67.572  1.00  0.00    -0.171 A  
HETATM   17  C   UNL     2     -11.021  13.342  67.055  1.00  0.00    -0.298 A  
HETATM   18  C   UNL     2      -8.343  12.099  68.704  1.00  0.00    -0.016 A  
HETATM   19  C   UNL     2      -7.660  11.002  69.232  1.00  0.00    -0.090 A  
HETATM   20  C   UNL     2     -12.199  13.035  66.380  1.00  0.00    -0.350 A  
HETATM   21  C   UNL     2      -6.474  10.578  68.641  1.00  0.00    -0.051 A  
HETATM   22  C   UNL     2     -12.231  13.112  64.996  1.00  0.00    -0.488 A  
HETATM   23  C   UNL     2     -11.077  13.503  64.342  1.00  0.00    -0.380 A  
HETATM   24 CL   UNL     2      -5.616   9.246  69.312  1.00  0.00    -0.035 Cl 
HETATM   25  C   UNL     2      -5.973  11.232  67.520  1.00  0.00    -0.055 A  
HETATM   26  N   UNL     2      -9.919  13.804  64.972  1.00  0.00    -0.250 NA 
HETATM   27  C   UNL     2      -6.663  12.323  66.986  1.00  0.00    -0.042 A  
ENDBRANCH  12  13
ENDBRANCH   4  12
TORSDOF 2
ENDMDL
MODEL      110
REMARK 921   NORMALIZED FREE ENERGY PREDICTED BY IDOCK:   -3.46 KCAL/MOL
REMARK 922        TOTAL FREE ENERGY PREDICTED BY IDOCK:   -4.55 KCAL/MOL
REMARK 923 INTER-LIGAND FREE ENERGY PREDICTED BY IDOCK:   -4.80 KCAL/MOL
REMARK 924 INTRA-LIGAND FREE ENERGY PREDICTED BY IDOCK:    0.25 KCAL/MOL
REMARK 927      BINDING AFFINITY PREDICTED BY RF-SCORE:    0.00 PKD
ROOT
HETATM    1  O   UNL     1      -9.269  11.675  64.530  1.00  0.00    -0.025 OA 
HETATM    2  C   UNL     1     -10.041  10.921  63.739  1.00  0.00    -0.353 C  
HETATM    3  C   UNL     2     -12.033  10.928  69.612  1.00  0.00    -0.343 C  
HETATM    4  N   UNL     2     -10.630  11.257  69.367  1.00  0.00    -0.156 NA 
HETATM    5  O   UNL     1      -9.660   9.856  63.276  1.00  0.00    -0.204 OA 
HETATM    6  C   UNL     1     -11.441  11.345  63.530  1.00  0.00    -0.190 C  
HETATM    7  C   UNL     1     -12.120  12.476  63.774  1.00  0.00    -0.615 C  
HETATM    8  O   UNL     1     -10.347  13.930  64.364  1.00  0.00    -0.384 OA 
HETATM    9  C   UNL     2      -9.799  10.066  69.562  1.00  0.00    -0.229 C  
HETATM   10  O   UNL     1     -12.471  14.556  64.792  1.00  0.00    -0.508 OA 
HETATM   11  C   UNL     1     -11.547  13.712  64.308  1.00  0.00    -0.382 C  
ENDROOT
BRANCH   4  12
HETATM   12  C   UNL     2     -10.397  11.821  68.031  1.00  0.00    -0.198 C  
BRANCH  12  13
HETATM   13  C   UNL     2      -9.409  13.002  68.010  1.00  0.00    -0.213 C  
HETATM   14  C   UNL     2      -8.041  12.706  68.661  1.00  0.00    -0.010 C  
HETATM   15  C   UNL     2      -7.216  13.976  68.881  1.00  0.00    -0.108 A  
HETATM   16  C   UNL     2      -7.276  11.609  67.920  1.00  0.00    -0.083 A  
HETATM   17  C   UNL     2      -6.882  14.840  67.837  1.00  0.00    -0.174 A  
HETATM   18  C   UNL     2      -6.945  11.711  66.556  1.00  0.00     0.049 A  
HETATM   19  C   UNL     2      -6.292  10.669  65.898  1.00  0.00    -0.128 A  
HETATM   20  C   UNL     2      -6.096  15.959  68.098  1.00  0.00    -0.130 A  
HETATM   21  C   UNL     2      -5.971   9.506  66.592  1.00  0.00    -0.059 A  
HETATM   22  C   UNL     2      -5.673  16.207  69.395  1.00  0.00    -0.128 A  
HETATM   23  C   UNL     2      -6.064  15.324  70.384  1.00  0.00    -0.071 A  
HETATM   24 CL   UNL     2      -5.194   8.209  65.771  1.00  0.00    -0.028 Cl 
HETATM   25  C   UNL     2      -6.288   9.382  67.941  1.00  0.00    -0.054 A  
HETATM   26  N   UNL     2      -6.824  14.228  70.158  1.00  0.00    -0.013 NA 
HETATM   27  C   UNL     2      -6.932  10.431  68.603  1.00  0.00    -0.066 A  
ENDBRANCH  12  13
ENDBRANCH   4  12
TORSDOF 2
ENDMDL
MODEL      111
REMARK 921   NORMALIZED FREE ENERGY PREDICTED BY IDOCK:   -3.43 KCAL/MOL
REMARK 922        TOTAL FREE ENERGY PREDICTED BY IDOCK:   -4.51 KCAL/MOL
REMARK 923 INTER-LIGAND FREE ENERGY PREDICTED BY IDOCK:   -3.61 KCAL/MOL
REMARK 924 INTRA-LIGAND FREE ENERGY PREDICTED BY IDOCK:   -0.90 KCAL/MOL
REMARK 927      BINDING AFFINITY PREDICTED BY RF-SCORE:    0.00 PKD
ROOT
HETATM    1  O   UNL     1      -8.756  10.398  67.282  1.00  0.00    -0.126 OA 
HETATM    2  C   UNL     1      -8.735  11.580  66.655  1.00  0.00    -0.182 C  
HETATM    3  C   UNL     2     -12.421  11.655  71.642  1.00  0.00    -0.049 C  
HETATM    4  N   UNL     2     -12.133  10.361  71.026  1.00  0.00    -0.357 NA 
HETATM    5  O   UNL     1      -9.260  11.751  65.565  1.00  0.00    -0.175 OA 
HETATM    6  C   UNL     1      -8.161  12.735  67.375  1.00  0.00    -0.186 C  
HETATM    7  C   UNL     1      -7.417  12.868  68.484  1.00  0.00    -0.123 C  
HETATM    8  O   UNL     1      -6.867  10.605  68.913  1.00  0.00    -0.057 OA 
HETATM    9  C   UNL     2     -13.224   9.987  70.121  1.00  0.00     0.417 C  
HETATM   10  O   UNL     1      -6.499  12.149  70.515  1.00  0.00    -0.071 OA 
HETATM   11  C   UNL     1      -6.891  11.766  69.291  1.00  0.00    -0.093 C  
ENDROOT
BRANCH   4  12
HETATM   12  C   UNL     2     -10.852  10.339  70.307  1.00  0.00    -0.286 C  
BRANCH  12  13
HETATM   13  C   UNL     2      -9.696   9.701  71.099  1.00  0.00     0.055 C  
HETATM   14  C   UNL     2      -9.872   8.194  71.390  1.00  0.00    -0.223 C  
HETATM   15  C   UNL     2      -8.862   7.681  72.418  1.00  0.00    -0.134 A  
HETATM   16  C   UNL     2      -9.906   7.362  70.108  1.00  0.00    -0.180 A  
HETATM   17  C   UNL     2      -7.483   7.803  72.238  1.00  0.00    -0.094 A  
HETATM   18  C   UNL     2      -8.852   7.369  69.176  1.00  0.00    -0.136 A  
HETATM   19  C   UNL     2      -8.938   6.637  67.991  1.00  0.00    -0.117 A  
HETATM   20  C   UNL     2      -6.618   7.279  73.195  1.00  0.00    -0.064 A  
HETATM   21  C   UNL     2     -10.085   5.898  67.717  1.00  0.00    -0.159 A  
HETATM   22  C   UNL     2      -7.140   6.660  74.320  1.00  0.00    -0.094 A  
HETATM   23  C   UNL     2      -8.516   6.599  74.446  1.00  0.00    -0.146 A  
HETATM   24 CL   UNL     2     -10.203   5.022  66.241  1.00  0.00    -0.275 Cl 
HETATM   25  C   UNL     2     -11.140   5.876  68.623  1.00  0.00    -0.191 A  
HETATM   26  N   UNL     2      -9.379   7.096  73.532  1.00  0.00    -0.171 NA 
HETATM   27  C   UNL     2     -11.049   6.600  69.815  1.00  0.00    -0.398 A  
ENDBRANCH  12  13
ENDBRANCH   4  12
TORSDOF 2
ENDMDL
MODEL      112
REMARK 921   NORMALIZED FREE ENERGY PREDICTED BY IDOCK:   -3.39 KCAL/MOL
REMARK 922        TOTAL FREE ENERGY PREDICTED BY IDOCK:   -4.48 KCAL/MOL
REMARK 923 INTER-LIGAND FREE ENERGY PREDICTED BY IDOCK:   -3.74 KCAL/MOL
REMARK 924 INTRA-LIGAND FREE ENERGY PREDICTED BY IDOCK:   -0.74 KCAL/MOL
REMARK 927      BINDING AFFINITY PREDICTED BY RF-SCORE:    0.00 PKD
ROOT
HETATM    1  O   UNL     1     -10.889   5.944  70.937  1.00  0.00    -0.265 OA 
HETATM    2  C   UNL     1     -11.280   6.146  72.201  1.00  0.00    -0.287 C  
HETATM    3  C   UNL     2      -5.253   7.374  71.407  1.00  0.00    -0.027 C  
HETATM    4  N   UNL     2      -5.898   6.477  70.450  1.00  0.00    -0.022 NA 
HETATM    5  O   UNL     1     -11.572   5.226  72.950  1.00  0.00    -0.310 OA 
HETATM    6  C   UNL     1     -11.232   7.525  72.728  1.00  0.00    -0.403 C  
HETATM    7  C   UNL     1     -11.089   8.735  72.166  1.00  0.00    -0.406 C  
HETATM    8  O   UNL     1     -11.286   8.176  69.873  1.00  0.00    -0.170 OA 
HETATM    9  C   UNL     2      -5.650   5.083  70.831  1.00  0.00    -0.012 C  
HETATM   10  O   UNL     1     -10.506  10.213  70.445  1.00  0.00    -0.280 OA 
HETATM   11  C   UNL     1     -11.000   8.999  70.729  1.00  0.00    -0.258 C  
ENDROOT
BRANCH   4  12
HETATM   12  C   UNL     2      -7.342   6.715  70.323  1.00  0.00    -0.085 C  
BRANCH  12  13
HETATM   13  C   UNL     2      -7.702   8.042  69.629  1.00  0.00    -0.102 C  
HETATM   14  C   UNL     2      -6.840   8.374  68.392  1.00  0.00    -0.065 C  
HETATM   15  C   UNL     2      -7.031   9.818  67.923  1.00  0.00    -0.078 A  
HETATM   16  C   UNL     2      -7.018   7.346  67.273  1.00  0.00    -0.083 A  
HETATM   17  C   UNL     2      -8.281  10.332  67.576  1.00  0.00    -0.114 A  
HETATM   18  C   UNL     2      -8.272   7.065  66.701  1.00  0.00    -0.112 A  
HETATM   19  C   UNL     2      -8.407   6.084  65.718  1.00  0.00    -0.142 A  
HETATM   20  C   UNL     2      -8.381  11.644  67.119  1.00  0.00    -0.164 A  
HETATM   21  C   UNL     2      -7.291   5.363  65.304  1.00  0.00    -0.068 A  
HETATM   22  C   UNL     2      -7.238  12.424  67.034  1.00  0.00    -0.013 A  
HETATM   23  C   UNL     2      -6.037  11.858  67.419  1.00  0.00    -0.119 A  
HETATM   24 CL   UNL     2      -7.465   4.132  64.115  1.00  0.00    -0.069 Cl 
HETATM   25  C   UNL     2      -6.041   5.623  65.856  1.00  0.00    -0.029 A  
HETATM   26  N   UNL     2      -5.911  10.587  67.863  1.00  0.00    -0.044 NA 
HETATM   27  C   UNL     2      -5.904   6.614  66.832  1.00  0.00    -0.014 A  
ENDBRANCH  12  13
ENDBRANCH   4  12
TORSDOF 2
ENDMDL
MODEL      113
REMARK 921   NORMALIZED FREE ENERGY PREDICTED BY IDOCK:   -3.39 KCAL/MOL
REMARK 922        TOTAL FREE ENERGY PREDICTED BY IDOCK:   -4.47 KCAL/MOL
REMARK 923 INTER-LIGAND FREE ENERGY PREDICTED BY IDOCK:   -4.06 KCAL/MOL
REMARK 924 INTRA-LIGAND FREE ENERGY PREDICTED BY IDOCK:   -0.42 KCAL/MOL
REMARK 927      BINDING AFFINITY PREDICTED BY RF-SCORE:    0.00 PKD
ROOT
HETATM    1  O   UNL     1     -12.507  13.448  69.855  1.00  0.00    -0.222 OA 
HETATM    2  C   UNL     1     -12.226  14.033  71.025  1.00  0.00    -0.353 C  
HETATM    3  C   UNL     2      -7.785  10.074  69.273  1.00  0.00    -0.117 C  
HETATM    4  N   UNL     2      -9.123   9.887  68.717  1.00  0.00    -0.141 NA 
HETATM    5  O   UNL     1     -12.838  13.773  72.050  1.00  0.00    -0.325 OA 
HETATM    6  C   UNL     1     -11.051  14.928  71.087  1.00  0.00    -0.107 C  
HETATM    7  C   UNL     1     -10.270  15.507  70.163  1.00  0.00    -0.230 C  
HETATM    8  O   UNL     1     -11.492  15.022  68.193  1.00  0.00    -0.315 OA 
HETATM    9  C   UNL     2      -9.844   8.869  69.487  1.00  0.00    -0.180 C  
HETATM   10  O   UNL     1      -9.373  15.773  68.016  1.00  0.00    -0.195 OA 
HETATM   11  C   UNL     1     -10.464  15.425  68.714  1.00  0.00    -0.231 C  
ENDROOT
BRANCH   4  12
HETATM   12  C   UNL     2      -9.904  11.130  68.670  1.00  0.00    -0.202 C  
BRANCH  12  13
HETATM   13  C   UNL     2     -10.769  11.283  67.404  1.00  0.00    -0.285 C  
HETATM   14  C   UNL     2      -9.991  11.719  66.144  1.00  0.00    -0.254 C  
HETATM   15  C   UNL     2     -10.922  12.141  65.005  1.00  0.00    -0.309 A  
HETATM   16  C   UNL     2      -8.950  10.682  65.722  1.00  0.00    -0.200 A  
HETATM   17  C   UNL     2     -11.900  11.291  64.486  1.00  0.00     0.332 A  
HETATM   18  C   UNL     2      -9.292   9.351  65.420  1.00  0.00    -0.311 A  
HETATM   19  C   UNL     2      -8.310   8.417  65.088  1.00  0.00    -0.177 A  
HETATM   20  C   UNL     2     -12.689  11.722  63.423  1.00  0.00    -0.395 A  
HETATM   21  C   UNL     2      -6.972   8.799  65.067  1.00  0.00    -0.076 A  
HETATM   22  C   UNL     2     -12.502  12.996  62.909  1.00  0.00     0.345 A  
HETATM   23  C   UNL     2     -11.533  13.793  63.489  1.00  0.00     0.338 A  
HETATM   24 CL   UNL     2      -5.760   7.638  64.688  1.00  0.00    -0.037 Cl 
HETATM   25  C   UNL     2      -6.610  10.109  65.362  1.00  0.00    -0.120 A  
HETATM   26  N   UNL     2     -10.751  13.399  64.520  1.00  0.00    -0.402 NA 
HETATM   27  C   UNL     2      -7.595  11.047  65.683  1.00  0.00     0.115 A  
ENDBRANCH  12  13
ENDBRANCH   4  12
TORSDOF 2
ENDMDL
MODEL      114
REMARK 921   NORMALIZED FREE ENERGY PREDICTED BY IDOCK:   -3.38 KCAL/MOL
REMARK 922        TOTAL FREE ENERGY PREDICTED BY IDOCK:   -4.46 KCAL/MOL
REMARK 923 INTER-LIGAND FREE ENERGY PREDICTED BY IDOCK:   -3.67 KCAL/MOL
REMARK 924 INTRA-LIGAND FREE ENERGY PREDICTED BY IDOCK:   -0.79 KCAL/MOL
REMARK 927      BINDING AFFINITY PREDICTED BY RF-SCORE:    0.00 PKD
ROOT
HETATM    1  O   UNL     1     -10.873   9.764  71.481  1.00  0.00    -0.262 OA 
HETATM    2  C   UNL     1     -12.182   9.851  71.742  1.00  0.00    -0.341 C  
HETATM    3  C   UNL     2     -11.018   6.193  66.872  1.00  0.00    -0.305 C  
HETATM    4  N   UNL     2     -10.012   7.189  67.232  1.00  0.00    -0.169 NA 
HETATM    5  O   UNL     1     -12.823  10.870  71.539  1.00  0.00    -0.411 OA 
HETATM    6  C   UNL     1     -12.885   8.624  72.174  1.00  0.00    -0.442 C  
HETATM    7  C   UNL     1     -12.481   7.419  72.603  1.00  0.00     0.222 C  
HETATM    8  O   UNL     1     -10.160   7.808  72.875  1.00  0.00    -0.248 OA 
HETATM    9  C   UNL     2     -10.177   8.385  66.401  1.00  0.00    -0.098 C  
HETATM   10  O   UNL     1     -10.929   5.688  72.898  1.00  0.00    -0.245 OA 
HETATM   11  C   UNL     1     -11.090   7.018  72.824  1.00  0.00    -0.284 C  
ENDROOT
BRANCH   4  12
HETATM   12  C   UNL     2     -10.049   7.554  68.654  1.00  0.00    -0.184 C  
BRANCH  12  13
HETATM   13  C   UNL     2      -9.510   6.464  69.598  1.00  0.00    -0.154 C  
HETATM   14  C   UNL     2      -7.978   6.279  69.558  1.00  0.00    -0.108 C  
HETATM   15  C   UNL     2      -7.529   5.005  70.276  1.00  0.00    -0.059 A  
HETATM   16  C   UNL     2      -7.235   7.531  70.027  1.00  0.00    -0.069 A  
HETATM   17  C   UNL     2      -7.836   4.753  71.615  1.00  0.00    -0.098 A  
HETATM   18  C   UNL     2      -7.438   8.096  71.299  1.00  0.00    -0.074 A  
HETATM   19  C   UNL     2      -6.782   9.269  71.675  1.00  0.00     0.078 A  
HETATM   20  C   UNL     2      -7.363   3.591  72.220  1.00  0.00    -0.052 A  
HETATM   21  C   UNL     2      -5.924   9.898  70.778  1.00  0.00    -0.092 A  
HETATM   22  C   UNL     2      -6.610   2.694  71.478  1.00  0.00    -0.019 A  
HETATM   23  C   UNL     2      -6.366   2.996  70.151  1.00  0.00    -0.028 A  
HETATM   24 CL   UNL     2      -5.140  11.361  71.232  1.00  0.00    -0.111 Cl 
HETATM   25  C   UNL     2      -5.708   9.358  69.514  1.00  0.00    -0.034 A  
HETATM   26  N   UNL     2      -6.810   4.117  69.539  1.00  0.00    -0.044 NA 
HETATM   27  C   UNL     2      -6.356   8.177  69.143  1.00  0.00    -0.039 A  
ENDBRANCH  12  13
ENDBRANCH   4  12
TORSDOF 2
ENDMDL
MODEL      115
REMARK 921   NORMALIZED FREE ENERGY PREDICTED BY IDOCK:   -3.38 KCAL/MOL
REMARK 922        TOTAL FREE ENERGY PREDICTED BY IDOCK:   -4.46 KCAL/MOL
REMARK 923 INTER-LIGAND FREE ENERGY PREDICTED BY IDOCK:   -3.79 KCAL/MOL
REMARK 924 INTRA-LIGAND FREE ENERGY PREDICTED BY IDOCK:   -0.67 KCAL/MOL
REMARK 927      BINDING AFFINITY PREDICTED BY RF-SCORE:    0.00 PKD
ROOT
HETATM    1  O   UNL     1     -11.058  14.439  70.944  1.00  0.00     0.050 OA 
HETATM    2  C   UNL     1     -12.113  15.019  71.529  1.00  0.00    -0.343 C  
HETATM    3  C   UNL     2     -13.033  14.083  65.467  1.00  0.00    -0.316 C  
HETATM    4  N   UNL     2     -11.654  14.149  65.945  1.00  0.00    -0.339 NA 
HETATM    5  O   UNL     1     -12.089  16.176  71.921  1.00  0.00    -0.476 OA 
HETATM    6  C   UNL     1     -13.380  14.260  71.580  1.00  0.00    -0.429 C  
HETATM    7  C   UNL     1     -13.708  12.976  71.367  1.00  0.00     0.276 C  
HETATM    8  O   UNL     1     -11.557  11.998  71.200  1.00  0.00     0.701 OA 
HETATM    9  C   UNL     2     -11.122  15.500  65.741  1.00  0.00    -0.217 C  
HETATM   10  O   UNL     1     -13.359  10.811  70.544  1.00  0.00    -0.089 OA 
HETATM   11  C   UNL     1     -12.766  11.898  71.060  1.00  0.00    -0.258 C  
ENDROOT
BRANCH   4  12
HETATM   12  C   UNL     2     -11.515  13.760  67.355  1.00  0.00    -0.345 C  
BRANCH  12  13
HETATM   13  C   UNL     2     -10.588  12.552  67.586  1.00  0.00    -0.234 C  
HETATM   14  C   UNL     2      -9.184  12.691  66.959  1.00  0.00    -0.212 C  
HETATM   15  C   UNL     2      -8.417  11.367  66.957  1.00  0.00    -0.159 A  
HETATM   16  C   UNL     2      -8.393  13.848  67.570  1.00  0.00    -0.202 A  
HETATM   17  C   UNL     2      -8.164  10.648  68.127  1.00  0.00    -0.116 A  
HETATM   18  C   UNL     2      -8.118  13.928  68.947  1.00  0.00     0.033 A  
HETATM   19  C   UNL     2      -7.437  15.025  69.478  1.00  0.00    -0.194 A  
HETATM   20  C   UNL     2      -7.426   9.469  68.061  1.00  0.00    -0.083 A  
HETATM   21  C   UNL     2      -7.034  16.060  68.641  1.00  0.00    -0.133 A  
HETATM   22  C   UNL     2      -6.969   9.019  66.832  1.00  0.00    -0.078 A  
HETATM   23  C   UNL     2      -7.279   9.768  65.712  1.00  0.00    -0.104 A  
HETATM   24 CL   UNL     2      -6.224  17.426  69.303  1.00  0.00    -0.226 Cl 
HETATM   25  C   UNL     2      -7.295  16.003  67.276  1.00  0.00    -0.243 A  
HETATM   26  N   UNL     2      -7.991  10.917  65.747  1.00  0.00    -0.121 NA 
HETATM   27  C   UNL     2      -7.966  14.899  66.742  1.00  0.00     0.066 A  
ENDBRANCH  12  13
ENDBRANCH   4  12
TORSDOF 2
ENDMDL
MODEL      116
REMARK 921   NORMALIZED FREE ENERGY PREDICTED BY IDOCK:   -3.36 KCAL/MOL
REMARK 922        TOTAL FREE ENERGY PREDICTED BY IDOCK:   -4.44 KCAL/MOL
REMARK 923 INTER-LIGAND FREE ENERGY PREDICTED BY IDOCK:   -3.47 KCAL/MOL
REMARK 924 INTRA-LIGAND FREE ENERGY PREDICTED BY IDOCK:   -0.97 KCAL/MOL
REMARK 927      BINDING AFFINITY PREDICTED BY RF-SCORE:    0.00 PKD
ROOT
HETATM    1  O   UNL     1     -11.417  10.334  72.043  1.00  0.00     0.530 OA 
HETATM    2  C   UNL     1     -12.730  10.251  71.800  1.00  0.00    -0.433 C  
HETATM    3  C   UNL     2      -9.345   8.999  66.757  1.00  0.00    -0.165 C  
HETATM    4  N   UNL     2      -8.725   9.796  67.813  1.00  0.00    -0.129 NA 
HETATM    5  O   UNL     1     -13.452  11.235  71.762  1.00  0.00    -0.310 OA 
HETATM    6  C   UNL     1     -13.285   8.928  71.445  1.00  0.00    -0.309 C  
HETATM    7  C   UNL     1     -12.820   7.671  71.516  1.00  0.00    -0.376 C  
HETATM    8  O   UNL     1     -10.841   8.008  72.771  1.00  0.00    -0.343 OA 
HETATM    9  C   UNL     2      -8.835  11.222  67.489  1.00  0.00    -0.140 C  
HETATM   10  O   UNL     1     -11.150   6.041  71.714  1.00  0.00    -0.259 OA 
HETATM   11  C   UNL     1     -11.531   7.273  72.083  1.00  0.00    -0.273 C  
ENDROOT
BRANCH   4  12
HETATM   12  C   UNL     2      -9.298   9.536  69.141  1.00  0.00    -0.163 C  
BRANCH  12  13
HETATM   13  C   UNL     2      -8.251   9.264  70.236  1.00  0.00    -0.187 C  
HETATM   14  C   UNL     2      -8.049   7.772  70.576  1.00  0.00    -0.103 C  
HETATM   15  C   UNL     2      -7.233   7.574  71.855  1.00  0.00    -0.064 A  
HETATM   16  C   UNL     2      -7.509   6.979  69.386  1.00  0.00    -0.097 A  
HETATM   17  C   UNL     2      -5.951   8.104  72.014  1.00  0.00    -0.045 A  
HETATM   18  C   UNL     2      -6.301   7.309  68.746  1.00  0.00    -0.035 A  
HETATM   19  C   UNL     2      -5.863   6.595  67.629  1.00  0.00    -0.020 A  
HETATM   20  C   UNL     2      -5.246   7.854  73.188  1.00  0.00    -0.040 A  
HETATM   21  C   UNL     2      -6.635   5.550  67.131  1.00  0.00    -0.057 A  
HETATM   22  C   UNL     2      -5.837   7.097  74.189  1.00  0.00    -0.062 A  
HETATM   23  C   UNL     2      -7.119   6.627  73.975  1.00  0.00    -0.083 A  
HETATM   24 CL   UNL     2      -6.110   4.692  65.735  1.00  0.00    -0.026 Cl 
HETATM   25  C   UNL     2      -7.834   5.205  67.747  1.00  0.00    -0.091 A  
HETATM   26  N   UNL     2      -7.825   6.852  72.844  1.00  0.00    -0.093 NA 
HETATM   27  C   UNL     2      -8.266   5.913  68.872  1.00  0.00    -0.103 A  
ENDBRANCH  12  13
ENDBRANCH   4  12
TORSDOF 2
ENDMDL
MODEL      117
REMARK 921   NORMALIZED FREE ENERGY PREDICTED BY IDOCK:   -3.32 KCAL/MOL
REMARK 922        TOTAL FREE ENERGY PREDICTED BY IDOCK:   -4.39 KCAL/MOL
REMARK 923 INTER-LIGAND FREE ENERGY PREDICTED BY IDOCK:   -3.62 KCAL/MOL
REMARK 924 INTRA-LIGAND FREE ENERGY PREDICTED BY IDOCK:   -0.77 KCAL/MOL
REMARK 927      BINDING AFFINITY PREDICTED BY RF-SCORE:    0.00 PKD
ROOT
HETATM    1  O   UNL     1      -7.003   8.808  72.379  1.00  0.00    -0.260 OA 
HETATM    2  C   UNL     1      -6.902   8.531  73.685  1.00  0.00    -0.047 C  
HETATM    3  C   UNL     2     -12.427   6.910  71.381  1.00  0.00    -0.367 C  
HETATM    4  N   UNL     2     -11.665   7.932  70.667  1.00  0.00    -0.215 NA 
HETATM    5  O   UNL     1      -6.884   9.405  74.539  1.00  0.00    -0.370 OA 
HETATM    6  C   UNL     1      -6.941   7.112  74.096  1.00  0.00    -0.089 C  
HETATM    7  C   UNL     1      -6.831   5.947  73.441  1.00  0.00    -0.080 C  
HETATM    8  O   UNL     1      -6.155   6.711  71.304  1.00  0.00    -0.035 OA 
HETATM    9  C   UNL     2     -12.127   9.265  71.065  1.00  0.00    -0.280 C  
HETATM   10  O   UNL     1      -6.849   4.578  71.540  1.00  0.00    -0.029 OA 
HETATM   11  C   UNL     1      -6.555   5.799  72.011  1.00  0.00    -0.058 C  
ENDROOT
BRANCH   4  12
HETATM   12  C   UNL     2     -10.215   7.818  70.878  1.00  0.00    -0.199 C  
BRANCH  12  13
HETATM   13  C   UNL     2      -9.531   6.763  69.989  1.00  0.00    -0.158 C  
HETATM   14  C   UNL     2      -9.343   7.188  68.517  1.00  0.00    -0.136 C  
HETATM   15  C   UNL     2      -8.940   6.014  67.622  1.00  0.00    -0.111 A  
HETATM   16  C   UNL     2      -8.417   8.397  68.382  1.00  0.00    -0.135 A  
HETATM   17  C   UNL     2      -7.804   5.241  67.870  1.00  0.00    -0.092 A  
HETATM   18  C   UNL     2      -7.097   8.393  68.867  1.00  0.00    -0.066 A  
HETATM   19  C   UNL     2      -6.296   9.532  68.773  1.00  0.00    -0.047 A  
HETATM   20  C   UNL     2      -7.471   4.210  66.994  1.00  0.00    -0.077 A  
HETATM   21  C   UNL     2      -6.810  10.694  68.203  1.00  0.00    -0.068 A  
HETATM   22  C   UNL     2      -8.284   3.958  65.899  1.00  0.00    -0.105 A  
HETATM   23  C   UNL     2      -9.407   4.746  65.731  1.00  0.00    -0.161 A  
HETATM   24 CL   UNL     2      -5.832  12.106  68.117  1.00  0.00    -0.052 Cl 
HETATM   25  C   UNL     2      -8.113  10.721  67.717  1.00  0.00    -0.111 A  
HETATM   26  N   UNL     2      -9.752   5.754  66.564  1.00  0.00    -0.155 NA 
HETATM   27  C   UNL     2      -8.910   9.577  67.801  1.00  0.00    -0.119 A  
ENDBRANCH  12  13
ENDBRANCH   4  12
TORSDOF 2
ENDMDL
MODEL      118
REMARK 921   NORMALIZED FREE ENERGY PREDICTED BY IDOCK:   -3.30 KCAL/MOL
REMARK 922        TOTAL FREE ENERGY PREDICTED BY IDOCK:   -4.37 KCAL/MOL
REMARK 923 INTER-LIGAND FREE ENERGY PREDICTED BY IDOCK:   -4.65 KCAL/MOL
REMARK 924 INTRA-LIGAND FREE ENERGY PREDICTED BY IDOCK:    0.28 KCAL/MOL
REMARK 927      BINDING AFFINITY PREDICTED BY RF-SCORE:    0.00 PKD
ROOT
HETATM    1  O   UNL     1      -8.985   8.317  65.576  1.00  0.00    -0.154 OA 
HETATM    2  C   UNL     1      -8.339   7.156  65.729  1.00  0.00    -0.143 C  
HETATM    3  C   UNL     2      -6.139  11.558  69.503  1.00  0.00    -0.100 C  
HETATM    4  N   UNL     2      -6.846  11.984  68.298  1.00  0.00    -0.063 NA 
HETATM    5  O   UNL     1      -7.580   6.712  64.881  1.00  0.00    -0.087 OA 
HETATM    6  C   UNL     1      -8.463   6.461  67.028  1.00  0.00    -0.112 C  
HETATM    7  C   UNL     1      -9.279   6.596  68.084  1.00  0.00    -0.117 C  
HETATM    8  O   UNL     1     -10.867   8.123  67.216  1.00  0.00    -0.248 OA 
HETATM    9  C   UNL     2      -5.881  12.293  67.238  1.00  0.00    -0.143 C  
HETATM   10  O   UNL     1     -10.820   7.729  69.436  1.00  0.00    -0.207 OA 
HETATM   11  C   UNL     1     -10.400   7.532  68.177  1.00  0.00    -0.200 C  
ENDROOT
BRANCH   4  12
HETATM   12  C   UNL     2      -7.819  10.992  67.821  1.00  0.00    -0.110 C  
BRANCH  12  13
HETATM   13  C   UNL     2      -8.711  11.489  66.668  1.00  0.00    -0.182 C  
HETATM   14  C   UNL     2      -9.716  12.592  67.064  1.00  0.00    -0.213 C  
HETATM   15  C   UNL     2     -10.765  12.836  65.978  1.00  0.00    -0.272 A  
HETATM   16  C   UNL     2      -9.015  13.870  67.526  1.00  0.00    -0.197 A  
HETATM   17  C   UNL     2     -10.421  13.186  64.671  1.00  0.00    -0.411 A  
HETATM   18  C   UNL     2      -8.106  14.568  66.712  1.00  0.00     0.128 A  
HETATM   19  C   UNL     2      -7.445  15.702  67.184  1.00  0.00    -0.253 A  
HETATM   20  C   UNL     2     -11.427  13.433  63.740  1.00  0.00    -0.286 A  
HETATM   21  C   UNL     2      -7.676  16.145  68.483  1.00  0.00    -0.170 A  
HETATM   22  C   UNL     2     -12.754  13.310  64.121  1.00  0.00    -0.112 A  
HETATM   23  C   UNL     2     -13.021  12.935  65.425  1.00  0.00     0.181 A  
HETATM   24 CL   UNL     2      -6.836  17.525  69.075  1.00  0.00    -0.239 Cl 
HETATM   25  C   UNL     2      -8.570  15.471  69.308  1.00  0.00    -0.263 A  
HETATM   26  N   UNL     2     -12.065  12.692  66.350  1.00  0.00    -0.565 NA 
HETATM   27  C   UNL     2      -9.241  14.342  68.830  1.00  0.00    -0.112 A  
ENDBRANCH  12  13
ENDBRANCH   4  12
TORSDOF 2
ENDMDL
MODEL      119
REMARK 921   NORMALIZED FREE ENERGY PREDICTED BY IDOCK:   -3.09 KCAL/MOL
REMARK 922        TOTAL FREE ENERGY PREDICTED BY IDOCK:   -4.14 KCAL/MOL
REMARK 923 INTER-LIGAND FREE ENERGY PREDICTED BY IDOCK:   -4.51 KCAL/MOL
REMARK 924 INTRA-LIGAND FREE ENERGY PREDICTED BY IDOCK:    0.36 KCAL/MOL
REMARK 927      BINDING AFFINITY PREDICTED BY RF-SCORE:    0.00 PKD
ROOT
HETATM    1  O   UNL     1     -11.273  14.259  65.953  1.00  0.00    -0.309 OA 
HETATM    2  C   UNL     1     -11.125  15.084  64.909  1.00  0.00    -0.415 C  
HETATM    3  C   UNL     2      -7.592  10.014  64.388  1.00  0.00    -0.145 C  
HETATM    4  N   UNL     2      -8.028  10.406  65.727  1.00  0.00    -0.148 NA 
HETATM    5  O   UNL     1     -10.554  16.160  65.002  1.00  0.00    -0.588 OA 
HETATM    6  C   UNL     1     -11.564  14.605  63.582  1.00  0.00     0.771 C  
HETATM    7  C   UNL     1     -12.314  13.575  63.161  1.00  0.00     0.019 C  
HETATM    8  O   UNL     1     -13.161  12.783  65.226  1.00  0.00    -0.574 OA 
HETATM    9  C   UNL     2      -6.971  11.177  66.388  1.00  0.00    -0.093 C  
HETATM   10  O   UNL     1     -13.369  11.496  63.385  1.00  0.00    -0.304 OA 
HETATM   11  C   UNL     1     -12.998  12.614  64.028  1.00  0.00    -0.036 C  
ENDROOT
BRANCH   4  12
HETATM   12  C   UNL     2      -9.282  11.172  65.721  1.00  0.00    -0.215 C  
BRANCH  12  13
HETATM   13  C   UNL     2      -9.318  12.327  66.738  1.00  0.00    -0.218 C  
HETATM   14  C   UNL     2     -10.269  12.101  67.933  1.00  0.00    -0.203 C  
HETATM   15  C   UNL     2     -10.493  13.379  68.745  1.00  0.00    -0.186 A  
HETATM   16  C   UNL     2      -9.843  10.908  68.789  1.00  0.00    -0.203 A  
HETATM   17  C   UNL     2      -9.441  14.095  69.318  1.00  0.00     0.281 A  
HETATM   18  C   UNL     2      -8.576  10.827  69.393  1.00  0.00     0.017 A  
HETATM   19  C   UNL     2      -8.201   9.700  70.125  1.00  0.00    -0.206 A  
HETATM   20  C   UNL     2      -9.717  15.229  70.078  1.00  0.00    -0.010 A  
HETATM   21  C   UNL     2      -9.086   8.633  70.253  1.00  0.00    -0.162 A  
HETATM   22  C   UNL     2     -11.032  15.638  70.238  1.00  0.00    -0.363 A  
HETATM   23  C   UNL     2     -12.021  14.896  69.621  1.00  0.00    -0.320 A  
HETATM   24 CL   UNL     2      -8.611   7.231  71.129  1.00  0.00    -0.130 Cl 
HETATM   25  C   UNL     2     -10.345   8.690  69.664  1.00  0.00    -0.213 A  
HETATM   26  N   UNL     2     -11.782  13.790  68.880  1.00  0.00    -0.313 NA 
HETATM   27  C   UNL     2     -10.724   9.824  68.941  1.00  0.00    -0.241 A  
ENDBRANCH  12  13
ENDBRANCH   4  12
TORSDOF 2
ENDMDL
MODEL      120
REMARK 921   NORMALIZED FREE ENERGY PREDICTED BY IDOCK:   -2.91 KCAL/MOL
REMARK 922        TOTAL FREE ENERGY PREDICTED BY IDOCK:   -3.93 KCAL/MOL
REMARK 923 INTER-LIGAND FREE ENERGY PREDICTED BY IDOCK:   -3.39 KCAL/MOL
REMARK 924 INTRA-LIGAND FREE ENERGY PREDICTED BY IDOCK:   -0.55 KCAL/MOL
REMARK 927      BINDING AFFINITY PREDICTED BY RF-SCORE:    0.00 PKD
ROOT
HETATM    1  O   UNL     1     -10.746   9.625  70.556  1.00  0.00    -0.264 OA 
HETATM    2  C   UNL     1     -11.190  10.583  69.733  1.00  0.00    -0.298 C  
HETATM    3  C   UNL     2      -5.132   9.490  68.980  1.00  0.00    -0.037 C  
HETATM    4  N   UNL     2      -5.738   9.118  70.257  1.00  0.00    -0.033 NA 
HETATM    5  O   UNL     1     -11.516  11.690  70.133  1.00  0.00    -0.241 OA 
HETATM    6  C   UNL     1     -11.160  10.315  68.280  1.00  0.00    -0.311 C  
HETATM    7  C   UNL     1     -10.991   9.210  67.537  1.00  0.00    -0.010 C  
HETATM    8  O   UNL     1     -11.093   7.539  69.213  1.00  0.00    -0.105 OA 
HETATM    9  C   UNL     2      -5.510  10.179  71.243  1.00  0.00    -0.066 C  
HETATM   10  O   UNL     1     -10.332   6.993  67.162  1.00  0.00    -0.219 OA 
HETATM   11  C   UNL     1     -10.841   7.850  68.060  1.00  0.00     0.041 C  
ENDROOT
BRANCH   4  12
HETATM   12  C   UNL     2      -7.175   8.831  70.148  1.00  0.00    -0.054 C  
BRANCH  12  13
HETATM   13  C   UNL     2      -7.736   7.984  71.305  1.00  0.00    -0.090 C  
HETATM   14  C   UNL     2      -8.554   6.752  70.861  1.00  0.00    -0.137 C  
HETATM   15  C   UNL     2      -9.328   6.122  72.020  1.00  0.00    -0.149 A  
HETATM   16  C   UNL     2      -7.702   5.746  70.086  1.00  0.00    -0.087 A  
HETATM   17  C   UNL     2      -8.700   5.674  73.184  1.00  0.00    -0.120 A  
HETATM   18  C   UNL     2      -6.545   5.161  70.629  1.00  0.00    -0.035 A  
HETATM   19  C   UNL     2      -5.763   4.286  69.874  1.00  0.00    -0.017 A  
HETATM   20  C   UNL     2      -9.459   5.074  74.186  1.00  0.00    -0.129 A  
HETATM   21  C   UNL     2      -6.122   3.995  68.562  1.00  0.00    -0.031 A  
HETATM   22  C   UNL     2     -10.829   4.948  74.019  1.00  0.00    -0.307 A  
HETATM   23  C   UNL     2     -11.388   5.438  72.853  1.00  0.00    -0.303 A  
HETATM   24 CL   UNL     2      -5.138   2.941  67.623  1.00  0.00    -0.008 Cl 
HETATM   25  C   UNL     2      -7.262   4.562  68.003  1.00  0.00    -0.065 A  
HETATM   26  N   UNL     2     -10.675   6.022  71.863  1.00  0.00    -0.225 NA 
HETATM   27  C   UNL     2      -8.051   5.429  68.762  1.00  0.00    -0.087 A  
ENDBRANCH  12  13
ENDBRANCH   4  12
TORSDOF 2
ENDMDL
MODEL      121
REMARK 921   NORMALIZED FREE ENERGY PREDICTED BY IDOCK:   -2.90 KCAL/MOL
REMARK 922        TOTAL FREE ENERGY PREDICTED BY IDOCK:   -3.92 KCAL/MOL
REMARK 923 INTER-LIGAND FREE ENERGY PREDICTED BY IDOCK:   -3.65 KCAL/MOL
REMARK 924 INTRA-LIGAND FREE ENERGY PREDICTED BY IDOCK:   -0.27 KCAL/MOL
REMARK 927      BINDING AFFINITY PREDICTED BY RF-SCORE:    0.00 PKD
ROOT
HETATM    1  O   UNL     1     -12.073   6.898  70.235  1.00  0.00    -0.278 OA 
HETATM    2  C   UNL     1     -12.109   7.051  71.564  1.00  0.00    -0.353 C  
HETATM    3  C   UNL     2      -7.119   3.862  69.723  1.00  0.00    -0.042 C  
HETATM    4  N   UNL     2      -8.277   3.890  68.832  1.00  0.00    -0.072 NA 
HETATM    5  O   UNL     1     -12.921   6.468  72.267  1.00  0.00    -0.102 OA 
HETATM    6  C   UNL     1     -11.046   7.858  72.197  1.00  0.00    -0.351 C  
HETATM    7  C   UNL     1     -10.116   8.706  71.733  1.00  0.00    -0.380 C  
HETATM    8  O   UNL     1     -10.815   8.929  69.481  1.00  0.00    -0.225 OA 
HETATM    9  C   UNL     2      -9.082   2.680  69.026  1.00  0.00    -0.133 C  
HETATM   10  O   UNL     1      -8.770   9.670  70.075  1.00  0.00    -0.200 OA 
HETATM   11  C   UNL     1      -9.965   9.120  70.336  1.00  0.00    -0.218 C  
ENDROOT
BRANCH   4  12
HETATM   12  C   UNL     2      -9.112   5.085  69.012  1.00  0.00    -0.105 C  
BRANCH  12  13
HETATM   13  C   UNL     2      -8.726   6.265  68.100  1.00  0.00    -0.115 C  
HETATM   14  C   UNL     2      -7.886   5.874  66.865  1.00  0.00    -0.101 C  
HETATM   15  C   UNL     2      -7.284   7.094  66.164  1.00  0.00    -0.074 A  
HETATM   16  C   UNL     2      -8.651   4.948  65.919  1.00  0.00    -0.121 A  
HETATM   17  C   UNL     2      -8.070   8.143  65.685  1.00  0.00    -0.119 A  
HETATM   18  C   UNL     2      -9.882   5.309  65.344  1.00  0.00     0.148 A  
HETATM   19  C   UNL     2     -10.579   4.420  64.525  1.00  0.00    -0.008 A  
HETATM   20  C   UNL     2      -7.463   9.206  65.021  1.00  0.00    -0.105 A  
HETATM   21  C   UNL     2     -10.058   3.153  64.281  1.00  0.00    -0.125 A  
HETATM   22  C   UNL     2      -6.085   9.213  64.863  1.00  0.00    -0.065 A  
HETATM   23  C   UNL     2      -5.368   8.154  65.386  1.00  0.00    -0.032 A  
HETATM   24 CL   UNL     2     -10.933   2.046  63.297  1.00  0.00    -0.229 Cl 
HETATM   25  C   UNL     2      -8.841   2.773  64.838  1.00  0.00    -0.119 A  
HETATM   26  N   UNL     2      -5.931   7.108  66.032  1.00  0.00    -0.035 NA 
HETATM   27  C   UNL     2      -8.139   3.669  65.649  1.00  0.00    -0.093 A  
ENDBRANCH  12  13
ENDBRANCH   4  12
TORSDOF 2
ENDMDL
MODEL      122
REMARK 921   NORMALIZED FREE ENERGY PREDICTED BY IDOCK:   -2.77 KCAL/MOL
REMARK 922        TOTAL FREE ENERGY PREDICTED BY IDOCK:   -3.78 KCAL/MOL
REMARK 923 INTER-LIGAND FREE ENERGY PREDICTED BY IDOCK:   -3.01 KCAL/MOL
REMARK 924 INTRA-LIGAND FREE ENERGY PREDICTED BY IDOCK:   -0.76 KCAL/MOL
REMARK 927      BINDING AFFINITY PREDICTED BY RF-SCORE:    0.00 PKD
ROOT
HETATM    1  O   UNL     1      -7.919   5.857  66.640  1.00  0.00    -0.100 OA 
HETATM    2  C   UNL     1      -7.042   5.081  65.992  1.00  0.00    -0.072 C  
HETATM    3  C   UNL     2      -6.015   5.149  72.107  1.00  0.00    -0.025 C  
HETATM    4  N   UNL     2      -6.747   6.272  71.527  1.00  0.00    -0.054 NA 
HETATM    5  O   UNL     1      -6.170   5.540  65.270  1.00  0.00    -0.031 OA 
HETATM    6  C   UNL     1      -7.067   3.629  66.268  1.00  0.00    -0.063 C  
HETATM    7  C   UNL     1      -7.936   2.810  66.880  1.00  0.00    -0.076 C  
HETATM    8  O   UNL     1      -9.781   4.268  67.165  1.00  0.00    -0.196 OA 
HETATM    9  C   UNL     2      -5.828   7.387  71.275  1.00  0.00    -0.036 C  
HETATM   10  O   UNL     1      -9.743   2.310  68.284  1.00  0.00    -0.150 OA 
HETATM   11  C   UNL     1      -9.238   3.205  67.422  1.00  0.00    -0.188 C  
ENDROOT
BRANCH   4  12
HETATM   12  C   UNL     2      -7.458   5.917  70.291  1.00  0.00    -0.089 C  
BRANCH  12  13
HETATM   13  C   UNL     2      -8.987   6.079  70.378  1.00  0.00    -0.153 C  
HETATM   14  C   UNL     2      -9.462   7.487  70.797  1.00  0.00    -0.163 C  
HETATM   15  C   UNL     2     -10.949   7.515  71.154  1.00  0.00    -0.246 A  
HETATM   16  C   UNL     2      -9.065   8.555  69.777  1.00  0.00    -0.153 A  
HETATM   17  C   UNL     2     -11.941   7.107  70.260  1.00  0.00    -0.123 A  
HETATM   18  C   UNL     2      -9.459   8.492  68.429  1.00  0.00    -0.141 A  
HETATM   19  C   UNL     2      -9.035   9.457  67.513  1.00  0.00    -0.130 A  
HETATM   20  C   UNL     2     -13.279   7.195  70.634  1.00  0.00     0.298 A  
HETATM   21  C   UNL     2      -8.202  10.489  67.933  1.00  0.00    -0.107 A  
HETATM   22  C   UNL     2     -13.605   7.668  71.896  1.00  0.00    -0.321 A  
HETATM   23  C   UNL     2     -12.570   8.029  72.739  1.00  0.00     0.114 A  
HETATM   24 CL   UNL     2      -7.655  11.660  66.797  1.00  0.00    -0.136 Cl 
HETATM   25  C   UNL     2      -7.799  10.572  69.262  1.00  0.00    -0.144 A  
HETATM   26  N   UNL     2     -11.263   7.957  72.401  1.00  0.00    -0.322 NA 
HETATM   27  C   UNL     2      -8.233   9.612  70.180  1.00  0.00    -0.206 A  
ENDBRANCH  12  13
ENDBRANCH   4  12
TORSDOF 2
ENDMDL
MODEL      123
REMARK 921   NORMALIZED FREE ENERGY PREDICTED BY IDOCK:   -2.75 KCAL/MOL
REMARK 922        TOTAL FREE ENERGY PREDICTED BY IDOCK:   -3.76 KCAL/MOL
REMARK 923 INTER-LIGAND FREE ENERGY PREDICTED BY IDOCK:   -2.85 KCAL/MOL
REMARK 924 INTRA-LIGAND FREE ENERGY PREDICTED BY IDOCK:   -0.91 KCAL/MOL
REMARK 927      BINDING AFFINITY PREDICTED BY RF-SCORE:    0.00 PKD
ROOT
HETATM    1  O   UNL     1     -11.587  11.688  65.990  1.00  0.00    -0.362 OA 
HETATM    2  C   UNL     1     -10.645  10.946  65.397  1.00  0.00    -0.173 C  
HETATM    3  C   UNL     2      -9.225  16.983  65.359  1.00  0.00     0.969 C  
HETATM    4  N   UNL     2     -10.632  16.615  65.501  1.00  0.00    -0.515 NA 
HETATM    5  O   UNL     1     -10.823  10.404  64.316  1.00  0.00     0.256 OA 
HETATM    6  C   UNL     1      -9.308  10.895  66.024  1.00  0.00    -0.215 C  
HETATM    7  C   UNL     1      -8.825  11.252  67.224  1.00  0.00    -0.150 C  
HETATM    8  O   UNL     1     -10.838  11.724  68.380  1.00  0.00    -0.201 OA 
HETATM    9  C   UNL     2     -11.296  16.677  64.195  1.00  0.00     0.651 C  
HETATM   10  O   UNL     1      -8.876  12.386  69.273  1.00  0.00     0.558 OA 
HETATM   11  C   UNL     1      -9.619  11.777  68.337  1.00  0.00    -0.191 C  
ENDROOT
BRANCH   4  12
HETATM   12  C   UNL     2     -10.820  15.286  66.100  1.00  0.00    -0.320 C  
BRANCH  12  13
HETATM   13  C   UNL     2     -11.698  15.285  67.365  1.00  0.00    -0.120 C  
HETATM   14  C   UNL     2     -10.913  15.196  68.691  1.00  0.00    -0.256 C  
HETATM   15  C   UNL     2     -11.823  14.901  69.885  1.00  0.00    -0.311 A  
HETATM   16  C   UNL     2     -10.009  16.410  68.907  1.00  0.00    -0.257 A  
HETATM   17  C   UNL     2     -12.906  15.717  70.220  1.00  0.00    -0.160 A  
HETATM   18  C   UNL     2     -10.507  17.725  68.938  1.00  0.00    -0.213 A  
HETATM   19  C   UNL     2      -9.646  18.814  69.085  1.00  0.00    -0.206 A  
HETATM   20  C   UNL     2     -13.672  15.413  71.342  1.00  0.00    -0.591 A  
HETATM   21  C   UNL     2      -8.275  18.602  69.190  1.00  0.00     0.023 A  
HETATM   22  C   UNL     2     -13.358  14.295  72.099  1.00  0.00    -0.506 A  
HETATM   23  C   UNL     2     -12.289  13.518  71.694  1.00  0.00    -0.008 A  
HETATM   24 CL   UNL     2      -7.213  19.947  69.339  1.00  0.00    -0.286 Cl 
HETATM   25  C   UNL     2      -7.759  17.310  69.161  1.00  0.00    -0.079 A  
HETATM   26  N   UNL     2     -11.527  13.790  70.611  1.00  0.00     0.061 NA 
HETATM   27  C   UNL     2      -8.622  16.220  69.026  1.00  0.00    -0.247 A  
ENDBRANCH  12  13
ENDBRANCH   4  12
TORSDOF 2
ENDMDL
MODEL      124
REMARK 921   NORMALIZED FREE ENERGY PREDICTED BY IDOCK:   -2.71 KCAL/MOL
REMARK 922        TOTAL FREE ENERGY PREDICTED BY IDOCK:   -3.71 KCAL/MOL
REMARK 923 INTER-LIGAND FREE ENERGY PREDICTED BY IDOCK:   -2.93 KCAL/MOL
REMARK 924 INTRA-LIGAND FREE ENERGY PREDICTED BY IDOCK:   -0.79 KCAL/MOL
REMARK 927      BINDING AFFINITY PREDICTED BY RF-SCORE:    0.00 PKD
ROOT
HETATM    1  O   UNL     1     -11.626  12.876  70.873  1.00  0.00     0.351 OA 
HETATM    2  C   UNL     1     -12.872  12.685  71.321  1.00  0.00    -0.250 C  
HETATM    3  C   UNL     2     -12.533  12.275  65.143  1.00  0.00    -0.103 C  
HETATM    4  N   UNL     2     -11.486  13.024  65.834  1.00  0.00    -0.323 NA 
HETATM    5  O   UNL     1     -13.546  13.591  71.788  1.00  0.00    -0.380 OA 
HETATM    6  C   UNL     1     -13.482  11.353  71.123  1.00  0.00     0.391 C  
HETATM    7  C   UNL     1     -13.003  10.149  70.777  1.00  0.00    -0.380 C  
HETATM    8  O   UNL     1     -10.673  10.560  70.886  1.00  0.00     0.136 OA 
HETATM    9  C   UNL     2     -11.799  14.456  65.806  1.00  0.00    -0.364 C  
HETATM   10  O   UNL     1     -11.412   8.683  69.878  1.00  0.00    -0.046 OA 
HETATM   11  C   UNL     1     -11.592   9.829  70.552  1.00  0.00    -0.292 C  
ENDROOT
BRANCH   4  12
HETATM   12  C   UNL     2     -11.282  12.580  67.220  1.00  0.00    -0.295 C  
BRANCH  12  13
HETATM   13  C   UNL     2     -10.766  11.135  67.348  1.00  0.00    -0.294 C  
HETATM   14  C   UNL     2      -9.369  10.895  66.736  1.00  0.00    -0.185 C  
HETATM   15  C   UNL     2      -9.033   9.407  66.622  1.00  0.00    -0.146 A  
HETATM   16  C   UNL     2      -8.284  11.707  67.444  1.00  0.00    -0.153 A  
HETATM   17  C   UNL     2      -9.038   8.553  67.726  1.00  0.00    -0.143 A  
HETATM   18  C   UNL     2      -8.034  11.590  68.823  1.00  0.00    -0.107 A  
HETATM   19  C   UNL     2      -7.071  12.384  69.447  1.00  0.00     0.153 A  
HETATM   20  C   UNL     2      -8.685   7.216  67.561  1.00  0.00    -0.121 A  
HETATM   21  C   UNL     2      -6.355  13.315  68.702  1.00  0.00    -0.087 A  
HETATM   22  C   UNL     2      -8.351   6.751  66.298  1.00  0.00    -0.126 A  
HETATM   23  C   UNL     2      -8.393   7.646  65.246  1.00  0.00    -0.115 A  
HETATM   24 CL   UNL     2      -5.190  14.315  69.478  1.00  0.00    -0.090 Cl 
HETATM   25  C   UNL     2      -6.585  13.449  67.336  1.00  0.00    -0.038 A  
HETATM   26  N   UNL     2      -8.730   8.949  65.378  1.00  0.00    -0.182 NA 
HETATM   27  C   UNL     2      -7.541  12.646  66.710  1.00  0.00     0.261 A  
ENDBRANCH  12  13
ENDBRANCH   4  12
TORSDOF 2
ENDMDL
MODEL      125
REMARK 921   NORMALIZED FREE ENERGY PREDICTED BY IDOCK:   -2.68 KCAL/MOL
REMARK 922        TOTAL FREE ENERGY PREDICTED BY IDOCK:   -3.68 KCAL/MOL
REMARK 923 INTER-LIGAND FREE ENERGY PREDICTED BY IDOCK:   -3.64 KCAL/MOL
REMARK 924 INTRA-LIGAND FREE ENERGY PREDICTED BY IDOCK:   -0.04 KCAL/MOL
REMARK 927      BINDING AFFINITY PREDICTED BY RF-SCORE:    0.00 PKD
ROOT
HETATM    1  O   UNL     1      -9.627  13.275  67.817  1.00  0.00    -0.201 OA 
HETATM    2  C   UNL     1      -9.579  14.504  67.290  1.00  0.00    -0.226 C  
HETATM    3  C   UNL     2      -7.376  10.215  63.390  1.00  0.00    -0.132 C  
HETATM    4  N   UNL     2      -7.379   9.901  64.817  1.00  0.00    -0.131 NA 
HETATM    5  O   UNL     1      -8.799  15.356  67.688  1.00  0.00    -0.169 OA 
HETATM    6  C   UNL     1     -10.420  14.783  66.107  1.00  0.00    -0.311 C  
HETATM    7  C   UNL     1     -11.441  14.144  65.516  1.00  0.00    -0.324 C  
HETATM    8  O   UNL     1     -11.892  12.464  67.123  1.00  0.00    -0.470 OA 
HETATM    9  C   UNL     2      -6.058  10.180  65.390  1.00  0.00    -0.103 C  
HETATM   10  O   UNL     1     -12.803  12.292  65.067  1.00  0.00    -0.563 OA 
HETATM   11  C   UNL     1     -12.068  12.914  66.002  1.00  0.00    -0.422 C  
ENDROOT
BRANCH   4  12
HETATM   12  C   UNL     2      -8.415  10.628  65.563  1.00  0.00    -0.175 C  
BRANCH  12  13
HETATM   13  C   UNL     2      -9.213   9.753  66.548  1.00  0.00    -0.194 C  
HETATM   14  C   UNL     2      -8.347   8.984  67.569  1.00  0.00    -0.116 C  
HETATM   15  C   UNL     2      -9.146   7.916  68.318  1.00  0.00    -0.134 A  
HETATM   16  C   UNL     2      -7.579   9.926  68.497  1.00  0.00    -0.080 A  
HETATM   17  C   UNL     2     -10.295   8.218  69.051  1.00  0.00    -0.233 A  
HETATM   18  C   UNL     2      -8.224  10.879  69.305  1.00  0.00    -0.046 A  
HETATM   19  C   UNL     2      -7.488  11.758  70.101  1.00  0.00     1.625 A  
HETATM   20  C   UNL     2     -10.954   7.205  69.743  1.00  0.00    -0.256 A  
HETATM   21  C   UNL     2      -6.098  11.702  70.090  1.00  0.00    -0.155 A  
HETATM   22  C   UNL     2     -10.469   5.908  69.676  1.00  0.00    -0.346 A  
HETATM   23  C   UNL     2      -9.342   5.676  68.910  1.00  0.00    -0.120 A  
HETATM   24 CL   UNL     2      -5.193  12.808  71.048  1.00  0.00    -0.153 Cl 
HETATM   25  C   UNL     2      -5.438  10.768  69.299  1.00  0.00    -0.041 A  
HETATM   26  N   UNL     2      -8.681   6.641  68.231  1.00  0.00    -0.119 NA 
HETATM   27  C   UNL     2      -6.175   9.881  68.510  1.00  0.00    -0.049 A  
ENDBRANCH  12  13
ENDBRANCH   4  12
TORSDOF 2
ENDMDL
MODEL      126
REMARK 921   NORMALIZED FREE ENERGY PREDICTED BY IDOCK:   -2.56 KCAL/MOL
REMARK 922        TOTAL FREE ENERGY PREDICTED BY IDOCK:   -3.55 KCAL/MOL
REMARK 923 INTER-LIGAND FREE ENERGY PREDICTED BY IDOCK:   -3.60 KCAL/MOL
REMARK 924 INTRA-LIGAND FREE ENERGY PREDICTED BY IDOCK:    0.05 KCAL/MOL
REMARK 927      BINDING AFFINITY PREDICTED BY RF-SCORE:    0.00 PKD
ROOT
HETATM    1  O   UNL     1     -11.397   8.576  70.988  1.00  0.00    -0.259 OA 
HETATM    2  C   UNL     1     -11.903   7.520  71.637  1.00  0.00    -0.291 C  
HETATM    3  C   UNL     2      -8.046   5.825  67.086  1.00  0.00    -0.102 C  
HETATM    4  N   UNL     2      -8.666   7.146  66.998  1.00  0.00    -0.121 NA 
HETATM    5  O   UNL     1     -13.074   7.189  71.534  1.00  0.00    -0.381 OA 
HETATM    6  C   UNL     1     -10.970   6.666  72.402  1.00  0.00    -0.277 C  
HETATM    7  C   UNL     1      -9.700   6.806  72.812  1.00  0.00    -0.170 C  
HETATM    8  O   UNL     1      -9.322   9.086  72.295  1.00  0.00    -0.333 OA 
HETATM    9  C   UNL     2      -9.849   7.082  66.133  1.00  0.00     0.179 C  
HETATM   10  O   UNL     1      -7.563   7.766  72.794  1.00  0.00    -0.091 OA 
HETATM   11  C   UNL     1      -8.874   8.000  72.627  1.00  0.00    -0.203 C  
ENDROOT
BRANCH   4  12
HETATM   12  C   UNL     2      -9.030   7.698  68.309  1.00  0.00    -0.127 C  
BRANCH  12  13
HETATM   13  C   UNL     2      -8.826   9.220  68.429  1.00  0.00    -0.129 C  
HETATM   14  C   UNL     2      -7.368   9.690  68.242  1.00  0.00    -0.080 C  
HETATM   15  C   UNL     2      -7.170  11.148  68.659  1.00  0.00    -0.098 A  
HETATM   16  C   UNL     2      -6.841   9.386  66.839  1.00  0.00    -0.080 A  
HETATM   17  C   UNL     2      -7.907  12.193  68.098  1.00  0.00    -0.147 A  
HETATM   18  C   UNL     2      -7.467   9.873  65.677  1.00  0.00    -0.116 A  
HETATM   19  C   UNL     2      -6.990   9.534  64.410  1.00  0.00    -0.107 A  
HETATM   20  C   UNL     2      -7.651  13.503  68.494  1.00  0.00    -0.129 A  
HETATM   21  C   UNL     2      -5.888   8.692  64.289  1.00  0.00    -0.065 A  
HETATM   22  C   UNL     2      -6.680  13.747  69.454  1.00  0.00    -0.079 A  
HETATM   23  C   UNL     2      -6.009  12.662  69.986  1.00  0.00    -0.145 A  
HETATM   24 CL   UNL     2      -5.321   8.250  62.727  1.00  0.00    -0.067 Cl 
HETATM   25  C   UNL     2      -5.253   8.198  65.424  1.00  0.00    -0.032 A  
HETATM   26  N   UNL     2      -6.235  11.381  69.618  1.00  0.00    -0.103 NA 
HETATM   27  C   UNL     2      -5.724   8.548  66.692  1.00  0.00    -0.044 A  
ENDBRANCH  12  13
ENDBRANCH   4  12
TORSDOF 2
ENDMDL
MODEL      127
REMARK 921   NORMALIZED FREE ENERGY PREDICTED BY IDOCK:   -2.52 KCAL/MOL
REMARK 922        TOTAL FREE ENERGY PREDICTED BY IDOCK:   -3.50 KCAL/MOL
REMARK 923 INTER-LIGAND FREE ENERGY PREDICTED BY IDOCK:   -5.79 KCAL/MOL
REMARK 924 INTRA-LIGAND FREE ENERGY PREDICTED BY IDOCK:    2.29 KCAL/MOL
REMARK 927      BINDING AFFINITY PREDICTED BY RF-SCORE:    0.00 PKD
ROOT
HETATM    1  O   UNL     1      -9.049  11.133  65.546  1.00  0.00    -0.206 OA 
HETATM    2  C   UNL     1      -9.976  10.434  66.212  1.00  0.00    -0.226 C  
HETATM    3  C   UNL     2      -6.711  14.137  69.966  1.00  0.00     0.002 C  
HETATM    4  N   UNL     2      -6.104  13.749  68.694  1.00  0.00    -0.082 NA 
HETATM    5  O   UNL     1      -9.882   9.229  66.391  1.00  0.00    -0.233 OA 
HETATM    6  C   UNL     1     -11.079  11.180  66.852  1.00  0.00    -0.313 C  
HETATM    7  C   UNL     1     -11.536  12.438  66.753  1.00  0.00    -0.423 C  
HETATM    8  O   UNL     1     -10.289  13.209  64.893  1.00  0.00    -0.323 OA 
HETATM    9  C   UNL     2      -5.206  12.608  68.900  1.00  0.00    -0.062 C  
HETATM   10  O   UNL     1     -11.390  14.703  66.175  1.00  0.00    -0.344 OA 
HETATM   11  C   UNL     1     -11.024  13.458  65.836  1.00  0.00    -0.274 C  
ENDROOT
BRANCH   4  12
HETATM   12  C   UNL     2      -7.095  13.429  67.658  1.00  0.00    -0.162 C  
BRANCH  12  13
HETATM   13  C   UNL     2      -8.550  13.732  68.065  1.00  0.00    -0.177 C  
HETATM   14  C   UNL     2      -8.728  15.014  68.907  1.00  0.00    -0.197 C  
HETATM   15  C   UNL     2     -10.122  15.109  69.529  1.00  0.00    -0.214 A  
HETATM   16  C   UNL     2      -8.322  16.270  68.135  1.00  0.00    -0.172 A  
HETATM   17  C   UNL     2     -11.287  15.079  68.760  1.00  0.00    -0.306 A  
HETATM   18  C   UNL     2      -8.916  16.627  66.912  1.00  0.00    -0.244 A  
HETATM   19  C   UNL     2      -8.486  17.753  66.208  1.00  0.00    -0.225 A  
HETATM   20  C   UNL     2     -12.525  15.210  69.385  1.00  0.00    -0.069 A  
HETATM   21  C   UNL     2      -7.447  18.528  66.714  1.00  0.00    -0.222 A  
HETATM   22  C   UNL     2     -12.580  15.350  70.763  1.00  0.00    -0.497 A  
HETATM   23  C   UNL     2     -11.388  15.345  71.464  1.00  0.00    -0.396 A  
HETATM   24 CL   UNL     2      -6.896  19.898  65.830  1.00  0.00    -0.281 Cl 
HETATM   25  C   UNL     2      -6.844  18.194  67.922  1.00  0.00    -0.211 A  
HETATM   26  N   UNL     2     -10.174  15.222  70.883  1.00  0.00     0.290 NA 
HETATM   27  C   UNL     2      -7.283  17.074  68.632  1.00  0.00    -0.221 A  
ENDBRANCH  12  13
ENDBRANCH   4  12
TORSDOF 2
ENDMDL
MODEL      128
REMARK 921   NORMALIZED FREE ENERGY PREDICTED BY IDOCK:   -2.44 KCAL/MOL
REMARK 922        TOTAL FREE ENERGY PREDICTED BY IDOCK:   -3.41 KCAL/MOL
REMARK 923 INTER-LIGAND FREE ENERGY PREDICTED BY IDOCK:   -3.66 KCAL/MOL
REMARK 924 INTRA-LIGAND FREE ENERGY PREDICTED BY IDOCK:    0.26 KCAL/MOL
REMARK 927      BINDING AFFINITY PREDICTED BY RF-SCORE:    0.00 PKD
ROOT
HETATM    1  O   UNL     1      -8.600  14.108  69.719  1.00  0.00     0.668 OA 
HETATM    2  C   UNL     1      -7.974  15.218  69.311  1.00  0.00    -0.223 C  
HETATM    3  C   UNL     2      -5.188  10.082  67.232  1.00  0.00    -0.041 C  
HETATM    4  N   UNL     2      -6.028   9.968  68.422  1.00  0.00    -0.042 NA 
HETATM    5  O   UNL     1      -7.341  15.930  70.076  1.00  0.00     0.053 OA 
HETATM    6  C   UNL     1      -7.955  15.510  67.863  1.00  0.00    -0.146 C  
HETATM    7  C   UNL     1      -8.627  15.030  66.805  1.00  0.00    -0.279 C  
HETATM    8  O   UNL     1     -10.266  13.711  67.892  1.00  0.00    -0.239 OA 
HETATM    9  C   UNL     2      -5.195  10.033  69.627  1.00  0.00    -0.038 C  
HETATM   10  O   UNL     1      -9.952  13.466  65.672  1.00  0.00    -0.285 OA 
HETATM   11  C   UNL     1      -9.700  14.036  66.860  1.00  0.00    -0.271 C  
ENDROOT
BRANCH   4  12
HETATM   12  C   UNL     2      -7.082  10.990  68.482  1.00  0.00    -0.078 C  
BRANCH  12  13
HETATM   13  C   UNL     2      -7.880  11.148  67.175  1.00  0.00    -0.139 C  
HETATM   14  C   UNL     2      -8.121   9.831  66.406  1.00  0.00    -0.116 C  
HETATM   15  C   UNL     2      -8.647  10.074  64.990  1.00  0.00    -0.162 A  
HETATM   16  C   UNL     2      -8.972   8.845  67.207  1.00  0.00    -0.140 A  
HETATM   17  C   UNL     2      -9.815  10.796  64.740  1.00  0.00    -0.358 A  
HETATM   18  C   UNL     2     -10.261   9.165  67.669  1.00  0.00    -0.293 A  
HETATM   19  C   UNL     2     -10.991   8.260  68.441  1.00  0.00     0.171 A  
HETATM   20  C   UNL     2     -10.261  10.948  63.430  1.00  0.00    -0.356 A  
HETATM   21  C   UNL     2     -10.434   7.028  68.772  1.00  0.00    -0.206 A  
HETATM   22  C   UNL     2      -9.527  10.394  62.392  1.00  0.00    -0.256 A  
HETATM   23  C   UNL     2      -8.366   9.715  62.711  1.00  0.00    -0.162 A  
HETATM   24 CL   UNL     2     -11.322   5.927  69.751  1.00  0.00    -0.351 Cl 
HETATM   25  C   UNL     2      -9.161   6.690  68.327  1.00  0.00    -0.123 A  
HETATM   26  N   UNL     2      -7.911   9.550  63.974  1.00  0.00    -0.132 NA 
HETATM   27  C   UNL     2      -8.435   7.592  67.543  1.00  0.00    -0.119 A  
ENDBRANCH  12  13
ENDBRANCH   4  12
TORSDOF 2
ENDMDL
MODEL      129
REMARK 921   NORMALIZED FREE ENERGY PREDICTED BY IDOCK:   -2.35 KCAL/MOL
REMARK 922        TOTAL FREE ENERGY PREDICTED BY IDOCK:   -3.31 KCAL/MOL
REMARK 923 INTER-LIGAND FREE ENERGY PREDICTED BY IDOCK:   -2.80 KCAL/MOL
REMARK 924 INTRA-LIGAND FREE ENERGY PREDICTED BY IDOCK:   -0.50 KCAL/MOL
REMARK 927      BINDING AFFINITY PREDICTED BY RF-SCORE:    0.00 PKD
ROOT
HETATM    1  O   UNL     1     -10.095  15.886  68.922  1.00  0.00    -0.206 OA 
HETATM    2  C   UNL     1     -11.103  16.765  68.868  1.00  0.00    -0.194 C  
HETATM    3  C   UNL     2     -12.056  11.899  65.143  1.00  0.00     0.049 C  
HETATM    4  N   UNL     2     -10.679  12.207  65.523  1.00  0.00    -0.273 NA 
HETATM    5  O   UNL     1     -10.987  17.862  68.342  1.00  0.00    -0.141 OA 
HETATM    6  C   UNL     1     -12.428  16.329  69.356  1.00  0.00     0.844 C  
HETATM    7  C   UNL     1     -12.859  15.285  70.081  1.00  0.00    -0.213 C  
HETATM    8  O   UNL     1     -10.794  14.358  70.778  1.00  0.00     0.237 OA 
HETATM    9  C   UNL     2     -10.037  12.997  64.467  1.00  0.00    -0.230 C  
HETATM   10  O   UNL     1     -12.682  13.150  71.027  1.00  0.00    -0.337 OA 
HETATM   11  C   UNL     1     -12.006  14.253  70.673  1.00  0.00    -0.322 C  
ENDROOT
BRANCH   4  12
HETATM   12  C   UNL     2     -10.582  12.912  66.809  1.00  0.00    -0.257 C  
BRANCH  12  13
HETATM   13  C   UNL     2      -9.219  13.585  67.056  1.00  0.00    -0.248 C  
HETATM   14  C   UNL     2      -8.476  13.088  68.315  1.00  0.00    -0.159 C  
HETATM   15  C   UNL     2      -7.289  13.982  68.677  1.00  0.00    -0.120 A  
HETATM   16  C   UNL     2      -8.112  11.606  68.221  1.00  0.00    -0.150 A  
HETATM   17  C   UNL     2      -6.247  14.239  67.785  1.00  0.00    -0.152 A  
HETATM   18  C   UNL     2      -7.320  11.090  67.180  1.00  0.00    -0.116 A  
HETATM   19  C   UNL     2      -7.049   9.723  67.096  1.00  0.00    -0.086 A  
HETATM   20  C   UNL     2      -5.175  15.030  68.191  1.00  0.00    -0.119 A  
HETATM   21  C   UNL     2      -7.578   8.855  68.046  1.00  0.00    -0.093 A  
HETATM   22  C   UNL     2      -5.169  15.565  69.470  1.00  0.00    -0.099 A  
HETATM   23  C   UNL     2      -6.247  15.290  70.292  1.00  0.00    -0.090 A  
HETATM   24 CL   UNL     2      -7.269   7.167  67.923  1.00  0.00    -0.089 Cl 
HETATM   25  C   UNL     2      -8.364   9.342  69.084  1.00  0.00    -0.125 A  
HETATM   26  N   UNL     2      -7.299  14.524  69.924  1.00  0.00     0.021 NA 
HETATM   27  C   UNL     2      -8.625  10.712  69.174  1.00  0.00    -0.136 A  
ENDBRANCH  12  13
ENDBRANCH   4  12
TORSDOF 2
ENDMDL
MODEL      130
REMARK 921   NORMALIZED FREE ENERGY PREDICTED BY IDOCK:   -2.33 KCAL/MOL
REMARK 922        TOTAL FREE ENERGY PREDICTED BY IDOCK:   -3.28 KCAL/MOL
REMARK 923 INTER-LIGAND FREE ENERGY PREDICTED BY IDOCK:   -2.49 KCAL/MOL
REMARK 924 INTRA-LIGAND FREE ENERGY PREDICTED BY IDOCK:   -0.80 KCAL/MOL
REMARK 927      BINDING AFFINITY PREDICTED BY RF-SCORE:    0.00 PKD
ROOT
HETATM    1  O   UNL     1      -7.788  10.717  66.246  1.00  0.00    -0.138 OA 
HETATM    2  C   UNL     1      -6.735   9.899  66.365  1.00  0.00    -0.085 C  
HETATM    3  C   UNL     2      -6.114  15.011  69.821  1.00  0.00    -0.135 C  
HETATM    4  N   UNL     2      -7.021  15.068  68.677  1.00  0.00    -0.106 NA 
HETATM    5  O   UNL     1      -5.931   9.731  65.460  1.00  0.00    -0.062 OA 
HETATM    6  C   UNL     1      -6.483   9.283  67.684  1.00  0.00    -0.063 C  
HETATM    7  C   UNL     1      -7.204   9.157  68.809  1.00  0.00    -0.074 C  
HETATM    8  O   UNL     1      -9.319   9.912  68.056  1.00  0.00    -0.131 OA 
HETATM    9  C   UNL     2      -6.332  15.661  67.526  1.00  0.00    -0.151 C  
HETATM   10  O   UNL     1      -8.955   9.691  70.271  1.00  0.00    -0.231 OA 
HETATM   11  C   UNL     1      -8.589   9.599  68.983  1.00  0.00    -0.133 C  
ENDROOT
BRANCH   4  12
HETATM   12  C   UNL     2      -7.570  13.755  68.313  1.00  0.00    -0.129 C  
BRANCH  12  13
HETATM   13  C   UNL     2      -8.921  13.432  68.980  1.00  0.00     0.407 C  
HETATM   14  C   UNL     2      -9.927  14.603  68.994  1.00  0.00    -0.195 C  
HETATM   15  C   UNL     2     -11.118  14.333  69.915  1.00  0.00    -0.076 A  
HETATM   16  C   UNL     2     -10.337  15.026  67.583  1.00  0.00    -0.243 A  
HETATM   17  C   UNL     2     -11.943  13.218  69.762  1.00  0.00    -0.391 A  
HETATM   18  C   UNL     2     -10.926  14.133  66.670  1.00  0.00    -0.303 A  
HETATM   19  C   UNL     2     -11.240  14.539  65.372  1.00  0.00    -0.342 A  
HETATM   20  C   UNL     2     -13.035  13.051  70.610  1.00  0.00     0.044 A  
HETATM   21  C   UNL     2     -10.958  15.840  64.968  1.00  0.00    -0.417 A  
HETATM   22  C   UNL     2     -13.274  13.987  71.605  1.00  0.00    -0.442 A  
HETATM   23  C   UNL     2     -12.400  15.052  71.715  1.00  0.00    -0.344 A  
HETATM   24 CL   UNL     2     -11.318  16.329  63.358  1.00  0.00     2.188 Cl 
HETATM   25  C   UNL     2     -10.376  16.741  65.853  1.00  0.00    -0.341 A  
HETATM   26  N   UNL     2     -11.335  15.240  70.904  1.00  0.00    -0.325 NA 
HETATM   27  C   UNL     2     -10.071  16.337  67.156  1.00  0.00    -0.268 A  
ENDBRANCH  12  13
ENDBRANCH   4  12
TORSDOF 2
ENDMDL
MODEL      131
REMARK 921   NORMALIZED FREE ENERGY PREDICTED BY IDOCK:   -2.32 KCAL/MOL
REMARK 922        TOTAL FREE ENERGY PREDICTED BY IDOCK:   -3.27 KCAL/MOL
REMARK 923 INTER-LIGAND FREE ENERGY PREDICTED BY IDOCK:   -3.29 KCAL/MOL
REMARK 924 INTRA-LIGAND FREE ENERGY PREDICTED BY IDOCK:    0.02 KCAL/MOL
REMARK 927      BINDING AFFINITY PREDICTED BY RF-SCORE:    0.00 PKD
ROOT
HETATM    1  O   UNL     1      -8.140  14.399  67.270  1.00  0.00    -0.188 OA 
HETATM    2  C   UNL     1      -8.603  15.493  66.653  1.00  0.00    -0.290 C  
HETATM    3  C   UNL     2     -10.121  10.296  63.628  1.00  0.00     0.163 C  
HETATM    4  N   UNL     2      -8.969  10.250  64.526  1.00  0.00    -0.200 NA 
HETATM    5  O   UNL     1      -7.867  16.282  66.081  1.00  0.00    -0.213 OA 
HETATM    6  C   UNL     1     -10.068  15.669  66.567  1.00  0.00    -0.293 C  
HETATM    7  C   UNL     1     -11.116  15.087  67.169  1.00  0.00    -0.332 C  
HETATM    8  O   UNL     1     -10.009  13.809  68.828  1.00  0.00    -0.203 OA 
HETATM    9  C   UNL     2      -7.734  10.436  63.758  1.00  0.00    -0.042 C  
HETATM   10  O   UNL     1     -12.184  13.399  68.392  1.00  0.00    -0.293 OA 
HETATM   11  C   UNL     1     -11.034  14.068  68.217  1.00  0.00    -0.255 C  
ENDROOT
BRANCH   4  12
HETATM   12  C   UNL     2      -9.044  11.241  65.608  1.00  0.00    -0.189 C  
BRANCH  12  13
HETATM   13  C   UNL     2      -8.132  10.931  66.809  1.00  0.00    -0.142 C  
HETATM   14  C   UNL     2      -8.525   9.667  67.604  1.00  0.00    -0.125 C  
HETATM   15  C   UNL     2      -7.785   9.569  68.939  1.00  0.00    -0.076 A  
HETATM   16  C   UNL     2      -8.414   8.398  66.757  1.00  0.00    -0.114 A  
HETATM   17  C   UNL     2      -6.392   9.568  69.024  1.00  0.00    -0.042 A  
HETATM   18  C   UNL     2      -7.213   8.007  66.140  1.00  0.00    -0.070 A  
HETATM   19  C   UNL     2      -7.160   6.870  65.331  1.00  0.00    -0.068 A  
HETATM   20  C   UNL     2      -5.781   9.437  70.269  1.00  0.00    -0.036 A  
HETATM   21  C   UNL     2      -8.312   6.119  65.120  1.00  0.00    -0.129 A  
HETATM   22  C   UNL     2      -6.567   9.327  71.406  1.00  0.00    -0.027 A  
HETATM   23  C   UNL     2      -7.940   9.362  71.249  1.00  0.00     0.242 A  
HETATM   24 CL   UNL     2      -8.253   4.736  64.097  1.00  0.00    -0.111 Cl 
HETATM   25  C   UNL     2      -9.512   6.487  65.720  1.00  0.00     0.190 A  
HETATM   26  N   UNL     2      -8.560   9.486  70.054  1.00  0.00    -0.197 NA 
HETATM   27  C   UNL     2      -9.561   7.618  66.538  1.00  0.00    -0.254 A  
ENDBRANCH  12  13
ENDBRANCH   4  12
TORSDOF 2
ENDMDL
MODEL      132
REMARK 921   NORMALIZED FREE ENERGY PREDICTED BY IDOCK:   -2.28 KCAL/MOL
REMARK 922        TOTAL FREE ENERGY PREDICTED BY IDOCK:   -3.23 KCAL/MOL
REMARK 923 INTER-LIGAND FREE ENERGY PREDICTED BY IDOCK:   -3.07 KCAL/MOL
REMARK 924 INTRA-LIGAND FREE ENERGY PREDICTED BY IDOCK:   -0.15 KCAL/MOL
REMARK 927      BINDING AFFINITY PREDICTED BY RF-SCORE:    0.00 PKD
ROOT
HETATM    1  O   UNL     1     -11.556  14.961  67.196  1.00  0.00    -0.362 OA 
HETATM    2  C   UNL     1     -10.945  15.743  66.297  1.00  0.00    -0.163 C  
HETATM    3  C   UNL     2      -8.438  10.076  66.536  1.00  0.00    -0.126 C  
HETATM    4  N   UNL     2      -9.179  10.543  67.706  1.00  0.00    -0.145 NA 
HETATM    5  O   UNL     1     -10.238  16.684  66.623  1.00  0.00    -0.286 OA 
HETATM    6  C   UNL     1     -11.041  15.364  64.872  1.00  0.00    -0.435 C  
HETATM    7  C   UNL     1     -11.807  14.503  64.184  1.00  0.00    -0.290 C  
HETATM    8  O   UNL     1     -13.375  13.889  65.849  1.00  0.00    -0.396 OA 
HETATM    9  C   UNL     2      -8.247  11.089  68.699  1.00  0.00    -0.151 C  
HETATM   10  O   UNL     1     -13.251  12.673  63.954  1.00  0.00    -0.510 OA 
HETATM   11  C   UNL     1     -12.890  13.694  64.746  1.00  0.00    -0.123 C  
ENDROOT
BRANCH   4  12
HETATM   12  C   UNL     2     -10.204  11.542  67.375  1.00  0.00    -0.203 C  
BRANCH  12  13
HETATM   13  C   UNL     2     -10.434  12.595  68.474  1.00  0.00    -0.249 C  
HETATM   14  C   UNL     2     -11.755  12.430  69.256  1.00  0.00    -0.386 C  
HETATM   15  C   UNL     2     -12.075  13.653  70.118  1.00  0.00    -0.361 A  
HETATM   16  C   UNL     2     -11.803  11.114  70.032  1.00  0.00    -0.441 A  
HETATM   17  C   UNL     2     -11.196  14.132  71.092  1.00  0.00     0.774 A  
HETATM   18  C   UNL     2     -10.838  10.771  70.995  1.00  0.00     1.110 A  
HETATM   19  C   UNL     2     -10.883   9.538  71.648  1.00  0.00    -0.225 A  
HETATM   20  C   UNL     2     -11.565  15.226  71.870  1.00  0.00    -0.515 A  
HETATM   21  C   UNL     2     -11.888   8.628  71.336  1.00  0.00    -0.297 A  
HETATM   22  C   UNL     2     -12.792  15.835  71.652  1.00  0.00    -0.514 A  
HETATM   23  C   UNL     2     -13.600  15.324  70.654  1.00  0.00    -0.131 A  
HETATM   24 CL   UNL     2     -11.924   7.096  72.119  1.00  0.00    -0.317 Cl 
HETATM   25  C   UNL     2     -12.854   8.945  70.387  1.00  0.00     0.744 A  
HETATM   26  N   UNL     2     -13.268  14.261  69.886  1.00  0.00     0.458 NA 
HETATM   27  C   UNL     2     -12.815  10.184  69.742  1.00  0.00     0.466 A  
ENDBRANCH  12  13
ENDBRANCH   4  12
TORSDOF 2
ENDMDL
MODEL      133
REMARK 921   NORMALIZED FREE ENERGY PREDICTED BY IDOCK:   -2.27 KCAL/MOL
REMARK 922        TOTAL FREE ENERGY PREDICTED BY IDOCK:   -3.22 KCAL/MOL
REMARK 923 INTER-LIGAND FREE ENERGY PREDICTED BY IDOCK:   -2.63 KCAL/MOL
REMARK 924 INTRA-LIGAND FREE ENERGY PREDICTED BY IDOCK:   -0.59 KCAL/MOL
REMARK 927      BINDING AFFINITY PREDICTED BY RF-SCORE:    0.00 PKD
ROOT
HETATM    1  O   UNL     1      -8.096   9.633  66.123  1.00  0.00    -0.107 OA 
HETATM    2  C   UNL     1      -7.054  10.332  65.660  1.00  0.00    -0.137 C  
HETATM    3  C   UNL     2     -11.796  14.000  67.247  1.00  0.00    -0.411 C  
HETATM    4  N   UNL     2     -12.090  12.604  66.933  1.00  0.00    -0.499 NA 
HETATM    5  O   UNL     1      -6.726  10.315  64.483  1.00  0.00    -0.128 OA 
HETATM    6  C   UNL     1      -6.364  11.247  66.593  1.00  0.00    -0.135 C  
HETATM    7  C   UNL     1      -6.382  11.409  67.925  1.00  0.00    -0.055 C  
HETATM    8  O   UNL     1      -7.626   9.503  68.579  1.00  0.00    -0.080 OA 
HETATM    9  C   UNL     2     -12.534  12.491  65.540  1.00  0.00    -0.155 C  
HETATM   10  O   UNL     1      -7.272  11.152  70.076  1.00  0.00    -0.019 OA 
HETATM   11  C   UNL     1      -7.129  10.579  68.872  1.00  0.00    -0.074 C  
ENDROOT
BRANCH   4  12
HETATM   12  C   UNL     2     -10.950  11.709  67.172  1.00  0.00    -0.280 C  
BRANCH  12  13
HETATM   13  C   UNL     2     -11.206  10.638  68.249  1.00  0.00    -0.362 C  
HETATM   14  C   UNL     2     -10.760  11.039  69.672  1.00  0.00    -0.193 C  
HETATM   15  C   UNL     2     -10.759   9.851  70.635  1.00  0.00    -0.303 A  
HETATM   16  C   UNL     2     -11.538  12.245  70.200  1.00  0.00    -0.177 A  
HETATM   17  C   UNL     2     -11.899   9.080  70.873  1.00  0.00    -0.302 A  
HETATM   18  C   UNL     2     -12.940  12.247  70.310  1.00  0.00     0.461 A  
HETATM   19  C   UNL     2     -13.623  13.384  70.748  1.00  0.00     0.503 A  
HETATM   20  C   UNL     2     -11.841   8.035  71.792  1.00  0.00    -0.339 A  
HETATM   21  C   UNL     2     -12.911  14.536  71.068  1.00  0.00    -0.358 A  
HETATM   22  C   UNL     2     -10.647   7.766  72.443  1.00  0.00    -0.336 A  
HETATM   23  C   UNL     2      -9.552   8.553  72.139  1.00  0.00    -0.312 A  
HETATM   24 CL   UNL     2     -13.756  15.946  71.577  1.00  0.00    -0.170 Cl 
HETATM   25  C   UNL     2     -11.524  14.557  70.967  1.00  0.00    -0.140 A  
HETATM   26  N   UNL     2      -9.580   9.575  71.254  1.00  0.00    -0.183 NA 
HETATM   27  C   UNL     2     -10.841  13.416  70.540  1.00  0.00     1.655 A  
ENDBRANCH  12  13
ENDBRANCH   4  12
TORSDOF 2
ENDMDL
MODEL      134
REMARK 921   NORMALIZED FREE ENERGY PREDICTED BY IDOCK:   -2.21 KCAL/MOL
REMARK 922        TOTAL FREE ENERGY PREDICTED BY IDOCK:   -3.15 KCAL/MOL
REMARK 923 INTER-LIGAND FREE ENERGY PREDICTED BY IDOCK:   -2.26 KCAL/MOL
REMARK 924 INTRA-LIGAND FREE ENERGY PREDICTED BY IDOCK:   -0.89 KCAL/MOL
REMARK 927      BINDING AFFINITY PREDICTED BY RF-SCORE:    0.00 PKD
ROOT
HETATM    1  O   UNL     1      -6.939   9.906  70.818  1.00  0.00    -0.272 OA 
HETATM    2  C   UNL     1      -6.999   9.002  71.802  1.00  0.00     0.049 C  
HETATM    3  C   UNL     2     -12.506   9.848  69.080  1.00  0.00     1.667 C  
HETATM    4  N   UNL     2     -11.520  10.920  68.969  1.00  0.00    -0.278 NA 
HETATM    5  O   UNL     1      -6.901   9.311  72.980  1.00  0.00    -0.181 OA 
HETATM    6  C   UNL     1      -7.319   7.605  71.441  1.00  0.00    -0.074 C  
HETATM    7  C   UNL     1      -7.358   6.926  70.284  1.00  0.00    -0.084 C  
HETATM    8  O   UNL     1      -6.381   8.507  68.817  1.00  0.00    -0.047 OA 
HETATM    9  C   UNL     2     -11.775  11.938  69.993  1.00  0.00    -0.286 C  
HETATM   10  O   UNL     1      -7.453   6.721  67.953  1.00  0.00    -0.094 OA 
HETATM   11  C   UNL     1      -6.991   7.461  68.972  1.00  0.00    -0.077 C  
ENDROOT
BRANCH   4  12
HETATM   12  C   UNL     2     -10.135  10.439  69.071  1.00  0.00    -0.213 C  
BRANCH  12  13
HETATM   13  C   UNL     2      -9.514  10.018  67.726  1.00  0.00    -0.157 C  
HETATM   14  C   UNL     2      -9.221  11.187  66.761  1.00  0.00    -0.183 C  
HETATM   15  C   UNL     2      -8.891  10.702  65.348  1.00  0.00    -0.189 A  
HETATM   16  C   UNL     2      -8.181  12.154  67.327  1.00  0.00    -0.180 A  
HETATM   17  C   UNL     2      -7.845   9.815  65.087  1.00  0.00    -0.126 A  
HETATM   18  C   UNL     2      -6.890  11.738  67.699  1.00  0.00    -0.099 A  
HETATM   19  C   UNL     2      -5.982  12.636  68.262  1.00  0.00    -0.068 A  
HETATM   20  C   UNL     2      -7.572   9.444  63.773  1.00  0.00    -0.117 A  
HETATM   21  C   UNL     2      -6.359  13.960  68.470  1.00  0.00    -0.093 A  
HETATM   22  C   UNL     2      -8.355   9.948  62.746  1.00  0.00    -0.160 A  
HETATM   23  C   UNL     2      -9.391  10.801  63.080  1.00  0.00    -0.330 A  
HETATM   24 CL   UNL     2      -5.249  15.059  69.193  1.00  0.00    -0.094 Cl 
HETATM   25  C   UNL     2      -7.630  14.394  68.110  1.00  0.00    -0.128 A  
HETATM   26  N   UNL     2      -9.676  11.180  64.346  1.00  0.00    -0.252 NA 
HETATM   27  C   UNL     2      -8.535  13.496  67.537  1.00  0.00    -0.192 A  
ENDBRANCH  12  13
ENDBRANCH   4  12
TORSDOF 2
ENDMDL
MODEL      135
REMARK 921   NORMALIZED FREE ENERGY PREDICTED BY IDOCK:   -1.93 KCAL/MOL
REMARK 922        TOTAL FREE ENERGY PREDICTED BY IDOCK:   -2.85 KCAL/MOL
REMARK 923 INTER-LIGAND FREE ENERGY PREDICTED BY IDOCK:   -2.15 KCAL/MOL
REMARK 924 INTRA-LIGAND FREE ENERGY PREDICTED BY IDOCK:   -0.69 KCAL/MOL
REMARK 927      BINDING AFFINITY PREDICTED BY RF-SCORE:    0.00 PKD
ROOT
HETATM    1  O   UNL     1     -11.889  10.529  67.884  1.00  0.00    -0.400 OA 
HETATM    2  C   UNL     1     -12.035   9.829  69.015  1.00  0.00     0.744 C  
HETATM    3  C   UNL     2      -6.317  12.160  68.442  1.00  0.00    -0.054 C  
HETATM    4  N   UNL     2      -7.105  11.983  67.225  1.00  0.00    -0.142 NA 
HETATM    5  O   UNL     1     -12.148   8.613  69.021  1.00  0.00     1.703 OA 
HETATM    6  C   UNL     1     -11.929  10.556  70.297  1.00  0.00    -0.411 C  
HETATM    7  C   UNL     1     -11.935  11.854  70.638  1.00  0.00    -0.289 C  
HETATM    8  O   UNL     1     -12.554  12.842  68.576  1.00  0.00     0.336 OA 
HETATM    9  C   UNL     2      -6.745  10.716  66.579  1.00  0.00    -0.116 C  
HETATM   10  O   UNL     1     -11.742  14.151  70.224  1.00  0.00    -0.280 OA 
HETATM   11  C   UNL     1     -12.134  12.973  69.715  1.00  0.00    -0.258 C  
ENDROOT
BRANCH   4  12
HETATM   12  C   UNL     2      -8.554  12.030  67.467  1.00  0.00    -0.167 C  
BRANCH  12  13
HETATM   13  C   UNL     2      -9.115  13.453  67.645  1.00  0.00    -0.203 C  
HETATM   14  C   UNL     2      -9.281  14.247  66.331  1.00  0.00    -0.226 C  
HETATM   15  C   UNL     2      -9.553  15.732  66.582  1.00  0.00    -0.247 A  
HETATM   16  C   UNL     2     -10.295  13.597  65.390  1.00  0.00    -0.345 A  
HETATM   17  C   UNL     2     -10.631  16.175  67.350  1.00  0.00    -0.311 A  
HETATM   18  C   UNL     2     -11.628  13.358  65.769  1.00  0.00    -0.358 A  
HETATM   19  C   UNL     2     -12.515  12.715  64.903  1.00  0.00    -0.564 A  
HETATM   20  C   UNL     2     -10.845  17.542  67.507  1.00  0.00    -0.205 A  
HETATM   21  C   UNL     2     -12.074  12.293  63.652  1.00  0.00    -0.554 A  
HETATM   22  C   UNL     2      -9.973  18.441  66.913  1.00  0.00    -0.367 A  
HETATM   23  C   UNL     2      -8.911  17.931  66.189  1.00  0.00    -0.095 A  
HETATM   24 CL   UNL     2     -13.159  11.473  62.598  1.00  0.00     0.977 Cl 
HETATM   25  C   UNL     2     -10.760  12.518  63.256  1.00  0.00    -0.161 A  
HETATM   26  N   UNL     2      -8.681  16.609  66.018  1.00  0.00    -0.486 NA 
HETATM   27  C   UNL     2      -9.877  13.172  64.119  1.00  0.00     0.327 A  
ENDBRANCH  12  13
ENDBRANCH   4  12
TORSDOF 2
ENDMDL
MODEL      136
REMARK 921   NORMALIZED FREE ENERGY PREDICTED BY IDOCK:   -1.93 KCAL/MOL
REMARK 922        TOTAL FREE ENERGY PREDICTED BY IDOCK:   -2.84 KCAL/MOL
REMARK 923 INTER-LIGAND FREE ENERGY PREDICTED BY IDOCK:   -2.04 KCAL/MOL
REMARK 924 INTRA-LIGAND FREE ENERGY PREDICTED BY IDOCK:   -0.80 KCAL/MOL
REMARK 927      BINDING AFFINITY PREDICTED BY RF-SCORE:    0.00 PKD
ROOT
HETATM    1  O   UNL     1     -11.030   9.221  69.682  1.00  0.00    -0.234 OA 
HETATM    2  C   UNL     1     -11.542   8.895  70.875  1.00  0.00    -0.283 C  
HETATM    3  C   UNL     2      -9.727   3.902  67.675  1.00  0.00    -0.101 C  
HETATM    4  N   UNL     2     -10.028   5.119  66.926  1.00  0.00    -0.179 NA 
HETATM    5  O   UNL     1     -12.734   8.999  71.126  1.00  0.00    -0.287 OA 
HETATM    6  C   UNL     1     -10.642   8.272  71.868  1.00  0.00    -0.350 C  
HETATM    7  C   UNL     1      -9.311   8.135  71.964  1.00  0.00    -0.266 C  
HETATM    8  O   UNL     1      -8.599   9.539  70.194  1.00  0.00    -0.189 OA 
HETATM    9  C   UNL     2     -11.398   5.058  66.407  1.00  0.00     1.156 C  
HETATM   10  O   UNL     1      -7.120   8.121  71.136  1.00  0.00    -0.052 OA 
HETATM   11  C   UNL     1      -8.330   8.690  71.029  1.00  0.00    -0.161 C  
ENDROOT
BRANCH   4  12
HETATM   12  C   UNL     2      -9.844   6.343  67.719  1.00  0.00    -0.123 C  
BRANCH  12  13
HETATM   13  C   UNL     2      -9.021   7.434  67.009  1.00  0.00    -0.142 C  
HETATM   14  C   UNL     2      -7.500   7.360  67.265  1.00  0.00    -0.103 C  
HETATM   15  C   UNL     2      -6.772   8.620  66.792  1.00  0.00    -0.069 A  
HETATM   16  C   UNL     2      -6.889   6.068  66.723  1.00  0.00    -0.059 A  
HETATM   17  C   UNL     2      -6.843   9.074  65.474  1.00  0.00    -0.073 A  
HETATM   18  C   UNL     2      -6.986   5.698  65.370  1.00  0.00    -0.064 A  
HETATM   19  C   UNL     2      -6.460   4.486  64.919  1.00  0.00    -0.035 A  
HETATM   20  C   UNL     2      -6.123  10.206  65.099  1.00  0.00    -0.120 A  
HETATM   21  C   UNL     2      -5.842   3.624  65.819  1.00  0.00    -0.019 A  
HETATM   22  C   UNL     2      -5.362  10.874  66.047  1.00  0.00    -0.133 A  
HETATM   23  C   UNL     2      -5.359  10.383  67.339  1.00  0.00    -0.040 A  
HETATM   24 CL   UNL     2      -5.223   2.116  65.268  1.00  0.00    -0.005 Cl 
HETATM   25  C   UNL     2      -5.734   3.969  67.162  1.00  0.00    -0.022 A  
HETATM   26  N   UNL     2      -6.046   9.285  67.729  1.00  0.00    -0.053 NA 
HETATM   27  C   UNL     2      -6.250   5.187  67.611  1.00  0.00    -0.038 A  
ENDBRANCH  12  13
ENDBRANCH   4  12
TORSDOF 2
ENDMDL
MODEL      137
REMARK 921   NORMALIZED FREE ENERGY PREDICTED BY IDOCK:   -1.70 KCAL/MOL
REMARK 922        TOTAL FREE ENERGY PREDICTED BY IDOCK:   -2.58 KCAL/MOL
REMARK 923 INTER-LIGAND FREE ENERGY PREDICTED BY IDOCK:   -5.08 KCAL/MOL
REMARK 924 INTRA-LIGAND FREE ENERGY PREDICTED BY IDOCK:    2.50 KCAL/MOL
REMARK 927      BINDING AFFINITY PREDICTED BY RF-SCORE:    0.00 PKD
ROOT
HETATM    1  O   UNL     1      -9.648  16.458  69.236  1.00  0.00    -0.249 OA 
HETATM    2  C   UNL     1     -10.225  17.076  68.198  1.00  0.00    -0.322 C  
HETATM    3  C   UNL     2      -6.723  12.285  66.399  1.00  0.00     0.942 C  
HETATM    4  N   UNL     2      -6.432  12.892  67.696  1.00  0.00    -0.145 NA 
HETATM    5  O   UNL     1      -9.886  18.190  67.830  1.00  0.00    -0.289 OA 
HETATM    6  C   UNL     1     -11.219  16.319  67.408  1.00  0.00    -0.000 C  
HETATM    7  C   UNL     1     -11.889  15.173  67.602  1.00  0.00    -0.134 C  
HETATM    8  O   UNL     1     -11.349  14.730  69.865  1.00  0.00    -0.255 OA 
HETATM    9  C   UNL     2      -5.335  13.855  67.559  1.00  0.00     0.185 C  
HETATM   10  O   UNL     1     -12.289  13.102  68.620  1.00  0.00    -0.138 OA 
HETATM   11  C   UNL     1     -11.828  14.347  68.809  1.00  0.00    -0.325 C  
ENDROOT
BRANCH   4  12
HETATM   12  C   UNL     2      -7.602  13.545  68.299  1.00  0.00    -0.135 C  
BRANCH  12  13
HETATM   13  C   UNL     2      -8.883  13.449  67.451  1.00  0.00    -0.214 C  
HETATM   14  C   UNL     2      -9.181  12.040  66.894  1.00  0.00    -0.197 C  
HETATM   15  C   UNL     2     -10.280  12.057  65.830  1.00  0.00    -0.242 A  
HETATM   16  C   UNL     2      -9.435  11.024  68.009  1.00  0.00    -0.169 A  
HETATM   17  C   UNL     2     -11.555  12.568  66.080  1.00  0.00    -0.456 A  
HETATM   18  C   UNL     2     -10.452  11.192  68.965  1.00  0.00    -0.233 A  
HETATM   19  C   UNL     2     -10.623  10.271  69.999  1.00  0.00    -0.321 A  
HETATM   20  C   UNL     2     -12.522  12.518  65.079  1.00  0.00    -0.494 A  
HETATM   21  C   UNL     2      -9.770   9.176  70.097  1.00  0.00    -0.204 A  
HETATM   22  C   UNL     2     -12.197  11.979  63.843  1.00  0.00    -0.555 A  
HETATM   23  C   UNL     2     -10.907  11.516  63.658  1.00  0.00    -0.415 A  
HETATM   24 CL   UNL     2      -9.962   8.059  71.391  1.00  0.00    -0.210 Cl 
HETATM   25  C   UNL     2      -8.757   8.988  69.163  1.00  0.00    -0.135 A  
HETATM   26  N   UNL     2      -9.950  11.549  64.613  1.00  0.00    -0.251 NA 
HETATM   27  C   UNL     2      -8.594   9.905  68.121  1.00  0.00    -0.118 A  
ENDBRANCH  12  13
ENDBRANCH   4  12
TORSDOF 2
ENDMDL
MODEL      138
REMARK 921   NORMALIZED FREE ENERGY PREDICTED BY IDOCK:   -1.61 KCAL/MOL
REMARK 922        TOTAL FREE ENERGY PREDICTED BY IDOCK:   -2.48 KCAL/MOL
REMARK 923 INTER-LIGAND FREE ENERGY PREDICTED BY IDOCK:   -3.26 KCAL/MOL
REMARK 924 INTRA-LIGAND FREE ENERGY PREDICTED BY IDOCK:    0.77 KCAL/MOL
REMARK 927      BINDING AFFINITY PREDICTED BY RF-SCORE:    0.00 PKD
ROOT
HETATM    1  O   UNL     1     -10.685   5.718  66.234  1.00  0.00    -0.177 OA 
HETATM    2  C   UNL     1      -9.775   4.835  65.803  1.00  0.00    -0.188 C  
HETATM    3  C   UNL     2      -7.569  10.631  65.822  1.00  0.00    -0.120 C  
HETATM    4  N   UNL     2      -9.019  10.454  65.766  1.00  0.00    -0.162 NA 
HETATM    5  O   UNL     1      -9.870   4.273  64.723  1.00  0.00    -0.176 OA 
HETATM    6  C   UNL     1      -8.560   4.640  66.621  1.00  0.00    -0.108 C  
HETATM    7  C   UNL     1      -8.210   4.985  67.870  1.00  0.00    -0.097 C  
HETATM    8  O   UNL     1     -10.285   5.763  68.705  1.00  0.00    -0.161 OA 
HETATM    9  C   UNL     2      -9.476  10.543  64.375  1.00  0.00    -0.281 C  
HETATM   10  O   UNL     1      -8.399   6.206  69.860  1.00  0.00    -0.124 OA 
HETATM   11  C   UNL     1      -9.076   5.657  68.840  1.00  0.00    -0.115 C  
ENDROOT
BRANCH   4  12
HETATM   12  C   UNL     2      -9.466   9.189  66.363  1.00  0.00    -0.227 C  
BRANCH  12  13
HETATM   13  C   UNL     2     -10.586   9.348  67.408  1.00  0.00    -0.326 C  
HETATM   14  C   UNL     2     -10.445  10.590  68.316  1.00  0.00    -0.211 C  
HETATM   15  C   UNL     2     -11.398  10.544  69.512  1.00  0.00    -0.278 A  
HETATM   16  C   UNL     2     -10.533  11.894  67.523  1.00  0.00    -0.233 A  
HETATM   17  C   UNL     2     -12.781  10.424  69.362  1.00  0.00     0.632 A  
HETATM   18  C   UNL     2     -11.648  12.222  66.732  1.00  0.00    -0.434 A  
HETATM   19  C   UNL     2     -11.673  13.398  65.980  1.00  0.00    -0.398 A  
HETATM   20  C   UNL     2     -13.596  10.428  70.492  1.00  0.00     0.424 A  
HETATM   21  C   UNL     2     -10.576  14.254  66.000  1.00  0.00    -0.300 A  
HETATM   22  C   UNL     2     -13.018  10.533  71.748  1.00  0.00    -0.582 A  
HETATM   23  C   UNL     2     -11.641  10.621  71.822  1.00  0.00     1.075 A  
HETATM   24 CL   UNL     2     -10.595  15.686  65.048  1.00  0.00    -0.450 Cl 
HETATM   25  C   UNL     2      -9.461  13.950  66.774  1.00  0.00    -0.287 A  
HETATM   26  N   UNL     2     -10.826  10.623  70.743  1.00  0.00     0.233 NA 
HETATM   27  C   UNL     2      -9.442  12.779  67.536  1.00  0.00    -0.187 A  
ENDBRANCH  12  13
ENDBRANCH   4  12
TORSDOF 2
ENDMDL
MODEL      139
REMARK 921   NORMALIZED FREE ENERGY PREDICTED BY IDOCK:   -1.48 KCAL/MOL
REMARK 922        TOTAL FREE ENERGY PREDICTED BY IDOCK:   -2.33 KCAL/MOL
REMARK 923 INTER-LIGAND FREE ENERGY PREDICTED BY IDOCK:   -1.58 KCAL/MOL
REMARK 924 INTRA-LIGAND FREE ENERGY PREDICTED BY IDOCK:   -0.75 KCAL/MOL
REMARK 927      BINDING AFFINITY PREDICTED BY RF-SCORE:    0.00 PKD
ROOT
HETATM    1  O   UNL     1     -11.231  10.663  66.532  1.00  0.00    -0.076 OA 
HETATM    2  C   UNL     1     -11.758  11.876  66.732  1.00  0.00    -0.202 C  
HETATM    3  C   UNL     2     -11.561   8.535  71.953  1.00  0.00    -0.341 C  
HETATM    4  N   UNL     2     -11.543   7.815  70.681  1.00  0.00    -0.259 NA 
HETATM    5  O   UNL     1     -12.860  12.189  66.306  1.00  0.00     0.752 OA 
HETATM    6  C   UNL     1     -11.023  12.815  67.605  1.00  0.00    -0.274 C  
HETATM    7  C   UNL     1      -9.781  12.842  68.110  1.00  0.00    -0.227 C  
HETATM    8  O   UNL     1      -8.787  11.053  66.917  1.00  0.00    -0.143 OA 
HETATM    9  C   UNL     2     -12.898   7.366  70.346  1.00  0.00     0.517 C  
HETATM   10  O   UNL     1      -7.721  11.903  68.714  1.00  0.00    -0.127 OA 
HETATM   11  C   UNL     1      -8.728  11.864  67.828  1.00  0.00    -0.158 C  
ENDROOT
BRANCH   4  12
HETATM   12  C   UNL     2     -10.988   8.611  69.578  1.00  0.00    -0.055 C  
BRANCH  12  13
HETATM   13  C   UNL     2      -9.985   7.846  68.694  1.00  0.00    -0.201 C  
HETATM   14  C   UNL     2      -8.526   8.339  68.806  1.00  0.00    -0.125 C  
HETATM   15  C   UNL     2      -7.634   7.760  67.706  1.00  0.00    -0.113 A  
HETATM   16  C   UNL     2      -7.959   8.142  70.212  1.00  0.00    -0.103 A  
HETATM   17  C   UNL     2      -7.483   6.385  67.512  1.00  0.00    -0.092 A  
HETATM   18  C   UNL     2      -7.900   6.881  70.831  1.00  0.00    -0.097 A  
HETATM   19  C   UNL     2      -7.423   6.744  72.135  1.00  0.00    -0.093 A  
HETATM   20  C   UNL     2      -6.624   5.923  66.518  1.00  0.00    -0.055 A  
HETATM   21  C   UNL     2      -7.011   7.871  72.842  1.00  0.00    -0.084 A  
HETATM   22  C   UNL     2      -5.946   6.837  65.725  1.00  0.00    -0.034 A  
HETATM   23  C   UNL     2      -6.164   8.182  65.956  1.00  0.00    -0.045 A  
HETATM   24 CL   UNL     2      -6.454   7.705  74.461  1.00  0.00    -0.095 Cl 
HETATM   25  C   UNL     2      -7.060   9.129  72.250  1.00  0.00     0.347 A  
HETATM   26  N   UNL     2      -6.989   8.658  66.915  1.00  0.00    -0.076 NA 
HETATM   27  C   UNL     2      -7.526   9.263  70.940  1.00  0.00    -0.123 A  
ENDBRANCH  12  13
ENDBRANCH   4  12
TORSDOF 2
ENDMDL
MODEL      140
REMARK 921   NORMALIZED FREE ENERGY PREDICTED BY IDOCK:   -1.42 KCAL/MOL
REMARK 922        TOTAL FREE ENERGY PREDICTED BY IDOCK:   -2.27 KCAL/MOL
REMARK 923 INTER-LIGAND FREE ENERGY PREDICTED BY IDOCK:   -2.56 KCAL/MOL
REMARK 924 INTRA-LIGAND FREE ENERGY PREDICTED BY IDOCK:    0.29 KCAL/MOL
REMARK 927      BINDING AFFINITY PREDICTED BY RF-SCORE:    0.00 PKD
ROOT
HETATM    1  O   UNL     1      -9.144   7.960  71.838  1.00  0.00    -0.130 OA 
HETATM    2  C   UNL     1     -10.406   8.221  72.198  1.00  0.00    -0.300 C  
HETATM    3  C   UNL     2      -9.877   7.274  66.092  1.00  0.00     0.165 C  
HETATM    4  N   UNL     2      -8.682   7.687  66.824  1.00  0.00    -0.128 NA 
HETATM    5  O   UNL     1     -10.765   9.329  72.566  1.00  0.00     0.313 OA 
HETATM    6  C   UNL     1     -11.412   7.153  72.020  1.00  0.00    -0.310 C  
HETATM    7  C   UNL     1     -11.341   5.836  71.773  1.00  0.00    -0.240 C  
HETATM    8  O   UNL     1      -9.017   5.467  72.040  1.00  0.00    -0.134 OA 
HETATM    9  C   UNL     2      -8.499   9.137  66.700  1.00  0.00    -0.123 C  
HETATM   10  O   UNL     1     -10.280   3.868  71.073  1.00  0.00    -0.056 OA 
HETATM   11  C   UNL     1     -10.106   5.056  71.673  1.00  0.00    -0.196 C  
ENDROOT
BRANCH   4  12
HETATM   12  C   UNL     2      -8.715   7.303  68.241  1.00  0.00    -0.125 C  
BRANCH  12  13
HETATM   13  C   UNL     2      -7.701   6.207  68.620  1.00  0.00    -0.100 C  
HETATM   14  C   UNL     2      -8.180   4.765  68.343  1.00  0.00    -0.084 C  
HETATM   15  C   UNL     2      -7.279   3.719  69.000  1.00  0.00    -0.050 A  
HETATM   16  C   UNL     2      -8.413   4.513  66.853  1.00  0.00    -0.105 A  
HETATM   17  C   UNL     2      -5.909   3.644  68.743  1.00  0.00    -0.023 A  
HETATM   18  C   UNL     2      -7.401   4.684  65.892  1.00  0.00    -0.077 A  
HETATM   19  C   UNL     2      -7.662   4.495  64.534  1.00  0.00    -0.081 A  
HETATM   20  C   UNL     2      -5.151   2.642  69.344  1.00  0.00    -0.011 A  
HETATM   21  C   UNL     2      -8.943   4.144  64.119  1.00  0.00    -0.144 A  
HETATM   22  C   UNL     2      -5.768   1.745  70.203  1.00  0.00    -0.017 A  
HETATM   23  C   UNL     2      -7.123   1.895  70.433  1.00  0.00    -0.033 A  
HETATM   24 CL   UNL     2      -9.271   3.942  62.443  1.00  0.00    -0.097 Cl 
HETATM   25  C   UNL     2      -9.960   3.969  65.051  1.00  0.00    -0.207 A  
HETATM   26  N   UNL     2      -7.882   2.856  69.860  1.00  0.00    -0.043 NA 
HETATM   27  C   UNL     2      -9.696   4.148  66.411  1.00  0.00    -0.223 A  
ENDBRANCH  12  13
ENDBRANCH   4  12
TORSDOF 2
ENDMDL
MODEL      141
REMARK 921   NORMALIZED FREE ENERGY PREDICTED BY IDOCK:   -1.40 KCAL/MOL
REMARK 922        TOTAL FREE ENERGY PREDICTED BY IDOCK:   -2.25 KCAL/MOL
REMARK 923 INTER-LIGAND FREE ENERGY PREDICTED BY IDOCK:   -2.77 KCAL/MOL
REMARK 924 INTRA-LIGAND FREE ENERGY PREDICTED BY IDOCK:    0.52 KCAL/MOL
REMARK 927      BINDING AFFINITY PREDICTED BY RF-SCORE:    0.00 PKD
ROOT
HETATM    1  O   UNL     1      -8.164   5.959  73.365  1.00  0.00    -0.115 OA 
HETATM    2  C   UNL     1      -7.913   4.652  73.508  1.00  0.00    -0.099 C  
HETATM    3  C   UNL     2     -11.133   5.851  68.345  1.00  0.00    -0.068 C  
HETATM    4  N   UNL     2     -11.195   6.829  69.429  1.00  0.00    -0.257 NA 
HETATM    5  O   UNL     1      -8.457   3.972  74.365  1.00  0.00    -0.092 OA 
HETATM    6  C   UNL     1      -7.040   4.001  72.509  1.00  0.00    -0.056 C  
HETATM    7  C   UNL     1      -6.211   4.455  71.557  1.00  0.00    -0.018 C  
HETATM    8  O   UNL     1      -6.171   6.765  72.079  1.00  0.00    -0.038 OA 
HETATM    9  C   UNL     2     -12.402   6.607  70.232  1.00  0.00     0.176 C  
HETATM   10  O   UNL     1      -5.348   6.072  70.097  1.00  0.00    -0.012 OA 
HETATM   11  C   UNL     1      -5.900   5.863  71.302  1.00  0.00    -0.025 C  
ENDROOT
BRANCH   4  12
HETATM   12  C   UNL     2     -10.005   6.806  70.292  1.00  0.00    -0.178 C  
BRANCH  12  13
HETATM   13  C   UNL     2      -8.683   7.066  69.547  1.00  0.00    -0.134 C  
HETATM   14  C   UNL     2      -8.848   7.678  68.139  1.00  0.00    -0.125 C  
HETATM   15  C   UNL     2      -7.548   7.639  67.334  1.00  0.00    -0.109 A  
HETATM   16  C   UNL     2      -9.490   9.065  68.186  1.00  0.00    -0.155 A  
HETATM   17  C   UNL     2      -6.368   8.229  67.791  1.00  0.00    -0.053 A  
HETATM   18  C   UNL     2      -8.929  10.129  68.915  1.00  0.00    -0.155 A  
HETATM   19  C   UNL     2      -9.568  11.369  68.978  1.00  0.00    -0.004 A  
HETATM   20  C   UNL     2      -5.228   8.192  66.992  1.00  0.00    -0.032 A  
HETATM   21  C   UNL     2     -10.783  11.554  68.325  1.00  0.00    -0.211 A  
HETATM   22  C   UNL     2      -5.279   7.555  65.762  1.00  0.00    -0.025 A  
HETATM   23  C   UNL     2      -6.474   6.969  65.384  1.00  0.00    -0.047 A  
HETATM   24 CL   UNL     2     -11.585  13.072  68.431  1.00  0.00    -0.347 Cl 
HETATM   25  C   UNL     2     -11.356  10.516  67.599  1.00  0.00    -0.233 A  
HETATM   26  N   UNL     2      -7.596   6.992  66.139  1.00  0.00    -0.093 NA 
HETATM   27  C   UNL     2     -10.710   9.279  67.526  1.00  0.00    -0.272 A  
ENDBRANCH  12  13
ENDBRANCH   4  12
TORSDOF 2
ENDMDL
MODEL      142
REMARK 921   NORMALIZED FREE ENERGY PREDICTED BY IDOCK:   -1.36 KCAL/MOL
REMARK 922        TOTAL FREE ENERGY PREDICTED BY IDOCK:   -2.21 KCAL/MOL
REMARK 923 INTER-LIGAND FREE ENERGY PREDICTED BY IDOCK:   -6.90 KCAL/MOL
REMARK 924 INTRA-LIGAND FREE ENERGY PREDICTED BY IDOCK:    4.70 KCAL/MOL
REMARK 927      BINDING AFFINITY PREDICTED BY RF-SCORE:    0.00 PKD
ROOT
HETATM    1  O   UNL     1      -8.502  15.183  66.604  1.00  0.00    -0.257 OA 
HETATM    2  C   UNL     1      -9.331  15.920  67.352  1.00  0.00    -0.210 C  
HETATM    3  C   UNL     2      -8.586  10.208  69.649  1.00  0.00    -0.153 C  
HETATM    4  N   UNL     2      -8.315  10.412  68.228  1.00  0.00    -0.116 NA 
HETATM    5  O   UNL     1     -10.450  16.233  66.974  1.00  0.00    -0.306 OA 
HETATM    6  C   UNL     1      -8.909  16.255  68.728  1.00  0.00    -0.243 C  
HETATM    7  C   UNL     1      -7.744  16.184  69.391  1.00  0.00    -0.145 C  
HETATM    8  O   UNL     1      -6.263  15.672  67.615  1.00  0.00    -0.141 OA 
HETATM    9  C   UNL     2      -9.490  10.032  67.438  1.00  0.00    -0.152 C  
HETATM   10  O   UNL     1      -5.551  15.439  69.742  1.00  0.00    -0.107 OA 
HETATM   11  C   UNL     1      -6.464  15.769  68.815  1.00  0.00    -0.111 C  
ENDROOT
BRANCH   4  12
HETATM   12  C   UNL     2      -7.919  11.791  67.911  1.00  0.00    -0.141 C  
BRANCH  12  13
HETATM   13  C   UNL     2      -8.787  12.462  66.830  1.00  0.00    -0.205 C  
HETATM   14  C   UNL     2     -10.254  11.982  66.796  1.00  0.00    -0.225 C  
HETATM   15  C   UNL     2     -10.987  12.447  65.536  1.00  0.00    -0.293 A  
HETATM   16  C   UNL     2     -11.000  12.319  68.088  1.00  0.00    -0.269 A  
HETATM   17  C   UNL     2     -11.093  13.795  65.187  1.00  0.00    -0.330 A  
HETATM   18  C   UNL     2     -11.123  13.636  68.565  1.00  0.00    -0.301 A  
HETATM   19  C   UNL     2     -11.766  13.902  69.775  1.00  0.00    -0.372 A  
HETATM   20  C   UNL     2     -11.807  14.154  64.047  1.00  0.00    -0.301 A  
HETATM   21  C   UNL     2     -12.282  12.852  70.529  1.00  0.00    -0.314 A  
HETATM   22  C   UNL     2     -12.386  13.166  63.266  1.00  0.00    -0.366 A  
HETATM   23  C   UNL     2     -12.218  11.850  63.657  1.00  0.00    -0.479 A  
HETATM   24 CL   UNL     2     -13.046  13.180  72.035  1.00  0.00    -0.485 Cl 
HETATM   25  C   UNL     2     -12.171  11.542  70.077  1.00  0.00    -0.354 A  
HETATM   26  N   UNL     2     -11.532  11.473  64.760  1.00  0.00    -0.144 NA 
HETATM   27  C   UNL     2     -11.538  11.277  68.860  1.00  0.00    -0.386 A  
ENDBRANCH  12  13
ENDBRANCH   4  12
TORSDOF 2
ENDMDL
MODEL      143
REMARK 921   NORMALIZED FREE ENERGY PREDICTED BY IDOCK:   -1.29 KCAL/MOL
REMARK 922        TOTAL FREE ENERGY PREDICTED BY IDOCK:   -2.12 KCAL/MOL
REMARK 923 INTER-LIGAND FREE ENERGY PREDICTED BY IDOCK:   -2.33 KCAL/MOL
REMARK 924 INTRA-LIGAND FREE ENERGY PREDICTED BY IDOCK:    0.20 KCAL/MOL
REMARK 927      BINDING AFFINITY PREDICTED BY RF-SCORE:    0.00 PKD
ROOT
HETATM    1  O   UNL     1      -7.268  10.607  65.571  1.00  0.00    -0.132 OA 
HETATM    2  C   UNL     1      -6.482  10.589  64.488  1.00  0.00     0.035 C  
HETATM    3  C   UNL     2      -9.602   5.275  65.185  1.00  0.00     0.198 C  
HETATM    4  N   UNL     2      -9.400   6.107  66.369  1.00  0.00    -0.155 NA 
HETATM    5  O   UNL     1      -5.263  10.540  64.565  1.00  0.00    -0.125 OA 
HETATM    6  C   UNL     1      -7.130  10.501  63.163  1.00  0.00     0.006 C  
HETATM    7  C   UNL     1      -8.390  10.658  62.728  1.00  0.00    -0.188 C  
HETATM    8  O   UNL     1      -9.418  11.528  64.677  1.00  0.00    -0.197 OA 
HETATM    9  C   UNL     2      -8.240   5.623  67.124  1.00  0.00    -0.101 C  
HETATM   10  O   UNL     1     -10.714  10.797  62.982  1.00  0.00     0.075 OA 
HETATM   11  C   UNL     1      -9.530  11.059  63.555  1.00  0.00    -0.292 C  
ENDROOT
BRANCH   4  12
HETATM   12  C   UNL     2      -9.233   7.531  66.049  1.00  0.00    -0.049 C  
BRANCH  12  13
HETATM   13  C   UNL     2      -8.198   8.257  66.928  1.00  0.00    -0.103 C  
HETATM   14  C   UNL     2      -8.803   9.221  67.971  1.00  0.00    -0.128 C  
HETATM   15  C   UNL     2      -7.746  10.127  68.605  1.00  0.00    -0.092 A  
HETATM   16  C   UNL     2      -9.667   8.489  68.998  1.00  0.00    -0.170 A  
HETATM   17  C   UNL     2      -6.626   9.619  69.266  1.00  0.00    -0.048 A  
HETATM   18  C   UNL     2      -9.164   7.451  69.803  1.00  0.00    -0.140 A  
HETATM   19  C   UNL     2      -9.994   6.769  70.694  1.00  0.00    -0.201 A  
HETATM   20  C   UNL     2      -5.721  10.498  69.856  1.00  0.00    -0.053 A  
HETATM   21  C   UNL     2     -11.341   7.108  70.782  1.00  0.00    -0.289 A  
HETATM   22  C   UNL     2      -5.938  11.864  69.762  1.00  0.00    -0.132 A  
HETATM   23  C   UNL     2      -7.054  12.297  69.069  1.00  0.00    -0.051 A  
HETATM   24 CL   UNL     2     -12.369   6.245  71.858  1.00  0.00    -0.300 Cl 
HETATM   25  C   UNL     2     -11.861   8.131  69.996  1.00  0.00     0.422 A  
HETATM   26  N   UNL     2      -7.950  11.466  68.490  1.00  0.00    -0.137 NA 
HETATM   27  C   UNL     2     -11.027   8.821  69.112  1.00  0.00     0.019 A  
ENDBRANCH  12  13
ENDBRANCH   4  12
TORSDOF 2
ENDMDL
MODEL      144
REMARK 921   NORMALIZED FREE ENERGY PREDICTED BY IDOCK:   -1.14 KCAL/MOL
REMARK 922        TOTAL FREE ENERGY PREDICTED BY IDOCK:   -1.96 KCAL/MOL
REMARK 923 INTER-LIGAND FREE ENERGY PREDICTED BY IDOCK:   -1.35 KCAL/MOL
REMARK 924 INTRA-LIGAND FREE ENERGY PREDICTED BY IDOCK:   -0.61 KCAL/MOL
REMARK 927      BINDING AFFINITY PREDICTED BY RF-SCORE:    0.00 PKD
ROOT
HETATM    1  O   UNL     1     -10.882   7.998  67.278  1.00  0.00    -0.261 OA 
HETATM    2  C   UNL     1     -11.294   6.798  67.702  1.00  0.00     0.042 C  
HETATM    3  C   UNL     2      -5.135   7.412  68.083  1.00  0.00    -0.024 C  
HETATM    4  N   UNL     2      -5.849   8.272  67.142  1.00  0.00    -0.042 NA 
HETATM    5  O   UNL     1     -11.728   5.948  66.939  1.00  0.00     0.663 OA 
HETATM    6  C   UNL     1     -11.095   6.461  69.127  1.00  0.00    -0.428 C  
HETATM    7  C   UNL     1     -10.780   7.174  70.219  1.00  0.00    -0.258 C  
HETATM    8  O   UNL     1     -10.955   9.377  69.368  1.00  0.00    -0.222 OA 
HETATM    9  C   UNL     2      -5.792   7.692  65.797  1.00  0.00    -0.037 C  
HETATM   10  O   UNL     1      -9.950   9.045  71.359  1.00  0.00    -0.276 OA 
HETATM   11  C   UNL     1     -10.602   8.627  70.264  1.00  0.00    -0.223 C  
ENDROOT
BRANCH   4  12
HETATM   12  C   UNL     2      -7.246   8.512  67.529  1.00  0.00    -0.084 C  
BRANCH  12  13
HETATM   13  C   UNL     2      -8.023   9.414  66.552  1.00  0.00    -0.108 C  
HETATM   14  C   UNL     2      -8.836  10.540  67.226  1.00  0.00    -0.138 C  
HETATM   15  C   UNL     2      -9.811  11.210  66.257  1.00  0.00    -0.214 A  
HETATM   16  C   UNL     2      -7.940  11.533  67.966  1.00  0.00    -0.130 A  
HETATM   17  C   UNL     2      -9.392  11.803  65.064  1.00  0.00     0.001 A  
HETATM   18  C   UNL     2      -6.913  12.247  67.321  1.00  0.00    -0.142 A  
HETATM   19  C   UNL     2      -6.080  13.107  68.037  1.00  0.00    -0.118 A  
HETATM   20  C   UNL     2     -10.326  12.431  64.245  1.00  0.00    -0.388 A  
HETATM   21  C   UNL     2      -6.255  13.255  69.410  1.00  0.00    -0.110 A  
HETATM   22  C   UNL     2     -11.661  12.442  64.618  1.00  0.00    -0.426 A  
HETATM   23  C   UNL     2     -12.009  11.813  65.799  1.00  0.00     0.276 A  
HETATM   24 CL   UNL     2      -5.207  14.292  70.296  1.00  0.00    -0.095 Cl 
HETATM   25  C   UNL     2      -7.263  12.560  70.069  1.00  0.00     1.157 A  
HETATM   26  N   UNL     2     -11.123  11.198  66.614  1.00  0.00    -0.241 NA 
HETATM   27  C   UNL     2      -8.105  11.707  69.350  1.00  0.00     0.479 A  
ENDBRANCH  12  13
ENDBRANCH   4  12
TORSDOF 2
ENDMDL
MODEL      145
REMARK 921   NORMALIZED FREE ENERGY PREDICTED BY IDOCK:   -1.01 KCAL/MOL
REMARK 922        TOTAL FREE ENERGY PREDICTED BY IDOCK:   -1.81 KCAL/MOL
REMARK 923 INTER-LIGAND FREE ENERGY PREDICTED BY IDOCK:   -6.42 KCAL/MOL
REMARK 924 INTRA-LIGAND FREE ENERGY PREDICTED BY IDOCK:    4.61 KCAL/MOL
REMARK 927      BINDING AFFINITY PREDICTED BY RF-SCORE:    0.00 PKD
ROOT
HETATM    1  O   UNL     1     -10.295   6.871  73.039  1.00  0.00    -0.205 OA 
HETATM    2  C   UNL     1     -11.047   5.959  72.412  1.00  0.00    -0.280 C  
HETATM    3  C   UNL     2      -6.701   8.352  68.690  1.00  0.00    -0.059 C  
HETATM    4  N   UNL     2      -7.110   9.136  69.852  1.00  0.00    -0.051 NA 
HETATM    5  O   UNL     1     -12.215   6.165  72.117  1.00  0.00    -0.319 OA 
HETATM    6  C   UNL     1     -10.391   4.715  71.957  1.00  0.00    -0.234 C  
HETATM    7  C   UNL     1      -9.209   4.135  72.214  1.00  0.00    -0.160 C  
HETATM    8  O   UNL     1      -8.439   5.490  73.998  1.00  0.00    -0.115 OA 
HETATM    9  C   UNL     2      -8.116  10.127  69.455  1.00  0.00    -0.160 C  
HETATM   10  O   UNL     1      -6.994   4.093  72.975  1.00  0.00    -0.057 OA 
HETATM   11  C   UNL     1      -8.209   4.630  73.162  1.00  0.00    -0.100 C  
ENDROOT
BRANCH   4  12
HETATM   12  C   UNL     2      -7.626   8.309  70.952  1.00  0.00    -0.076 C  
BRANCH  12  13
HETATM   13  C   UNL     2      -9.038   8.701  71.425  1.00  0.00    -0.295 C  
HETATM   14  C   UNL     2      -9.963   9.236  70.311  1.00  0.00    -0.262 C  
HETATM   15  C   UNL     2     -11.231   9.882  70.873  1.00  0.00    -0.360 A  
HETATM   16  C   UNL     2     -10.244   8.182  69.241  1.00  0.00    -0.216 A  
HETATM   17  C   UNL     2     -12.116   9.194  71.705  1.00  0.00    -0.446 A  
HETATM   18  C   UNL     2     -10.825   6.937  69.543  1.00  0.00    -0.287 A  
HETATM   19  C   UNL     2     -11.020   5.977  68.549  1.00  0.00    -0.350 A  
HETATM   20  C   UNL     2     -13.273   9.827  72.150  1.00  0.00    -0.530 A  
HETATM   21  C   UNL     2     -10.625   6.246  67.242  1.00  0.00    -0.302 A  
HETATM   22  C   UNL     2     -13.519  11.139  71.774  1.00  0.00    -0.235 A  
HETATM   23  C   UNL     2     -12.587  11.767  70.969  1.00  0.00    -0.310 A  
HETATM   24 CL   UNL     2     -10.837   5.050  66.024  1.00  0.00    -0.271 Cl 
HETATM   25  C   UNL     2     -10.049   7.470  66.919  1.00  0.00    -0.336 A  
HETATM   26  N   UNL     2     -11.457  11.176  70.520  1.00  0.00    -0.193 NA 
HETATM   27  C   UNL     2      -9.864   8.435  67.912  1.00  0.00    -0.208 A  
ENDBRANCH  12  13
ENDBRANCH   4  12
TORSDOF 2
ENDMDL
MODEL      146
REMARK 921   NORMALIZED FREE ENERGY PREDICTED BY IDOCK:   -0.96 KCAL/MOL
REMARK 922        TOTAL FREE ENERGY PREDICTED BY IDOCK:   -1.76 KCAL/MOL
REMARK 923 INTER-LIGAND FREE ENERGY PREDICTED BY IDOCK:   -2.83 KCAL/MOL
REMARK 924 INTRA-LIGAND FREE ENERGY PREDICTED BY IDOCK:    1.07 KCAL/MOL
REMARK 927      BINDING AFFINITY PREDICTED BY RF-SCORE:    0.00 PKD
ROOT
HETATM    1  O   UNL     1      -6.300   5.619  67.796  1.00  0.00    -0.038 OA 
HETATM    2  C   UNL     1      -6.510   4.601  68.639  1.00  0.00    -0.037 C  
HETATM    3  C   UNL     2      -9.474   9.748  70.422  1.00  0.00    -0.143 C  
HETATM    4  N   UNL     2      -8.317   9.898  69.541  1.00  0.00    -0.153 NA 
HETATM    5  O   UNL     1      -5.636   4.171  69.376  1.00  0.00    -0.015 OA 
HETATM    6  C   UNL     1      -7.885   4.073  68.757  1.00  0.00    -0.067 C  
HETATM    7  C   UNL     1      -9.007   4.219  68.035  1.00  0.00    -0.148 C  
HETATM    8  O   UNL     1      -8.158   5.355  66.138  1.00  0.00    -0.104 OA 
HETATM    9  C   UNL     2      -7.125  10.209  70.336  1.00  0.00    -0.088 C  
HETATM   10  O   UNL     1     -10.388   5.270  66.462  1.00  0.00    -0.230 OA 
HETATM   11  C   UNL     1      -9.120   4.976  66.786  1.00  0.00    -0.118 C  
ENDROOT
BRANCH   4  12
HETATM   12  C   UNL     2      -8.073   8.713  68.708  1.00  0.00    -0.116 C  
BRANCH  12  13
HETATM   13  C   UNL     2      -7.511   9.033  67.310  1.00  0.00    -0.084 C  
HETATM   14  C   UNL     2      -8.128  10.279  66.639  1.00  0.00    -0.119 C  
HETATM   15  C   UNL     2      -7.762  10.381  65.157  1.00  0.00    -0.110 A  
HETATM   16  C   UNL     2      -7.836  11.559  67.423  1.00  0.00    -0.143 A  
HETATM   17  C   UNL     2      -6.438  10.414  64.715  1.00  0.00    -0.059 A  
HETATM   18  C   UNL     2      -6.526  11.986  67.708  1.00  0.00    -0.087 A  
HETATM   19  C   UNL     2      -6.296  13.131  68.471  1.00  0.00    -0.082 A  
HETATM   20  C   UNL     2      -6.172  10.547  63.354  1.00  0.00    -0.045 A  
HETATM   21  C   UNL     2      -7.373  13.857  68.970  1.00  0.00    -0.055 A  
HETATM   22  C   UNL     2      -7.228  10.626  62.459  1.00  0.00    -0.108 A  
HETATM   23  C   UNL     2      -8.513  10.560  62.965  1.00  0.00    -0.177 A  
HETATM   24 CL   UNL     2      -7.088  15.251  69.936  1.00  0.00    -0.150 Cl 
HETATM   25  C   UNL     2      -8.677  13.454  68.702  1.00  0.00     0.015 A  
HETATM   26  N   UNL     2      -8.799  10.433  64.280  1.00  0.00    -0.196 NA 
HETATM   27  C   UNL     2      -8.907  12.313  67.928  1.00  0.00    -0.178 A  
ENDBRANCH  12  13
ENDBRANCH   4  12
TORSDOF 2
ENDMDL
MODEL      147
REMARK 921   NORMALIZED FREE ENERGY PREDICTED BY IDOCK:   -0.92 KCAL/MOL
REMARK 922        TOTAL FREE ENERGY PREDICTED BY IDOCK:   -1.71 KCAL/MOL
REMARK 923 INTER-LIGAND FREE ENERGY PREDICTED BY IDOCK:   -6.40 KCAL/MOL
REMARK 924 INTRA-LIGAND FREE ENERGY PREDICTED BY IDOCK:    4.70 KCAL/MOL
REMARK 927      BINDING AFFINITY PREDICTED BY RF-SCORE:    0.00 PKD
ROOT
HETATM    1  O   UNL     1      -7.626  13.537  67.497  1.00  0.00    -0.158 OA 
HETATM    2  C   UNL     1      -7.658  14.734  68.093  1.00  0.00    -0.119 C  
HETATM    3  C   UNL     2     -11.511  10.687  70.784  1.00  0.00    -0.214 C  
HETATM    4  N   UNL     2     -11.120  10.439  69.399  1.00  0.00    -0.239 NA 
HETATM    5  O   UNL     1      -8.155  15.716  67.563  1.00  0.00    -0.141 OA 
HETATM    6  C   UNL     1      -7.184  14.825  69.490  1.00  0.00    -0.160 C  
HETATM    7  C   UNL     1      -6.488  14.007  70.294  1.00  0.00    -0.033 C  
HETATM    8  O   UNL     1      -5.811  12.347  68.747  1.00  0.00    -0.060 OA 
HETATM    9  C   UNL     2     -12.154  10.948  68.492  1.00  0.00     0.076 C  
HETATM   10  O   UNL     1      -5.597  11.944  70.956  1.00  0.00    -0.308 OA 
HETATM   11  C   UNL     1      -5.921  12.714  69.906  1.00  0.00    -0.141 C  
ENDROOT
BRANCH   4  12
HETATM   12  C   UNL     2      -9.817  11.023  69.055  1.00  0.00    -0.149 C  
BRANCH  12  13
HETATM   13  C   UNL     2      -9.872  12.060  67.918  1.00  0.00    -0.196 C  
HETATM   14  C   UNL     2     -11.178  12.881  67.861  1.00  0.00    -0.306 C  
HETATM   15  C   UNL     2     -11.308  13.673  66.559  1.00  0.00    -0.319 A  
HETATM   16  C   UNL     2     -11.374  13.738  69.112  1.00  0.00    -0.329 A  
HETATM   17  C   UNL     2     -10.344  14.595  66.145  1.00  0.00    -0.309 A  
HETATM   18  C   UNL     2     -10.432  14.697  69.523  1.00  0.00    -0.124 A  
HETATM   19  C   UNL     2     -10.618  15.426  70.699  1.00  0.00    -0.165 A  
HETATM   20  C   UNL     2     -10.542  15.312  64.967  1.00  0.00    -0.444 A  
HETATM   21  C   UNL     2     -11.743  15.195  71.485  1.00  0.00    -0.390 A  
HETATM   22  C   UNL     2     -11.685  15.086  64.216  1.00  0.00    -0.245 A  
HETATM   23  C   UNL     2     -12.584  14.140  64.672  1.00  0.00    -0.258 A  
HETATM   24 CL   UNL     2     -11.954  16.071  72.950  1.00  0.00    -0.596 Cl 
HETATM   25  C   UNL     2     -12.688  14.251  71.098  1.00  0.00    -0.430 A  
HETATM   26  N   UNL     2     -12.418  13.431  65.812  1.00  0.00    -0.453 NA 
HETATM   27  C   UNL     2     -12.507  13.530  69.915  1.00  0.00    -0.194 A  
ENDBRANCH  12  13
ENDBRANCH   4  12
TORSDOF 2
ENDMDL
MODEL      148
REMARK 921   NORMALIZED FREE ENERGY PREDICTED BY IDOCK:   -0.69 KCAL/MOL
REMARK 922        TOTAL FREE ENERGY PREDICTED BY IDOCK:   -1.46 KCAL/MOL
REMARK 923 INTER-LIGAND FREE ENERGY PREDICTED BY IDOCK:   -6.10 KCAL/MOL
REMARK 924 INTRA-LIGAND FREE ENERGY PREDICTED BY IDOCK:    4.64 KCAL/MOL
REMARK 927      BINDING AFFINITY PREDICTED BY RF-SCORE:    0.00 PKD
ROOT
HETATM    1  O   UNL     1     -10.478  13.725  66.683  1.00  0.00    -0.268 OA 
HETATM    2  C   UNL     1     -11.571  13.035  67.030  1.00  0.00    -0.360 C  
HETATM    3  C   UNL     2      -6.498  10.978  69.944  1.00  0.00    -0.144 C  
HETATM    4  N   UNL     2      -6.316  11.708  68.692  1.00  0.00    -0.053 NA 
HETATM    5  O   UNL     1     -12.129  12.266  66.263  1.00  0.00    -0.626 OA 
HETATM    6  C   UNL     1     -12.031  13.126  68.431  1.00  0.00    -0.324 C  
HETATM    7  C   UNL     1     -11.740  13.939  69.458  1.00  0.00    -0.369 C  
HETATM    8  O   UNL     1     -10.448  15.589  68.355  1.00  0.00    -0.232 OA 
HETATM    9  C   UNL     2      -6.165  10.761  67.582  1.00  0.00    -0.052 C  
HETATM   10  O   UNL     1     -10.443  15.514  70.609  1.00  0.00    -0.265 OA 
HETATM   11  C   UNL     1     -10.843  15.095  69.399  1.00  0.00    -0.262 C  
ENDROOT
BRANCH   4  12
HETATM   12  C   UNL     2      -7.411  12.645  68.409  1.00  0.00    -0.118 C  
BRANCH  12  13
HETATM   13  C   UNL     2      -8.130  12.387  67.071  1.00  0.00    -0.124 C  
HETATM   14  C   UNL     2      -8.226  10.899  66.671  1.00  0.00    -0.145 C  
HETATM   15  C   UNL     2      -8.674  10.718  65.219  1.00  0.00    -0.173 A  
HETATM   16  C   UNL     2      -9.058  10.089  67.666  1.00  0.00    -0.142 A  
HETATM   17  C   UNL     2      -9.871  11.247  64.734  1.00  0.00    -0.312 A  
HETATM   18  C   UNL     2     -10.394  10.408  67.967  1.00  0.00    -0.212 A  
HETATM   19  C   UNL     2     -11.108   9.678  68.919  1.00  0.00    -0.097 A  
HETATM   20  C   UNL     2     -10.239  11.012  63.411  1.00  0.00    -0.404 A  
HETATM   21  C   UNL     2     -10.489   8.627  69.590  1.00  0.00    -0.220 A  
HETATM   22  C   UNL     2      -9.400  10.271  62.593  1.00  0.00    -0.335 A  
HETATM   23  C   UNL     2      -8.218   9.800  63.133  1.00  0.00    -0.153 A  
HETATM   24 CL   UNL     2     -11.361   7.749  70.786  1.00  0.00    -0.287 Cl 
HETATM   25  C   UNL     2      -9.169   8.293  69.309  1.00  0.00    -0.151 A  
HETATM   26  N   UNL     2      -7.838  10.010  64.413  1.00  0.00    -0.142 NA 
HETATM   27  C   UNL     2      -8.458   9.017  68.348  1.00  0.00    -0.129 A  
ENDBRANCH  12  13
ENDBRANCH   4  12
TORSDOF 2
ENDMDL
MODEL      149
REMARK 921   NORMALIZED FREE ENERGY PREDICTED BY IDOCK:   -0.60 KCAL/MOL
REMARK 922        TOTAL FREE ENERGY PREDICTED BY IDOCK:   -1.36 KCAL/MOL
REMARK 923 INTER-LIGAND FREE ENERGY PREDICTED BY IDOCK:   -6.15 KCAL/MOL
REMARK 924 INTRA-LIGAND FREE ENERGY PREDICTED BY IDOCK:    4.79 KCAL/MOL
REMARK 927      BINDING AFFINITY PREDICTED BY RF-SCORE:    0.00 PKD
ROOT
HETATM    1  O   UNL     1     -10.959   8.756  72.311  1.00  0.00    -0.359 OA 
HETATM    2  C   UNL     1     -11.954   8.128  71.673  1.00  0.00    -0.300 C  
HETATM    3  C   UNL     2      -6.435   6.957  69.099  1.00  0.00    -0.043 C  
HETATM    4  N   UNL     2      -6.571   8.174  69.897  1.00  0.00    -0.039 NA 
HETATM    5  O   UNL     1     -12.776   8.725  70.994  1.00  0.00    -0.193 OA 
HETATM    6  C   UNL     1     -11.971   6.651  71.702  1.00  0.00    -0.395 C  
HETATM    7  C   UNL     1     -11.324   5.724  72.425  1.00  0.00    -0.348 C  
HETATM    8  O   UNL     1     -10.284   7.091  74.055  1.00  0.00    -0.349 OA 
HETATM    9  C   UNL     2      -6.833   9.317  69.017  1.00  0.00    -0.055 C  
HETATM   10  O   UNL     1      -9.620   4.947  73.832  1.00  0.00    -0.127 OA 
HETATM   11  C   UNL     1     -10.393   5.999  73.520  1.00  0.00    -0.244 C  
ENDROOT
BRANCH   4  12
HETATM   12  C   UNL     2      -7.620   8.075  70.921  1.00  0.00    -0.078 C  
BRANCH  12  13
HETATM   13  C   UNL     2      -8.758   9.099  70.755  1.00  0.00    -0.285 C  
HETATM   14  C   UNL     2      -9.050   9.504  69.294  1.00  0.00    -0.161 C  
HETATM   15  C   UNL     2      -9.968  10.725  69.204  1.00  0.00    -0.187 A  
HETATM   16  C   UNL     2      -9.533   8.321  68.455  1.00  0.00    -0.149 A  
HETATM   17  C   UNL     2     -11.234  10.754  69.792  1.00  0.00    -0.365 A  
HETATM   18  C   UNL     2     -10.674   7.572  68.795  1.00  0.00    -0.122 A  
HETATM   19  C   UNL     2     -11.057   6.466  68.035  1.00  0.00    -0.365 A  
HETATM   20  C   UNL     2     -12.036  11.882  69.640  1.00  0.00    -0.365 A  
HETATM   21  C   UNL     2     -10.296   6.087  66.933  1.00  0.00    -0.244 A  
HETATM   22  C   UNL     2     -11.556  12.966  68.920  1.00  0.00    -0.360 A  
HETATM   23  C   UNL     2     -10.284  12.878  68.387  1.00  0.00    -0.237 A  
HETATM   24 CL   UNL     2     -10.752   4.705  66.016  1.00  0.00    -0.267 Cl 
HETATM   25  C   UNL     2      -9.164   6.813  66.578  1.00  0.00    -0.190 A  
HETATM   26  N   UNL     2      -9.485  11.795  68.518  1.00  0.00    -0.190 NA 
HETATM   27  C   UNL     2      -8.787   7.927  67.332  1.00  0.00    -0.129 A  
ENDBRANCH  12  13
ENDBRANCH   4  12
TORSDOF 2
ENDMDL
MODEL      150
REMARK 921   NORMALIZED FREE ENERGY PREDICTED BY IDOCK:   -0.35 KCAL/MOL
REMARK 922        TOTAL FREE ENERGY PREDICTED BY IDOCK:   -1.08 KCAL/MOL
REMARK 923 INTER-LIGAND FREE ENERGY PREDICTED BY IDOCK:   -6.37 KCAL/MOL
REMARK 924 INTRA-LIGAND FREE ENERGY PREDICTED BY IDOCK:    5.29 KCAL/MOL
REMARK 927      BINDING AFFINITY PREDICTED BY RF-SCORE:    0.00 PKD
ROOT
HETATM    1  O   UNL     1     -11.597  12.956  66.942  1.00  0.00    -0.329 OA 
HETATM    2  C   UNL     1     -12.083  13.748  65.979  1.00  0.00    -0.436 C  
HETATM    3  C   UNL     2      -6.326  15.357  67.631  1.00  0.00    -0.151 C  
HETATM    4  N   UNL     2      -7.124  14.600  68.592  1.00  0.00    -0.108 NA 
HETATM    5  O   UNL     1     -12.974  14.558  66.186  1.00  0.00    -0.039 OA 
HETATM    6  C   UNL     1     -11.422  13.715  64.657  1.00  0.00    -0.383 C  
HETATM    7  C   UNL     1     -10.539  12.889  64.075  1.00  0.00    -0.418 C  
HETATM    8  O   UNL     1     -10.503  11.115  65.644  1.00  0.00    -0.254 OA 
HETATM    9  C   UNL     2      -7.746  15.517  69.553  1.00  0.00    -0.197 C  
HETATM   10  O   UNL     1      -8.903  11.214  64.057  1.00  0.00    -0.049 OA 
HETATM   11  C   UNL     1     -10.015  11.655  64.663  1.00  0.00    -0.253 C  
ENDROOT
BRANCH   4  12
HETATM   12  C   UNL     2      -8.151  13.765  67.955  1.00  0.00    -0.166 C  
BRANCH  12  13
HETATM   13  C   UNL     2      -9.516  13.793  68.667  1.00  0.00    -0.099 C  
HETATM   14  C   UNL     2      -9.832  15.117  69.397  1.00  0.00    -0.216 C  
HETATM   15  C   UNL     2     -11.043  14.993  70.323  1.00  0.00    -0.229 A  
HETATM   16  C   UNL     2      -9.929  16.298  68.430  1.00  0.00    -0.234 A  
HETATM   17  C   UNL     2     -12.297  14.585  69.865  1.00  0.00    -0.347 A  
HETATM   18  C   UNL     2     -10.837  16.320  67.356  1.00  0.00    -0.242 A  
HETATM   19  C   UNL     2     -10.863  17.391  66.462  1.00  0.00     0.050 A  
HETATM   20  C   UNL     2     -13.368  14.531  70.753  1.00  0.00    -0.240 A  
HETATM   21  C   UNL     2      -9.972  18.448  66.623  1.00  0.00    -0.368 A  
HETATM   22  C   UNL     2     -13.167  14.866  72.083  1.00  0.00    -0.455 A  
HETATM   23  C   UNL     2     -11.893  15.235  72.473  1.00  0.00    -0.431 A  
HETATM   24 CL   UNL     2      -9.985  19.752  65.502  1.00  0.00    -0.156 Cl 
HETATM   25  C   UNL     2      -9.065  18.448  67.678  1.00  0.00    -0.282 A  
HETATM   26  N   UNL     2     -10.837  15.299  71.632  1.00  0.00    -0.060 NA 
HETATM   27  C   UNL     2      -9.047  17.380  68.579  1.00  0.00    -0.273 A  
ENDBRANCH  12  13
ENDBRANCH   4  12
TORSDOF 2
ENDMDL
MODEL      151
REMARK 921   NORMALIZED FREE ENERGY PREDICTED BY IDOCK:   -0.06 KCAL/MOL
REMARK 922        TOTAL FREE ENERGY PREDICTED BY IDOCK:   -0.75 KCAL/MOL
REMARK 923 INTER-LIGAND FREE ENERGY PREDICTED BY IDOCK:   -0.13 KCAL/MOL
REMARK 924 INTRA-LIGAND FREE ENERGY PREDICTED BY IDOCK:   -0.62 KCAL/MOL
REMARK 927      BINDING AFFINITY PREDICTED BY RF-SCORE:    0.00 PKD
ROOT
HETATM    1  O   UNL     1      -7.951   8.379  64.890  1.00  0.00    -0.120 OA 
HETATM    2  C   UNL     1      -8.093   9.234  63.871  1.00  0.00    -0.151 C  
HETATM    3  C   UNL     2     -10.845  11.288  69.035  1.00  0.00    -0.222 C  
HETATM    4  N   UNL     2     -10.613   9.851  68.912  1.00  0.00    -0.211 NA 
HETATM    5  O   UNL     1      -8.809   8.994  62.910  1.00  0.00    -0.187 OA 
HETATM    6  C   UNL     1      -7.453  10.561  63.988  1.00  0.00     0.099 C  
HETATM    7  C   UNL     1      -6.532  11.084  64.811  1.00  0.00     0.593 C  
HETATM    8  O   UNL     1      -5.816   9.139  65.956  1.00  0.00    -0.049 OA 
HETATM    9  C   UNL     2     -11.829   9.191  68.426  1.00  0.00     1.913 C  
HETATM   10  O   UNL     1      -5.241  11.164  66.764  1.00  0.00    -0.064 OA 
HETATM   11  C   UNL     1      -5.824  10.356  65.866  1.00  0.00    -0.099 C  
ENDROOT
BRANCH   4  12
HETATM   12  C   UNL     2      -9.479   9.525  68.037  1.00  0.00    -0.132 C  
BRANCH  12  13
HETATM   13  C   UNL     2      -8.339   8.766  68.741  1.00  0.00    -0.124 C  
HETATM   14  C   UNL     2      -8.723   7.360  69.251  1.00  0.00    -0.137 C  
HETATM   15  C   UNL     2      -7.666   6.775  70.190  1.00  0.00    -0.101 A  
HETATM   16  C   UNL     2      -9.103   6.418  68.108  1.00  0.00    -0.113 A  
HETATM   17  C   UNL     2      -6.333   6.613  69.808  1.00  0.00    -0.042 A  
HETATM   18  C   UNL     2      -8.226   6.126  67.048  1.00  0.00    -0.106 A  
HETATM   19  C   UNL     2      -8.625   5.302  65.994  1.00  0.00    -0.124 A  
HETATM   20  C   UNL     2      -5.429   6.038  70.697  1.00  0.00    -0.013 A  
HETATM   21  C   UNL     2      -9.911   4.770  65.982  1.00  0.00    -0.237 A  
HETATM   22  C   UNL     2      -5.864   5.653  71.956  1.00  0.00    -0.029 A  
HETATM   23  C   UNL     2      -7.192   5.868  72.277  1.00  0.00    -0.089 A  
HETATM   24 CL   UNL     2     -10.411   3.781  64.666  1.00  0.00    -0.187 Cl 
HETATM   25  C   UNL     2     -10.796   5.045  67.019  1.00  0.00     0.169 A  
HETATM   26  N   UNL     2      -8.091   6.421  71.432  1.00  0.00    -0.112 NA 
HETATM   27  C   UNL     2     -10.392   5.861  68.079  1.00  0.00    -0.257 A  
ENDBRANCH  12  13
ENDBRANCH   4  12
TORSDOF 2
ENDMDL
MODEL      152
REMARK 921   NORMALIZED FREE ENERGY PREDICTED BY IDOCK:   -0.03 KCAL/MOL
REMARK 922        TOTAL FREE ENERGY PREDICTED BY IDOCK:   -0.72 KCAL/MOL
REMARK 923 INTER-LIGAND FREE ENERGY PREDICTED BY IDOCK:   -0.61 KCAL/MOL
REMARK 924 INTRA-LIGAND FREE ENERGY PREDICTED BY IDOCK:   -0.11 KCAL/MOL
REMARK 927      BINDING AFFINITY PREDICTED BY RF-SCORE:    0.00 PKD
ROOT
HETATM    1  O   UNL     1      -7.016   5.991  69.073  1.00  0.00    -0.063 OA 
HETATM    2  C   UNL     1      -6.846   4.726  69.476  1.00  0.00    -0.049 C  
HETATM    3  C   UNL     2     -11.639   7.452  72.315  1.00  0.00    -0.292 C  
HETATM    4  N   UNL     2     -10.599   8.313  71.756  1.00  0.00    -0.240 NA 
HETATM    5  O   UNL     1      -5.902   4.383  70.172  1.00  0.00    -0.015 OA 
HETATM    6  C   UNL     1      -7.912   3.752  69.164  1.00  0.00    -0.059 C  
HETATM    7  C   UNL     1      -8.974   3.761  68.345  1.00  0.00    -0.170 C  
HETATM    8  O   UNL     1      -8.562   5.744  67.118  1.00  0.00    -0.111 OA 
HETATM    9  C   UNL     2      -9.651   8.694  72.808  1.00  0.00    -0.053 C  
HETATM   10  O   UNL     1     -10.595   4.776  66.992  1.00  0.00    -0.126 OA 
HETATM   11  C   UNL     1      -9.325   4.841  67.421  1.00  0.00    -0.137 C  
ENDROOT
BRANCH   4  12
HETATM   12  C   UNL     2      -9.883   7.693  70.633  1.00  0.00    -0.182 C  
BRANCH  12  13
HETATM   13  C   UNL     2      -9.430   8.689  69.549  1.00  0.00    -0.162 C  
HETATM   14  C   UNL     2     -10.583   9.366  68.777  1.00  0.00    -0.234 C  
HETATM   15  C   UNL     2     -10.091  10.107  67.532  1.00  0.00    -0.201 A  
HETATM   16  C   UNL     2     -11.456  10.230  69.689  1.00  0.00    -0.297 A  
HETATM   17  C   UNL     2      -9.126  11.114  67.594  1.00  0.00    -0.147 A  
HETATM   18  C   UNL     2     -10.934  11.293  70.446  1.00  0.00     0.478 A  
HETATM   19  C   UNL     2     -11.749  12.028  71.308  1.00  0.00     1.175 A  
HETATM   20  C   UNL     2      -8.750  11.776  66.428  1.00  0.00    -0.147 A  
HETATM   21  C   UNL     2     -13.096  11.700  71.432  1.00  0.00    -0.243 A  
HETATM   22  C   UNL     2      -9.328  11.412  65.221  1.00  0.00    -0.192 A  
HETATM   23  C   UNL     2     -10.257  10.388  65.231  1.00  0.00    -0.262 A  
HETATM   24 CL   UNL     2     -14.093  12.586  72.518  1.00  0.00    -0.045 Cl 
HETATM   25  C   UNL     2     -13.635  10.652  70.693  1.00  0.00     0.512 A  
HETATM   26  N   UNL     2     -10.643   9.730  66.348  1.00  0.00    -0.110 NA 
HETATM   27  C   UNL     2     -12.821   9.924  69.822  1.00  0.00     0.757 A  
ENDBRANCH  12  13
ENDBRANCH   4  12
TORSDOF 2
ENDMDL
MODEL      153
REMARK 921   NORMALIZED FREE ENERGY PREDICTED BY IDOCK:    0.02 KCAL/MOL
REMARK 922        TOTAL FREE ENERGY PREDICTED BY IDOCK:   -0.66 KCAL/MOL
REMARK 923 INTER-LIGAND FREE ENERGY PREDICTED BY IDOCK:   -2.39 KCAL/MOL
REMARK 924 INTRA-LIGAND FREE ENERGY PREDICTED BY IDOCK:    1.73 KCAL/MOL
REMARK 927      BINDING AFFINITY PREDICTED BY RF-SCORE:    0.00 PKD
ROOT
HETATM    1  O   UNL     1      -9.998   9.944  69.710  1.00  0.00    -0.217 OA 
HETATM    2  C   UNL     1      -9.612   9.360  70.851  1.00  0.00    -0.231 C  
HETATM    3  C   UNL     2     -10.654  15.430  71.581  1.00  0.00     0.619 C  
HETATM    4  N   UNL     2     -10.354  14.947  70.235  1.00  0.00     0.043 NA 
HETATM    5  O   UNL     1      -8.471   8.960  71.027  1.00  0.00    -0.166 OA 
HETATM    6  C   UNL     1     -10.579   9.318  71.968  1.00  0.00    -0.014 C  
HETATM    7  C   UNL     1     -11.898   9.539  72.070  1.00  0.00    -0.226 C  
HETATM    8  O   UNL     1     -12.490   9.704  69.783  1.00  0.00     0.412 OA 
HETATM    9  C   UNL     2      -8.930  15.141  69.943  1.00  0.00     0.187 C  
HETATM   10  O   UNL     1     -13.965  10.374  71.352  1.00  0.00     0.173 OA 
HETATM   11  C   UNL     1     -12.796   9.849  70.956  1.00  0.00    -0.331 C  
ENDROOT
BRANCH   4  12
HETATM   12  C   UNL     2     -10.722  13.539  70.035  1.00  0.00     0.799 C  
BRANCH  12  13
HETATM   13  C   UNL     2     -11.306  13.233  68.643  1.00  0.00    -0.324 C  
HETATM   14  C   UNL     2     -10.299  13.371  67.480  1.00  0.00    -0.226 C  
HETATM   15  C   UNL     2     -10.985  13.350  66.113  1.00  0.00    -0.276 A  
HETATM   16  C   UNL     2      -9.148  12.369  67.594  1.00  0.00    -0.186 A  
HETATM   17  C   UNL     2     -11.794  12.291  65.699  1.00  0.00    -0.423 A  
HETATM   18  C   UNL     2      -9.361  10.980  67.647  1.00  0.00    -0.162 A  
HETATM   19  C   UNL     2      -8.292  10.097  67.803  1.00  0.00    -0.114 A  
HETATM   20  C   UNL     2     -12.359  12.316  64.426  1.00  0.00    -0.493 A  
HETATM   21  C   UNL     2      -6.997  10.594  67.921  1.00  0.00    -0.077 A  
HETATM   22  C   UNL     2     -12.122  13.403  63.598  1.00  0.00    -0.513 A  
HETATM   23  C   UNL     2     -11.333  14.428  64.084  1.00  0.00    -0.013 A  
HETATM   24 CL   UNL     2      -5.684   9.506  68.145  1.00  0.00    -0.040 Cl 
HETATM   25  C   UNL     2      -6.762  11.964  67.872  1.00  0.00    -0.079 A  
HETATM   26  N   UNL     2     -10.771  14.429  65.313  1.00  0.00    -0.349 NA 
HETATM   27  C   UNL     2      -7.832  12.847  67.704  1.00  0.00    -0.168 A  
ENDBRANCH  12  13
ENDBRANCH   4  12
TORSDOF 2
ENDMDL
MODEL      154
REMARK 921   NORMALIZED FREE ENERGY PREDICTED BY IDOCK:    0.29 KCAL/MOL
REMARK 922        TOTAL FREE ENERGY PREDICTED BY IDOCK:   -0.36 KCAL/MOL
REMARK 923 INTER-LIGAND FREE ENERGY PREDICTED BY IDOCK:   -2.63 KCAL/MOL
REMARK 924 INTRA-LIGAND FREE ENERGY PREDICTED BY IDOCK:    2.27 KCAL/MOL
REMARK 927      BINDING AFFINITY PREDICTED BY RF-SCORE:    0.00 PKD
ROOT
HETATM    1  O   UNL     1      -6.444   9.334  65.103  1.00  0.00    -0.068 OA 
HETATM    2  C   UNL     1      -6.231   8.137  65.663  1.00  0.00    -0.045 C  
HETATM    3  C   UNL     2      -7.135  12.567  69.909  1.00  0.00     0.711 C  
HETATM    4  N   UNL     2      -6.681  12.977  68.582  1.00  0.00    -0.089 NA 
HETATM    5  O   UNL     1      -5.139   7.592  65.645  1.00  0.00    -0.024 OA 
HETATM    6  C   UNL     1      -7.336   7.528  66.433  1.00  0.00    -0.083 C  
HETATM    7  C   UNL     1      -8.648   7.783  66.545  1.00  0.00    -0.149 C  
HETATM    8  O   UNL     1      -8.932   9.373  64.814  1.00  0.00    -0.201 OA 
HETATM    9  C   UNL     2      -5.225  13.152  68.587  1.00  0.00    -0.069 C  
HETATM   10  O   UNL     1     -10.572   9.102  66.337  1.00  0.00    -0.144 OA 
HETATM   11  C   UNL     1      -9.381   8.804  65.796  1.00  0.00    -0.191 C  
ENDROOT
BRANCH   4  12
HETATM   12  C   UNL     2      -7.072  12.035  67.525  1.00  0.00    -0.129 C  
BRANCH  12  13
HETATM   13  C   UNL     2      -7.980  10.888  68.008  1.00  0.00    -0.109 C  
HETATM   14  C   UNL     2      -9.190  11.340  68.854  1.00  0.00    -0.076 C  
HETATM   15  C   UNL     2      -9.881  10.166  69.549  1.00  0.00    -0.232 A  
HETATM   16  C   UNL     2     -10.151  12.222  68.057  1.00  0.00    -0.206 A  
HETATM   17  C   UNL     2     -10.387   9.072  68.845  1.00  0.00    -0.232 A  
HETATM   18  C   UNL     2     -10.760  11.789  66.866  1.00  0.00    -0.288 A  
HETATM   19  C   UNL     2     -11.593  12.639  66.136  1.00  0.00    -0.445 A  
HETATM   20  C   UNL     2     -11.041   8.055  69.535  1.00  0.00     0.026 A  
HETATM   21  C   UNL     2     -11.816  13.938  66.582  1.00  0.00    -0.420 A  
HETATM   22  C   UNL     2     -11.162   8.136  70.914  1.00  0.00    -0.286 A  
HETATM   23  C   UNL     2     -10.614   9.235  71.549  1.00  0.00    -0.335 A  
HETATM   24 CL   UNL     2     -12.817  14.994  65.665  1.00  0.00     0.410 Cl 
HETATM   25  C   UNL     2     -11.224  14.389  67.757  1.00  0.00    -0.316 A  
HETATM   26  N   UNL     2      -9.977  10.238  70.904  1.00  0.00     0.607 NA 
HETATM   27  C   UNL     2     -10.400  13.534  68.494  1.00  0.00    -0.242 A  
ENDBRANCH  12  13
ENDBRANCH   4  12
TORSDOF 2
ENDMDL
MODEL      155
REMARK 921   NORMALIZED FREE ENERGY PREDICTED BY IDOCK:    0.35 KCAL/MOL
REMARK 922        TOTAL FREE ENERGY PREDICTED BY IDOCK:   -0.29 KCAL/MOL
REMARK 923 INTER-LIGAND FREE ENERGY PREDICTED BY IDOCK:   -4.90 KCAL/MOL
REMARK 924 INTRA-LIGAND FREE ENERGY PREDICTED BY IDOCK:    4.60 KCAL/MOL
REMARK 927      BINDING AFFINITY PREDICTED BY RF-SCORE:    0.00 PKD
ROOT
HETATM    1  O   UNL     1     -11.914   6.276  72.076  1.00  0.00    -0.330 OA 
HETATM    2  C   UNL     1     -11.035   6.953  72.824  1.00  0.00    -0.280 C  
HETATM    3  C   UNL     2      -9.674   7.267  66.782  1.00  0.00    -0.198 C  
HETATM    4  N   UNL     2     -10.496   6.148  67.238  1.00  0.00    -0.219 NA 
HETATM    5  O   UNL     1     -10.230   6.393  73.553  1.00  0.00    -0.204 OA 
HETATM    6  C   UNL     1     -10.967   8.419  72.657  1.00  0.00    -0.318 C  
HETATM    7  C   UNL     1     -11.756   9.329  72.064  1.00  0.00    -0.336 C  
HETATM    8  O   UNL     1     -13.657   8.004  71.576  1.00  0.00    -0.336 OA 
HETATM    9  C   UNL     2      -9.653   4.968  67.453  1.00  0.00    -0.145 C  
HETATM   10  O   UNL     1     -13.453  10.032  70.610  1.00  0.00    -0.260 OA 
HETATM   11  C   UNL     1     -13.045   9.049  71.428  1.00  0.00    -0.284 C  
ENDROOT
BRANCH   4  12
HETATM   12  C   UNL     2     -11.255   6.453  68.458  1.00  0.00    -0.228 C  
BRANCH  12  13
HETATM   13  C   UNL     2     -10.999   5.475  69.620  1.00  0.00    -0.155 C  
HETATM   14  C   UNL     2      -9.561   4.917  69.684  1.00  0.00    -0.243 C  
HETATM   15  C   UNL     2      -9.438   3.742  70.656  1.00  0.00    -0.170 A  
HETATM   16  C   UNL     2      -8.527   6.017  69.931  1.00  0.00    -0.130 A  
HETATM   17  C   UNL     2      -9.790   3.846  72.002  1.00  0.00    -0.245 A  
HETATM   18  C   UNL     2      -8.576   6.857  71.058  1.00  0.00    -0.135 A  
HETATM   19  C   UNL     2      -7.646   7.884  71.226  1.00  0.00    -0.081 A  
HETATM   20  C   UNL     2      -9.617   2.749  72.843  1.00  0.00    -0.154 A  
HETATM   21  C   UNL     2      -6.664   8.092  70.262  1.00  0.00    -0.037 A  
HETATM   22  C   UNL     2      -9.114   1.566  72.324  1.00  0.00    -0.103 A  
HETATM   23  C   UNL     2      -8.812   1.527  70.975  1.00  0.00    -0.056 A  
HETATM   24 CL   UNL     2      -5.539   9.379  70.455  1.00  0.00    -0.035 Cl 
HETATM   25  C   UNL     2      -6.597   7.274  69.139  1.00  0.00    -0.041 A  
HETATM   26  N   UNL     2      -8.967   2.576  70.138  1.00  0.00    -0.084 NA 
HETATM   27  C   UNL     2      -7.521   6.239  68.977  1.00  0.00    -0.091 A  
ENDBRANCH  12  13
ENDBRANCH   4  12
TORSDOF 2
ENDMDL
MODEL      156
REMARK 921   NORMALIZED FREE ENERGY PREDICTED BY IDOCK:    0.36 KCAL/MOL
REMARK 922        TOTAL FREE ENERGY PREDICTED BY IDOCK:   -0.28 KCAL/MOL
REMARK 923 INTER-LIGAND FREE ENERGY PREDICTED BY IDOCK:   -2.66 KCAL/MOL
REMARK 924 INTRA-LIGAND FREE ENERGY PREDICTED BY IDOCK:    2.38 KCAL/MOL
REMARK 927      BINDING AFFINITY PREDICTED BY RF-SCORE:    0.00 PKD
ROOT
HETATM    1  O   UNL     1     -12.325  11.912  66.946  1.00  0.00    -0.233 OA 
HETATM    2  C   UNL     1     -12.047  13.203  67.162  1.00  0.00    -0.286 C  
HETATM    3  C   UNL     2      -9.698   9.543  71.583  1.00  0.00     0.494 C  
HETATM    4  N   UNL     2     -10.827   9.035  70.807  1.00  0.00    -0.233 NA 
HETATM    5  O   UNL     1     -12.902  14.009  67.495  1.00  0.00     0.451 OA 
HETATM    6  C   UNL     1     -10.631  13.623  67.111  1.00  0.00    -0.272 C  
HETATM    7  C   UNL     1      -9.502  13.049  66.668  1.00  0.00    -0.256 C  
HETATM    8  O   UNL     1     -10.385  11.153  65.556  1.00  0.00    -0.253 OA 
HETATM    9  C   UNL     2     -12.076   9.262  71.541  1.00  0.00    -0.361 C  
HETATM   10  O   UNL     1      -8.172  11.246  65.984  1.00  0.00    -0.142 OA 
HETATM   11  C   UNL     1      -9.416  11.749  66.000  1.00  0.00    -0.230 C  
ENDROOT
BRANCH   4  12
HETATM   12  C   UNL     2     -10.916   9.629  69.466  1.00  0.00    -0.208 C  
BRANCH  12  13
HETATM   13  C   UNL     2      -9.791  10.632  69.147  1.00  0.00    -0.217 C  
HETATM   14  C   UNL     2      -8.377  10.160  69.547  1.00  0.00    -0.178 C  
HETATM   15  C   UNL     2      -7.349  11.291  69.486  1.00  0.00     0.032 A  
HETATM   16  C   UNL     2      -7.947   8.911  68.777  1.00  0.00    -0.102 A  
HETATM   17  C   UNL     2      -7.113  12.025  68.322  1.00  0.00    -0.086 A  
HETATM   18  C   UNL     2      -7.891   8.874  67.372  1.00  0.00    -0.097 A  
HETATM   19  C   UNL     2      -7.545   7.702  66.699  1.00  0.00    -0.097 A  
HETATM   20  C   UNL     2      -6.135  13.017  68.323  1.00  0.00    -0.086 A  
HETATM   21  C   UNL     2      -7.262   6.547  67.423  1.00  0.00    -0.085 A  
HETATM   22  C   UNL     2      -5.425  13.272  69.486  1.00  0.00    -0.082 A  
HETATM   23  C   UNL     2      -5.730  12.525  70.609  1.00  0.00    -0.146 A  
HETATM   24 CL   UNL     2      -6.866   5.095  66.590  1.00  0.00    -0.061 Cl 
HETATM   25  C   UNL     2      -7.311   6.559  68.813  1.00  0.00    -0.087 A  
HETATM   26  N   UNL     2      -6.672  11.555  70.635  1.00  0.00     0.262 NA 
HETATM   27  C   UNL     2      -7.647   7.736  69.486  1.00  0.00    -0.100 A  
ENDBRANCH  12  13
ENDBRANCH   4  12
TORSDOF 2
ENDMDL
MODEL      157
REMARK 921   NORMALIZED FREE ENERGY PREDICTED BY IDOCK:    0.39 KCAL/MOL
REMARK 922        TOTAL FREE ENERGY PREDICTED BY IDOCK:   -0.24 KCAL/MOL
REMARK 923 INTER-LIGAND FREE ENERGY PREDICTED BY IDOCK:   -4.88 KCAL/MOL
REMARK 924 INTRA-LIGAND FREE ENERGY PREDICTED BY IDOCK:    4.63 KCAL/MOL
REMARK 927      BINDING AFFINITY PREDICTED BY RF-SCORE:    0.00 PKD
ROOT
HETATM    1  O   UNL     1     -11.797   6.229  70.409  1.00  0.00    -0.329 OA 
HETATM    2  C   UNL     1     -11.010   6.098  71.484  1.00  0.00    -0.273 C  
HETATM    3  C   UNL     2      -9.018  10.569  67.677  1.00  0.00    -0.138 C  
HETATM    4  N   UNL     2      -9.870   9.524  67.113  1.00  0.00    -0.174 NA 
HETATM    5  O   UNL     1     -10.281   5.131  71.647  1.00  0.00    -0.199 OA 
HETATM    6  C   UNL     1     -10.943   7.228  72.435  1.00  0.00    -0.306 C  
HETATM    7  C   UNL     1     -11.676   8.336  72.620  1.00  0.00    -0.406 C  
HETATM    8  O   UNL     1     -13.498   7.902  71.170  1.00  0.00    -0.188 OA 
HETATM    9  C   UNL     2      -9.040   8.495  66.477  1.00  0.00    -0.176 C  
HETATM   10  O   UNL     1     -13.217   9.984  71.990  1.00  0.00    -0.433 OA 
HETATM   11  C   UNL     1     -12.886   8.689  71.875  1.00  0.00    -0.369 C  
ENDROOT
BRANCH   4  12
HETATM   12  C   UNL     2     -10.758   8.909  68.109  1.00  0.00    -0.092 C  
BRANCH  12  13
HETATM   13  C   UNL     2     -10.583   7.385  68.253  1.00  0.00    -0.204 C  
HETATM   14  C   UNL     2      -9.142   6.880  68.023  1.00  0.00    -0.120 C  
HETATM   15  C   UNL     2      -9.078   5.358  67.883  1.00  0.00    -0.109 A  
HETATM   16  C   UNL     2      -8.167   7.434  69.062  1.00  0.00    -0.128 A  
HETATM   17  C   UNL     2      -9.555   4.495  68.871  1.00  0.00    -0.235 A  
HETATM   18  C   UNL     2      -8.341   7.232  70.443  1.00  0.00    -0.130 A  
HETATM   19  C   UNL     2      -7.460   7.796  71.366  1.00  0.00    -0.076 A  
HETATM   20  C   UNL     2      -9.430   3.119  68.699  1.00  0.00    -0.195 A  
HETATM   21  C   UNL     2      -6.399   8.579  70.920  1.00  0.00    -0.041 A  
HETATM   22  C   UNL     2      -8.850   2.628  67.539  1.00  0.00    -0.165 A  
HETATM   23  C   UNL     2      -8.424   3.540  66.592  1.00  0.00    -0.108 A  
HETATM   24 CL   UNL     2      -5.332   9.299  72.062  1.00  0.00    -0.068 Cl 
HETATM   25  C   UNL     2      -6.206   8.792  69.559  1.00  0.00    -0.040 A  
HETATM   26  N   UNL     2      -8.530   4.880  66.734  1.00  0.00    -0.107 NA 
HETATM   27  C   UNL     2      -7.083   8.218  68.635  1.00  0.00    -0.072 A  
ENDBRANCH  12  13
ENDBRANCH   4  12
TORSDOF 2
ENDMDL
MODEL      158
REMARK 921   NORMALIZED FREE ENERGY PREDICTED BY IDOCK:    0.69 KCAL/MOL
REMARK 922        TOTAL FREE ENERGY PREDICTED BY IDOCK:    0.09 KCAL/MOL
REMARK 923 INTER-LIGAND FREE ENERGY PREDICTED BY IDOCK:   -2.54 KCAL/MOL
REMARK 924 INTRA-LIGAND FREE ENERGY PREDICTED BY IDOCK:    2.62 KCAL/MOL
REMARK 927      BINDING AFFINITY PREDICTED BY RF-SCORE:    0.00 PKD
ROOT
HETATM    1  O   UNL     1      -7.405  10.055  64.738  1.00  0.00    -0.135 OA 
HETATM    2  C   UNL     1      -7.929   8.946  65.274  1.00  0.00    -0.116 C  
HETATM    3  C   UNL     2      -7.389  13.512  69.436  1.00  0.00     0.255 C  
HETATM    4  N   UNL     2      -6.529  13.561  68.255  1.00  0.00    -0.091 NA 
HETATM    5  O   UNL     1      -7.270   7.935  65.460  1.00  0.00    -0.065 OA 
HETATM    6  C   UNL     1      -9.322   9.007  65.764  1.00  0.00    -0.302 C  
HETATM    7  C   UNL     1     -10.329   9.879  65.609  1.00  0.00    -0.115 C  
HETATM    8  O   UNL     1      -9.429  11.290  63.933  1.00  0.00    -0.223 OA 
HETATM    9  C   UNL     2      -5.213  12.999  68.575  1.00  0.00    -0.064 C  
HETATM   10  O   UNL     1     -11.264  11.956  65.061  1.00  0.00    -0.313 OA 
HETATM   11  C   UNL     1     -10.292  11.079  64.770  1.00  0.00    -0.324 C  
ENDROOT
BRANCH   4  12
HETATM   12  C   UNL     2      -7.105  12.865  67.096  1.00  0.00     0.040 C  
BRANCH  12  13
HETATM   13  C   UNL     2      -8.480  12.226  67.366  1.00  0.00    -0.176 C  
HETATM   14  C   UNL     2      -9.422  13.076  68.246  1.00  0.00    -0.208 C  
HETATM   15  C   UNL     2     -10.639  12.282  68.726  1.00  0.00    -0.194 A  
HETATM   16  C   UNL     2      -9.790  14.402  67.579  1.00  0.00    -0.220 A  
HETATM   17  C   UNL     2     -11.520  11.657  67.842  1.00  0.00    -0.381 A  
HETATM   18  C   UNL     2     -10.413  14.465  66.320  1.00  0.00    -0.292 A  
HETATM   19  C   UNL     2     -10.687  15.694  65.718  1.00  0.00    -0.350 A  
HETATM   20  C   UNL     2     -12.631  10.983  68.343  1.00  0.00     1.392 A  
HETATM   21  C   UNL     2     -10.331  16.875  66.363  1.00  0.00    -0.300 A  
HETATM   22  C   UNL     2     -12.834  10.929  69.714  1.00  0.00     0.125 A  
HETATM   23  C   UNL     2     -11.906  11.548  70.531  1.00  0.00    -0.267 A  
HETATM   24 CL   UNL     2     -10.642  18.388  65.605  1.00  0.00    -0.304 Cl 
HETATM   25  C   UNL     2      -9.714  16.837  67.609  1.00  0.00    -0.251 A  
HETATM   26  N   UNL     2     -10.821  12.211  70.071  1.00  0.00     0.543 NA 
HETATM   27  C   UNL     2      -9.450  15.607  68.216  1.00  0.00    -0.200 A  
ENDBRANCH  12  13
ENDBRANCH   4  12
TORSDOF 2
ENDMDL
MODEL      159
REMARK 921   NORMALIZED FREE ENERGY PREDICTED BY IDOCK:    0.78 KCAL/MOL
REMARK 922        TOTAL FREE ENERGY PREDICTED BY IDOCK:    0.19 KCAL/MOL
REMARK 923 INTER-LIGAND FREE ENERGY PREDICTED BY IDOCK:   -2.53 KCAL/MOL
REMARK 924 INTRA-LIGAND FREE ENERGY PREDICTED BY IDOCK:    2.72 KCAL/MOL
REMARK 927      BINDING AFFINITY PREDICTED BY RF-SCORE:    0.00 PKD
ROOT
HETATM    1  O   UNL     1      -6.559  14.904  67.315  1.00  0.00    -0.297 OA 
HETATM    2  C   UNL     1      -6.130  15.076  68.571  1.00  0.00    -0.096 C  
HETATM    3  C   UNL     2     -11.338  18.246  67.436  1.00  0.00     0.645 C  
HETATM    4  N   UNL     2     -10.502  17.877  66.295  1.00  0.00    -0.354 NA 
HETATM    5  O   UNL     1      -5.127  15.720  68.837  1.00  0.00    -0.101 OA 
HETATM    6  C   UNL     1      -6.980  14.567  69.668  1.00  0.00    -0.122 C  
HETATM    7  C   UNL     1      -8.033  13.737  69.724  1.00  0.00     1.063 C  
HETATM    8  O   UNL     1      -8.049  12.901  67.509  1.00  0.00    -0.158 OA 
HETATM    9  C   UNL     2      -9.637  19.003  65.929  1.00  0.00     0.024 C  
HETATM   10  O   UNL     1      -9.844  12.553  68.829  1.00  0.00    -0.121 OA 
HETATM   11  C   UNL     1      -8.609  13.017  68.588  1.00  0.00     0.045 C  
ENDROOT
BRANCH   4  12
HETATM   12  C   UNL     2      -9.690  16.678  66.542  1.00  0.00    -0.274 C  
BRANCH  12  13
HETATM   13  C   UNL     2     -10.105  15.885  67.795  1.00  0.00    -0.244 C  
HETATM   14  C   UNL     2     -11.580  15.427  67.807  1.00  0.00    -0.237 C  
HETATM   15  C   UNL     2     -12.016  14.913  69.180  1.00  0.00    -0.278 A  
HETATM   16  C   UNL     2     -11.889  14.452  66.670  1.00  0.00    -0.417 A  
HETATM   17  C   UNL     2     -11.362  13.864  69.829  1.00  0.00    -0.219 A  
HETATM   18  C   UNL     2     -11.197  13.238  66.510  1.00  0.00    -0.329 A  
HETATM   19  C   UNL     2     -11.469  12.396  65.431  1.00  0.00    -0.402 A  
HETATM   20  C   UNL     2     -11.834  13.418  71.060  1.00  0.00     0.185 A  
HETATM   21  C   UNL     2     -12.428  12.764  64.491  1.00  0.00    -0.428 A  
HETATM   22  C   UNL     2     -12.936  14.035  71.631  1.00  0.00    -0.430 A  
HETATM   23  C   UNL     2     -13.518  15.085  70.946  1.00  0.00    -0.349 A  
HETATM   24 CL   UNL     2     -12.740  11.739  63.145  1.00  0.00    -0.466 Cl 
HETATM   25  C   UNL     2     -13.125  13.960  64.629  1.00  0.00     0.362 A  
HETATM   26  N   UNL     2     -13.083  15.537  69.748  1.00  0.00     0.200 NA 
HETATM   27  C   UNL     2     -12.860  14.797  65.716  1.00  0.00     0.276 A  
ENDBRANCH  12  13
ENDBRANCH   4  12
TORSDOF 2
ENDMDL
MODEL      160
REMARK 921   NORMALIZED FREE ENERGY PREDICTED BY IDOCK:    1.00 KCAL/MOL
REMARK 922        TOTAL FREE ENERGY PREDICTED BY IDOCK:    0.43 KCAL/MOL
REMARK 923 INTER-LIGAND FREE ENERGY PREDICTED BY IDOCK:   -4.22 KCAL/MOL
REMARK 924 INTRA-LIGAND FREE ENERGY PREDICTED BY IDOCK:    4.65 KCAL/MOL
REMARK 927      BINDING AFFINITY PREDICTED BY RF-SCORE:    0.00 PKD
ROOT
HETATM    1  O   UNL     1     -10.978  19.707  69.549  1.00  0.00     1.091 OA 
HETATM    2  C   UNL     1      -9.683  19.924  69.809  1.00  0.00     0.305 C  
HETATM    3  C   UNL     2     -11.054  13.877  69.704  1.00  0.00    -0.072 C  
HETATM    4  N   UNL     2     -12.142  14.818  69.961  1.00  0.00    -0.310 NA 
HETATM    5  O   UNL     1      -9.298  20.395  70.869  1.00  0.00     1.129 OA 
HETATM    6  C   UNL     1      -8.691  19.458  68.818  1.00  0.00    -0.377 C  
HETATM    7  C   UNL     1      -8.769  19.036  67.547  1.00  0.00    -0.315 C  
HETATM    8  O   UNL     1     -11.023  19.564  67.050  1.00  0.00    -0.477 OA 
HETATM    9  C   UNL     2     -12.370  14.931  71.405  1.00  0.00    -0.335 C  
HETATM   10  O   UNL     1      -9.877  18.213  65.654  1.00  0.00    -0.478 OA 
HETATM   11  C   UNL     1      -9.989  18.995  66.738  1.00  0.00    -0.360 C  
ENDROOT
BRANCH   4  12
HETATM   12  C   UNL     2     -11.900  16.147  69.384  1.00  0.00    -0.151 C  
BRANCH  12  13
HETATM   13  C   UNL     2     -10.420  16.437  69.069  1.00  0.00    -0.288 C  
HETATM   14  C   UNL     2      -9.625  15.221  68.547  1.00  0.00    -0.211 C  
HETATM   15  C   UNL     2      -8.117  15.477  68.534  1.00  0.00    -0.146 A  
HETATM   16  C   UNL     2     -10.164  14.713  67.209  1.00  0.00    -0.241 A  
HETATM   17  C   UNL     2      -7.545  16.543  67.837  1.00  0.00    -0.162 A  
HETATM   18  C   UNL     2     -10.245  15.533  66.070  1.00  0.00    -0.349 A  
HETATM   19  C   UNL     2     -10.790  15.052  64.878  1.00  0.00    -0.430 A  
HETATM   20  C   UNL     2      -6.161  16.697  67.834  1.00  0.00    -0.148 A  
HETATM   21  C   UNL     2     -11.273  13.748  64.816  1.00  0.00    -0.366 A  
HETATM   22  C   UNL     2      -5.374  15.799  68.538  1.00  0.00    -0.103 A  
HETATM   23  C   UNL     2      -6.010  14.783  69.227  1.00  0.00    -0.103 A  
HETATM   24 CL   UNL     2     -11.973  13.167  63.356  1.00  0.00    -0.594 Cl 
HETATM   25  C   UNL     2     -11.203  12.918  65.930  1.00  0.00    -0.323 A  
HETATM   26  N   UNL     2      -7.350  14.608  69.245  1.00  0.00    -0.154 NA 
HETATM   27  C   UNL     2     -10.646  13.397  67.119  1.00  0.00    -0.259 A  
ENDBRANCH  12  13
ENDBRANCH   4  12
TORSDOF 2
ENDMDL
MODEL      161
REMARK 921   NORMALIZED FREE ENERGY PREDICTED BY IDOCK:    1.17 KCAL/MOL
REMARK 922        TOTAL FREE ENERGY PREDICTED BY IDOCK:    0.62 KCAL/MOL
REMARK 923 INTER-LIGAND FREE ENERGY PREDICTED BY IDOCK:   -3.99 KCAL/MOL
REMARK 924 INTRA-LIGAND FREE ENERGY PREDICTED BY IDOCK:    4.61 KCAL/MOL
REMARK 927      BINDING AFFINITY PREDICTED BY RF-SCORE:    0.00 PKD
ROOT
HETATM    1  O   UNL     1      -7.153  12.861  67.199  1.00  0.00    -0.106 OA 
HETATM    2  C   UNL     1      -8.379  13.379  67.335  1.00  0.00    -0.190 C  
HETATM    3  C   UNL     2      -7.241   8.952  71.527  1.00  0.00    -0.055 C  
HETATM    4  N   UNL     2      -6.455   8.943  70.296  1.00  0.00    -0.038 NA 
HETATM    5  O   UNL     1      -9.271  13.171  66.526  1.00  0.00    -0.241 OA 
HETATM    6  C   UNL     1      -8.682  14.122  68.576  1.00  0.00    -0.166 C  
HETATM    7  C   UNL     1      -7.933  14.625  69.570  1.00  0.00     0.063 C  
HETATM    8  O   UNL     1      -5.763  14.339  68.667  1.00  0.00    -0.080 OA 
HETATM    9  C   UNL     2      -7.043   8.002  69.338  1.00  0.00    -0.063 C  
HETATM   10  O   UNL     1      -5.987  14.831  70.856  1.00  0.00    -0.141 OA 
HETATM   11  C   UNL     1      -6.471  14.602  69.626  1.00  0.00    -0.149 C  
ENDROOT
BRANCH   4  12
HETATM   12  C   UNL     2      -6.330  10.273  69.684  1.00  0.00    -0.062 C  
BRANCH  12  13
HETATM   13  C   UNL     2      -6.773  10.331  68.210  1.00  0.00    -0.057 C  
HETATM   14  C   UNL     2      -7.933   9.377  67.850  1.00  0.00    -0.092 C  
HETATM   15  C   UNL     2      -8.134   9.255  66.338  1.00  0.00    -0.107 A  
HETATM   16  C   UNL     2      -9.217   9.722  68.605  1.00  0.00    -0.137 A  
HETATM   17  C   UNL     2      -8.379  10.362  65.524  1.00  0.00    -0.168 A  
HETATM   18  C   UNL     2      -9.827  10.986  68.516  1.00  0.00    -0.194 A  
HETATM   19  C   UNL     2     -10.970  11.283  69.259  1.00  0.00    -0.297 A  
HETATM   20  C   UNL     2      -8.592  10.177  64.161  1.00  0.00    -0.194 A  
HETATM   21  C   UNL     2     -11.510  10.324  70.110  1.00  0.00    -0.309 A  
HETATM   22  C   UNL     2      -8.539   8.897  63.630  1.00  0.00    -0.103 A  
HETATM   23  C   UNL     2      -8.265   7.850  64.491  1.00  0.00    -0.069 A  
HETATM   24 CL   UNL     2     -12.901  10.703  71.049  1.00  0.00    -0.478 Cl 
HETATM   25  C   UNL     2     -10.924   9.067  70.215  1.00  0.00    -0.274 A  
HETATM   26  N   UNL     2      -8.057   8.001  65.818  1.00  0.00    -0.114 NA 
HETATM   27  C   UNL     2      -9.786   8.766  69.462  1.00  0.00    -0.172 A  
ENDBRANCH  12  13
ENDBRANCH   4  12
TORSDOF 2
ENDMDL
MODEL      162
REMARK 921   NORMALIZED FREE ENERGY PREDICTED BY IDOCK:    1.23 KCAL/MOL
REMARK 922        TOTAL FREE ENERGY PREDICTED BY IDOCK:    0.68 KCAL/MOL
REMARK 923 INTER-LIGAND FREE ENERGY PREDICTED BY IDOCK:   -3.97 KCAL/MOL
REMARK 924 INTRA-LIGAND FREE ENERGY PREDICTED BY IDOCK:    4.66 KCAL/MOL
REMARK 927      BINDING AFFINITY PREDICTED BY RF-SCORE:    0.00 PKD
ROOT
HETATM    1  O   UNL     1     -10.353   6.047  72.083  1.00  0.00    -0.190 OA 
HETATM    2  C   UNL     1      -9.823   7.154  72.617  1.00  0.00    -0.166 C  
HETATM    3  C   UNL     2     -10.139   7.471  66.431  1.00  0.00    -0.012 C  
HETATM    4  N   UNL     2     -10.135   6.146  67.046  1.00  0.00    -0.159 NA 
HETATM    5  O   UNL     1      -8.712   7.169  73.124  1.00  0.00    -0.122 OA 
HETATM    6  C   UNL     1     -10.571   8.420  72.466  1.00  0.00    -0.368 C  
HETATM    7  C   UNL     1     -11.823   8.726  72.095  1.00  0.00    -0.436 C  
HETATM    8  O   UNL     1     -12.801   6.570  72.043  1.00  0.00    -0.276 OA 
HETATM    9  C   UNL     2      -8.776   5.596  67.033  1.00  0.00    -0.108 C  
HETATM   10  O   UNL     1     -13.898   8.298  71.096  1.00  0.00    -0.180 OA 
HETATM   11  C   UNL     1     -12.874   7.759  71.775  1.00  0.00    -0.327 C  
ENDROOT
BRANCH   4  12
HETATM   12  C   UNL     2     -10.664   6.147  68.417  1.00  0.00    -0.293 C  
BRANCH  12  13
HETATM   13  C   UNL     2      -9.668   5.639  69.476  1.00  0.00    -0.206 C  
HETATM   14  C   UNL     2      -8.189   5.966  69.176  1.00  0.00    -0.106 C  
HETATM   15  C   UNL     2      -7.230   5.195  70.085  1.00  0.00    -0.058 A  
HETATM   16  C   UNL     2      -7.926   7.472  69.156  1.00  0.00    -0.121 A  
HETATM   17  C   UNL     2      -7.289   5.279  71.477  1.00  0.00    -0.087 A  
HETATM   18  C   UNL     2      -8.200   8.299  70.260  1.00  0.00    -0.121 A  
HETATM   19  C   UNL     2      -7.995   9.678  70.190  1.00  0.00    -0.189 A  
HETATM   20  C   UNL     2      -6.361   4.582  72.247  1.00  0.00    -0.022 A  
HETATM   21  C   UNL     2      -7.526  10.248  69.010  1.00  0.00    -0.097 A  
HETATM   22  C   UNL     2      -5.403   3.802  71.617  1.00  0.00    -0.004 A  
HETATM   23  C   UNL     2      -5.420   3.744  70.236  1.00  0.00    -0.012 A  
HETATM   24 CL   UNL     2      -7.304  11.951  68.915  1.00  0.00    -0.105 Cl 
HETATM   25  C   UNL     2      -7.247   9.449  67.906  1.00  0.00    -0.082 A  
HETATM   26  N   UNL     2      -6.308   4.412  69.465  1.00  0.00    -0.027 NA 
HETATM   27  C   UNL     2      -7.442   8.068  67.980  1.00  0.00    -0.097 A  
ENDBRANCH  12  13
ENDBRANCH   4  12
TORSDOF 2
ENDMDL
MODEL      163
REMARK 921   NORMALIZED FREE ENERGY PREDICTED BY IDOCK:    1.28 KCAL/MOL
REMARK 922        TOTAL FREE ENERGY PREDICTED BY IDOCK:    0.74 KCAL/MOL
REMARK 923 INTER-LIGAND FREE ENERGY PREDICTED BY IDOCK:   -3.67 KCAL/MOL
REMARK 924 INTRA-LIGAND FREE ENERGY PREDICTED BY IDOCK:    4.41 KCAL/MOL
REMARK 927      BINDING AFFINITY PREDICTED BY RF-SCORE:    0.00 PKD
ROOT
HETATM    1  O   UNL     1     -11.748   5.754  70.387  1.00  0.00     0.084 OA 
HETATM    2  C   UNL     1     -10.863   5.418  71.334  1.00  0.00    -0.140 C  
HETATM    3  C   UNL     2      -8.193   8.430  66.616  1.00  0.00    -0.105 C  
HETATM    4  N   UNL     2      -9.463   7.755  66.362  1.00  0.00    -0.198 NA 
HETATM    5  O   UNL     1     -10.521   4.261  71.527  1.00  0.00    -0.053 OA 
HETATM    6  C   UNL     1     -10.196   6.508  72.075  1.00  0.00    -0.212 C  
HETATM    7  C   UNL     1     -10.417   7.825  72.199  1.00  0.00    -0.287 C  
HETATM    8  O   UNL     1     -12.526   8.014  71.137  1.00  0.00    -0.284 OA 
HETATM    9  C   UNL     2      -9.215   6.436  65.770  1.00  0.00     0.064 C  
HETATM   10  O   UNL     1     -11.341   9.884  71.571  1.00  0.00    -0.343 OA 
HETATM   11  C   UNL     1     -11.538   8.557  71.607  1.00  0.00    -0.299 C  
ENDROOT
BRANCH   4  12
HETATM   12  C   UNL     2     -10.293   7.619  67.567  1.00  0.00    -0.257 C  
BRANCH  12  13
HETATM   13  C   UNL     2      -9.518   7.793  68.886  1.00  0.00    -0.150 C  
HETATM   14  C   UNL     2      -8.464   8.921  68.868  1.00  0.00    -0.131 C  
HETATM   15  C   UNL     2      -7.530   8.861  70.078  1.00  0.00    -0.057 A  
HETATM   16  C   UNL     2      -9.097  10.297  68.661  1.00  0.00    -0.152 A  
HETATM   17  C   UNL     2      -8.003   8.900  71.391  1.00  0.00    -0.150 A  
HETATM   18  C   UNL     2     -10.077  10.814  69.527  1.00  0.00    -0.117 A  
HETATM   19  C   UNL     2     -10.672  12.052  69.280  1.00  0.00    -0.063 A  
HETATM   20  C   UNL     2      -7.096   8.881  72.447  1.00  0.00     0.136 A  
HETATM   21  C   UNL     2     -10.302  12.783  68.155  1.00  0.00    -0.239 A  
HETATM   22  C   UNL     2      -5.738   8.804  72.178  1.00  0.00    -0.062 A  
HETATM   23  C   UNL     2      -5.343   8.741  70.855  1.00  0.00    -0.028 A  
HETATM   24 CL   UNL     2     -11.059  14.294  67.834  1.00  0.00    -0.281 Cl 
HETATM   25  C   UNL     2      -9.336  12.292  67.283  1.00  0.00    -0.185 A  
HETATM   26  N   UNL     2      -6.200   8.761  69.810  1.00  0.00    -0.035 NA 
HETATM   27  C   UNL     2      -8.732  11.058  67.538  1.00  0.00    -0.128 A  
ENDBRANCH  12  13
ENDBRANCH   4  12
TORSDOF 2
ENDMDL
MODEL      164
REMARK 921   NORMALIZED FREE ENERGY PREDICTED BY IDOCK:    1.75 KCAL/MOL
REMARK 922        TOTAL FREE ENERGY PREDICTED BY IDOCK:    1.27 KCAL/MOL
REMARK 923 INTER-LIGAND FREE ENERGY PREDICTED BY IDOCK:    0.99 KCAL/MOL
REMARK 924 INTRA-LIGAND FREE ENERGY PREDICTED BY IDOCK:    0.28 KCAL/MOL
REMARK 927      BINDING AFFINITY PREDICTED BY RF-SCORE:    0.00 PKD
ROOT
HETATM    1  O   UNL     1      -5.153   6.386  68.494  1.00  0.00    -0.006 OA 
HETATM    2  C   UNL     1      -5.559   5.369  67.725  1.00  0.00    -0.012 C  
HETATM    3  C   UNL     2     -10.086   7.440  71.423  1.00  0.00    -0.186 C  
HETATM    4  N   UNL     2      -8.705   7.707  71.821  1.00  0.00    -0.114 NA 
HETATM    5  O   UNL     1      -5.171   4.224  67.898  1.00  0.00    -0.010 OA 
HETATM    6  C   UNL     1      -6.605   5.639  66.716  1.00  0.00    -0.056 C  
HETATM    7  C   UNL     1      -7.135   6.757  66.197  1.00  0.00    -0.066 C  
HETATM    8  O   UNL     1      -5.660   8.387  67.076  1.00  0.00    -0.036 OA 
HETATM    9  C   UNL     2      -8.262   6.697  72.788  1.00  0.00    -0.108 C  
HETATM   10  O   UNL     1      -7.605   9.051  66.148  1.00  0.00    -0.093 OA 
HETATM   11  C   UNL     1      -6.704   8.122  66.502  1.00  0.00    -0.063 C  
ENDROOT
BRANCH   4  12
HETATM   12  C   UNL     2      -7.778   7.755  70.682  1.00  0.00    -0.091 C  
BRANCH  12  13
HETATM   13  C   UNL     2      -7.148   9.139  70.441  1.00  0.00    -0.079 C  
HETATM   14  C   UNL     2      -7.669   9.872  69.186  1.00  0.00    -0.098 C  
HETATM   15  C   UNL     2      -6.813  11.089  68.829  1.00  0.00    -0.073 A  
HETATM   16  C   UNL     2      -9.161  10.191  69.284  1.00  0.00    -0.220 A  
HETATM   17  C   UNL     2      -6.586  12.134  69.726  1.00  0.00     0.016 A  
HETATM   18  C   UNL     2      -9.700  10.961  70.330  1.00  0.00     1.299 A  
HETATM   19  C   UNL     2     -11.074  11.190  70.417  1.00  0.00     0.157 A  
HETATM   20  C   UNL     2      -5.829  13.231  69.325  1.00  0.00    -0.088 A  
HETATM   21  C   UNL     2     -11.928  10.639  69.465  1.00  0.00    -0.247 A  
HETATM   22  C   UNL     2      -5.297  13.260  68.045  1.00  0.00    -0.109 A  
HETATM   23  C   UNL     2      -5.540  12.179  67.218  1.00  0.00    -0.135 A  
HETATM   24 CL   UNL     2     -13.624  10.895  69.592  1.00  0.00     1.594 Cl 
HETATM   25  C   UNL     2     -11.418   9.874  68.422  1.00  0.00     0.072 A  
HETATM   26  N   UNL     2      -6.273  11.102  67.581  1.00  0.00    -0.051 NA 
HETATM   27  C   UNL     2     -10.041   9.655  68.329  1.00  0.00    -0.203 A  
ENDBRANCH  12  13
ENDBRANCH   4  12
TORSDOF 2
ENDMDL
MODEL      165
REMARK 921   NORMALIZED FREE ENERGY PREDICTED BY IDOCK:    1.89 KCAL/MOL
REMARK 922        TOTAL FREE ENERGY PREDICTED BY IDOCK:    1.42 KCAL/MOL
REMARK 923 INTER-LIGAND FREE ENERGY PREDICTED BY IDOCK:   -3.21 KCAL/MOL
REMARK 924 INTRA-LIGAND FREE ENERGY PREDICTED BY IDOCK:    4.63 KCAL/MOL
REMARK 927      BINDING AFFINITY PREDICTED BY RF-SCORE:    0.00 PKD
ROOT
HETATM    1  O   UNL     1      -9.491  12.620  65.471  1.00  0.00    -0.090 OA 
HETATM    2  C   UNL     1      -9.199  11.562  64.705  1.00  0.00     0.035 C  
HETATM    3  C   UNL     2     -12.889  10.052  69.456  1.00  0.00     1.170 C  
HETATM    4  N   UNL     2     -12.077  11.260  69.581  1.00  0.00    -0.326 NA 
HETATM    5  O   UNL     1      -8.085  11.062  64.678  1.00  0.00     0.139 OA 
HETATM    6  C   UNL     1     -10.306  10.915  63.970  1.00  0.00    -0.417 C  
HETATM    7  C   UNL     1     -11.570  11.264  63.687  1.00  0.00     0.053 C  
HETATM    8  O   UNL     1     -11.566  13.524  64.398  1.00  0.00    -0.366 OA 
HETATM    9  C   UNL     2     -10.851  10.959  70.328  1.00  0.00     0.135 C  
HETATM   10  O   UNL     1     -13.534  12.510  63.968  1.00  0.00    -0.283 OA 
HETATM   11  C   UNL     1     -12.194  12.543  64.031  1.00  0.00    -0.480 C  
ENDROOT
BRANCH   4  12
HETATM   12  C   UNL     2     -11.741  11.864  68.284  1.00  0.00    -0.321 C  
BRANCH  12  13
HETATM   13  C   UNL     2     -10.230  12.025  68.038  1.00  0.00    -0.203 C  
HETATM   14  C   UNL     2      -9.353  10.931  68.687  1.00  0.00    -0.188 C  
HETATM   15  C   UNL     2      -7.867  11.294  68.667  1.00  0.00    -0.139 A  
HETATM   16  C   UNL     2      -9.645   9.544  68.113  1.00  0.00    -0.153 A  
HETATM   17  C   UNL     2      -7.182  11.578  67.485  1.00  0.00    -0.111 A  
HETATM   18  C   UNL     2      -9.523   9.255  66.742  1.00  0.00    -0.228 A  
HETATM   19  C   UNL     2      -9.848   7.992  66.245  1.00  0.00    -0.162 A  
HETATM   20  C   UNL     2      -5.819  11.863  67.533  1.00  0.00    -0.099 A  
HETATM   21  C   UNL     2     -10.310   7.006  67.112  1.00  0.00    -0.281 A  
HETATM   22  C   UNL     2      -5.169  11.876  68.757  1.00  0.00    -0.050 A  
HETATM   23  C   UNL     2      -5.915  11.610  69.890  1.00  0.00    -0.137 A  
HETATM   24 CL   UNL     2     -10.739   5.460  66.493  1.00  0.00    -0.358 Cl 
HETATM   25  C   UNL     2     -10.438   7.269  68.472  1.00  0.00    -0.215 A  
HETATM   26  N   UNL     2      -7.238  11.329  69.873  1.00  0.00     0.072 NA 
HETATM   27  C   UNL     2     -10.103   8.530  68.970  1.00  0.00    -0.207 A  
ENDBRANCH  12  13
ENDBRANCH   4  12
TORSDOF 2
ENDMDL
MODEL      166
REMARK 921   NORMALIZED FREE ENERGY PREDICTED BY IDOCK:    1.99 KCAL/MOL
REMARK 922        TOTAL FREE ENERGY PREDICTED BY IDOCK:    1.54 KCAL/MOL
REMARK 923 INTER-LIGAND FREE ENERGY PREDICTED BY IDOCK:    1.77 KCAL/MOL
REMARK 924 INTRA-LIGAND FREE ENERGY PREDICTED BY IDOCK:   -0.23 KCAL/MOL
REMARK 927      BINDING AFFINITY PREDICTED BY RF-SCORE:    0.00 PKD
ROOT
HETATM    1  O   UNL     1      -7.954   6.432  73.558  1.00  0.00    -0.100 OA 
HETATM    2  C   UNL     1      -7.509   5.176  73.675  1.00  0.00    -0.091 C  
HETATM    3  C   UNL     2     -11.124   5.909  68.689  1.00  0.00    -0.113 C  
HETATM    4  N   UNL     2     -11.273   6.863  69.786  1.00  0.00    -0.281 NA 
HETATM    5  O   UNL     1      -7.904   4.420  74.550  1.00  0.00    -0.086 OA 
HETATM    6  C   UNL     1      -6.601   4.663  72.627  1.00  0.00    -0.050 C  
HETATM    7  C   UNL     1      -5.896   5.236  71.640  1.00  0.00    -0.024 C  
HETATM    8  O   UNL     1      -6.167   7.525  72.184  1.00  0.00    -0.040 OA 
HETATM    9  C   UNL     2     -12.393   6.464  70.644  1.00  0.00     0.212 C  
HETATM   10  O   UNL     1      -5.352   6.966  70.157  1.00  0.00    -0.018 OA 
HETATM   11  C   UNL     1      -5.807   6.675  71.385  1.00  0.00    -0.036 C  
ENDROOT
BRANCH   4  12
HETATM   12  C   UNL     2     -10.051   7.011  70.588  1.00  0.00    -0.191 C  
BRANCH  12  13
HETATM   13  C   UNL     2      -8.998   7.945  69.964  1.00  0.00    -0.145 C  
HETATM   14  C   UNL     2      -9.553   8.925  68.908  1.00  0.00    -0.160 C  
HETATM   15  C   UNL     2      -8.441   9.613  68.114  1.00  0.00    -0.118 A  
HETATM   16  C   UNL     2     -10.563   9.904  69.507  1.00  0.00    -0.264 A  
HETATM   17  C   UNL     2      -7.434  10.359  68.729  1.00  0.00    -0.093 A  
HETATM   18  C   UNL     2     -10.239  10.762  70.574  1.00  0.00     1.037 A  
HETATM   19  C   UNL     2     -11.201  11.607  71.131  1.00  0.00     2.161 A  
HETATM   20  C   UNL     2      -6.473  10.992  67.946  1.00  0.00    -0.062 A  
HETATM   21  C   UNL     2     -12.501  11.595  70.635  1.00  0.00    -0.295 A  
HETATM   22  C   UNL     2      -6.521  10.856  66.567  1.00  0.00    -0.128 A  
HETATM   23  C   UNL     2      -7.530  10.081  66.027  1.00  0.00    -0.112 A  
HETATM   24 CL   UNL     2     -13.692  12.615  71.343  1.00  0.00     0.282 Cl 
HETATM   25  C   UNL     2     -12.844  10.756  69.580  1.00  0.00     0.275 A  
HETATM   26  N   UNL     2      -8.477   9.457  66.764  1.00  0.00    -0.126 NA 
HETATM   27  C   UNL     2     -11.879   9.918  69.016  1.00  0.00     0.337 A  
ENDBRANCH  12  13
ENDBRANCH   4  12
TORSDOF 2
ENDMDL
MODEL      167
REMARK 921   NORMALIZED FREE ENERGY PREDICTED BY IDOCK:    2.04 KCAL/MOL
REMARK 922        TOTAL FREE ENERGY PREDICTED BY IDOCK:    1.59 KCAL/MOL
REMARK 923 INTER-LIGAND FREE ENERGY PREDICTED BY IDOCK:   -3.04 KCAL/MOL
REMARK 924 INTRA-LIGAND FREE ENERGY PREDICTED BY IDOCK:    4.63 KCAL/MOL
REMARK 927      BINDING AFFINITY PREDICTED BY RF-SCORE:    0.00 PKD
ROOT
HETATM    1  O   UNL     1      -8.652   7.305  71.480  1.00  0.00    -0.117 OA 
HETATM    2  C   UNL     1      -9.403   6.282  71.056  1.00  0.00    -0.161 C  
HETATM    3  C   UNL     2      -6.044   8.758  66.469  1.00  0.00    -0.057 C  
HETATM    4  N   UNL     2      -6.324   9.592  67.636  1.00  0.00    -0.057 NA 
HETATM    5  O   UNL     1     -10.619   6.357  70.966  1.00  0.00    -0.220 OA 
HETATM    6  C   UNL     1      -8.711   5.071  70.568  1.00  0.00    -0.132 C  
HETATM    7  C   UNL     1      -7.449   4.623  70.642  1.00  0.00    -0.053 C  
HETATM    8  O   UNL     1      -6.524   6.178  72.170  1.00  0.00    -0.055 OA 
HETATM    9  C   UNL     2      -7.481  10.452  67.366  1.00  0.00    -0.094 C  
HETATM   10  O   UNL     1      -5.143   4.843  70.989  1.00  0.00    -0.004 OA 
HETATM   11  C   UNL     1      -6.355   5.280  71.360  1.00  0.00    -0.034 C  
ENDROOT
BRANCH   4  12
HETATM   12  C   UNL     2      -6.551   8.811  68.859  1.00  0.00    -0.053 C  
BRANCH  12  13
HETATM   13  C   UNL     2      -7.919   9.060  69.520  1.00  0.00    -0.099 C  
HETATM   14  C   UNL     2      -9.066   9.359  68.529  1.00  0.00    -0.131 C  
HETATM   15  C   UNL     2     -10.317   9.886  69.234  1.00  0.00    -0.219 A  
HETATM   16  C   UNL     2      -9.347   8.176  67.602  1.00  0.00    -0.160 A  
HETATM   17  C   UNL     2     -10.961   9.174  70.247  1.00  0.00    -0.279 A  
HETATM   18  C   UNL     2      -9.692   6.903  68.088  1.00  0.00    -0.134 A  
HETATM   19  C   UNL     2      -9.891   5.832  67.215  1.00  0.00    -0.158 A  
HETATM   20  C   UNL     2     -12.119   9.693  70.821  1.00  0.00    -0.328 A  
HETATM   21  C   UNL     2      -9.736   6.020  65.844  1.00  0.00     0.144 A  
HETATM   22  C   UNL     2     -12.604  10.918  70.388  1.00  0.00    -0.376 A  
HETATM   23  C   UNL     2     -11.901  11.580  69.399  1.00  0.00    -0.350 A  
HETATM   24 CL   UNL     2      -9.951   4.692  64.772  1.00  0.00    -0.019 Cl 
HETATM   25  C   UNL     2      -9.395   7.271  65.340  1.00  0.00     0.557 A  
HETATM   26  N   UNL     2     -10.776  11.099  68.823  1.00  0.00    -0.188 NA 
HETATM   27  C   UNL     2      -9.207   8.345  66.214  1.00  0.00    -0.263 A  
ENDBRANCH  12  13
ENDBRANCH   4  12
TORSDOF 2
ENDMDL
MODEL      168
REMARK 921   NORMALIZED FREE ENERGY PREDICTED BY IDOCK:    5.86 KCAL/MOL
REMARK 922        TOTAL FREE ENERGY PREDICTED BY IDOCK:    5.86 KCAL/MOL
REMARK 923 INTER-LIGAND FREE ENERGY PREDICTED BY IDOCK:    5.23 KCAL/MOL
REMARK 924 INTRA-LIGAND FREE ENERGY PREDICTED BY IDOCK:    0.63 KCAL/MOL
REMARK 927      BINDING AFFINITY PREDICTED BY RF-SCORE:    0.00 PKD
ROOT
HETATM    1  O   UNL     1      -7.723  10.436  65.502  1.00  0.00    -0.146 OA 
HETATM    2  C   UNL     1      -6.862  10.881  64.579  1.00  0.00     0.537 C  
HETATM    3  C   UNL     2      -7.217   4.689  64.641  1.00  0.00    -0.063 C  
HETATM    4  N   UNL     2      -7.611   5.407  65.851  1.00  0.00    -0.082 NA 
HETATM    5  O   UNL     1      -5.789  11.385  64.875  1.00  0.00     0.358 OA 
HETATM    6  C   UNL     1      -7.181  10.632  63.158  1.00  0.00     0.091 C  
HETATM    7  C   UNL     1      -8.284  10.237  62.504  1.00  0.00    -0.176 C  
HETATM    8  O   UNL     1      -9.887  10.355  64.243  1.00  0.00    -0.315 OA 
HETATM    9  C   UNL     2      -6.492   5.436  66.798  1.00  0.00    -0.041 C  
HETATM   10  O   UNL     1     -10.413   9.276  62.334  1.00  0.00     2.708 OA 
HETATM   11  C   UNL     1      -9.592   9.995  63.114  1.00  0.00    -0.055 C  
ENDROOT
BRANCH   4  12
HETATM   12  C   UNL     2      -8.079   6.773  65.582  1.00  0.00    -0.122 C  
BRANCH  12  13
HETATM   13  C   UNL     2      -7.785   7.773  66.716  1.00  0.00    -0.099 C  
HETATM   14  C   UNL     2      -8.892   7.874  67.787  1.00  0.00    -0.122 C  
HETATM   15  C   UNL     2      -8.695   9.076  68.713  1.00  0.00    -0.136 A  
HETATM   16  C   UNL     2      -9.087   6.557  68.538  1.00  0.00    -0.127 A  
HETATM   17  C   UNL     2      -7.528   9.264  69.456  1.00  0.00    -0.079 A  
HETATM   18  C   UNL     2      -8.044   5.929  69.241  1.00  0.00    -0.106 A  
HETATM   19  C   UNL     2      -8.243   4.701  69.873  1.00  0.00    -0.069 A  
HETATM   20  C   UNL     2      -7.427  10.359  70.310  1.00  0.00     0.140 A  
HETATM   21  C   UNL     2      -9.486   4.079  69.799  1.00  0.00    -0.195 A  
HETATM   22  C   UNL     2      -8.482  11.255  70.396  1.00  0.00     3.139 A  
HETATM   23  C   UNL     2      -9.596  11.021  69.612  1.00  0.00     0.430 A  
HETATM   24 CL   UNL     2      -9.721   2.550  70.552  1.00  0.00    -0.129 Cl 
HETATM   25  C   UNL     2     -10.533   4.682  69.110  1.00  0.00     0.312 A  
HETATM   26  N   UNL     2      -9.721   9.965  68.776  1.00  0.00    -0.155 NA 
HETATM   27  C   UNL     2     -10.336   5.917  68.487  1.00  0.00    -0.268 A  
ENDBRANCH  12  13
ENDBRANCH   4  12
TORSDOF 2
ENDMDL
MODEL      169
REMARK 921   NORMALIZED FREE ENERGY PREDICTED BY IDOCK:    5.90 KCAL/MOL
REMARK 922        TOTAL FREE ENERGY PREDICTED BY IDOCK:    5.91 KCAL/MOL
REMARK 923 INTER-LIGAND FREE ENERGY PREDICTED BY IDOCK:    0.32 KCAL/MOL
REMARK 924 INTRA-LIGAND FREE ENERGY PREDICTED BY IDOCK:    5.59 KCAL/MOL
REMARK 927      BINDING AFFINITY PREDICTED BY RF-SCORE:    0.00 PKD
ROOT
HETATM    1  O   UNL     1      -7.450  15.075  70.637  1.00  0.00     0.500 OA 
HETATM    2  C   UNL     1      -6.603  14.192  70.093  1.00  0.00    -0.034 C  
HETATM    3  C   UNL     2     -12.508  12.933  68.674  1.00  0.00     0.489 C  
HETATM    4  N   UNL     2     -12.250  13.734  69.869  1.00  0.00    -0.331 NA 
HETATM    5  O   UNL     1      -5.998  13.369  70.763  1.00  0.00    -0.170 OA 
HETATM    6  C   UNL     1      -6.504  14.145  68.620  1.00  0.00    -0.090 C  
HETATM    7  C   UNL     1      -6.912  14.954  67.630  1.00  0.00    -0.207 C  
HETATM    8  O   UNL     1      -7.606  16.847  68.874  1.00  0.00    -0.227 OA 
HETATM    9  C   UNL     2     -12.263  12.873  71.056  1.00  0.00    -0.116 C  
HETATM   10  O   UNL     1      -8.192  16.683  66.702  1.00  0.00    -0.208 OA 
HETATM   11  C   UNL     1      -7.571  16.250  67.810  1.00  0.00    -0.136 C  
ENDROOT
BRANCH   4  12
HETATM   12  C   UNL     2     -10.984  14.477  69.801  1.00  0.00    -0.151 C  
BRANCH  12  13
HETATM   13  C   UNL     2     -11.151  15.974  69.479  1.00  0.00    -0.333 C  
HETATM   14  C   UNL     2     -10.415  16.443  68.205  1.00  0.00    -0.302 C  
HETATM   15  C   UNL     2     -10.363  17.968  68.094  1.00  0.00    -0.388 A  
HETATM   16  C   UNL     2     -10.955  15.763  66.946  1.00  0.00    -0.207 A  
HETATM   17  C   UNL     2     -11.515  18.757  68.095  1.00  0.00     1.255 A  
HETATM   18  C   UNL     2     -12.305  15.848  66.564  1.00  0.00     1.836 A  
HETATM   19  C   UNL     2     -12.775  15.172  65.437  1.00  0.00     0.564 A  
HETATM   20  C   UNL     2     -11.400  20.137  67.951  1.00  0.00     0.934 A  
HETATM   21  C   UNL     2     -11.901  14.392  64.685  1.00  0.00    -0.451 A  
HETATM   22  C   UNL     2     -10.142  20.707  67.827  1.00  0.00    -0.275 A  
HETATM   23  C   UNL     2      -9.045  19.867  67.861  1.00  0.00    -0.313 A  
HETATM   24 CL   UNL     2     -12.488  13.534  63.314  1.00  0.00    -0.268 Cl 
HETATM   25  C   UNL     2     -10.561  14.293  65.044  1.00  0.00    -0.444 A  
HETATM   26  N   UNL     2      -9.127  18.525  67.997  1.00  0.00    -0.293 NA 
HETATM   27  C   UNL     2     -10.089  14.979  66.166  1.00  0.00    -0.312 A  
ENDBRANCH  12  13
ENDBRANCH   4  12
TORSDOF 2
ENDMDL
MODEL      170
REMARK 921   NORMALIZED FREE ENERGY PREDICTED BY IDOCK:    5.95 KCAL/MOL
REMARK 922        TOTAL FREE ENERGY PREDICTED BY IDOCK:    5.96 KCAL/MOL
REMARK 923 INTER-LIGAND FREE ENERGY PREDICTED BY IDOCK:   -6.99 KCAL/MOL
REMARK 924 INTRA-LIGAND FREE ENERGY PREDICTED BY IDOCK:   12.95 KCAL/MOL
REMARK 927      BINDING AFFINITY PREDICTED BY RF-SCORE:    0.00 PKD
ROOT
HETATM    1  O   UNL     1     -10.078  10.891  68.792  1.00  0.00    -0.180 OA 
HETATM    2  C   UNL     1     -11.080  10.838  67.906  1.00  0.00    -0.308 C  
HETATM    3  C   UNL     2      -7.757  16.046  67.356  1.00  0.00    -0.167 C  
HETATM    4  N   UNL     2      -7.719  15.345  68.638  1.00  0.00    -0.134 NA 
HETATM    5  O   UNL     1     -12.251  10.951  68.235  1.00  0.00    -0.526 OA 
HETATM    6  C   UNL     1     -10.731  10.765  66.472  1.00  0.00    -0.245 C  
HETATM    7  C   UNL     1      -9.600  10.508  65.798  1.00  0.00    -0.260 C  
HETATM    8  O   UNL     1      -8.195   9.788  67.563  1.00  0.00    -0.113 OA 
HETATM    9  C   UNL     2      -8.676  15.954  69.567  1.00  0.00    -0.105 C  
HETATM   10  O   UNL     1      -7.279  10.289  65.564  1.00  0.00    -0.139 OA 
HETATM   11  C   UNL     1      -8.318  10.139  66.400  1.00  0.00    -0.125 C  
ENDROOT
BRANCH   4  12
HETATM   12  C   UNL     2      -7.984  13.905  68.513  1.00  0.00    -0.137 C  
BRANCH  12  13
HETATM   13  C   UNL     2      -8.689  13.507  67.203  1.00  0.00    -0.222 C  
HETATM   14  C   UNL     2     -10.101  14.108  67.026  1.00  0.00    -0.261 C  
HETATM   15  C   UNL     2     -10.867  13.456  65.874  1.00  0.00    -0.274 A  
HETATM   16  C   UNL     2     -10.069  15.634  66.944  1.00  0.00    -0.265 A  
HETATM   17  C   UNL     2     -10.375  13.430  64.568  1.00  0.00    -0.394 A  
HETATM   18  C   UNL     2      -9.323  16.322  65.970  1.00  0.00    -0.361 A  
HETATM   19  C   UNL     2      -9.276  17.716  65.956  1.00  0.00    -0.049 A  
HETATM   20  C   UNL     2     -11.141  12.855  63.557  1.00  0.00    -0.288 A  
HETATM   21  C   UNL     2      -9.964  18.441  66.925  1.00  0.00    -0.353 A  
HETATM   22  C   UNL     2     -12.373  12.300  63.868  1.00  0.00    -0.606 A  
HETATM   23  C   UNL     2     -12.786  12.338  65.187  1.00  0.00     0.216 A  
HETATM   24 CL   UNL     2      -9.879  20.159  66.925  1.00  0.00    -0.560 Cl 
HETATM   25  C   UNL     2     -10.709  17.783  67.898  1.00  0.00    -0.327 A  
HETATM   26  N   UNL     2     -12.064  12.892  66.187  1.00  0.00    -0.471 NA 
HETATM   27  C   UNL     2     -10.765  16.387  67.905  1.00  0.00    -0.332 A  
ENDBRANCH  12  13
ENDBRANCH   4  12
TORSDOF 2
ENDMDL
MODEL      171
REMARK 921   NORMALIZED FREE ENERGY PREDICTED BY IDOCK:    7.15 KCAL/MOL
REMARK 922        TOTAL FREE ENERGY PREDICTED BY IDOCK:    7.30 KCAL/MOL
REMARK 923 INTER-LIGAND FREE ENERGY PREDICTED BY IDOCK:   -5.64 KCAL/MOL
REMARK 924 INTRA-LIGAND FREE ENERGY PREDICTED BY IDOCK:   12.94 KCAL/MOL
REMARK 927      BINDING AFFINITY PREDICTED BY RF-SCORE:    0.00 PKD
ROOT
HETATM    1  O   UNL     1      -9.809   9.927  67.914  1.00  0.00    -0.139 OA 
HETATM    2  C   UNL     1     -10.939  10.499  67.483  1.00  0.00    -0.303 C  
HETATM    3  C   UNL     2      -6.199  14.496  67.583  1.00  0.00    -0.080 C  
HETATM    4  N   UNL     2      -6.117  13.320  68.446  1.00  0.00    -0.078 NA 
HETATM    5  O   UNL     1     -11.882  10.726  68.226  1.00  0.00    -0.504 OA 
HETATM    6  C   UNL     1     -10.983  10.978  66.086  1.00  0.00    -0.157 C  
HETATM    7  C   UNL     1     -10.209  10.785  65.008  1.00  0.00    -0.373 C  
HETATM    8  O   UNL     1      -8.786   9.064  65.797  1.00  0.00    -0.148 OA 
HETATM    9  C   UNL     2      -6.549  13.668  69.804  1.00  0.00    -0.009 C  
HETATM   10  O   UNL     1      -8.243  10.156  63.900  1.00  0.00    -0.154 OA 
HETATM   11  C   UNL     1      -9.041   9.903  64.948  1.00  0.00    -0.224 C  
ENDROOT
BRANCH   4  12
HETATM   12  C   UNL     2      -6.901  12.183  67.944  1.00  0.00    -0.095 C  
BRANCH  12  13
HETATM   13  C   UNL     2      -8.011  12.574  66.951  1.00  0.00    -0.013 C  
HETATM   14  C   UNL     2      -9.008  13.626  67.484  1.00  0.00    -0.209 C  
HETATM   15  C   UNL     2     -10.243  13.759  66.592  1.00  0.00    -0.276 A  
HETATM   16  C   UNL     2      -8.329  14.964  67.780  1.00  0.00    -0.163 A  
HETATM   17  C   UNL     2     -10.155  14.075  65.235  1.00  0.00    -0.345 A  
HETATM   18  C   UNL     2      -7.625  15.685  66.798  1.00  0.00    -0.125 A  
HETATM   19  C   UNL     2      -6.973  16.878  67.115  1.00  0.00    -0.217 A  
HETATM   20  C   UNL     2     -11.320  14.219  64.487  1.00  0.00    -0.341 A  
HETATM   21  C   UNL     2      -7.007  17.358  68.421  1.00  0.00    -0.201 A  
HETATM   22  C   UNL     2     -12.550  14.028  65.098  1.00  0.00    -0.453 A  
HETATM   23  C   UNL     2     -12.561  13.690  66.439  1.00  0.00    -0.235 A  
HETATM   24 CL   UNL     2      -6.176  18.812  68.816  1.00  0.00    -0.235 Cl 
HETATM   25  C   UNL     2      -7.696  16.662  69.408  1.00  0.00     0.007 A  
HETATM   26  N   UNL     2     -11.446  13.547  67.189  1.00  0.00    -0.321 NA 
HETATM   27  C   UNL     2      -8.358  15.474  69.088  1.00  0.00    -0.253 A  
ENDBRANCH  12  13
ENDBRANCH   4  12
TORSDOF 2
ENDMDL
MODEL      172
REMARK 921   NORMALIZED FREE ENERGY PREDICTED BY IDOCK:    7.26 KCAL/MOL
REMARK 922        TOTAL FREE ENERGY PREDICTED BY IDOCK:    7.43 KCAL/MOL
REMARK 923 INTER-LIGAND FREE ENERGY PREDICTED BY IDOCK:    4.42 KCAL/MOL
REMARK 924 INTRA-LIGAND FREE ENERGY PREDICTED BY IDOCK:    3.01 KCAL/MOL
REMARK 927      BINDING AFFINITY PREDICTED BY RF-SCORE:    0.00 PKD
ROOT
HETATM    1  O   UNL     1     -12.322  11.586  67.092  1.00  0.00     0.056 OA 
HETATM    2  C   UNL     1     -11.476  12.594  66.846  1.00  0.00    -0.343 C  
HETATM    3  C   UNL     2     -10.946  10.472  72.649  1.00  0.00     6.403 C  
HETATM    4  N   UNL     2     -12.203  10.227  71.946  1.00  0.00    -0.190 NA 
HETATM    5  O   UNL     1     -11.856  13.746  66.701  1.00  0.00    -0.366 OA 
HETATM    6  C   UNL     1     -10.027  12.304  66.877  1.00  0.00    -0.223 C  
HETATM    7  C   UNL     1      -9.301  11.176  66.880  1.00  0.00    -0.189 C  
HETATM    8  O   UNL     1     -10.986   9.571  66.438  1.00  0.00     0.139 OA 
HETATM    9  C   UNL     2     -13.188  11.248  72.320  1.00  0.00     0.034 C  
HETATM   10  O   UNL     1      -8.966   8.875  67.162  1.00  0.00    -0.125 OA 
HETATM   11  C   UNL     1      -9.839   9.818  66.778  1.00  0.00    -0.208 C  
ENDROOT
BRANCH   4  12
HETATM   12  C   UNL     2     -12.047  10.188  70.486  1.00  0.00    -0.291 C  
BRANCH  12  13
HETATM   13  C   UNL     2     -10.594   9.992  70.014  1.00  0.00    -0.344 C  
HETATM   14  C   UNL     2      -9.683   9.265  71.026  1.00  0.00    -0.341 C  
HETATM   15  C   UNL     2      -8.204   9.358  70.645  1.00  0.00    -0.168 A  
HETATM   16  C   UNL     2     -10.149   7.834  71.296  1.00  0.00    -0.203 A  
HETATM   17  C   UNL     2      -7.719   8.910  69.415  1.00  0.00    -0.093 A  
HETATM   18  C   UNL     2     -10.284   6.880  70.272  1.00  0.00    -0.208 A  
HETATM   19  C   UNL     2     -10.762   5.597  70.546  1.00  0.00    -0.344 A  
HETATM   20  C   UNL     2      -6.355   8.987  69.146  1.00  0.00    -0.043 A  
HETATM   21  C   UNL     2     -11.123   5.258  71.847  1.00  0.00    -0.039 A  
HETATM   22  C   UNL     2      -5.502   9.525  70.098  1.00  0.00    -0.035 A  
HETATM   23  C   UNL     2      -6.055   9.973  71.283  1.00  0.00     0.077 A  
HETATM   24 CL   UNL     2     -11.741   3.687  72.177  1.00  0.00     1.749 Cl 
HETATM   25  C   UNL     2     -10.998   6.185  72.876  1.00  0.00    -0.294 A  
HETATM   26  N   UNL     2      -7.375   9.908  71.572  1.00  0.00     0.307 NA 
HETATM   27  C   UNL     2     -10.509   7.465  72.603  1.00  0.00    -0.303 A  
ENDBRANCH  12  13
ENDBRANCH   4  12
TORSDOF 2
ENDMDL
MODEL      173
REMARK 921   NORMALIZED FREE ENERGY PREDICTED BY IDOCK:    7.63 KCAL/MOL
REMARK 922        TOTAL FREE ENERGY PREDICTED BY IDOCK:    7.84 KCAL/MOL
REMARK 923 INTER-LIGAND FREE ENERGY PREDICTED BY IDOCK:   -5.04 KCAL/MOL
REMARK 924 INTRA-LIGAND FREE ENERGY PREDICTED BY IDOCK:   12.88 KCAL/MOL
REMARK 927      BINDING AFFINITY PREDICTED BY RF-SCORE:    0.00 PKD
ROOT
HETATM    1  O   UNL     1      -9.547   9.366  71.761  1.00  0.00    -0.239 OA 
HETATM    2  C   UNL     1     -10.483   8.589  72.319  1.00  0.00    -0.332 C  
HETATM    3  C   UNL     2      -7.458   5.677  67.754  1.00  0.00    -0.077 C  
HETATM    4  N   UNL     2      -7.461   7.139  67.746  1.00  0.00    -0.096 NA 
HETATM    5  O   UNL     1     -11.678   8.789  72.163  1.00  0.00    -0.357 OA 
HETATM    6  C   UNL     1     -10.036   7.380  73.043  1.00  0.00    -0.299 C  
HETATM    7  C   UNL     1      -8.849   6.947  73.493  1.00  0.00    -0.161 C  
HETATM    8  O   UNL     1      -7.522   8.879  73.152  1.00  0.00    -0.360 OA 
HETATM    9  C   UNL     2      -8.514   7.629  66.850  1.00  0.00    -0.126 C  
HETATM   10  O   UNL     1      -6.509   6.914  73.598  1.00  0.00    -0.066 OA 
HETATM   11  C   UNL     1      -7.589   7.689  73.416  1.00  0.00    -0.109 C  
ENDROOT
BRANCH   4  12
HETATM   12  C   UNL     2      -7.628   7.720  69.085  1.00  0.00    -0.099 C  
BRANCH  12  13
HETATM   13  C   UNL     2      -8.197   6.741  70.129  1.00  0.00    -0.133 C  
HETATM   14  C   UNL     2      -9.614   6.215  69.812  1.00  0.00    -0.174 C  
HETATM   15  C   UNL     2     -10.245   5.495  71.005  1.00  0.00    -0.223 A  
HETATM   16  C   UNL     2      -9.647   5.394  68.523  1.00  0.00    -0.169 A  
HETATM   17  C   UNL     2      -9.639   4.399  71.623  1.00  0.00    -0.227 A  
HETATM   18  C   UNL     2      -8.852   4.249  68.338  1.00  0.00    -0.135 A  
HETATM   19  C   UNL     2      -8.869   3.553  67.128  1.00  0.00    -0.146 A  
HETATM   20  C   UNL     2     -10.285   3.764  72.680  1.00  0.00    -0.238 A  
HETATM   21  C   UNL     2      -9.674   4.001  66.085  1.00  0.00    -0.186 A  
HETATM   22  C   UNL     2     -11.512   4.241  73.114  1.00  0.00    -0.190 A  
HETATM   23  C   UNL     2     -12.040   5.347  72.474  1.00  0.00     0.151 A  
HETATM   24 CL   UNL     2      -9.670   3.159  64.584  1.00  0.00    -0.148 Cl 
HETATM   25  C   UNL     2     -10.469   5.131  66.245  1.00  0.00    -0.341 A  
HETATM   26  N   UNL     2     -11.436   5.981  71.443  1.00  0.00    -0.248 NA 
HETATM   27  C   UNL     2     -10.460   5.821  67.460  1.00  0.00    -0.310 A  
ENDBRANCH  12  13
ENDBRANCH   4  12
TORSDOF 2
ENDMDL
MODEL      174
REMARK 921   NORMALIZED FREE ENERGY PREDICTED BY IDOCK:    7.77 KCAL/MOL
REMARK 922        TOTAL FREE ENERGY PREDICTED BY IDOCK:    7.99 KCAL/MOL
REMARK 923 INTER-LIGAND FREE ENERGY PREDICTED BY IDOCK:    5.05 KCAL/MOL
REMARK 924 INTRA-LIGAND FREE ENERGY PREDICTED BY IDOCK:    2.94 KCAL/MOL
REMARK 927      BINDING AFFINITY PREDICTED BY RF-SCORE:    0.00 PKD
ROOT
HETATM    1  O   UNL     1      -7.163  11.462  66.170  1.00  0.00    -0.010 OA 
HETATM    2  C   UNL     1      -6.006  12.032  66.526  1.00  0.00     0.349 C  
HETATM    3  C   UNL     2     -10.810  15.895  67.204  1.00  0.00    -0.267 C  
HETATM    4  N   UNL     2     -10.956  14.783  66.267  1.00  0.00    -0.325 NA 
HETATM    5  O   UNL     1      -5.149  12.338  65.711  1.00  0.00     0.747 OA 
HETATM    6  C   UNL     1      -5.829  12.409  67.944  1.00  0.00    -0.086 C  
HETATM    7  C   UNL     1      -6.486  12.116  69.077  1.00  0.00    -0.092 C  
HETATM    8  O   UNL     1      -7.948  10.420  68.307  1.00  0.00    -0.106 OA 
HETATM    9  C   UNL     2     -10.672  15.241  64.904  1.00  0.00    -0.400 C  
HETATM   10  O   UNL     1      -8.315  11.355  70.326  1.00  0.00     1.615 OA 
HETATM   11  C   UNL     1      -7.623  11.201  69.187  1.00  0.00    -0.098 C  
ENDROOT
BRANCH   4  12
HETATM   12  C   UNL     2     -10.103  13.635  66.601  1.00  0.00    -0.277 C  
BRANCH  12  13
HETATM   13  C   UNL     2     -10.859  12.452  67.235  1.00  0.00    -0.279 C  
HETATM   14  C   UNL     2     -10.513  12.189  68.717  1.00  0.00    -0.201 C  
HETATM   15  C   UNL     2     -11.055  10.844  69.208  1.00  0.00    -0.248 A  
HETATM   16  C   UNL     2     -10.903  13.362  69.616  1.00  0.00     0.189 A  
HETATM   17  C   UNL     2     -12.410  10.515  69.142  1.00  0.00     0.210 A  
HETATM   18  C   UNL     2     -12.221  13.846  69.695  1.00  0.00    -0.374 A  
HETATM   19  C   UNL     2     -12.533  14.952  70.486  1.00  0.00    -0.419 A  
HETATM   20  C   UNL     2     -12.842   9.290  69.643  1.00  0.00     2.075 A  
HETATM   21  C   UNL     2     -11.526  15.597  71.200  1.00  0.00    -0.411 A  
HETATM   22  C   UNL     2     -11.917   8.409  70.182  1.00  0.00     0.435 A  
HETATM   23  C   UNL     2     -10.588   8.790  70.189  1.00  0.00    -0.221 A  
HETATM   24 CL   UNL     2     -11.906  16.979  72.150  1.00  0.00     0.322 Cl 
HETATM   25  C   UNL     2     -10.215  15.136  71.137  1.00  0.00     0.867 A  
HETATM   26  N   UNL     2     -10.141   9.974  69.713  1.00  0.00    -0.239 NA 
HETATM   27  C   UNL     2      -9.906  14.022  70.353  1.00  0.00     2.295 A  
ENDBRANCH  12  13
ENDBRANCH   4  12
TORSDOF 2
ENDMDL
MODEL      175
REMARK 921   NORMALIZED FREE ENERGY PREDICTED BY IDOCK:    7.79 KCAL/MOL
REMARK 922        TOTAL FREE ENERGY PREDICTED BY IDOCK:    8.02 KCAL/MOL
REMARK 923 INTER-LIGAND FREE ENERGY PREDICTED BY IDOCK:   -4.83 KCAL/MOL
REMARK 924 INTRA-LIGAND FREE ENERGY PREDICTED BY IDOCK:   12.85 KCAL/MOL
REMARK 927      BINDING AFFINITY PREDICTED BY RF-SCORE:    0.00 PKD
ROOT
HETATM    1  O   UNL     1     -10.955   8.951  71.407  1.00  0.00    -0.259 OA 
HETATM    2  C   UNL     1     -11.159   7.709  70.953  1.00  0.00    -0.263 C  
HETATM    3  C   UNL     2      -7.994  11.176  66.900  1.00  0.00    -0.151 C  
HETATM    4  N   UNL     2      -8.819  11.866  67.890  1.00  0.00    -0.164 NA 
HETATM    5  O   UNL     1     -12.263   7.312  70.611  1.00  0.00    -0.250 OA 
HETATM    6  C   UNL     1      -9.979   6.844  70.748  1.00  0.00    -0.201 C  
HETATM    7  C   UNL     1      -8.693   6.915  71.124  1.00  0.00    -0.135 C  
HETATM    8  O   UNL     1      -8.780   8.741  72.631  1.00  0.00    -0.408 OA 
HETATM    9  C   UNL     2     -10.117  12.212  67.300  1.00  0.00    -0.202 C  
HETATM   10  O   UNL     1      -6.774   8.008  71.906  1.00  0.00    -0.058 OA 
HETATM   11  C   UNL     1      -8.113   7.957  71.974  1.00  0.00    -0.114 C  
ENDROOT
BRANCH   4  12
HETATM   12  C   UNL     2      -9.016  11.086  69.119  1.00  0.00     0.015 C  
BRANCH  12  13
HETATM   13  C   UNL     2      -8.738   9.580  68.958  1.00  0.00    -0.142 C  
HETATM   14  C   UNL     2      -9.602   8.877  67.889  1.00  0.00    -0.171 C  
HETATM   15  C   UNL     2      -9.503   7.353  67.974  1.00  0.00    -0.141 A  
HETATM   16  C   UNL     2      -9.337   9.423  66.486  1.00  0.00    -0.222 A  
HETATM   17  C   UNL     2      -8.286   6.676  67.882  1.00  0.00    -0.120 A  
HETATM   18  C   UNL     2      -8.059   9.406  65.900  1.00  0.00    -0.114 A  
HETATM   19  C   UNL     2      -7.842   9.959  64.637  1.00  0.00    -0.142 A  
HETATM   20  C   UNL     2      -8.269   5.284  67.928  1.00  0.00    -0.099 A  
HETATM   21  C   UNL     2      -8.899  10.548  63.950  1.00  0.00    -0.194 A  
HETATM   22  C   UNL     2      -9.462   4.594  68.083  1.00  0.00    -0.195 A  
HETATM   23  C   UNL     2     -10.627   5.330  68.194  1.00  0.00    -0.006 A  
HETATM   24 CL   UNL     2      -8.624  11.258  62.407  1.00  0.00    -0.307 Cl 
HETATM   25  C   UNL     2     -10.172  10.577  64.510  1.00  0.00    -0.355 A  
HETATM   26  N   UNL     2     -10.672   6.680  68.150  1.00  0.00    -0.239 NA 
HETATM   27  C   UNL     2     -10.391  10.012  65.769  1.00  0.00    -0.191 A  
ENDBRANCH  12  13
ENDBRANCH   4  12
TORSDOF 2
ENDMDL
MODEL      176
REMARK 921   NORMALIZED FREE ENERGY PREDICTED BY IDOCK:    8.16 KCAL/MOL
REMARK 922        TOTAL FREE ENERGY PREDICTED BY IDOCK:    8.43 KCAL/MOL
REMARK 923 INTER-LIGAND FREE ENERGY PREDICTED BY IDOCK:   -4.64 KCAL/MOL
REMARK 924 INTRA-LIGAND FREE ENERGY PREDICTED BY IDOCK:   13.07 KCAL/MOL
REMARK 927      BINDING AFFINITY PREDICTED BY RF-SCORE:    0.00 PKD
ROOT
HETATM    1  O   UNL     1      -9.931  12.750  63.950  1.00  0.00    -0.317 OA 
HETATM    2  C   UNL     1      -9.898  11.761  64.851  1.00  0.00    -0.223 C  
HETATM    3  C   UNL     2      -8.813  17.295  67.430  1.00  0.00    -0.218 C  
HETATM    4  N   UNL     2      -8.560  17.149  65.998  1.00  0.00    -0.520 NA 
HETATM    5  O   UNL     1      -8.996  10.938  64.886  1.00  0.00    -0.193 OA 
HETATM    6  C   UNL     1     -10.931  11.754  65.908  1.00  0.00    -0.354 C  
HETATM    7  C   UNL     1     -12.091  12.404  66.084  1.00  0.00    -0.295 C  
HETATM    8  O   UNL     1     -12.340  13.431  63.964  1.00  0.00    -0.588 OA 
HETATM    9  C   UNL     2      -7.137  16.883  65.769  1.00  0.00     0.700 C  
HETATM   10  O   UNL     1     -13.645  14.109  65.674  1.00  0.00    -0.470 OA 
HETATM   11  C   UNL     1     -12.699  13.331  65.127  1.00  0.00    -0.402 C  
ENDROOT
BRANCH   4  12
HETATM   12  C   UNL     2      -9.376  16.098  65.375  1.00  0.00     0.375 C  
BRANCH  12  13
HETATM   13  C   UNL     2     -10.000  15.110  66.378  1.00  0.00    -0.288 C  
HETATM   14  C   UNL     2      -8.978  14.246  67.148  1.00  0.00    -0.237 C  
HETATM   15  C   UNL     2      -9.645  13.091  67.899  1.00  0.00    -0.215 A  
HETATM   16  C   UNL     2      -8.060  15.091  68.032  1.00  0.00    -0.132 A  
HETATM   17  C   UNL     2     -10.652  13.296  68.843  1.00  0.00    -0.167 A  
HETATM   18  C   UNL     2      -8.556  15.942  69.036  1.00  0.00    -0.239 A  
HETATM   19  C   UNL     2      -7.693  16.739  69.790  1.00  0.00     0.713 A  
HETATM   20  C   UNL     2     -11.190  12.204  69.520  1.00  0.00    -0.201 A  
HETATM   21  C   UNL     2      -6.324  16.704  69.539  1.00  0.00    -0.227 A  
HETATM   22  C   UNL     2     -10.729  10.929  69.231  1.00  0.00    -0.271 A  
HETATM   23  C   UNL     2      -9.748  10.798  68.265  1.00  0.00    -0.164 A  
HETATM   24 CL   UNL     2      -5.266  17.711  70.448  1.00  0.00    -0.236 Cl 
HETATM   25  C   UNL     2      -5.811  15.871  68.551  1.00  0.00    -0.103 A  
HETATM   26  N   UNL     2      -9.206  11.840  67.595  1.00  0.00    -0.176 NA 
HETATM   27  C   UNL     2      -6.675  15.065  67.804  1.00  0.00    -0.188 A  
ENDBRANCH  12  13
ENDBRANCH   4  12
TORSDOF 2
ENDMDL
MODEL      177
REMARK 921   NORMALIZED FREE ENERGY PREDICTED BY IDOCK:    9.15 KCAL/MOL
REMARK 922        TOTAL FREE ENERGY PREDICTED BY IDOCK:    9.53 KCAL/MOL
REMARK 923 INTER-LIGAND FREE ENERGY PREDICTED BY IDOCK:   -5.05 KCAL/MOL
REMARK 924 INTRA-LIGAND FREE ENERGY PREDICTED BY IDOCK:   14.58 KCAL/MOL
REMARK 927      BINDING AFFINITY PREDICTED BY RF-SCORE:    0.00 PKD
ROOT
HETATM    1  O   UNL     1      -6.585  15.823  70.615  1.00  0.00     0.300 OA 
HETATM    2  C   UNL     1      -5.664  15.499  69.700  1.00  0.00    -0.119 C  
HETATM    3  C   UNL     2     -11.329  15.999  67.225  1.00  0.00     0.053 C  
HETATM    4  N   UNL     2     -11.232  15.734  68.659  1.00  0.00    -0.329 NA 
HETATM    5  O   UNL     1      -5.132  14.400  69.668  1.00  0.00    -0.091 OA 
HETATM    6  C   UNL     1      -5.385  16.473  68.624  1.00  0.00    -0.117 C  
HETATM    7  C   UNL     1      -5.682  17.768  68.436  1.00  0.00    -0.160 C  
HETATM    8  O   UNL     1      -6.553  18.327  70.566  1.00  0.00     0.528 OA 
HETATM    9  C   UNL     2     -11.377  14.297  68.910  1.00  0.00    -0.274 C  
HETATM   10  O   UNL     1      -6.866  19.747  68.842  1.00  0.00    -0.316 OA 
HETATM   11  C   UNL     1      -6.378  18.627  69.396  1.00  0.00    -0.267 C  
ENDROOT
BRANCH   4  12
HETATM   12  C   UNL     2      -9.980  16.226  69.251  1.00  0.00    -0.259 C  
BRANCH  12  13
HETATM   13  C   UNL     2      -9.165  17.146  68.323  1.00  0.00    -0.262 C  
HETATM   14  C   UNL     2      -8.461  16.421  67.156  1.00  0.00    -0.208 C  
HETATM   15  C   UNL     2      -7.439  17.314  66.451  1.00  0.00    -0.301 A  
HETATM   16  C   UNL     2      -9.460  15.770  66.197  1.00  0.00    -0.375 A  
HETATM   17  C   UNL     2      -7.784  18.545  65.888  1.00  0.00    -0.130 A  
HETATM   18  C   UNL     2     -10.459  16.507  65.537  1.00  0.00    -0.320 A  
HETATM   19  C   UNL     2     -11.387  15.873  64.708  1.00  0.00    -0.314 A  
HETATM   20  C   UNL     2      -6.813  19.292  65.226  1.00  0.00    -0.184 A  
HETATM   21  C   UNL     2     -11.333  14.493  64.540  1.00  0.00    -0.316 A  
HETATM   22  C   UNL     2      -5.515  18.809  65.151  1.00  0.00    -0.236 A  
HETATM   23  C   UNL     2      -5.240  17.596  65.753  1.00  0.00    -0.120 A  
HETATM   24 CL   UNL     2     -12.497  13.710  63.544  1.00  0.00    -0.328 Cl 
HETATM   25  C   UNL     2     -10.354  13.744  65.184  1.00  0.00    -0.391 A  
HETATM   26  N   UNL     2      -6.163  16.849  66.400  1.00  0.00    -0.275 NA 
HETATM   27  C   UNL     2      -9.418  14.380  66.004  1.00  0.00    -0.239 A  
ENDBRANCH  12  13
ENDBRANCH   4  12
TORSDOF 2
ENDMDL
MODEL      178
REMARK 921   NORMALIZED FREE ENERGY PREDICTED BY IDOCK:    9.22 KCAL/MOL
REMARK 922        TOTAL FREE ENERGY PREDICTED BY IDOCK:    9.61 KCAL/MOL
REMARK 923 INTER-LIGAND FREE ENERGY PREDICTED BY IDOCK:    3.12 KCAL/MOL
REMARK 924 INTRA-LIGAND FREE ENERGY PREDICTED BY IDOCK:    6.49 KCAL/MOL
REMARK 927      BINDING AFFINITY PREDICTED BY RF-SCORE:    0.00 PKD
ROOT
HETATM    1  O   UNL     1     -10.204   7.293  69.729  1.00  0.00    -0.200 OA 
HETATM    2  C   UNL     1      -9.654   6.617  70.745  1.00  0.00    -0.175 C  
HETATM    3  C   UNL     2      -6.687  11.945  69.615  1.00  0.00    -0.009 C  
HETATM    4  N   UNL     2      -7.473  11.359  68.531  1.00  0.00    -0.106 NA 
HETATM    5  O   UNL     1      -9.030   5.580  70.578  1.00  0.00    -0.132 OA 
HETATM    6  C   UNL     1      -9.706   7.226  72.090  1.00  0.00    -0.177 C  
HETATM    7  C   UNL     1     -10.393   8.246  72.627  1.00  0.00    -0.374 C  
HETATM    8  O   UNL     1     -11.918   8.714  70.876  1.00  0.00    -0.276 OA 
HETATM    9  C   UNL     2      -6.597  10.586  67.644  1.00  0.00    -0.065 C  
HETATM   10  O   UNL     1     -11.678  10.203  72.553  1.00  0.00     1.229 OA 
HETATM   11  C   UNL     1     -11.410   9.042  71.937  1.00  0.00    -0.368 C  
ENDROOT
BRANCH   4  12
HETATM   12  C   UNL     2      -8.575  10.515  69.012  1.00  0.00    -0.157 C  
BRANCH  12  13
HETATM   13  C   UNL     2      -8.520   9.061  68.507  1.00  0.00    -0.128 C  
HETATM   14  C   UNL     2      -8.996   8.869  67.051  1.00  0.00    -0.145 C  
HETATM   15  C   UNL     2      -9.204   7.394  66.700  1.00  0.00    -0.158 A  
HETATM   16  C   UNL     2      -8.106   9.609  66.052  1.00  0.00    -0.112 A  
HETATM   17  C   UNL     2      -8.187   6.446  66.821  1.00  0.00    -0.110 A  
HETATM   18  C   UNL     2      -6.724   9.369  65.953  1.00  0.00    -0.081 A  
HETATM   19  C   UNL     2      -5.932  10.099  65.066  1.00  0.00    -0.122 A  
HETATM   20  C   UNL     2      -8.430   5.127  66.447  1.00  0.00    -0.112 A  
HETATM   21  C   UNL     2      -6.511  11.089  64.276  1.00  0.00     0.790 A  
HETATM   22  C   UNL     2      -9.686   4.773  65.977  1.00  0.00    -0.205 A  
HETATM   23  C   UNL     2     -10.653   5.758  65.908  1.00  0.00     0.357 A  
HETATM   24 CL   UNL     2      -5.528  12.010  63.206  1.00  0.00     2.675 Cl 
HETATM   25  C   UNL     2      -7.876  11.344  64.358  1.00  0.00     1.253 A  
HETATM   26  N   UNL     2     -10.444   7.047  66.262  1.00  0.00     0.229 NA 
HETATM   27  C   UNL     2      -8.670  10.604  65.238  1.00  0.00    -0.198 A  
ENDBRANCH  12  13
ENDBRANCH   4  12
TORSDOF 2
ENDMDL
MODEL      179
REMARK 921   NORMALIZED FREE ENERGY PREDICTED BY IDOCK:    9.74 KCAL/MOL
REMARK 922        TOTAL FREE ENERGY PREDICTED BY IDOCK:   10.19 KCAL/MOL
REMARK 923 INTER-LIGAND FREE ENERGY PREDICTED BY IDOCK:   -5.06 KCAL/MOL
REMARK 924 INTRA-LIGAND FREE ENERGY PREDICTED BY IDOCK:   15.25 KCAL/MOL
REMARK 927      BINDING AFFINITY PREDICTED BY RF-SCORE:    0.00 PKD
ROOT
HETATM    1  O   UNL     1      -6.580  13.068  69.306  1.00  0.00    -0.107 OA 
HETATM    2  C   UNL     1      -5.947  13.475  68.200  1.00  0.00    -0.115 C  
HETATM    3  C   UNL     2     -12.013  12.620  67.232  1.00  0.00    -0.253 C  
HETATM    4  N   UNL     2     -11.396  11.915  68.354  1.00  0.00    -0.250 NA 
HETATM    5  O   UNL     1      -5.173  12.756  67.587  1.00  0.00    -0.104 OA 
HETATM    6  C   UNL     1      -6.303  14.798  67.646  1.00  0.00    -0.139 C  
HETATM    7  C   UNL     1      -6.987  15.853  68.115  1.00  0.00    -0.124 C  
HETATM    8  O   UNL     1      -7.252  15.227  70.383  1.00  0.00     0.116 OA 
HETATM    9  C   UNL     2     -11.053  10.547  67.953  1.00  0.00    -0.304 C  
HETATM   10  O   UNL     1      -8.475  16.936  69.564  1.00  0.00     0.125 OA 
HETATM   11  C   UNL     1      -7.549  15.971  69.462  1.00  0.00    -0.100 C  
ENDROOT
BRANCH   4  12
HETATM   12  C   UNL     2     -10.205  12.600  68.877  1.00  0.00     0.017 C  
BRANCH  12  13
HETATM   13  C   UNL     2     -10.100  14.080  68.466  1.00  0.00    -0.236 C  
HETATM   14  C   UNL     2      -9.598  14.312  67.024  1.00  0.00    -0.260 C  
HETATM   15  C   UNL     2      -9.229  15.774  66.767  1.00  0.00    -0.243 A  
HETATM   16  C   UNL     2     -10.557  13.737  65.982  1.00  0.00    -0.290 A  
HETATM   17  C   UNL     2     -10.139  16.818  66.949  1.00  0.00    -0.286 A  
HETATM   18  C   UNL     2     -11.905  14.132  65.900  1.00  0.00    -0.391 A  
HETATM   19  C   UNL     2     -12.767  13.549  64.969  1.00  0.00    -0.399 A  
HETATM   20  C   UNL     2      -9.752  18.123  66.659  1.00  0.00    -0.334 A  
HETATM   21  C   UNL     2     -12.294  12.555  64.118  1.00  0.00    -0.462 A  
HETATM   22  C   UNL     2      -8.463  18.368  66.211  1.00  0.00    -0.218 A  
HETATM   23  C   UNL     2      -7.607  17.290  66.078  1.00  0.00    -0.191 A  
HETATM   24 CL   UNL     2     -13.365  11.816  62.993  1.00  0.00     0.393 Cl 
HETATM   25  C   UNL     2     -10.965  12.148  64.181  1.00  0.00    -0.416 A  
HETATM   26  N   UNL     2      -7.957  16.013  66.350  1.00  0.00    -0.238 NA 
HETATM   27  C   UNL     2     -10.100  12.740  65.104  1.00  0.00    -0.246 A  
ENDBRANCH  12  13
ENDBRANCH   4  12
TORSDOF 2
ENDMDL
MODEL      180
REMARK 921   NORMALIZED FREE ENERGY PREDICTED BY IDOCK:   10.81 KCAL/MOL
REMARK 922        TOTAL FREE ENERGY PREDICTED BY IDOCK:   11.39 KCAL/MOL
REMARK 923 INTER-LIGAND FREE ENERGY PREDICTED BY IDOCK:   10.66 KCAL/MOL
REMARK 924 INTRA-LIGAND FREE ENERGY PREDICTED BY IDOCK:    0.74 KCAL/MOL
REMARK 927      BINDING AFFINITY PREDICTED BY RF-SCORE:    0.00 PKD
ROOT
HETATM    1  O   UNL     1      -5.976  15.942  71.029  1.00  0.00     0.210 OA 
HETATM    2  C   UNL     1      -5.913  16.138  72.351  1.00  0.00     2.073 C  
HETATM    3  C   UNL     2     -11.701  14.989  70.444  1.00  0.00    -0.291 C  
HETATM    4  N   UNL     2     -10.749  15.504  69.462  1.00  0.00    -0.250 NA 
HETATM    5  O   UNL     1      -5.689  17.235  72.840  1.00  0.00     1.237 OA 
HETATM    6  C   UNL     1      -6.249  15.002  73.235  1.00  0.00     1.423 C  
HETATM    7  C   UNL     1      -6.407  13.684  73.043  1.00  0.00     1.887 C  
HETATM    8  O   UNL     1      -5.622  13.472  70.818  1.00  0.00    -0.154 OA 
HETATM    9  C   UNL     2     -10.905  16.956  69.333  1.00  0.00    -0.186 C  
HETATM   10  O   UNL     1      -6.756  11.761  71.752  1.00  0.00     2.857 OA 
HETATM   11  C   UNL     1      -6.196  12.979  71.777  1.00  0.00     1.809 C  
ENDROOT
BRANCH   4  12
HETATM   12  C   UNL     2      -9.355  15.173  69.785  1.00  0.00    -0.005 C  
BRANCH  12  13
HETATM   13  C   UNL     2      -9.028  13.671  69.700  1.00  0.00     1.454 C  
HETATM   14  C   UNL     2     -10.161  12.800  69.115  1.00  0.00     0.309 C  
HETATM   15  C   UNL     2      -9.909  11.305  69.324  1.00  0.00     0.094 A  
HETATM   16  C   UNL     2     -10.474  13.163  67.663  1.00  0.00    -0.225 A  
HETATM   17  C   UNL     2      -8.757  10.669  68.859  1.00  0.00    -0.163 A  
HETATM   18  C   UNL     2      -9.502  13.116  66.648  1.00  0.00    -0.260 A  
HETATM   19  C   UNL     2      -9.810  13.503  65.343  1.00  0.00    -0.141 A  
HETATM   20  C   UNL     2      -8.607   9.297  69.049  1.00  0.00    -0.134 A  
HETATM   21  C   UNL     2     -11.091  13.955  65.040  1.00  0.00    -0.353 A  
HETATM   22  C   UNL     2      -9.598   8.589  69.712  1.00  0.00    -0.170 A  
HETATM   23  C   UNL     2     -10.699   9.289  70.169  1.00  0.00    -0.235 A  
HETATM   24 CL   UNL     2     -11.460  14.462  63.438  1.00  0.00     1.002 Cl 
HETATM   25  C   UNL     2     -12.069  14.010  66.028  1.00  0.00    -0.461 A  
HETATM   26  N   UNL     2     -10.871  10.619  69.997  1.00  0.00    -0.257 NA 
HETATM   27  C   UNL     2     -11.763  13.611  67.332  1.00  0.00    -0.416 A  
ENDBRANCH  12  13
ENDBRANCH   4  12
TORSDOF 2
ENDMDL
MODEL      181
REMARK 921   NORMALIZED FREE ENERGY PREDICTED BY IDOCK:   11.02 KCAL/MOL
REMARK 922        TOTAL FREE ENERGY PREDICTED BY IDOCK:   11.62 KCAL/MOL
REMARK 923 INTER-LIGAND FREE ENERGY PREDICTED BY IDOCK:   -2.89 KCAL/MOL
REMARK 924 INTRA-LIGAND FREE ENERGY PREDICTED BY IDOCK:   14.51 KCAL/MOL
REMARK 927      BINDING AFFINITY PREDICTED BY RF-SCORE:    0.00 PKD
ROOT
HETATM    1  O   UNL     1     -11.441   8.462  70.638  1.00  0.00    -0.267 OA 
HETATM    2  C   UNL     1     -11.760   7.172  70.793  1.00  0.00    -0.323 C  
HETATM    3  C   UNL     2      -6.152   7.894  68.247  1.00  0.00    -0.041 C  
HETATM    4  N   UNL     2      -7.103   8.996  68.123  1.00  0.00    -0.077 NA 
HETATM    5  O   UNL     1     -12.618   6.624  70.118  1.00  0.00     0.093 OA 
HETATM    6  C   UNL     1     -10.951   6.368  71.733  1.00  0.00    -0.298 C  
HETATM    7  C   UNL     1     -10.058   6.667  72.688  1.00  0.00    -0.191 C  
HETATM    8  O   UNL     1     -10.316   9.018  72.806  1.00  0.00     0.267 OA 
HETATM    9  C   UNL     2      -7.778   8.926  66.822  1.00  0.00    -0.097 C  
HETATM   10  O   UNL     1      -8.537   8.056  73.803  1.00  0.00    -0.240 OA 
HETATM   11  C   UNL     1      -9.684   8.018  73.108  1.00  0.00    -0.270 C  
ENDROOT
BRANCH   4  12
HETATM   12  C   UNL     2      -8.097   9.021  69.205  1.00  0.00    -0.109 C  
BRANCH  12  13
HETATM   13  C   UNL     2      -7.958   7.866  70.214  1.00  0.00    -0.102 C  
HETATM   14  C   UNL     2      -8.440   6.495  69.691  1.00  0.00    -0.131 C  
HETATM   15  C   UNL     2      -8.559   5.458  70.809  1.00  0.00    -0.128 A  
HETATM   16  C   UNL     2      -7.611   6.009  68.502  1.00  0.00    -0.091 A  
HETATM   17  C   UNL     2      -7.483   5.116  71.630  1.00  0.00    -0.096 A  
HETATM   18  C   UNL     2      -6.218   5.832  68.577  1.00  0.00    -0.029 A  
HETATM   19  C   UNL     2      -5.484   5.436  67.457  1.00  0.00    -0.012 A  
HETATM   20  C   UNL     2      -7.648   4.135  72.604  1.00  0.00    -0.075 A  
HETATM   21  C   UNL     2      -6.134   5.226  66.244  1.00  0.00    -0.030 A  
HETATM   22  C   UNL     2      -8.885   3.527  72.756  1.00  0.00    -0.100 A  
HETATM   23  C   UNL     2      -9.913   3.934  71.926  1.00  0.00    -0.168 A  
HETATM   24 CL   UNL     2      -5.225   4.770  64.857  1.00  0.00    -0.012 Cl 
HETATM   25  C   UNL     2      -7.511   5.396  66.146  1.00  0.00    -0.083 A  
HETATM   26  N   UNL     2      -9.780   4.881  70.970  1.00  0.00    -0.173 NA 
HETATM   27  C   UNL     2      -8.246   5.781  67.270  1.00  0.00    -0.102 A  
ENDBRANCH  12  13
ENDBRANCH   4  12
TORSDOF 2
ENDMDL
MODEL      182
REMARK 921   NORMALIZED FREE ENERGY PREDICTED BY IDOCK:   11.90 KCAL/MOL
REMARK 922        TOTAL FREE ENERGY PREDICTED BY IDOCK:   12.61 KCAL/MOL
REMARK 923 INTER-LIGAND FREE ENERGY PREDICTED BY IDOCK:    8.21 KCAL/MOL
REMARK 924 INTRA-LIGAND FREE ENERGY PREDICTED BY IDOCK:    4.40 KCAL/MOL
REMARK 927      BINDING AFFINITY PREDICTED BY RF-SCORE:    0.00 PKD
ROOT
HETATM    1  O   UNL     1      -9.126  11.334  63.343  1.00  0.00    -0.183 OA 
HETATM    2  C   UNL     1      -7.997  10.624  63.445  1.00  0.00     0.029 C  
HETATM    3  C   UNL     2      -7.940  15.625  67.111  1.00  0.00    -0.219 C  
HETATM    4  N   UNL     2      -8.835  15.637  65.957  1.00  0.00    -0.276 NA 
HETATM    5  O   UNL     1      -7.170  10.576  62.547  1.00  0.00    -0.143 OA 
HETATM    6  C   UNL     1      -7.698   9.982  64.743  1.00  0.00    -0.142 C  
HETATM    7  C   UNL     1      -8.415   9.737  65.850  1.00  0.00    -0.136 C  
HETATM    8  O   UNL     1     -10.587  10.304  65.097  1.00  0.00    -0.136 OA 
HETATM    9  C   UNL     2      -8.198  16.343  64.841  1.00  0.00     5.126 C  
HETATM   10  O   UNL     1     -10.226  10.029  67.306  1.00  0.00    -0.196 OA 
HETATM   11  C   UNL     1      -9.839  10.028  66.021  1.00  0.00    -0.257 C  
ENDROOT
BRANCH   4  12
HETATM   12  C   UNL     2      -9.243  14.291  65.533  1.00  0.00     0.554 C  
BRANCH  12  13
HETATM   13  C   UNL     2     -10.359  13.671  66.395  1.00  0.00    -0.286 C  
HETATM   14  C   UNL     2     -10.269  14.006  67.900  1.00  0.00    -0.240 C  
HETATM   15  C   UNL     2     -11.207  13.140  68.743  1.00  0.00    -0.281 A  
HETATM   16  C   UNL     2     -10.425  15.503  68.167  1.00  0.00    -0.259 A  
HETATM   17  C   UNL     2     -12.584  13.092  68.519  1.00  0.00     0.704 A  
HETATM   18  C   UNL     2     -11.562  16.226  67.764  1.00  0.00     0.136 A  
HETATM   19  C   UNL     2     -11.649  17.602  67.978  1.00  0.00     1.031 A  
HETATM   20  C   UNL     2     -13.388  12.313  69.348  1.00  0.00     2.909 A  
HETATM   21  C   UNL     2     -10.593  18.275  68.586  1.00  0.00    -0.010 A  
HETATM   22  C   UNL     2     -12.804  11.584  70.372  1.00  0.00    -0.021 A  
HETATM   23  C   UNL     2     -11.431  11.658  70.519  1.00  0.00     0.268 A  
HETATM   24 CL   UNL     2     -10.688  19.977  68.820  1.00  0.00    -0.007 Cl 
HETATM   25  C   UNL     2      -9.458  17.581  68.992  1.00  0.00    -0.109 A  
HETATM   26  N   UNL     2     -10.628  12.407  69.731  1.00  0.00     0.581 NA 
HETATM   27  C   UNL     2      -9.377  16.201  68.788  1.00  0.00    -0.229 A  
ENDBRANCH  12  13
ENDBRANCH   4  12
TORSDOF 2
ENDMDL
MODEL      183
REMARK 921   NORMALIZED FREE ENERGY PREDICTED BY IDOCK:   15.13 KCAL/MOL
REMARK 922        TOTAL FREE ENERGY PREDICTED BY IDOCK:   16.22 KCAL/MOL
REMARK 923 INTER-LIGAND FREE ENERGY PREDICTED BY IDOCK:   16.94 KCAL/MOL
REMARK 924 INTRA-LIGAND FREE ENERGY PREDICTED BY IDOCK:   -0.72 KCAL/MOL
REMARK 927      BINDING AFFINITY PREDICTED BY RF-SCORE:    0.00 PKD
ROOT
HETATM    1  O   UNL     1      -8.917  18.692  69.886  1.00  0.00     0.875 OA 
HETATM    2  C   UNL     1      -8.255  19.796  70.251  1.00  0.00     1.256 C  
HETATM    3  C   UNL     2      -5.236  14.627  71.871  1.00  0.00    -0.131 C  
HETATM    4  N   UNL     2      -6.678  14.534  71.652  1.00  0.00     0.857 NA 
HETATM    5  O   UNL     1      -8.645  20.525  71.151  1.00  0.00     1.172 OA 
HETATM    6  C   UNL     1      -6.946  20.059  69.617  1.00  0.00    -0.176 C  
HETATM    7  C   UNL     1      -6.308  19.557  68.549  1.00  0.00    -0.287 C  
HETATM    8  O   UNL     1      -8.035  18.255  67.583  1.00  0.00    -0.236 OA 
HETATM    9  C   UNL     2      -7.382  14.625  72.935  1.00  0.00     4.937 C  
HETATM   10  O   UNL     1      -5.914  17.967  66.875  1.00  0.00    -0.136 OA 
HETATM   11  C   UNL     1      -6.854  18.561  67.625  1.00  0.00    -0.204 C  
ENDROOT
BRANCH   4  12
HETATM   12  C   UNL     2      -7.185  15.555  70.725  1.00  0.00     1.333 C  
BRANCH  12  13
HETATM   13  C   UNL     2      -8.714  15.537  70.546  1.00  0.00     1.517 C  
HETATM   14  C   UNL     2      -9.188  15.377  69.085  1.00  0.00    -0.242 C  
HETATM   15  C   UNL     2     -10.683  15.662  68.927  1.00  0.00    -0.238 A  
HETATM   16  C   UNL     2      -8.760  14.038  68.485  1.00  0.00    -0.156 A  
HETATM   17  C   UNL     2     -11.657  14.966  69.646  1.00  0.00    -0.337 A  
HETATM   18  C   UNL     2      -9.124  12.805  69.057  1.00  0.00     0.499 A  
HETATM   19  C   UNL     2      -8.673  11.602  68.513  1.00  0.00    -0.130 A  
HETATM   20  C   UNL     2     -13.003  15.247  69.426  1.00  0.00     0.555 A  
HETATM   21  C   UNL     2      -7.842  11.617  67.396  1.00  0.00    -0.147 A  
HETATM   22  C   UNL     2     -13.354  16.226  68.508  1.00  0.00     4.345 A  
HETATM   23  C   UNL     2     -12.336  16.892  67.852  1.00  0.00     2.260 A  
HETATM   24 CL   UNL     2      -7.261  10.134  66.745  1.00  0.00    -0.091 Cl 
HETATM   25  C   UNL     2      -7.469  12.824  66.814  1.00  0.00     0.379 A  
HETATM   26  N   UNL     2     -11.022  16.639  68.044  1.00  0.00    -0.343 NA 
HETATM   27  C   UNL     2      -7.930  14.028  67.352  1.00  0.00    -0.191 A  
ENDBRANCH  12  13
ENDBRANCH   4  12
TORSDOF 2
ENDMDL
MODEL      184
REMARK 921   NORMALIZED FREE ENERGY PREDICTED BY IDOCK:   15.88 KCAL/MOL
REMARK 922        TOTAL FREE ENERGY PREDICTED BY IDOCK:   17.05 KCAL/MOL
REMARK 923 INTER-LIGAND FREE ENERGY PREDICTED BY IDOCK:    6.72 KCAL/MOL
REMARK 924 INTRA-LIGAND FREE ENERGY PREDICTED BY IDOCK:   10.33 KCAL/MOL
REMARK 927      BINDING AFFINITY PREDICTED BY RF-SCORE:    0.00 PKD
ROOT
HETATM    1  O   UNL     1     -11.180  19.481  70.683  1.00  0.00     3.139 OA 
HETATM    2  C   UNL     1     -10.114  19.844  71.406  1.00  0.00     2.574 C  
HETATM    3  C   UNL     2      -9.572  14.075  69.195  1.00  0.00     0.201 C  
HETATM    4  N   UNL     2     -10.916  14.631  69.326  1.00  0.00    -0.253 NA 
HETATM    5  O   UNL     1     -10.161  19.979  72.619  1.00  0.00     2.549 OA 
HETATM    6  C   UNL     1      -8.815  19.961  70.711  1.00  0.00     1.936 C  
HETATM    7  C   UNL     1      -8.446  20.006  69.422  1.00  0.00     0.441 C  
HETATM    8  O   UNL     1     -10.559  20.218  68.372  1.00  0.00    -0.265 OA 
HETATM    9  C   UNL     2     -11.520  14.182  70.585  1.00  0.00    -0.004 C  
HETATM   10  O   UNL     1      -8.756  19.698  67.121  1.00  0.00    -0.292 OA 
HETATM   11  C   UNL     1      -9.359  20.011  68.277  1.00  0.00    -0.210 C  
ENDROOT
BRANCH   4  12
HETATM   12  C   UNL     2     -10.941  16.098  69.250  1.00  0.00    -0.315 C  
BRANCH  12  13
HETATM   13  C   UNL     2      -9.910  16.696  68.275  1.00  0.00    -0.253 C  
HETATM   14  C   UNL     2      -8.712  15.772  67.962  1.00  0.00    -0.171 C  
HETATM   15  C   UNL     2      -7.584  16.511  67.239  1.00  0.00    -0.161 A  
HETATM   16  C   UNL     2      -9.146  14.489  67.253  1.00  0.00    -0.217 A  
HETATM   17  C   UNL     2      -7.783  17.181  66.031  1.00  0.00    -0.193 A  
HETATM   18  C   UNL     2      -9.846  14.501  66.033  1.00  0.00    -0.342 A  
HETATM   19  C   UNL     2     -10.272  13.312  65.440  1.00  0.00    -0.304 A  
HETATM   20  C   UNL     2      -6.705  17.801  65.404  1.00  0.00     0.229 A  
HETATM   21  C   UNL     2     -10.015  12.096  66.066  1.00  0.00    -0.236 A  
HETATM   22  C   UNL     2      -5.454  17.757  66.001  1.00  0.00    -0.242 A  
HETATM   23  C   UNL     2      -5.336  17.099  67.211  1.00  0.00    -0.141 A  
HETATM   24 CL   UNL     2     -10.568  10.634  65.348  1.00  0.00    -0.245 Cl 
HETATM   25  C   UNL     2      -9.325  12.059  67.273  1.00  0.00    -0.180 A  
HETATM   26  N   UNL     2      -6.365  16.487  67.839  1.00  0.00    -0.129 NA 
HETATM   27  C   UNL     2      -8.888  13.249  67.861  1.00  0.00    -0.192 A  
ENDBRANCH  12  13
ENDBRANCH   4  12
TORSDOF 2
ENDMDL
MODEL      185
REMARK 921   NORMALIZED FREE ENERGY PREDICTED BY IDOCK:   16.19 KCAL/MOL
REMARK 922        TOTAL FREE ENERGY PREDICTED BY IDOCK:   17.40 KCAL/MOL
REMARK 923 INTER-LIGAND FREE ENERGY PREDICTED BY IDOCK:   18.19 KCAL/MOL
REMARK 924 INTRA-LIGAND FREE ENERGY PREDICTED BY IDOCK:   -0.79 KCAL/MOL
REMARK 927      BINDING AFFINITY PREDICTED BY RF-SCORE:    0.00 PKD
ROOT
HETATM    1  O   UNL     1      -6.478  16.982  65.759  1.00  0.00     0.061 OA 
HETATM    2  C   UNL     1      -5.952  18.100  66.273  1.00  0.00    -0.184 C  
HETATM    3  C   UNL     2     -11.303  16.574  69.011  1.00  0.00    -0.181 C  
HETATM    4  N   UNL     2     -11.053  16.056  67.668  1.00  0.00    -0.288 NA 
HETATM    5  O   UNL     1      -5.918  19.152  65.653  1.00  0.00    -0.169 OA 
HETATM    6  C   UNL     1      -5.515  18.073  67.684  1.00  0.00    -0.147 C  
HETATM    7  C   UNL     1      -5.301  17.095  68.577  1.00  0.00    -0.136 C  
HETATM    8  O   UNL     1      -5.462  15.189  67.180  1.00  0.00    -0.262 OA 
HETATM    9  C   UNL     2     -11.708  16.914  66.675  1.00  0.00     1.615 C  
HETATM   10  O   UNL     1      -5.500  14.918  69.419  1.00  0.00    -0.091 OA 
HETATM   11  C   UNL     1      -5.405  15.660  68.305  1.00  0.00    -0.108 C  
ENDROOT
BRANCH   4  12
HETATM   12  C   UNL     2      -9.622  15.930  67.358  1.00  0.00    -0.221 C  
BRANCH  12  13
HETATM   13  C   UNL     2      -8.880  14.898  68.227  1.00  0.00    -0.172 C  
HETATM   14  C   UNL     2      -9.361  13.441  68.046  1.00  0.00    -0.217 C  
HETATM   15  C   UNL     2      -8.810  12.511  69.129  1.00  0.00     0.712 A  
HETATM   16  C   UNL     2      -9.119  12.928  66.627  1.00  0.00    -0.181 A  
HETATM   17  C   UNL     2      -7.441  12.359  69.358  1.00  0.00     0.400 A  
HETATM   18  C   UNL     2      -7.839  12.898  66.044  1.00  0.00     1.888 A  
HETATM   19  C   UNL     2      -7.661  12.470  64.727  1.00  0.00     5.098 A  
HETATM   20  C   UNL     2      -7.004  11.466  70.333  1.00  0.00     0.944 A  
HETATM   21  C   UNL     2      -8.764  12.080  63.973  1.00  0.00     1.244 A  
HETATM   22  C   UNL     2      -7.937  10.755  71.073  1.00  0.00     3.523 A  
HETATM   23  C   UNL     2      -9.276  10.975  70.810  1.00  0.00     4.160 A  
HETATM   24 CL   UNL     2      -8.547  11.584  62.340  1.00  0.00    -0.072 Cl 
HETATM   25  C   UNL     2     -10.039  12.101  64.528  1.00  0.00    -0.286 A  
HETATM   26  N   UNL     2      -9.728  11.834  69.868  1.00  0.00     1.534 NA 
HETATM   27  C   UNL     2     -10.215  12.518  65.850  1.00  0.00    -0.280 A  
ENDBRANCH  12  13
ENDBRANCH   4  12
TORSDOF 2
ENDMDL
MODEL      186
REMARK 921   NORMALIZED FREE ENERGY PREDICTED BY IDOCK:   18.18 KCAL/MOL
REMARK 922        TOTAL FREE ENERGY PREDICTED BY IDOCK:   19.62 KCAL/MOL
REMARK 923 INTER-LIGAND FREE ENERGY PREDICTED BY IDOCK:   11.92 KCAL/MOL
REMARK 924 INTRA-LIGAND FREE ENERGY PREDICTED BY IDOCK:    7.70 KCAL/MOL
REMARK 927      BINDING AFFINITY PREDICTED BY RF-SCORE:    0.00 PKD
ROOT
HETATM    1  O   UNL     1      -6.090  18.120  68.791  1.00  0.00    -0.190 OA 
HETATM    2  C   UNL     1      -6.480  18.700  67.650  1.00  0.00    -0.205 C  
HETATM    3  C   UNL     2      -7.891  12.663  67.795  1.00  0.00    -0.154 C  
HETATM    4  N   UNL     2      -6.811  13.131  68.660  1.00  0.00    -0.093 NA 
HETATM    5  O   UNL     1      -5.685  19.071  66.800  1.00  0.00    -0.158 OA 
HETATM    6  C   UNL     1      -7.929  18.772  67.372  1.00  0.00    -0.254 C  
HETATM    7  C   UNL     1      -9.033  18.586  68.112  1.00  0.00    -0.326 C  
HETATM    8  O   UNL     1      -8.084  18.424  70.276  1.00  0.00     1.847 OA 
HETATM    9  C   UNL     2      -5.517  12.899  68.009  1.00  0.00    -0.100 C  
HETATM   10  O   UNL     1     -10.229  17.801  69.967  1.00  0.00     0.376 OA 
HETATM   11  C   UNL     1      -9.054  18.293  69.546  1.00  0.00     0.617 C  
ENDROOT
BRANCH   4  12
HETATM   12  C   UNL     2      -6.943  14.547  69.029  1.00  0.00    -0.121 C  
BRANCH  12  13
HETATM   13  C   UNL     2      -7.946  14.810  70.167  1.00  0.00     0.605 C  
HETATM   14  C   UNL     2      -9.416  14.499  69.811  1.00  0.00     0.520 C  
HETATM   15  C   UNL     2     -10.393  15.050  70.852  1.00  0.00     0.515 A  
HETATM   16  C   UNL     2      -9.633  13.017  69.502  1.00  0.00     1.339 A  
HETATM   17  C   UNL     2     -10.321  14.702  72.202  1.00  0.00     3.052 A  
HETATM   18  C   UNL     2      -9.325  12.003  70.426  1.00  0.00     4.991 A  
HETATM   19  C   UNL     2      -9.486  10.657  70.093  1.00  0.00     0.730 A  
HETATM   20  C   UNL     2     -11.266  15.208  73.092  1.00  0.00     0.484 A  
HETATM   21  C   UNL     2      -9.946  10.310  68.826  1.00  0.00    -0.179 A  
HETATM   22  C   UNL     2     -12.252  16.064  72.625  1.00  0.00    -0.619 A  
HETATM   23  C   UNL     2     -12.246  16.386  71.280  1.00  0.00     0.239 A  
HETATM   24 CL   UNL     2     -10.115   8.650  68.406  1.00  0.00    -0.205 Cl 
HETATM   25  C   UNL     2     -10.257  11.296  67.896  1.00  0.00    -0.201 A  
HETATM   26  N   UNL     2     -11.344  15.907  70.394  1.00  0.00    -0.356 NA 
HETATM   27  C   UNL     2     -10.106  12.643  68.234  1.00  0.00    -0.233 A  
ENDBRANCH  12  13
ENDBRANCH   4  12
TORSDOF 2
ENDMDL
MODEL      187
REMARK 921   NORMALIZED FREE ENERGY PREDICTED BY IDOCK:   19.52 KCAL/MOL
REMARK 922        TOTAL FREE ENERGY PREDICTED BY IDOCK:   21.11 KCAL/MOL
REMARK 923 INTER-LIGAND FREE ENERGY PREDICTED BY IDOCK:    6.05 KCAL/MOL
REMARK 924 INTRA-LIGAND FREE ENERGY PREDICTED BY IDOCK:   15.06 KCAL/MOL
REMARK 927      BINDING AFFINITY PREDICTED BY RF-SCORE:    0.00 PKD
ROOT
HETATM    1  O   UNL     1     -10.136  14.220  64.248  1.00  0.00    -0.001 OA 
HETATM    2  C   UNL     1     -10.682  13.398  65.152  1.00  0.00    -0.330 C  
HETATM    3  C   UNL     2     -10.385  19.244  67.200  1.00  0.00    -0.432 C  
HETATM    4  N   UNL     2      -9.465  18.847  66.137  1.00  0.00    -0.471 NA 
HETATM    5  O   UNL     1     -10.028  12.559  65.751  1.00  0.00    -0.261 OA 
HETATM    6  C   UNL     1     -12.099  13.612  65.513  1.00  0.00    -0.440 C  
HETATM    7  C   UNL     1     -13.101  14.327  64.980  1.00  0.00     0.125 C  
HETATM    8  O   UNL     1     -12.121  14.987  62.928  1.00  0.00     1.314 OA 
HETATM    9  C   UNL     2      -8.164  18.491  66.713  1.00  0.00    -0.257 C  
HETATM   10  O   UNL     1     -14.017  15.997  63.617  1.00  0.00     1.905 OA 
HETATM   11  C   UNL     1     -13.026  15.100  63.740  1.00  0.00     1.467 C  
ENDROOT
BRANCH   4  12
HETATM   12  C   UNL     2      -9.976  17.738  65.320  1.00  0.00     0.938 C  
BRANCH  12  13
HETATM   13  C   UNL     2     -10.744  16.670  66.120  1.00  0.00    -0.132 C  
HETATM   14  C   UNL     2      -9.906  15.946  67.196  1.00  0.00    -0.232 C  
HETATM   15  C   UNL     2     -10.616  14.709  67.749  1.00  0.00    -0.251 A  
HETATM   16  C   UNL     2      -9.420  16.903  68.286  1.00  0.00    -0.250 A  
HETATM   17  C   UNL     2     -11.882  14.773  68.334  1.00  0.00    -0.319 A  
HETATM   18  C   UNL     2     -10.304  17.674  69.060  1.00  0.00    -0.272 A  
HETATM   19  C   UNL     2      -9.824  18.575  70.011  1.00  0.00     1.059 A  
HETATM   20  C   UNL     2     -12.456  13.615  68.853  1.00  0.00     0.185 A  
HETATM   21  C   UNL     2      -8.452  18.725  70.191  1.00  0.00     1.899 A  
HETATM   22  C   UNL     2     -11.768  12.415  68.765  1.00  0.00    -0.379 A  
HETATM   23  C   UNL     2     -10.531  12.421  68.149  1.00  0.00    -0.219 A  
HETATM   24 CL   UNL     2      -7.862  19.860  71.341  1.00  0.00     1.684 Cl 
HETATM   25  C   UNL     2      -7.558  17.973  69.436  1.00  0.00     0.194 A  
HETATM   26  N   UNL     2      -9.948  13.530  67.639  1.00  0.00    -0.225 NA 
HETATM   27  C   UNL     2      -8.040  17.063  68.492  1.00  0.00    -0.251 A  
ENDBRANCH  12  13
ENDBRANCH   4  12
TORSDOF 2
ENDMDL
MODEL      188
REMARK 921   NORMALIZED FREE ENERGY PREDICTED BY IDOCK:   19.87 KCAL/MOL
REMARK 922        TOTAL FREE ENERGY PREDICTED BY IDOCK:   21.51 KCAL/MOL
REMARK 923 INTER-LIGAND FREE ENERGY PREDICTED BY IDOCK:   10.29 KCAL/MOL
REMARK 924 INTRA-LIGAND FREE ENERGY PREDICTED BY IDOCK:   11.22 KCAL/MOL
REMARK 927      BINDING AFFINITY PREDICTED BY RF-SCORE:    0.00 PKD
ROOT
HETATM    1  O   UNL     1     -10.614   7.781  70.690  1.00  0.00    -0.215 OA 
HETATM    2  C   UNL     1     -11.287   6.926  71.467  1.00  0.00    -0.266 C  
HETATM    3  C   UNL     2     -11.169   5.090  65.545  1.00  0.00     0.437 C  
HETATM    4  N   UNL     2     -10.963   6.509  65.822  1.00  0.00     1.777 NA 
HETATM    5  O   UNL     1     -12.376   7.198  71.949  1.00  0.00    -0.315 OA 
HETATM    6  C   UNL     1     -10.738   5.564  71.636  1.00  0.00    -0.296 C  
HETATM    7  C   UNL     1      -9.554   4.995  71.365  1.00  0.00    -0.220 C  
HETATM    8  O   UNL     1      -8.270   6.906  70.807  1.00  0.00    -0.119 OA 
HETATM    9  C   UNL     2     -12.226   7.236  65.660  1.00  0.00     9.869 C  
HETATM   10  O   UNL     1      -7.462   4.858  70.319  1.00  0.00    -0.056 OA 
HETATM   11  C   UNL     1      -8.379   5.690  70.834  1.00  0.00    -0.124 C  
ENDROOT
BRANCH   4  12
HETATM   12  C   UNL     2     -10.407   6.758  67.159  1.00  0.00    -0.258 C  
BRANCH  12  13
HETATM   13  C   UNL     2      -9.313   7.842  67.194  1.00  0.00    -0.185 C  
HETATM   14  C   UNL     2      -9.841   9.283  67.362  1.00  0.00    -0.229 C  
HETATM   15  C   UNL     2      -8.760  10.331  67.094  1.00  0.00    -0.129 A  
HETATM   16  C   UNL     2     -10.557   9.480  68.699  1.00  0.00    -0.239 A  
HETATM   17  C   UNL     2      -7.554  10.359  67.798  1.00  0.00    -0.089 A  
HETATM   18  C   UNL     2      -9.927   9.243  69.934  1.00  0.00    -0.226 A  
HETATM   19  C   UNL     2     -10.626   9.384  71.133  1.00  0.00    -0.403 A  
HETATM   20  C   UNL     2      -6.628  11.364  67.533  1.00  0.00    -0.078 A  
HETATM   21  C   UNL     2     -11.968   9.751  71.112  1.00  0.00    -0.376 A  
HETATM   22  C   UNL     2      -6.911  12.311  66.560  1.00  0.00     0.607 A  
HETATM   23  C   UNL     2      -8.112  12.207  65.884  1.00  0.00     0.831 A  
HETATM   24 CL   UNL     2     -12.836   9.893  72.591  1.00  0.00    -0.019 Cl 
HETATM   25  C   UNL     2     -12.612   9.991  69.903  1.00  0.00     0.234 A  
HETATM   26  N   UNL     2      -9.030  11.244  66.124  1.00  0.00    -0.199 NA 
HETATM   27  C   UNL     2     -11.909   9.861  68.703  1.00  0.00     0.581 A  
ENDBRANCH  12  13
ENDBRANCH   4  12
TORSDOF 2
ENDMDL
MODEL      189
REMARK 921   NORMALIZED FREE ENERGY PREDICTED BY IDOCK:   19.94 KCAL/MOL
REMARK 922        TOTAL FREE ENERGY PREDICTED BY IDOCK:   21.59 KCAL/MOL
REMARK 923 INTER-LIGAND FREE ENERGY PREDICTED BY IDOCK:   18.51 KCAL/MOL
REMARK 924 INTRA-LIGAND FREE ENERGY PREDICTED BY IDOCK:    3.08 KCAL/MOL
REMARK 927      BINDING AFFINITY PREDICTED BY RF-SCORE:    0.00 PKD
ROOT
HETATM    1  O   UNL     1      -7.876   8.031  65.139  1.00  0.00    -0.101 OA 
HETATM    2  C   UNL     1      -8.128   8.401  63.878  1.00  0.00    -0.143 C  
HETATM    3  C   UNL     2     -12.168  10.876  67.880  1.00  0.00     0.993 C  
HETATM    4  N   UNL     2     -11.465   9.661  68.285  1.00  0.00     0.199 NA 
HETATM    5  O   UNL     1      -8.567   7.624  63.044  1.00  0.00     0.125 OA 
HETATM    6  C   UNL     1      -7.981   9.831  63.534  1.00  0.00    -0.145 C  
HETATM    7  C   UNL     1      -7.421  10.885  64.145  1.00  0.00     0.523 C  
HETATM    8  O   UNL     1      -6.299   9.808  65.931  1.00  0.00    -0.073 OA 
HETATM    9  C   UNL     2     -12.308   8.489  68.028  1.00  0.00     6.063 C  
HETATM   10  O   UNL     1      -6.547  12.049  65.981  1.00  0.00     0.504 OA 
HETATM   11  C   UNL     1      -6.688  10.842  65.412  1.00  0.00     0.161 C  
ENDROOT
BRANCH   4  12
HETATM   12  C   UNL     2     -10.165   9.501  67.620  1.00  0.00    -0.220 C  
BRANCH  12  13
HETATM   13  C   UNL     2      -9.590  10.807  67.039  1.00  0.00    -0.195 C  
HETATM   14  C   UNL     2      -9.298  11.902  68.088  1.00  0.00    -0.191 C  
HETATM   15  C   UNL     2      -9.017  13.261  67.443  1.00  0.00    -0.215 A  
HETATM   16  C   UNL     2      -8.221  11.471  69.084  1.00  0.00     0.156 A  
HETATM   17  C   UNL     2      -7.998  13.448  66.507  1.00  0.00     0.796 A  
HETATM   18  C   UNL     2      -6.930  11.087  68.680  1.00  0.00    -0.075 A  
HETATM   19  C   UNL     2      -5.987  10.650  69.611  1.00  0.00    -0.054 A  
HETATM   20  C   UNL     2      -7.769  14.719  65.988  1.00  0.00     2.760 A  
HETATM   21  C   UNL     2      -6.329  10.579  70.959  1.00  0.00     0.251 A  
HETATM   22  C   UNL     2      -8.569  15.776  66.396  1.00  0.00    -0.346 A  
HETATM   23  C   UNL     2      -9.576  15.512  67.305  1.00  0.00    -0.213 A  
HETATM   24 CL   UNL     2      -5.176  10.009  72.102  1.00  0.00    -0.043 Cl 
HETATM   25  C   UNL     2      -7.600  10.953  71.382  1.00  0.00     4.651 A  
HETATM   26  N   UNL     2      -9.819  14.289  67.828  1.00  0.00    -0.220 NA 
HETATM   27  C   UNL     2      -8.539  11.402  70.451  1.00  0.00     3.564 A  
ENDBRANCH  12  13
ENDBRANCH   4  12
TORSDOF 2
ENDMDL
MODEL      190
REMARK 921   NORMALIZED FREE ENERGY PREDICTED BY IDOCK:   22.21 KCAL/MOL
REMARK 922        TOTAL FREE ENERGY PREDICTED BY IDOCK:   24.12 KCAL/MOL
REMARK 923 INTER-LIGAND FREE ENERGY PREDICTED BY IDOCK:   19.03 KCAL/MOL
REMARK 924 INTRA-LIGAND FREE ENERGY PREDICTED BY IDOCK:    5.10 KCAL/MOL
REMARK 927      BINDING AFFINITY PREDICTED BY RF-SCORE:    0.00 PKD
ROOT
HETATM    1  O   UNL     1      -6.847  16.579  67.979  1.00  0.00    -0.132 OA 
HETATM    2  C   UNL     1      -5.999  17.281  68.740  1.00  0.00    -0.167 C  
HETATM    3  C   UNL     2     -11.381  16.214  71.630  1.00  0.00    -0.162 C  
HETATM    4  N   UNL     2     -11.370  16.162  70.170  1.00  0.00    -0.354 NA 
HETATM    5  O   UNL     1      -5.712  18.443  68.497  1.00  0.00    -0.177 OA 
HETATM    6  C   UNL     1      -5.499  16.651  69.980  1.00  0.00    -0.201 C  
HETATM    7  C   UNL     1      -5.511  15.399  70.462  1.00  0.00    -0.137 C  
HETATM    8  O   UNL     1      -6.284  14.210  68.566  1.00  0.00    -0.082 OA 
HETATM    9  C   UNL     2     -11.821  17.446  69.624  1.00  0.00     2.962 C  
HETATM   10  O   UNL     1      -6.256  13.181  70.573  1.00  0.00    -0.078 OA 
HETATM   11  C   UNL     1      -6.027  14.224  69.759  1.00  0.00    -0.120 C  
ENDROOT
BRANCH   4  12
HETATM   12  C   UNL     2     -10.053  15.814  69.618  1.00  0.00    -0.289 C  
BRANCH  12  13
HETATM   13  C   UNL     2      -9.644  16.652  68.392  1.00  0.00    -0.233 C  
HETATM   14  C   UNL     2     -10.164  18.106  68.405  1.00  0.00    -0.401 C  
HETATM   15  C   UNL     2      -9.989  18.797  67.052  1.00  0.00    -0.341 A  
HETATM   16  C   UNL     2      -9.592  18.911  69.573  1.00  0.00     0.172 A  
HETATM   17  C   UNL     2      -8.745  18.918  66.430  1.00  0.00    -0.308 A  
HETATM   18  C   UNL     2      -8.210  19.082  69.764  1.00  0.00     0.699 A  
HETATM   19  C   UNL     2      -7.721  19.779  70.870  1.00  0.00     1.570 A  
HETATM   20  C   UNL     2      -8.648  19.593  65.215  1.00  0.00     1.077 A  
HETATM   21  C   UNL     2      -8.609  20.303  71.805  1.00  0.00     2.323 A  
HETATM   22  C   UNL     2      -9.793  20.118  64.635  1.00  0.00     2.580 A  
HETATM   23  C   UNL     2     -10.995  19.937  65.294  1.00  0.00     0.262 A  
HETATM   24 CL   UNL     2      -8.003  21.134  73.184  1.00  0.00     6.287 Cl 
HETATM   25  C   UNL     2      -9.980  20.145  71.637  1.00  0.00     2.753 A  
HETATM   26  N   UNL     2     -11.117  19.289  66.474  1.00  0.00    -0.119 NA 
HETATM   27  C   UNL     2     -10.470  19.457  70.524  1.00  0.00     1.646 A  
ENDBRANCH  12  13
ENDBRANCH   4  12
TORSDOF 2
ENDMDL
MODEL      191
REMARK 921   NORMALIZED FREE ENERGY PREDICTED BY IDOCK:   23.13 KCAL/MOL
REMARK 922        TOTAL FREE ENERGY PREDICTED BY IDOCK:   25.15 KCAL/MOL
REMARK 923 INTER-LIGAND FREE ENERGY PREDICTED BY IDOCK:   11.53 KCAL/MOL
REMARK 924 INTRA-LIGAND FREE ENERGY PREDICTED BY IDOCK:   13.61 KCAL/MOL
REMARK 927      BINDING AFFINITY PREDICTED BY RF-SCORE:    0.00 PKD
ROOT
HETATM    1  O   UNL     1      -9.553  15.345  64.423  1.00  0.00     0.794 OA 
HETATM    2  C   UNL     1     -10.254  14.745  65.392  1.00  0.00    -0.387 C  
HETATM    3  C   UNL     2      -7.542  19.961  67.368  1.00  0.00    -0.273 C  
HETATM    4  N   UNL     2      -6.974  19.299  66.196  1.00  0.00    -0.229 NA 
HETATM    5  O   UNL     1      -9.896  13.696  65.905  1.00  0.00    -0.289 OA 
HETATM    6  C   UNL     1     -11.433  15.454  65.932  1.00  0.00    -0.014 C  
HETATM    7  C   UNL     1     -12.150  16.514  65.531  1.00  0.00     2.111 C  
HETATM    8  O   UNL     1     -11.249  16.856  63.367  1.00  0.00     1.030 OA 
HETATM    9  C   UNL     2      -5.843  18.457  66.601  1.00  0.00    -0.148 C  
HETATM   10  O   UNL     1     -12.530  18.465  64.291  1.00  0.00     6.934 OA 
HETATM   11  C   UNL     1     -11.941  17.260  64.288  1.00  0.00     3.363 C  
ENDROOT
BRANCH   4  12
HETATM   12  C   UNL     2      -7.957  18.498  65.455  1.00  0.00     0.632 C  
BRANCH  12  13
HETATM   13  C   UNL     2      -8.841  17.605  66.346  1.00  0.00    -0.263 C  
HETATM   14  C   UNL     2      -8.077  16.840  67.448  1.00  0.00    -0.190 C  
HETATM   15  C   UNL     2      -8.936  15.757  68.103  1.00  0.00    -0.180 A  
HETATM   16  C   UNL     2      -7.423  17.785  68.456  1.00  0.00    -0.272 A  
HETATM   17  C   UNL     2     -10.159  16.039  68.714  1.00  0.00    -0.225 A  
HETATM   18  C   UNL     2      -8.161  18.724  69.198  1.00  0.00    -0.043 A  
HETATM   19  C   UNL     2      -7.525  19.607  70.072  1.00  0.00     0.365 A  
HETATM   20  C   UNL     2     -10.874  15.013  69.326  1.00  0.00    -0.263 A  
HETATM   21  C   UNL     2      -6.140  19.569  70.206  1.00  0.00    -0.229 A  
HETATM   22  C   UNL     2     -10.367  13.723  69.304  1.00  0.00     0.105 A  
HETATM   23  C   UNL     2      -9.163  13.511  68.658  1.00  0.00    -0.022 A  
HETATM   24 CL   UNL     2      -5.355  20.679  71.260  1.00  0.00    -0.229 Cl 
HETATM   25  C   UNL     2      -5.389  18.648  69.483  1.00  0.00    -0.202 A  
HETATM   26  N   UNL     2      -8.447  14.489  68.058  1.00  0.00    -0.152 NA 
HETATM   27  C   UNL     2      -6.028  17.757  68.616  1.00  0.00    -0.189 A  
ENDBRANCH  12  13
ENDBRANCH   4  12
TORSDOF 2
ENDMDL
MODEL      192
REMARK 921   NORMALIZED FREE ENERGY PREDICTED BY IDOCK:   23.42 KCAL/MOL
REMARK 922        TOTAL FREE ENERGY PREDICTED BY IDOCK:   25.48 KCAL/MOL
REMARK 923 INTER-LIGAND FREE ENERGY PREDICTED BY IDOCK:    5.39 KCAL/MOL
REMARK 924 INTRA-LIGAND FREE ENERGY PREDICTED BY IDOCK:   20.08 KCAL/MOL
REMARK 927      BINDING AFFINITY PREDICTED BY RF-SCORE:    0.00 PKD
ROOT
HETATM    1  O   UNL     1      -6.990  15.961  71.549  1.00  0.00     2.581 OA 
HETATM    2  C   UNL     1      -6.117  15.806  70.547  1.00  0.00     0.105 C  
HETATM    3  C   UNL     2     -11.895  14.326  68.848  1.00  0.00    -0.336 C  
HETATM    4  N   UNL     2     -11.571  14.282  70.272  1.00  0.00    -0.254 NA 
HETATM    5  O   UNL     1      -5.282  14.914  70.539  1.00  0.00    -0.112 OA 
HETATM    6  C   UNL     1      -6.262  16.677  69.361  1.00  0.00    -0.205 C  
HETATM    7  C   UNL     1      -6.957  17.796  69.105  1.00  0.00    -0.209 C  
HETATM    8  O   UNL     1      -7.726  18.340  71.277  1.00  0.00     5.229 OA 
HETATM    9  C   UNL     2     -11.244  12.908  70.666  1.00  0.00     1.419 C  
HETATM   10  O   UNL     1      -8.637  19.380  69.496  1.00  0.00    -0.018 OA 
HETATM   11  C   UNL     1      -7.776  18.528  70.072  1.00  0.00     1.326 C  
ENDROOT
BRANCH   4  12
HETATM   12  C   UNL     2     -10.472  15.186  70.639  1.00  0.00     0.067 C  
BRANCH  12  13
HETATM   13  C   UNL     2     -10.327  16.408  69.714  1.00  0.00    -0.197 C  
HETATM   14  C   UNL     2      -9.355  16.207  68.531  1.00  0.00    -0.209 C  
HETATM   15  C   UNL     2      -9.021  17.523  67.825  1.00  0.00    -0.245 A  
HETATM   16  C   UNL     2      -9.831  15.112  67.576  1.00  0.00    -0.220 A  
HETATM   17  C   UNL     2     -10.005  18.350  67.280  1.00  0.00    -0.347 A  
HETATM   18  C   UNL     2     -11.081  15.163  66.934  1.00  0.00    -0.314 A  
HETATM   19  C   UNL     2     -11.506  14.121  66.108  1.00  0.00    -0.350 A  
HETATM   20  C   UNL     2      -9.630  19.515  66.616  1.00  0.00    -0.450 A  
HETATM   21  C   UNL     2     -10.690  13.009  65.925  1.00  0.00    -0.276 A  
HETATM   22  C   UNL     2      -8.287  19.844  66.523  1.00  0.00    -0.372 A  
HETATM   23  C   UNL     2      -7.369  18.992  67.109  1.00  0.00    -0.216 A  
HETATM   24 CL   UNL     2     -11.228  11.711  64.932  1.00  0.00    -0.324 Cl 
HETATM   25  C   UNL     2      -9.449  12.936  66.549  1.00  0.00    -0.251 A  
HETATM   26  N   UNL     2      -7.704  17.854  67.757  1.00  0.00    -0.216 NA 
HETATM   27  C   UNL     2      -9.020  13.985  67.366  1.00  0.00    -0.208 A  
ENDBRANCH  12  13
ENDBRANCH   4  12
TORSDOF 2
ENDMDL
MODEL      193
REMARK 921   NORMALIZED FREE ENERGY PREDICTED BY IDOCK:   25.86 KCAL/MOL
REMARK 922        TOTAL FREE ENERGY PREDICTED BY IDOCK:   28.19 KCAL/MOL
REMARK 923 INTER-LIGAND FREE ENERGY PREDICTED BY IDOCK:   22.38 KCAL/MOL
REMARK 924 INTRA-LIGAND FREE ENERGY PREDICTED BY IDOCK:    5.81 KCAL/MOL
REMARK 927      BINDING AFFINITY PREDICTED BY RF-SCORE:    0.00 PKD
ROOT
HETATM    1  O   UNL     1     -11.073  12.423  67.895  1.00  0.00    -0.214 OA 
HETATM    2  C   UNL     1     -12.148  11.734  67.497  1.00  0.00     0.218 C  
HETATM    3  C   UNL     2     -13.200  17.845  67.580  1.00  0.00     8.053 C  
HETATM    4  N   UNL     2     -12.122  17.328  68.419  1.00  0.00     1.445 NA 
HETATM    5  O   UNL     1     -12.801  11.041  68.263  1.00  0.00     0.977 OA 
HETATM    6  C   UNL     1     -12.620  11.928  66.110  1.00  0.00     1.841 C  
HETATM    7  C   UNL     1     -12.090  12.491  65.014  1.00  0.00    -0.504 C  
HETATM    8  O   UNL     1      -9.866  12.855  65.743  1.00  0.00    -0.264 OA 
HETATM    9  C   UNL     2     -12.605  17.140  69.791  1.00  0.00     5.244 C  
HETATM   10  O   UNL     1     -10.583  13.861  63.857  1.00  0.00     0.060 OA 
HETATM   11  C   UNL     1     -10.741  13.052  64.915  1.00  0.00    -0.332 C  
ENDROOT
BRANCH   4  12
HETATM   12  C   UNL     2     -11.550  16.073  67.911  1.00  0.00    -0.054 C  
BRANCH  12  13
HETATM   13  C   UNL     2     -10.118  15.790  68.402  1.00  0.00    -0.222 C  
HETATM   14  C   UNL     2      -9.627  16.729  69.526  1.00  0.00     0.107 C  
HETATM   15  C   UNL     2      -8.121  16.605  69.768  1.00  0.00     0.804 A  
HETATM   16  C   UNL     2     -10.458  16.582  70.801  1.00  0.00     0.862 A  
HETATM   17  C   UNL     2      -7.513  15.391  70.090  1.00  0.00     0.275 A  
HETATM   18  C   UNL     2     -10.599  15.355  71.472  1.00  0.00     0.445 A  
HETATM   19  C   UNL     2     -11.407  15.246  72.605  1.00  0.00    -0.236 A  
HETATM   20  C   UNL     2      -6.143  15.354  70.336  1.00  0.00    -0.046 A  
HETATM   21  C   UNL     2     -12.095  16.362  73.073  1.00  0.00    -0.482 A  
HETATM   22  C   UNL     2      -5.402  16.522  70.239  1.00  0.00    -0.198 A  
HETATM   23  C   UNL     2      -6.066  17.683  69.889  1.00  0.00    -0.178 A  
HETATM   24 CL   UNL     2     -13.116  16.218  74.450  1.00  0.00     0.012 Cl 
HETATM   25  C   UNL     2     -11.972  17.586  72.425  1.00  0.00     2.378 A  
HETATM   26  N   UNL     2      -7.395  17.748  69.648  1.00  0.00     0.251 NA 
HETATM   27  C   UNL     2     -11.153  17.697  71.298  1.00  0.00     2.140 A  
ENDBRANCH  12  13
ENDBRANCH   4  12
TORSDOF 2
ENDMDL
MODEL      194
REMARK 921   NORMALIZED FREE ENERGY PREDICTED BY IDOCK:   30.35 KCAL/MOL
REMARK 922        TOTAL FREE ENERGY PREDICTED BY IDOCK:   33.22 KCAL/MOL
REMARK 923 INTER-LIGAND FREE ENERGY PREDICTED BY IDOCK:   20.46 KCAL/MOL
REMARK 924 INTRA-LIGAND FREE ENERGY PREDICTED BY IDOCK:   12.76 KCAL/MOL
REMARK 927      BINDING AFFINITY PREDICTED BY RF-SCORE:    0.00 PKD
ROOT
HETATM    1  O   UNL     1      -9.167  18.084  69.303  1.00  0.00     0.001 OA 
HETATM    2  C   UNL     1      -9.064  17.049  70.145  1.00  0.00     2.056 C  
HETATM    3  C   UNL     2     -12.178  15.559  64.993  1.00  0.00     0.364 C  
HETATM    4  N   UNL     2     -12.119  16.969  65.370  1.00  0.00     2.243 NA 
HETATM    5  O   UNL     1      -9.673  17.003  71.203  1.00  0.00     3.540 OA 
HETATM    6  C   UNL     1      -8.279  15.876  69.706  1.00  0.00     0.233 C  
HETATM    7  C   UNL     1      -7.414  15.654  68.705  1.00  0.00    -0.151 C  
HETATM    8  O   UNL     1      -7.110  17.858  67.894  1.00  0.00    -0.202 OA 
HETATM    9  C   UNL     2     -13.335  17.341  66.099  1.00  0.00    11.363 C  
HETATM   10  O   UNL     1      -6.389  16.119  66.651  1.00  0.00    -0.255 OA 
HETATM   11  C   UNL     1      -6.949  16.657  67.745  1.00  0.00    -0.136 C  
ENDROOT
BRANCH   4  12
HETATM   12  C   UNL     2     -10.931  17.301  66.169  1.00  0.00     0.211 C  
BRANCH  12  13
HETATM   13  C   UNL     2     -10.724  16.391  67.394  1.00  0.00    -0.278 C  
HETATM   14  C   UNL     2     -11.776  15.272  67.548  1.00  0.00    -0.153 C  
HETATM   15  C   UNL     2     -11.704  14.593  68.918  1.00  0.00    -0.309 A  
HETATM   16  C   UNL     2     -11.741  14.284  66.382  1.00  0.00    -0.403 A  
HETATM   17  C   UNL     2     -10.538  13.990  69.393  1.00  0.00    -0.021 A  
HETATM   18  C   UNL     2     -10.583  13.564  66.038  1.00  0.00    -0.285 A  
HETATM   19  C   UNL     2     -10.571  12.710  64.935  1.00  0.00    -0.332 A  
HETATM   20  C   UNL     2     -10.550  13.355  70.632  1.00  0.00     2.729 A  
HETATM   21  C   UNL     2     -11.715  12.574  64.154  1.00  0.00    -0.399 A  
HETATM   22  C   UNL     2     -11.716  13.349  71.383  1.00  0.00     1.001 A  
HETATM   23  C   UNL     2     -12.825  13.989  70.862  1.00  0.00    -0.318 A  
HETATM   24 CL   UNL     2     -11.689  11.544  62.776  1.00  0.00     0.421 Cl 
HETATM   25  C   UNL     2     -12.872  13.276  64.474  1.00  0.00    -0.123 A  
HETATM   26  N   UNL     2     -12.842  14.610  69.661  1.00  0.00     0.068 NA 
HETATM   27  C   UNL     2     -12.887  14.123  65.585  1.00  0.00    -0.402 A  
ENDBRANCH  12  13
ENDBRANCH   4  12
TORSDOF 2
ENDMDL
MODEL      195
REMARK 921   NORMALIZED FREE ENERGY PREDICTED BY IDOCK:   30.43 KCAL/MOL
REMARK 922        TOTAL FREE ENERGY PREDICTED BY IDOCK:   33.30 KCAL/MOL
REMARK 923 INTER-LIGAND FREE ENERGY PREDICTED BY IDOCK:   -0.50 KCAL/MOL
REMARK 924 INTRA-LIGAND FREE ENERGY PREDICTED BY IDOCK:   33.80 KCAL/MOL
REMARK 927      BINDING AFFINITY PREDICTED BY RF-SCORE:    0.00 PKD
ROOT
HETATM    1  O   UNL     1     -11.330  11.847  68.150  1.00  0.00    -0.243 OA 
HETATM    2  C   UNL     1     -11.038  12.295  69.376  1.00  0.00    -0.101 C  
HETATM    3  C   UNL     2      -6.115   9.750  66.593  1.00  0.00    -0.060 C  
HETATM    4  N   UNL     2      -7.442   9.354  66.127  1.00  0.00    -0.095 NA 
HETATM    5  O   UNL     1     -11.455  11.751  70.388  1.00  0.00    -0.145 OA 
HETATM    6  C   UNL     1     -10.076  13.411  69.494  1.00  0.00     0.738 C  
HETATM    7  C   UNL     1      -9.550  14.285  68.623  1.00  0.00    -0.192 C  
HETATM    8  O   UNL     1     -10.871  13.843  66.709  1.00  0.00    -0.283 OA 
HETATM    9  C   UNL     2      -7.837   8.094  66.766  1.00  0.00    -0.095 C  
HETATM   10  O   UNL     1      -8.992  15.069  66.488  1.00  0.00    -0.269 OA 
HETATM   11  C   UNL     1      -9.895  14.382  67.204  1.00  0.00    -0.254 C  
ENDROOT
BRANCH   4  12
HETATM   12  C   UNL     2      -8.464  10.381  66.364  1.00  0.00    -0.138 C  
BRANCH  12  13
HETATM   13  C   UNL     2      -7.901  11.807  66.511  1.00  0.00     0.020 C  
HETATM   14  C   UNL     2      -8.076  12.425  67.916  1.00  0.00    -0.161 C  
HETATM   15  C   UNL     2      -7.776  13.925  67.930  1.00  0.00    -0.160 A  
HETATM   16  C   UNL     2      -7.312  11.645  68.986  1.00  0.00    -0.074 A  
HETATM   17  C   UNL     2      -6.550  14.447  67.513  1.00  0.00    -0.101 A  
HETATM   18  C   UNL     2      -5.923  11.436  68.919  1.00  0.00    -0.048 A  
HETATM   19  C   UNL     2      -5.265  10.675  69.887  1.00  0.00    -0.039 A  
HETATM   20  C   UNL     2      -6.328  15.819  67.589  1.00  0.00    -0.186 A  
HETATM   21  C   UNL     2      -5.991  10.103  70.927  1.00  0.00    -0.070 A  
HETATM   22  C   UNL     2      -7.335  16.648  68.060  1.00  0.00    -0.162 A  
HETATM   23  C   UNL     2      -8.532  16.065  68.431  1.00  0.00    -0.180 A  
HETATM   24 CL   UNL     2      -5.184   9.139  72.101  1.00  0.00    -0.054 Cl 
HETATM   25  C   UNL     2      -7.366  10.296  71.014  1.00  0.00     1.093 A  
HETATM   26  N   UNL     2      -8.774  14.736  68.371  1.00  0.00    -0.162 NA 
HETATM   27  C   UNL     2      -8.022  11.067  70.051  1.00  0.00     0.922 A  
ENDBRANCH  12  13
ENDBRANCH   4  12
TORSDOF 2
ENDMDL
MODEL      196
REMARK 921   NORMALIZED FREE ENERGY PREDICTED BY IDOCK:   32.27 KCAL/MOL
REMARK 922        TOTAL FREE ENERGY PREDICTED BY IDOCK:   35.35 KCAL/MOL
REMARK 923 INTER-LIGAND FREE ENERGY PREDICTED BY IDOCK:   20.24 KCAL/MOL
REMARK 924 INTRA-LIGAND FREE ENERGY PREDICTED BY IDOCK:   15.11 KCAL/MOL
REMARK 927      BINDING AFFINITY PREDICTED BY RF-SCORE:    0.00 PKD
ROOT
HETATM    1  O   UNL     1     -11.307  18.954  71.447  1.00  0.00     3.805 OA 
HETATM    2  C   UNL     1     -10.228  19.365  72.124  1.00  0.00     3.567 C  
HETATM    3  C   UNL     2      -8.766  15.351  67.628  1.00  0.00    -0.167 C  
HETATM    4  N   UNL     2     -10.134  15.331  68.140  1.00  0.00    -0.227 NA 
HETATM    5  O   UNL     1     -10.009  19.022  73.276  1.00  0.00     3.134 OA 
HETATM    6  C   UNL     1      -9.215  20.158  71.396  1.00  0.00     2.295 C  
HETATM    7  C   UNL     1      -9.199  20.792  70.214  1.00  0.00     2.121 C  
HETATM    8  O   UNL     1     -11.485  20.648  69.611  1.00  0.00     1.744 OA 
HETATM    9  C   UNL     2     -10.272  14.278  69.152  1.00  0.00    -0.089 C  
HETATM   10  O   UNL     1      -9.974  21.261  68.054  1.00  0.00     0.174 OA 
HETATM   11  C   UNL     1     -10.334  20.907  69.296  1.00  0.00     0.863 C  
ENDROOT
BRANCH   4  12
HETATM   12  C   UNL     2     -10.557  16.623  68.698  1.00  0.00    -0.337 C  
BRANCH  12  13
HETATM   13  C   UNL     2      -9.499  17.736  68.578  1.00  0.00    -0.304 C  
HETATM   14  C   UNL     2      -8.355  17.649  69.610  1.00  0.00     0.974 C  
HETATM   15  C   UNL     2      -7.506  18.921  69.644  1.00  0.00     0.258 A  
HETATM   16  C   UNL     2      -7.527  16.374  69.444  1.00  0.00    -0.122 A  
HETATM   17  C   UNL     2      -6.863  19.421  68.510  1.00  0.00    -0.326 A  
HETATM   18  C   UNL     2      -6.874  16.051  68.241  1.00  0.00    -0.123 A  
HETATM   19  C   UNL     2      -6.169  14.854  68.107  1.00  0.00    -0.144 A  
HETATM   20  C   UNL     2      -6.073  20.563  68.618  1.00  0.00    -0.364 A  
HETATM   21  C   UNL     2      -6.119  13.959  69.171  1.00  0.00    -0.096 A  
HETATM   22  C   UNL     2      -5.953  21.195  69.846  1.00  0.00     0.739 A  
HETATM   23  C   UNL     2      -6.639  20.660  70.920  1.00  0.00     0.750 A  
HETATM   24 CL   UNL     2      -5.277  12.469  68.994  1.00  0.00    -0.066 Cl 
HETATM   25  C   UNL     2      -6.757  14.256  70.371  1.00  0.00     0.091 A  
HETATM   26  N   UNL     2      -7.410  19.551  70.845  1.00  0.00     1.156 NA 
HETATM   27  C   UNL     2      -7.453  15.460  70.508  1.00  0.00     0.935 A  
ENDBRANCH  12  13
ENDBRANCH   4  12
TORSDOF 2
ENDMDL
MODEL      197
REMARK 921   NORMALIZED FREE ENERGY PREDICTED BY IDOCK:   32.54 KCAL/MOL
REMARK 922        TOTAL FREE ENERGY PREDICTED BY IDOCK:   35.66 KCAL/MOL
REMARK 923 INTER-LIGAND FREE ENERGY PREDICTED BY IDOCK:   29.76 KCAL/MOL
REMARK 924 INTRA-LIGAND FREE ENERGY PREDICTED BY IDOCK:    5.90 KCAL/MOL
REMARK 927      BINDING AFFINITY PREDICTED BY RF-SCORE:    0.00 PKD
ROOT
HETATM    1  O   UNL     1      -7.924  17.055  69.267  1.00  0.00    -0.134 OA 
HETATM    2  C   UNL     1      -7.000  18.020  69.344  1.00  0.00    -0.077 C  
HETATM    3  C   UNL     2      -5.360  12.964  72.539  1.00  0.00     0.330 C  
HETATM    4  N   UNL     2      -6.781  13.168  72.270  1.00  0.00     3.317 NA 
HETATM    5  O   UNL     1      -7.180  19.050  69.976  1.00  0.00     0.220 OA 
HETATM    6  C   UNL     1      -5.676  17.758  68.742  1.00  0.00    -0.176 C  
HETATM    7  C   UNL     1      -5.200  16.828  67.900  1.00  0.00    -0.128 C  
HETATM    8  O   UNL     1      -7.213  15.769  67.240  1.00  0.00    -0.186 OA 
HETATM    9  C   UNL     2      -7.421  13.797  73.430  1.00  0.00     6.817 C  
HETATM   10  O   UNL     1      -5.243  14.777  66.770  1.00  0.00     0.726 OA 
HETATM   11  C   UNL     1      -5.992  15.774  67.264  1.00  0.00     0.036 C  
ENDROOT
BRANCH   4  12
HETATM   12  C   UNL     2      -7.028  13.969  71.063  1.00  0.00     1.431 C  
BRANCH  12  13
HETATM   13  C   UNL     2      -8.099  15.061  71.241  1.00  0.00     3.240 C  
HETATM   14  C   UNL     2      -9.049  15.231  70.036  1.00  0.00     0.264 C  
HETATM   15  C   UNL     2      -9.889  16.506  70.136  1.00  0.00     0.746 A  
HETATM   16  C   UNL     2      -9.883  13.976  69.780  1.00  0.00     0.882 A  
HETATM   17  C   UNL     2     -10.721  16.770  71.226  1.00  0.00     1.276 A  
HETATM   18  C   UNL     2     -10.730  13.421  70.756  1.00  0.00     2.732 A  
HETATM   19  C   UNL     2     -11.438  12.244  70.507  1.00  0.00     0.466 A  
HETATM   20  C   UNL     2     -11.490  17.931  71.236  1.00  0.00     3.589 A  
HETATM   21  C   UNL     2     -11.297  11.601  69.280  1.00  0.00    -0.290 A  
HETATM   22  C   UNL     2     -11.403  18.815  70.172  1.00  0.00     4.521 A  
HETATM   23  C   UNL     2     -10.539  18.503  69.139  1.00  0.00     0.487 A  
HETATM   24 CL   UNL     2     -12.146  10.134  68.986  1.00  0.00     0.212 Cl 
HETATM   25  C   UNL     2     -10.466  12.130  68.299  1.00  0.00    -0.225 A  
HETATM   26  N   UNL     2      -9.783  17.382  69.102  1.00  0.00    -0.170 NA 
HETATM   27  C   UNL     2      -9.766  13.315  68.546  1.00  0.00    -0.146 A  
ENDBRANCH  12  13
ENDBRANCH   4  12
TORSDOF 2
ENDMDL
MODEL      198
REMARK 921   NORMALIZED FREE ENERGY PREDICTED BY IDOCK:   33.93 KCAL/MOL
REMARK 922        TOTAL FREE ENERGY PREDICTED BY IDOCK:   37.21 KCAL/MOL
REMARK 923 INTER-LIGAND FREE ENERGY PREDICTED BY IDOCK:   36.90 KCAL/MOL
REMARK 924 INTRA-LIGAND FREE ENERGY PREDICTED BY IDOCK:    0.31 KCAL/MOL
REMARK 927      BINDING AFFINITY PREDICTED BY RF-SCORE:    0.00 PKD
ROOT
HETATM    1  O   UNL     1      -8.273  16.182  70.733  1.00  0.00     2.471 OA 
HETATM    2  C   UNL     1      -7.760  15.905  71.937  1.00  0.00     7.042 C  
HETATM    3  C   UNL     2     -11.355  11.314  69.827  1.00  0.00    -0.271 C  
HETATM    4  N   UNL     2     -11.569  12.653  69.282  1.00  0.00    -0.303 NA 
HETATM    5  O   UNL     1      -8.122  16.482  72.951  1.00  0.00    15.756 OA 
HETATM    6  C   UNL     1      -6.814  14.775  72.043  1.00  0.00     1.991 C  
HETATM    7  C   UNL     1      -6.131  14.042  71.150  1.00  0.00    -0.083 C  
HETATM    8  O   UNL     1      -6.535  15.279  69.172  1.00  0.00    -0.110 OA 
HETATM    9  C   UNL     2     -12.675  13.307  69.989  1.00  0.00     0.157 C  
HETATM   10  O   UNL     1      -5.668  13.204  69.013  1.00  0.00    -0.072 OA 
HETATM   11  C   UNL     1      -6.119  14.262  69.703  1.00  0.00    -0.120 C  
ENDROOT
BRANCH   4  12
HETATM   12  C   UNL     2     -10.366  13.495  69.338  1.00  0.00     0.338 C  
BRANCH  12  13
HETATM   13  C   UNL     2     -10.627  14.984  69.047  1.00  0.00    -0.245 C  
HETATM   14  C   UNL     2      -9.564  15.660  68.154  1.00  0.00    -0.196 C  
HETATM   15  C   UNL     2      -9.703  17.184  68.140  1.00  0.00    -0.276 A  
HETATM   16  C   UNL     2      -9.512  15.044  66.756  1.00  0.00    -0.263 A  
HETATM   17  C   UNL     2     -10.882  17.824  67.755  1.00  0.00    -0.238 A  
HETATM   18  C   UNL     2     -10.634  15.001  65.909  1.00  0.00    -0.338 A  
HETATM   19  C   UNL     2     -10.564  14.386  64.659  1.00  0.00    -0.331 A  
HETATM   20  C   UNL     2     -10.930  19.215  67.727  1.00  0.00    -0.297 A  
HETATM   21  C   UNL     2      -9.375  13.794  64.245  1.00  0.00     2.652 A  
HETATM   22  C   UNL     2      -9.810  19.943  68.099  1.00  0.00    -0.524 A  
HETATM   23  C   UNL     2      -8.685  19.243  68.495  1.00  0.00    -0.367 A  
HETATM   24 CL   UNL     2      -9.300  13.008  62.716  1.00  0.00     4.233 Cl 
HETATM   25  C   UNL     2      -8.252  13.824  65.065  1.00  0.00     5.852 A  
HETATM   26  N   UNL     2      -8.610  17.893  68.529  1.00  0.00    -0.298 NA 
HETATM   27  C   UNL     2      -8.319  14.451  66.312  1.00  0.00     0.743 A  
ENDBRANCH  12  13
ENDBRANCH   4  12
TORSDOF 2
ENDMDL
MODEL      199
REMARK 921   NORMALIZED FREE ENERGY PREDICTED BY IDOCK:   37.82 KCAL/MOL
REMARK 922        TOTAL FREE ENERGY PREDICTED BY IDOCK:   41.56 KCAL/MOL
REMARK 923 INTER-LIGAND FREE ENERGY PREDICTED BY IDOCK:   27.96 KCAL/MOL
REMARK 924 INTRA-LIGAND FREE ENERGY PREDICTED BY IDOCK:   13.60 KCAL/MOL
REMARK 927      BINDING AFFINITY PREDICTED BY RF-SCORE:    0.00 PKD
ROOT
HETATM    1  O   UNL     1     -11.295  15.894  71.070  1.00  0.00    -0.359 OA 
HETATM    2  C   UNL     1     -11.658  16.219  69.823  1.00  0.00    -0.135 C  
HETATM    3  C   UNL     2      -8.216  11.063  69.976  1.00  0.00     1.146 C  
HETATM    4  N   UNL     2      -8.101  11.993  71.098  1.00  0.00     7.624 NA 
HETATM    5  O   UNL     1     -11.196  17.186  69.238  1.00  0.00     0.085 OA 
HETATM    6  C   UNL     1     -12.557  15.294  69.101  1.00  0.00     0.176 C  
HETATM    7  C   UNL     1     -13.320  14.254  69.472  1.00  0.00     1.758 C  
HETATM    8  O   UNL     1     -13.178  14.429  71.830  1.00  0.00    -0.321 OA 
HETATM    9  C   UNL     2      -6.938  12.864  70.902  1.00  0.00     2.851 C  
HETATM   10  O   UNL     1     -14.005  12.541  70.915  1.00  0.00     1.462 OA 
HETATM   11  C   UNL     1     -13.504  13.783  70.846  1.00  0.00     0.072 C  
ENDROOT
BRANCH   4  12
HETATM   12  C   UNL     2      -9.310  12.803  71.298  1.00  0.00    13.361 C  
BRANCH  12  13
HETATM   13  C   UNL     2      -9.991  13.251  69.992  1.00  0.00     2.248 C  
HETATM   14  C   UNL     2      -9.017  13.703  68.882  1.00  0.00     0.189 C  
HETATM   15  C   UNL     2      -9.737  14.409  67.732  1.00  0.00    -0.221 A  
HETATM   16  C   UNL     2      -8.106  12.566  68.418  1.00  0.00    -0.136 A  
HETATM   17  C   UNL     2     -10.768  13.804  67.011  1.00  0.00    -0.283 A  
HETATM   18  C   UNL     2      -8.610  11.358  67.903  1.00  0.00    -0.140 A  
HETATM   19  C   UNL     2      -7.751  10.321  67.537  1.00  0.00    -0.094 A  
HETATM   20  C   UNL     2     -11.356  14.487  65.949  1.00  0.00    -0.341 A  
HETATM   21  C   UNL     2      -6.377  10.475  67.693  1.00  0.00    -0.056 A  
HETATM   22  C   UNL     2     -10.919  15.765  65.637  1.00  0.00    -0.248 A  
HETATM   23  C   UNL     2      -9.913  16.313  66.409  1.00  0.00    -0.300 A  
HETATM   24 CL   UNL     2      -5.321   9.184  67.271  1.00  0.00    -0.037 Cl 
HETATM   25  C   UNL     2      -5.855  11.661  68.200  1.00  0.00    -0.046 A  
HETATM   26  N   UNL     2      -9.323  15.672  67.443  1.00  0.00    -0.208 NA 
HETATM   27  C   UNL     2      -6.715  12.703  68.556  1.00  0.00    -0.089 A  
ENDBRANCH  12  13
ENDBRANCH   4  12
TORSDOF 2
ENDMDL
MODEL      200
REMARK 921   NORMALIZED FREE ENERGY PREDICTED BY IDOCK:   38.71 KCAL/MOL
REMARK 922        TOTAL FREE ENERGY PREDICTED BY IDOCK:   42.55 KCAL/MOL
REMARK 923 INTER-LIGAND FREE ENERGY PREDICTED BY IDOCK:    9.85 KCAL/MOL
REMARK 924 INTRA-LIGAND FREE ENERGY PREDICTED BY IDOCK:   32.70 KCAL/MOL
REMARK 927      BINDING AFFINITY PREDICTED BY RF-SCORE:    0.00 PKD
ROOT
HETATM    1  O   UNL     1     -10.674  16.460  69.373  1.00  0.00    -0.284 OA 
HETATM    2  C   UNL     1     -10.566  17.177  70.498  1.00  0.00     0.910 C  
HETATM    3  C   UNL     2      -5.219  16.940  67.365  1.00  0.00    -0.136 C  
HETATM    4  N   UNL     2      -6.199  15.884  67.121  1.00  0.00    -0.323 NA 
HETATM    5  O   UNL     1     -10.591  16.663  71.606  1.00  0.00     1.392 OA 
HETATM    6  C   UNL     1     -10.282  18.622  70.373  1.00  0.00     1.644 C  
HETATM    7  C   UNL     1     -10.318  19.495  69.355  1.00  0.00     0.082 C  
HETATM    8  O   UNL     1     -11.363  18.179  67.687  1.00  0.00     0.089 OA 
HETATM    9  C   UNL     2      -5.874  14.707  67.932  1.00  0.00    -0.130 C  
HETATM   10  O   UNL     1     -10.362  20.111  67.095  1.00  0.00    -0.419 OA 
HETATM   11  C   UNL     1     -10.756  19.193  67.991  1.00  0.00    -0.223 C  
ENDROOT
BRANCH   4  12
HETATM   12  C   UNL     2      -7.581  16.311  67.384  1.00  0.00    -0.155 C  
BRANCH  12  13
HETATM   13  C   UNL     2      -8.080  15.984  68.803  1.00  0.00    -0.212 C  
HETATM   14  C   UNL     2      -9.410  15.200  68.852  1.00  0.00    -0.207 C  
HETATM   15  C   UNL     2     -10.008  15.161  70.259  1.00  0.00     0.154 A  
HETATM   16  C   UNL     2      -9.287  13.819  68.208  1.00  0.00    -0.209 A  
HETATM   17  C   UNL     2      -9.309  14.652  71.355  1.00  0.00     3.981 A  
HETATM   18  C   UNL     2      -8.356  12.862  68.650  1.00  0.00     0.032 A  
HETATM   19  C   UNL     2      -8.236  11.629  68.006  1.00  0.00    -0.146 A  
HETATM   20  C   UNL     2      -9.927  14.610  72.603  1.00  0.00     5.308 A  
HETATM   21  C   UNL     2      -9.036  11.344  66.904  1.00  0.00    -0.175 A  
HETATM   22  C   UNL     2     -11.220  15.090  72.740  1.00  0.00     0.273 A  
HETATM   23  C   UNL     2     -11.842  15.604  71.617  1.00  0.00    -0.429 A  
HETATM   24 CL   UNL     2      -8.864   9.837  66.093  1.00  0.00    -0.154 Cl 
HETATM   25  C   UNL     2      -9.964  12.275  66.449  1.00  0.00    -0.243 A  
HETATM   26  N   UNL     2     -11.268  15.655  70.394  1.00  0.00    -0.325 NA 
HETATM   27  C   UNL     2     -10.092  13.504  67.101  1.00  0.00    -0.245 A  
ENDBRANCH  12  13
ENDBRANCH   4  12
TORSDOF 2
ENDMDL
MODEL      201
REMARK 921   NORMALIZED FREE ENERGY PREDICTED BY IDOCK:   39.56 KCAL/MOL
REMARK 922        TOTAL FREE ENERGY PREDICTED BY IDOCK:   43.50 KCAL/MOL
REMARK 923 INTER-LIGAND FREE ENERGY PREDICTED BY IDOCK:   43.71 KCAL/MOL
REMARK 924 INTRA-LIGAND FREE ENERGY PREDICTED BY IDOCK:   -0.21 KCAL/MOL
REMARK 927      BINDING AFFINITY PREDICTED BY RF-SCORE:    0.00 PKD
ROOT
HETATM    1  O   UNL     1      -9.010  13.686  70.688  1.00  0.00     4.112 OA 
HETATM    2  C   UNL     1      -8.519  14.861  70.275  1.00  0.00     0.958 C  
HETATM    3  C   UNL     2      -6.239  10.107  67.010  1.00  0.00    -0.063 C  
HETATM    4  N   UNL     2      -6.764   9.828  68.344  1.00  0.00    -0.059 NA 
HETATM    5  O   UNL     1      -7.732  15.512  70.944  1.00  0.00     1.471 OA 
HETATM    6  C   UNL     1      -8.856  15.309  68.908  1.00  0.00    -0.209 C  
HETATM    7  C   UNL     1      -9.756  14.918  67.993  1.00  0.00    -0.212 C  
HETATM    8  O   UNL     1     -11.063  13.419  69.279  1.00  0.00    -0.235 OA 
HETATM    9  C   UNL     2      -5.665   9.798  69.315  1.00  0.00    -0.034 C  
HETATM   10  O   UNL     1     -11.292  13.431  67.035  1.00  0.00    -0.295 OA 
HETATM   11  C   UNL     1     -10.768  13.878  68.187  1.00  0.00    -0.250 C  
ENDROOT
BRANCH   4  12
HETATM   12  C   UNL     2      -7.788  10.791  68.772  1.00  0.00    -0.129 C  
BRANCH  12  13
HETATM   13  C   UNL     2      -9.006  10.873  67.833  1.00  0.00    -0.141 C  
HETATM   14  C   UNL     2      -9.950   9.652  67.898  1.00  0.00    -0.201 C  
HETATM   15  C   UNL     2     -10.963   9.643  66.752  1.00  0.00     0.148 A  
HETATM   16  C   UNL     2     -10.593   9.495  69.276  1.00  0.00    -0.236 A  
HETATM   17  C   UNL     2     -11.843  10.703  66.523  1.00  0.00     1.701 A  
HETATM   18  C   UNL     2     -11.369  10.509  69.865  1.00  0.00    -0.380 A  
HETATM   19  C   UNL     2     -11.899  10.353  71.147  1.00  0.00    -0.432 A  
HETATM   20  C   UNL     2     -12.768  10.614  65.486  1.00  0.00     6.762 A  
HETATM   21  C   UNL     2     -11.648   9.184  71.861  1.00  0.00    -0.360 A  
HETATM   22  C   UNL     2     -12.789   9.481  64.687  1.00  0.00    15.501 A  
HETATM   23  C   UNL     2     -11.872   8.482  64.955  1.00  0.00    13.197 A  
HETATM   24 CL   UNL     2     -12.275   9.006  73.453  1.00  0.00     1.765 Cl 
HETATM   25  C   UNL     2     -10.883   8.168  71.298  1.00  0.00    -0.278 A  
HETATM   26  N   UNL     2     -10.965   8.541  65.956  1.00  0.00     1.819 NA 
HETATM   27  C   UNL     2     -10.362   8.321  70.011  1.00  0.00    -0.212 A  
ENDBRANCH  12  13
ENDBRANCH   4  12
TORSDOF 2
ENDMDL
MODEL      202
REMARK 921   NORMALIZED FREE ENERGY PREDICTED BY IDOCK:   44.28 KCAL/MOL
REMARK 922        TOTAL FREE ENERGY PREDICTED BY IDOCK:   48.77 KCAL/MOL
REMARK 923 INTER-LIGAND FREE ENERGY PREDICTED BY IDOCK:   48.54 KCAL/MOL
REMARK 924 INTRA-LIGAND FREE ENERGY PREDICTED BY IDOCK:    0.23 KCAL/MOL
REMARK 927      BINDING AFFINITY PREDICTED BY RF-SCORE:    0.00 PKD
ROOT
HETATM    1  O   UNL     1     -11.075  12.425  67.896  1.00  0.00    -0.214 OA 
HETATM    2  C   UNL     1     -12.145  11.729  67.494  1.00  0.00     0.218 C  
HETATM    3  C   UNL     2     -13.230  17.835  67.563  1.00  0.00     8.022 C  
HETATM    4  N   UNL     2     -12.153  17.324  68.408  1.00  0.00     1.445 NA 
HETATM    5  O   UNL     1     -12.797  11.034  68.258  1.00  0.00     0.977 OA 
HETATM    6  C   UNL     1     -12.611  11.919  66.104  1.00  0.00     1.841 C  
HETATM    7  C   UNL     1     -12.079  12.483  65.010  1.00  0.00    -0.504 C  
HETATM    8  O   UNL     1      -9.861  12.860  65.749  1.00  0.00    -0.264 OA 
HETATM    9  C   UNL     2     -12.642  17.137  69.778  1.00  0.00     5.244 C  
HETATM   10  O   UNL     1     -10.575  13.860  63.858  1.00  0.00     0.060 OA 
HETATM   11  C   UNL     1     -10.733  13.051  64.916  1.00  0.00    -0.332 C  
ENDROOT
BRANCH   4  12
HETATM   12  C   UNL     2     -11.572  16.072  67.905  1.00  0.00    -0.054 C  
BRANCH  12  13
HETATM   13  C   UNL     2     -10.155  16.226  67.323  1.00  0.00    -0.264 C  
HETATM   14  C   UNL     2      -9.496  17.597  67.589  1.00  0.00    -0.258 C  
HETATM   15  C   UNL     2      -8.234  17.806  66.750  1.00  0.00    -0.250 A  
HETATM   16  C   UNL     2      -9.280  17.852  69.081  1.00  0.00     0.065 A  
HETATM   17  C   UNL     2      -7.150  16.927  66.799  1.00  0.00    -0.273 A  
HETATM   18  C   UNL     2      -8.519  16.989  69.890  1.00  0.00     1.484 A  
HETATM   19  C   UNL     2      -8.385  17.224  71.259  1.00  0.00     8.465 A  
HETATM   20  C   UNL     2      -6.014  17.196  66.039  1.00  0.00     0.204 A  
HETATM   21  C   UNL     2      -9.022  18.318  71.838  1.00  0.00    11.890 A  
HETATM   22  C   UNL     2      -5.986  18.324  65.233  1.00  0.00    -0.215 A  
HETATM   23  C   UNL     2      -7.105  19.135  65.213  1.00  0.00     0.066 A  
HETATM   24 CL   UNL     2      -8.881  18.587  73.531  1.00  0.00     8.637 Cl 
HETATM   25  C   UNL     2      -9.780  19.184  71.058  1.00  0.00     2.745 A  
HETATM   26  N   UNL     2      -8.219  18.900  65.942  1.00  0.00    -0.466 NA 
HETATM   27  C   UNL     2      -9.904  18.955  69.685  1.00  0.00     0.274 A  
ENDBRANCH  12  13
ENDBRANCH   4  12
TORSDOF 2
ENDMDL
MODEL      203
REMARK 921   NORMALIZED FREE ENERGY PREDICTED BY IDOCK:   46.15 KCAL/MOL
REMARK 922        TOTAL FREE ENERGY PREDICTED BY IDOCK:   50.86 KCAL/MOL
REMARK 923 INTER-LIGAND FREE ENERGY PREDICTED BY IDOCK:   43.74 KCAL/MOL
REMARK 924 INTRA-LIGAND FREE ENERGY PREDICTED BY IDOCK:    7.13 KCAL/MOL
REMARK 927      BINDING AFFINITY PREDICTED BY RF-SCORE:    0.00 PKD
ROOT
HETATM    1  O   UNL     1      -8.034  15.403  66.269  1.00  0.00     0.093 OA 
HETATM    2  C   UNL     1      -7.841  16.723  66.161  1.00  0.00    -0.209 C  
HETATM    3  C   UNL     2     -13.033  15.374  69.274  1.00  0.00     0.772 C  
HETATM    4  N   UNL     2     -12.499  14.360  68.368  1.00  0.00     0.042 NA 
HETATM    5  O   UNL     1      -7.961  17.316  65.100  1.00  0.00     0.977 OA 
HETATM    6  C   UNL     1      -7.599  17.491  67.400  1.00  0.00    -0.213 C  
HETATM    7  C   UNL     1      -7.293  17.154  68.662  1.00  0.00    -0.238 C  
HETATM    8  O   UNL     1      -6.840  14.844  68.399  1.00  0.00    -0.100 OA 
HETATM    9  C   UNL     2     -13.192  14.434  67.077  1.00  0.00     2.618 C  
HETATM   10  O   UNL     1      -7.113  15.682  70.476  1.00  0.00     0.418 OA 
HETATM   11  C   UNL     1      -7.039  15.794  69.141  1.00  0.00    -0.176 C  
ENDROOT
BRANCH   4  12
HETATM   12  C   UNL     2     -11.048  14.475  68.168  1.00  0.00    -0.266 C  
BRANCH  12  13
HETATM   13  C   UNL     2     -10.213  13.550  69.073  1.00  0.00     0.025 C  
HETATM   14  C   UNL     2      -9.695  12.271  68.380  1.00  0.00    -0.191 C  
HETATM   15  C   UNL     2      -9.136  11.257  69.379  1.00  0.00     0.432 A  
HETATM   16  C   UNL     2      -8.732  12.587  67.235  1.00  0.00    -0.193 A  
HETATM   17  C   UNL     2      -8.102  11.570  70.264  1.00  0.00     2.775 A  
HETATM   18  C   UNL     2      -7.551  13.326  67.427  1.00  0.00    -0.137 A  
HETATM   19  C   UNL     2      -6.720  13.640  66.350  1.00  0.00     3.228 A  
HETATM   20  C   UNL     2      -7.612  10.589  71.122  1.00  0.00     2.441 A  
HETATM   21  C   UNL     2      -7.067  13.229  65.067  1.00  0.00    10.664 A  
HETATM   22  C   UNL     2      -8.172   9.320  71.096  1.00  0.00    -0.051 A  
HETATM   23  C   UNL     2      -9.210   9.088  70.214  1.00  0.00    -0.202 A  
HETATM   24 CL   UNL     2      -6.058  13.645  63.737  1.00  0.00    18.326 Cl 
HETATM   25  C   UNL     2      -8.230  12.497  64.853  1.00  0.00     3.118 A  
HETATM   26  N   UNL     2      -9.703  10.021  69.368  1.00  0.00    -0.213 NA 
HETATM   27  C   UNL     2      -9.056  12.173  65.933  1.00  0.00    -0.001 A  
ENDBRANCH  12  13
ENDBRANCH   4  12
TORSDOF 2
ENDMDL
MODEL      204
REMARK 921   NORMALIZED FREE ENERGY PREDICTED BY IDOCK:   49.84 KCAL/MOL
REMARK 922        TOTAL FREE ENERGY PREDICTED BY IDOCK:   54.98 KCAL/MOL
REMARK 923 INTER-LIGAND FREE ENERGY PREDICTED BY IDOCK:   52.61 KCAL/MOL
REMARK 924 INTRA-LIGAND FREE ENERGY PREDICTED BY IDOCK:    2.37 KCAL/MOL
REMARK 927      BINDING AFFINITY PREDICTED BY RF-SCORE:    0.00 PKD
ROOT
HETATM    1  O   UNL     1      -8.170   8.906  65.200  1.00  0.00    -0.124 OA 
HETATM    2  C   UNL     1      -7.874   9.720  64.180  1.00  0.00    -0.134 C  
HETATM    3  C   UNL     2     -13.577  10.742  66.391  1.00  0.00    14.778 C  
HETATM    4  N   UNL     2     -12.975   9.434  66.637  1.00  0.00    12.681 NA 
HETATM    5  O   UNL     1      -7.781   9.319  63.029  1.00  0.00    -0.115 OA 
HETATM    6  C   UNL     1      -7.782  11.169  64.455  1.00  0.00     0.817 C  
HETATM    7  C   UNL     1      -7.706  11.903  65.575  1.00  0.00     1.398 C  
HETATM    8  O   UNL     1      -7.375  10.203  67.189  1.00  0.00    -0.089 OA 
HETATM    9  C   UNL     2     -13.445   8.474  65.633  1.00  0.00    23.404 C  
HETATM   10  O   UNL     1      -7.919  12.280  67.877  1.00  0.00    -0.130 OA 
HETATM   11  C   UNL     1      -7.625  11.371  66.936  1.00  0.00    -0.151 C  
ENDROOT
BRANCH   4  12
HETATM   12  C   UNL     2     -11.506   9.471  66.650  1.00  0.00     1.922 C  
BRANCH  12  13
HETATM   13  C   UNL     2     -10.915  10.767  67.233  1.00  0.00    -0.359 C  
HETATM   14  C   UNL     2     -11.142  10.952  68.749  1.00  0.00    -0.310 C  
HETATM   15  C   UNL     2     -10.805  12.369  69.217  1.00  0.00    -0.019 A  
HETATM   16  C   UNL     2     -10.450   9.863  69.571  1.00  0.00    -0.261 A  
HETATM   17  C   UNL     2      -9.548  12.943  69.020  1.00  0.00     0.377 A  
HETATM   18  C   UNL     2      -9.065   9.630  69.499  1.00  0.00    -0.209 A  
HETATM   19  C   UNL     2      -8.474   8.594  70.224  1.00  0.00    -0.133 A  
HETATM   20  C   UNL     2      -9.294  14.223  69.506  1.00  0.00     0.506 A  
HETATM   21  C   UNL     2      -9.264   7.770  71.020  1.00  0.00    -0.151 A  
HETATM   22  C   UNL     2     -10.301  14.914  70.162  1.00  0.00     0.040 A  
HETATM   23  C   UNL     2     -11.530  14.295  70.298  1.00  0.00    -0.164 A  
HETATM   24 CL   UNL     2      -8.538   6.474  71.888  1.00  0.00    -0.129 Cl 
HETATM   25  C   UNL     2     -10.636   7.981  71.107  1.00  0.00    -0.235 A  
HETATM   26  N   UNL     2     -11.802  13.053  69.839  1.00  0.00    -0.325 NA 
HETATM   27  C   UNL     2     -11.225   9.026  70.390  1.00  0.00    -0.275 A  
ENDBRANCH  12  13
ENDBRANCH   4  12
TORSDOF 2
ENDMDL
MODEL      205
REMARK 921   NORMALIZED FREE ENERGY PREDICTED BY IDOCK:   50.87 KCAL/MOL
REMARK 922        TOTAL FREE ENERGY PREDICTED BY IDOCK:   56.13 KCAL/MOL
REMARK 923 INTER-LIGAND FREE ENERGY PREDICTED BY IDOCK:   19.86 KCAL/MOL
REMARK 924 INTRA-LIGAND FREE ENERGY PREDICTED BY IDOCK:   36.27 KCAL/MOL
REMARK 927      BINDING AFFINITY PREDICTED BY RF-SCORE:    0.00 PKD
ROOT
HETATM    1  O   UNL     1     -11.224  10.709  71.546  1.00  0.00     0.487 OA 
HETATM    2  C   UNL     1     -11.318  10.840  70.217  1.00  0.00    -0.290 C  
HETATM    3  C   UNL     2      -5.457  11.298  72.193  1.00  0.00     0.619 C  
HETATM    4  N   UNL     2      -6.523  11.578  73.152  1.00  0.00     4.087 NA 
HETATM    5  O   UNL     1     -11.812  11.825  69.690  1.00  0.00    -0.300 OA 
HETATM    6  C   UNL     1     -10.685   9.804  69.374  1.00  0.00    -0.250 C  
HETATM    7  C   UNL     1     -10.193   8.579  69.612  1.00  0.00    -0.209 C  
HETATM    8  O   UNL     1     -10.926   8.240  71.838  1.00  0.00    -0.250 OA 
HETATM    9  C   UNL     2      -6.752  13.024  73.233  1.00  0.00     5.112 C  
HETATM   10  O   UNL     1      -9.373   6.855  70.969  1.00  0.00    -0.156 OA 
HETATM   11  C   UNL     1     -10.231   7.884  70.900  1.00  0.00    -0.198 C  
ENDROOT
BRANCH   4  12
HETATM   12  C   UNL     2      -7.779  10.886  72.833  1.00  0.00    11.143 C  
BRANCH  12  13
HETATM   13  C   UNL     2      -7.825   9.418  73.296  1.00  0.00     1.892 C  
HETATM   14  C   UNL     2      -8.685   8.491  72.410  1.00  0.00    -0.242 C  
HETATM   15  C   UNL     2      -8.938   7.133  73.068  1.00  0.00    -0.133 A  
HETATM   16  C   UNL     2      -8.134   8.381  70.988  1.00  0.00    -0.132 A  
HETATM   17  C   UNL     2      -7.899   6.295  73.476  1.00  0.00    -0.097 A  
HETATM   18  C   UNL     2      -6.829   7.932  70.718  1.00  0.00    -0.041 A  
HETATM   19  C   UNL     2      -6.341   7.893  69.411  1.00  0.00    -0.035 A  
HETATM   20  C   UNL     2      -8.197   5.053  74.033  1.00  0.00    -0.104 A  
HETATM   21  C   UNL     2      -7.148   8.315  68.359  1.00  0.00    -0.081 A  
HETATM   22  C   UNL     2      -9.523   4.678  74.188  1.00  0.00    -0.128 A  
HETATM   23  C   UNL     2     -10.500   5.569  73.786  1.00  0.00    -0.272 A  
HETATM   24 CL   UNL     2      -6.534   8.297  66.752  1.00  0.00    -0.055 Cl 
HETATM   25  C   UNL     2      -8.442   8.764  68.602  1.00  0.00    -0.129 A  
HETATM   26  N   UNL     2     -10.239   6.779  73.241  1.00  0.00    -0.222 NA 
HETATM   27  C   UNL     2      -8.934   8.792  69.909  1.00  0.00    -0.152 A  
ENDBRANCH  12  13
ENDBRANCH   4  12
TORSDOF 2
ENDMDL
MODEL      206
REMARK 921   NORMALIZED FREE ENERGY PREDICTED BY IDOCK:   52.68 KCAL/MOL
REMARK 922        TOTAL FREE ENERGY PREDICTED BY IDOCK:   58.15 KCAL/MOL
REMARK 923 INTER-LIGAND FREE ENERGY PREDICTED BY IDOCK:   26.88 KCAL/MOL
REMARK 924 INTRA-LIGAND FREE ENERGY PREDICTED BY IDOCK:   31.27 KCAL/MOL
REMARK 927      BINDING AFFINITY PREDICTED BY RF-SCORE:    0.00 PKD
ROOT
HETATM    1  O   UNL     1      -7.751  11.163  65.981  1.00  0.00    -0.111 OA 
HETATM    2  C   UNL     1      -7.523  11.910  67.068  1.00  0.00    -0.126 C  
HETATM    3  C   UNL     2     -13.538  10.564  66.392  1.00  0.00    16.321 C  
HETATM    4  N   UNL     2     -12.691  10.511  65.203  1.00  0.00     5.491 NA 
HETATM    5  O   UNL     1      -7.198  13.086  66.996  1.00  0.00    -0.020 OA 
HETATM    6  C   UNL     1      -7.797  11.310  68.390  1.00  0.00    -0.136 C  
HETATM    7  C   UNL     1      -8.030  10.060  68.818  1.00  0.00    -0.096 C  
HETATM    8  O   UNL     1      -7.525   8.828  66.859  1.00  0.00    -0.088 OA 
HETATM    9  C   UNL     2     -12.802  11.768  64.457  1.00  0.00     0.519 C  
HETATM   10  O   UNL     1      -8.608   7.806  68.552  1.00  0.00    -0.128 OA 
HETATM   11  C   UNL     1      -8.000   8.857  67.983  1.00  0.00    -0.102 C  
ENDROOT
BRANCH   4  12
HETATM   12  C   UNL     2     -11.282  10.232  65.514  1.00  0.00     1.138 C  
BRANCH  12  13
HETATM   13  C   UNL     2     -10.958   8.736  65.680  1.00  0.00     3.352 C  
HETATM   14  C   UNL     2      -9.858   8.428  66.718  1.00  0.00    -0.329 C  
HETATM   15  C   UNL     2      -9.369   6.981  66.633  1.00  0.00    -0.165 A  
HETATM   16  C   UNL     2     -10.267   8.846  68.131  1.00  0.00    -0.245 A  
HETATM   17  C   UNL     2     -10.232   5.891  66.764  1.00  0.00    -0.269 A  
HETATM   18  C   UNL     2     -11.423   8.348  68.759  1.00  0.00     0.936 A  
HETATM   19  C   UNL     2     -11.794   8.790  70.030  1.00  0.00     0.370 A  
HETATM   20  C   UNL     2      -9.716   4.599  66.715  1.00  0.00    -0.214 A  
HETATM   21  C   UNL     2     -11.021   9.746  70.683  1.00  0.00    -0.331 A  
HETATM   22  C   UNL     2      -8.356   4.415  66.520  1.00  0.00    -0.105 A  
HETATM   23  C   UNL     2      -7.565   5.539  66.371  1.00  0.00    -0.091 A  
HETATM   24 CL   UNL     2     -11.499  10.313  72.235  1.00  0.00     1.560 Cl 
HETATM   25  C   UNL     2      -9.874  10.253  70.081  1.00  0.00     0.011 A  
HETATM   26  N   UNL     2      -8.038   6.804  66.417  1.00  0.00    -0.106 NA 
HETATM   27  C   UNL     2      -9.496   9.801  68.814  1.00  0.00    -0.154 A  
ENDBRANCH  12  13
ENDBRANCH   4  12
TORSDOF 2
ENDMDL
MODEL      207
REMARK 921   NORMALIZED FREE ENERGY PREDICTED BY IDOCK:   55.09 KCAL/MOL
REMARK 922        TOTAL FREE ENERGY PREDICTED BY IDOCK:   60.85 KCAL/MOL
REMARK 923 INTER-LIGAND FREE ENERGY PREDICTED BY IDOCK:   61.71 KCAL/MOL
REMARK 924 INTRA-LIGAND FREE ENERGY PREDICTED BY IDOCK:   -0.86 KCAL/MOL
REMARK 927      BINDING AFFINITY PREDICTED BY RF-SCORE:    0.00 PKD
ROOT
HETATM    1  O   UNL     1      -8.570   6.233  67.942  1.00  0.00    -0.116 OA 
HETATM    2  C   UNL     1      -7.363   5.713  67.690  1.00  0.00    -0.077 C  
HETATM    3  C   UNL     2      -8.269   6.654  73.752  1.00  0.00    -0.106 C  
HETATM    4  N   UNL     2      -9.071   7.436  72.814  1.00  0.00    -0.136 NA 
HETATM    5  O   UNL     1      -6.475   6.353  67.148  1.00  0.00    -0.042 OA 
HETATM    6  C   UNL     1      -7.073   4.357  68.202  1.00  0.00    -0.060 C  
HETATM    7  C   UNL     1      -7.827   3.367  68.703  1.00  0.00    -0.056 C  
HETATM    8  O   UNL     1      -9.997   4.197  68.241  1.00  0.00    -0.063 OA 
HETATM    9  C   UNL     2      -8.459   8.753  72.615  1.00  0.00     0.176 C  
HETATM   10  O   UNL     1      -9.763   2.459  69.659  1.00  0.00    -0.035 OA 
HETATM   11  C   UNL     1      -9.287   3.384  68.813  1.00  0.00    -0.167 C  
ENDROOT
BRANCH   4  12
HETATM   12  C   UNL     2      -9.256   6.766  71.519  1.00  0.00    -0.149 C  
BRANCH  12  13
HETATM   13  C   UNL     2     -10.145   5.510  71.582  1.00  0.00    -0.249 C  
HETATM   14  C   UNL     2     -11.621   5.785  71.944  1.00  0.00    -0.184 C  
HETATM   15  C   UNL     2     -12.384   4.503  72.283  1.00  0.00     2.044 A  
HETATM   16  C   UNL     2     -12.321   6.644  70.890  1.00  0.00    -0.260 A  
HETATM   17  C   UNL     2     -12.478   3.432  71.393  1.00  0.00     9.665 A  
HETATM   18  C   UNL     2     -12.407   6.259  69.540  1.00  0.00     1.924 A  
HETATM   19  C   UNL     2     -13.008   7.092  68.595  1.00  0.00     7.512 A  
HETATM   20  C   UNL     2     -13.220   2.308  71.749  1.00  0.00     7.032 A  
HETATM   21  C   UNL     2     -13.519   8.326  68.986  1.00  0.00     9.447 A  
HETATM   22  C   UNL     2     -13.840   2.265  72.988  1.00  0.00     0.936 A  
HETATM   23  C   UNL     2     -13.682   3.351  73.829  1.00  0.00     4.428 A  
HETATM   24 CL   UNL     2     -14.230   9.364  67.814  1.00  0.00    17.865 Cl 
HETATM   25  C   UNL     2     -13.444   8.728  70.315  1.00  0.00     1.535 A  
HETATM   26  N   UNL     2     -12.969   4.455  73.509  1.00  0.00     1.087 NA 
HETATM   27  C   UNL     2     -12.853   7.889  71.264  1.00  0.00    -0.244 A  
ENDBRANCH  12  13
ENDBRANCH   4  12
TORSDOF 2
ENDMDL
MODEL      208
REMARK 921   NORMALIZED FREE ENERGY PREDICTED BY IDOCK:   56.68 KCAL/MOL
REMARK 922        TOTAL FREE ENERGY PREDICTED BY IDOCK:   62.62 KCAL/MOL
REMARK 923 INTER-LIGAND FREE ENERGY PREDICTED BY IDOCK:    3.80 KCAL/MOL
REMARK 924 INTRA-LIGAND FREE ENERGY PREDICTED BY IDOCK:   58.81 KCAL/MOL
REMARK 927      BINDING AFFINITY PREDICTED BY RF-SCORE:    0.00 PKD
ROOT
HETATM    1  O   UNL     1     -11.093   8.633  66.802  1.00  0.00     0.186 OA 
HETATM    2  C   UNL     1     -11.681   7.463  67.082  1.00  0.00     1.924 C  
HETATM    3  C   UNL     2      -5.919   6.714  64.914  1.00  0.00    -0.035 C  
HETATM    4  N   UNL     2      -6.613   7.958  64.588  1.00  0.00    -0.052 NA 
HETATM    5  O   UNL     1     -12.597   7.014  66.410  1.00  0.00     5.247 OA 
HETATM    6  C   UNL     1     -11.106   6.643  68.169  1.00  0.00    -0.287 C  
HETATM    7  C   UNL     1     -10.222   6.879  69.149  1.00  0.00    -0.196 C  
HETATM    8  O   UNL     1      -9.993   9.230  68.971  1.00  0.00    -0.171 OA 
HETATM    9  C   UNL     2      -7.218   7.855  63.256  1.00  0.00    -0.091 C  
HETATM   10  O   UNL     1      -8.506   8.071  70.209  1.00  0.00    -0.123 OA 
HETATM   11  C   UNL     1      -9.598   8.172  69.437  1.00  0.00    -0.167 C  
ENDROOT
BRANCH   4  12
HETATM   12  C   UNL     2      -7.635   8.322  65.579  1.00  0.00    -0.087 C  
BRANCH  12  13
HETATM   13  C   UNL     2      -7.969   9.825  65.616  1.00  0.00    -0.117 C  
HETATM   14  C   UNL     2      -9.118  10.204  66.575  1.00  0.00    -0.166 C  
HETATM   15  C   UNL     2      -9.604  11.638  66.358  1.00  0.00    -0.217 A  
HETATM   16  C   UNL     2      -8.775   9.896  68.033  1.00  0.00    -0.125 A  
HETATM   17  C   UNL     2      -8.750  12.739  66.447  1.00  0.00     0.111 A  
HETATM   18  C   UNL     2      -7.651  10.445  68.675  1.00  0.00    -0.092 A  
HETATM   19  C   UNL     2      -7.339  10.102  69.992  1.00  0.00    -0.172 A  
HETATM   20  C   UNL     2      -9.264  14.022  66.277  1.00  0.00    -0.130 A  
HETATM   21  C   UNL     2      -8.141   9.195  70.678  1.00  0.00    -0.172 A  
HETATM   22  C   UNL     2     -10.614  14.184  66.004  1.00  0.00    -0.297 A  
HETATM   23  C   UNL     2     -11.395  13.048  65.903  1.00  0.00    -0.313 A  
HETATM   24 CL   UNL     2      -7.737   8.749  72.289  1.00  0.00    -0.040 Cl 
HETATM   25  C   UNL     2      -9.258   8.638  70.063  1.00  0.00    -0.160 A  
HETATM   26  N   UNL     2     -10.923  11.791  66.067  1.00  0.00    -0.301 NA 
HETATM   27  C   UNL     2      -9.576   8.991  68.749  1.00  0.00    -0.155 A  
ENDBRANCH  12  13
ENDBRANCH   4  12
TORSDOF 2
ENDMDL
MODEL      209
REMARK 921   NORMALIZED FREE ENERGY PREDICTED BY IDOCK:   72.25 KCAL/MOL
REMARK 922        TOTAL FREE ENERGY PREDICTED BY IDOCK:   80.01 KCAL/MOL
REMARK 923 INTER-LIGAND FREE ENERGY PREDICTED BY IDOCK:   42.00 KCAL/MOL
REMARK 924 INTRA-LIGAND FREE ENERGY PREDICTED BY IDOCK:   38.01 KCAL/MOL
REMARK 927      BINDING AFFINITY PREDICTED BY RF-SCORE:    0.00 PKD
ROOT
HETATM    1  O   UNL     1      -9.284  12.418  69.147  1.00  0.00     0.346 OA 
HETATM    2  C   UNL     1     -10.575  12.673  69.386  1.00  0.00     0.285 C  
HETATM    3  C   UNL     2      -8.422  15.911  64.555  1.00  0.00     7.774 C  
HETATM    4  N   UNL     2      -7.454  15.428  65.538  1.00  0.00     3.939 NA 
HETATM    5  O   UNL     1     -10.948  13.303  70.364  1.00  0.00     0.645 OA 
HETATM    6  C   UNL     1     -11.560  12.277  68.358  1.00  0.00    -0.377 C  
HETATM    7  C   UNL     1     -11.512  11.489  67.273  1.00  0.00    -0.338 C  
HETATM    8  O   UNL     1      -9.386  10.485  67.559  1.00  0.00    -0.148 OA 
HETATM    9  C   UNL     2      -7.147  16.494  66.497  1.00  0.00    -0.112 C  
HETATM   10  O   UNL     1     -10.433  10.298  65.570  1.00  0.00    -0.206 OA 
HETATM   11  C   UNL     1     -10.354  10.701  66.847  1.00  0.00    -0.236 C  
ENDROOT
BRANCH   4  12
HETATM   12  C   UNL     2      -7.909  14.226  66.250  1.00  0.00     1.764 C  
BRANCH  12  13
HETATM   13  C   UNL     2      -9.287  14.376  66.921  1.00  0.00    -0.269 C  
HETATM   14  C   UNL     2     -10.482  14.368  65.943  1.00  0.00    -0.317 C  
HETATM   15  C   UNL     2     -11.783  14.813  66.614  1.00  0.00    -0.283 A  
HETATM   16  C   UNL     2     -10.609  13.037  65.201  1.00  0.00    -0.327 A  
HETATM   17  C   UNL     2     -12.300  14.171  67.741  1.00  0.00    -0.050 A  
HETATM   18  C   UNL     2     -10.760  11.811  65.872  1.00  0.00    -0.328 A  
HETATM   19  C   UNL     2     -10.821  10.609  65.165  1.00  0.00     0.040 A  
HETATM   20  C   UNL     2     -13.510  14.601  68.280  1.00  0.00     4.753 A  
HETATM   21  C   UNL     2     -10.718  10.619  63.777  1.00  0.00     0.314 A  
HETATM   22  C   UNL     2     -14.172  15.672  67.700  1.00  0.00    10.864 A  
HETATM   23  C   UNL     2     -13.588  16.277  66.602  1.00  0.00     7.444 A  
HETATM   24 CL   UNL     2     -10.762   9.134  62.909  1.00  0.00     5.535 Cl 
HETATM   25  C   UNL     2     -10.568  11.819  63.091  1.00  0.00    -0.341 A  
HETATM   26  N   UNL     2     -12.417  15.878  66.056  1.00  0.00     1.737 NA 
HETATM   27  C   UNL     2     -10.519  13.023  63.799  1.00  0.00    -0.104 A  
ENDBRANCH  12  13
ENDBRANCH   4  12
TORSDOF 2
ENDMDL
MODEL      210
REMARK 921   NORMALIZED FREE ENERGY PREDICTED BY IDOCK:   83.12 KCAL/MOL
REMARK 922        TOTAL FREE ENERGY PREDICTED BY IDOCK:   92.16 KCAL/MOL
REMARK 923 INTER-LIGAND FREE ENERGY PREDICTED BY IDOCK:   28.03 KCAL/MOL
REMARK 924 INTRA-LIGAND FREE ENERGY PREDICTED BY IDOCK:   64.13 KCAL/MOL
REMARK 927      BINDING AFFINITY PREDICTED BY RF-SCORE:    0.00 PKD
ROOT
HETATM    1  O   UNL     1      -9.170  13.833  70.520  1.00  0.00     3.215 OA 
HETATM    2  C   UNL     1      -8.684  14.976  71.019  1.00  0.00     2.858 C  
HETATM    3  C   UNL     2      -6.704  13.932  65.235  1.00  0.00    12.234 C  
HETATM    4  N   UNL     2      -7.150  12.783  66.021  1.00  0.00     2.008 NA 
HETATM    5  O   UNL     1      -7.844  14.998  71.905  1.00  0.00     3.261 OA 
HETATM    6  C   UNL     1      -9.098  16.242  70.378  1.00  0.00     1.888 C  
HETATM    7  C   UNL     1     -10.061  16.575  69.505  1.00  0.00    -0.165 C  
HETATM    8  O   UNL     1     -11.312  14.565  69.449  1.00  0.00    -0.254 OA 
HETATM    9  C   UNL     2      -5.993  12.117  66.627  1.00  0.00     0.313 C  
HETATM   10  O   UNL     1     -11.681  16.135  67.872  1.00  0.00    -0.099 OA 
HETATM   11  C   UNL     1     -11.078  15.666  68.975  1.00  0.00    -0.279 C  
ENDROOT
BRANCH   4  12
HETATM   12  C   UNL     2      -8.126  13.141  67.059  1.00  0.00    -0.019 C  
BRANCH  12  13
HETATM   13  C   UNL     2      -8.266  14.656  67.295  1.00  0.00    -0.235 C  
HETATM   14  C   UNL     2      -9.638  15.244  66.899  1.00  0.00    -0.245 C  
HETATM   15  C   UNL     2      -9.627  16.773  66.871  1.00  0.00    -0.245 A  
HETATM   16  C   UNL     2     -10.776  14.663  67.739  1.00  0.00    -0.265 A  
HETATM   17  C   UNL     2      -9.271  17.539  67.982  1.00  0.00    -0.275 A  
HETATM   18  C   UNL     2     -10.801  14.756  69.141  1.00  0.00    -0.267 A  
HETATM   19  C   UNL     2     -11.829  14.169  69.880  1.00  0.00    -0.387 A  
HETATM   20  C   UNL     2      -9.319  18.929  67.902  1.00  0.00    -0.338 A  
HETATM   21  C   UNL     2     -12.839  13.471  69.225  1.00  0.00     0.947 A  
HETATM   22  C   UNL     2      -9.704  19.529  66.713  1.00  0.00    -0.464 A  
HETATM   23  C   UNL     2     -10.017  18.709  65.645  1.00  0.00     0.293 A  
HETATM   24 CL   UNL     2     -14.089  12.721  70.139  1.00  0.00     4.042 Cl 
HETATM   25  C   UNL     2     -12.836  13.365  67.838  1.00  0.00     1.521 A  
HETATM   26  N   UNL     2      -9.981  17.359  65.696  1.00  0.00    -0.569 NA 
HETATM   27  C   UNL     2     -11.812  13.963  67.098  1.00  0.00    -0.445 A  
ENDBRANCH  12  13
ENDBRANCH   4  12
TORSDOF 2
ENDMDL
